MODEL 1
REMARK minimizedAffinity -8.4161396
REMARK CNNscore 0.543325782
REMARK CNNaffinity 7.22081995
REMARK  7 active torsions:
REMARK  status: ('A' for Active; 'I' for Inactive)
REMARK    1  A    between atoms: C2_2  and  O2_4 
REMARK    2  A    between atoms: O2_4  and  C3_5 
REMARK    3  A    between atoms: C3_5  and  C4_6 
REMARK    4  A    between atoms: C3_5  and  C9_12 
REMARK    5  A    between atoms: C5_7  and  C6_8 
REMARK    6  A    between atoms: C6_8  and  O3_11 
REMARK    7  A    between atoms: C9_12  and  C11_14 
ROOT
HETATM    1  C11 UNL     1      -2.245   5.651  12.685  1.00  0.00     0.001 C 
HETATM    2  C12 UNL     1      -3.135   5.008  13.792  1.00  0.00     0.007 C 
HETATM    3  C13 UNL     1      -3.472   6.098  14.826  1.00  0.00     0.015 C 
HETATM    4  C14 UNL     1      -3.107   7.419  14.134  1.00  0.00    -0.013 C 
HETATM    5  C15 UNL     1      -4.314   7.805  13.223  1.00  0.00     0.021 C 
HETATM    6  C16 UNL     1      -2.849   8.656  14.991  1.00  0.00    -0.068 C 
HETATM    7  C17 UNL     1      -2.014   9.631  14.544  1.00  0.00    -0.068 C 
HETATM    8  C18 UNL     1      -1.238   9.469  13.227  1.00  0.00     0.036 C 
HETATM    9  C19 UNL     1      -1.425   8.153  12.443  1.00  0.00     0.015 C 
HETATM   10  C20 UNL     1      -1.796   6.988  13.370  1.00  0.00    -0.029 C 
HETATM   11  C21 UNL     1      -0.598   6.702  14.332  1.00  0.00     0.016 C 
HETATM   12  C22 UNL     1      -1.772  10.945  15.339  1.00  0.00    -0.015 C 
HETATM   13  C23 UNL     1      -0.358  10.841  15.962  1.00  0.00     0.020 C 
HETATM   14  C24 UNL     1      -1.818  12.174  14.381  1.00  0.00     0.021 C 
HETATM   15  C25 UNL     1      -2.160  13.512  15.030  1.00  0.00     0.080 C 
HETATM   16  C26 UNL     1      -1.977  13.518  16.527  1.00  0.00     0.135 C 
HETATM   17  O4  UNL     1      -1.334  14.414  17.073  1.00  0.00    -0.297 OA
HETATM   18  C27 UNL     1      -2.705  12.428  17.321  1.00  0.00     0.018 C 
HETATM   19  C28 UNL     1      -1.943  12.158  18.635  1.00  0.00     0.023 C 
HETATM   20  C29 UNL     1      -4.086  13.006  17.703  1.00  0.00     0.023 C 
HETATM   21  C30 UNL     1      -2.896  11.162  16.418  1.00  0.00     0.013 C 
HETATM   22  C31 UNL     1      -3.148   9.875  17.211  1.00  0.00     0.011 C 
HETATM   23  C32 UNL     1      -3.609   8.750  16.290  1.00  0.00     0.036 C 
ENDROOT
BRANCH   1  24
HETATM   24  C9  UNL     1      -1.161   4.670  12.125  1.00  0.00     0.020 C 
HETATM   25  C10 UNL     1      -0.383   5.296  10.953  1.00  0.00     0.013 C 
BRANCH  24  26
HETATM   26  C3  UNL     1      -1.713   3.291  11.626  1.00  0.00     0.158 C 
BRANCH  26  27
HETATM   27  O2  UNL     1      -0.863   2.774  10.581  1.00  0.00    -0.312 OA
BRANCH  27  28
HETATM   28  C2  UNL     1      -0.954   1.442  10.319  1.00  0.00     0.255 C 
HETATM   29  C1  UNL     1      -1.438   0.713  11.535  1.00  0.00     0.126 C 
HETATM   30  O1  UNL     1      -0.718   0.902   9.248  1.00  0.00    -0.266 OA
ENDBRANCH  27  28
ENDBRANCH  26  27
BRANCH  26  31
HETATM   31  C4  UNL     1      -3.111   3.324  11.059  1.00  0.00     0.005 C 
HETATM   32  C5  UNL     1      -4.150   2.653  11.589  1.00  0.00     0.008 C 
BRANCH  32  33
HETATM   33  C6  UNL     1      -5.576   2.620  11.088  1.00  0.00     0.068 C 
HETATM   34  C7  UNL     1      -6.421   3.634  11.863  1.00  0.00     0.050 C 
HETATM   35  C8  UNL     1      -6.257   1.247  11.118  1.00  0.00     0.050 C 
BRANCH  33  36
HETATM   36  O3  UNL     1      -5.533   3.056   9.728  1.00  0.00    -0.387 OA
HETATM   37  H13 UNL     1      -4.940   2.445   9.256  1.00  0.00     0.211 HD
ENDBRANCH  33  36
ENDBRANCH  32  33
ENDBRANCH  26  31
ENDBRANCH  24  26
ENDBRANCH   1  24
TORSDOF 7
ENDMDL
MODEL 2
REMARK minimizedAffinity -8.31699848
REMARK CNNscore 0.418363452
REMARK CNNaffinity 7.02491999
REMARK  7 active torsions:
REMARK  status: ('A' for Active; 'I' for Inactive)
REMARK    1  A    between atoms: C2_2  and  O2_4 
REMARK    2  A    between atoms: O2_4  and  C3_5 
REMARK    3  A    between atoms: C3_5  and  C4_6 
REMARK    4  A    between atoms: C3_5  and  C9_12 
REMARK    5  A    between atoms: C5_7  and  C6_8 
REMARK    6  A    between atoms: C6_8  and  O3_11 
REMARK    7  A    between atoms: C9_12  and  C11_14 
ROOT
HETATM    1  C11 UNL     1      -3.124   8.292  15.389  1.00  0.00     0.001 C 
HETATM    2  C12 UNL     1      -2.040   8.578  16.472  1.00  0.00     0.007 C 
HETATM    3  C13 UNL     1      -0.662   8.555  15.786  1.00  0.00     0.015 C 
HETATM    4  C14 UNL     1      -0.972   8.635  14.284  1.00  0.00    -0.013 C 
HETATM    5  C15 UNL     1      -1.200  10.142  13.945  1.00  0.00     0.021 C 
HETATM    6  C16 UNL     1       0.080   8.161  13.284  1.00  0.00    -0.068 C 
HETATM    7  C17 UNL     1      -0.301   7.682  12.071  1.00  0.00    -0.068 C 
HETATM    8  C18 UNL     1      -1.787   7.510  11.716  1.00  0.00     0.036 C 
HETATM    9  C19 UNL     1      -2.827   7.882  12.793  1.00  0.00     0.015 C 
HETATM   10  C20 UNL     1      -2.259   7.726  14.210  1.00  0.00    -0.029 C 
HETATM   11  C21 UNL     1      -1.951   6.216  14.471  1.00  0.00     0.016 C 
HETATM   12  C22 UNL     1       0.729   7.255  10.987  1.00  0.00    -0.015 C 
HETATM   13  C23 UNL     1       0.721   5.706  10.942  1.00  0.00     0.020 C 
HETATM   14  C24 UNL     1       0.307   7.807   9.593  1.00  0.00     0.021 C 
HETATM   15  C25 UNL     1       1.431   7.972   8.573  1.00  0.00     0.080 C 
HETATM   16  C26 UNL     1       2.672   7.187   8.915  1.00  0.00     0.135 C 
HETATM   17  O4  UNL     1       3.202   6.461   8.074  1.00  0.00    -0.297 OA
HETATM   18  C27 UNL     1       3.280   7.414  10.303  1.00  0.00     0.018 C 
HETATM   19  C28 UNL     1       4.059   6.154  10.734  1.00  0.00     0.023 C 
HETATM   20  C29 UNL     1       4.306   8.560  10.155  1.00  0.00     0.023 C 
HETATM   21  C30 UNL     1       2.152   7.845  11.304  1.00  0.00     0.013 C 
HETATM   22  C31 UNL     1       2.520   7.624  12.775  1.00  0.00     0.011 C 
HETATM   23  C32 UNL     1       1.523   8.319  13.696  1.00  0.00     0.036 C 
ENDROOT
BRANCH   1  24
HETATM   24  C9  UNL     1      -4.327   7.452  15.935  1.00  0.00     0.020 C 
HETATM   25  C10 UNL     1      -4.016   5.944  15.924  1.00  0.00     0.013 C 
BRANCH  24  26
HETATM   26  C3  UNL     1      -5.675   7.648  15.161  1.00  0.00     0.158 C 
BRANCH  26  27
HETATM   27  O2  UNL     1      -6.781   7.613  16.087  1.00  0.00    -0.312 OA
BRANCH  27  28
HETATM   28  C2  UNL     1      -7.915   8.265  15.715  1.00  0.00     0.255 C 
HETATM   29  C1  UNL     1      -9.116   7.551  16.257  1.00  0.00     0.126 C 
HETATM   30  O1  UNL     1      -7.970   9.301  15.069  1.00  0.00    -0.266 OA
ENDBRANCH  27  28
ENDBRANCH  26  27
BRANCH  26  31
HETATM   31  C4  UNL     1      -5.970   6.610  14.108  1.00  0.00     0.005 C 
HETATM   32  C5  UNL     1      -6.811   5.575  14.290  1.00  0.00     0.008 C 
BRANCH  32  33
HETATM   33  C6  UNL     1      -7.160   4.487  13.301  1.00  0.00     0.068 C 
HETATM   34  C7  UNL     1      -5.879   3.910  12.692  1.00  0.00     0.050 C 
HETATM   35  C8  UNL     1      -8.129   4.891  12.184  1.00  0.00     0.050 C 
BRANCH  33  36
HETATM   36  O3  UNL     1      -7.777   3.442  14.058  1.00  0.00    -0.387 OA
HETATM   37  H13 UNL     1      -8.553   3.834  14.496  1.00  0.00     0.211 HD
ENDBRANCH  33  36
ENDBRANCH  32  33
ENDBRANCH  26  31
ENDBRANCH  24  26
ENDBRANCH   1  24
TORSDOF 7
ENDMDL
MODEL 3
REMARK minimizedAffinity -8.08210278
REMARK CNNscore 0.341403484
REMARK CNNaffinity 6.90126181
REMARK  7 active torsions:
REMARK  status: ('A' for Active; 'I' for Inactive)
REMARK    1  A    between atoms: C2_2  and  O2_4 
REMARK    2  A    between atoms: O2_4  and  C3_5 
REMARK    3  A    between atoms: C3_5  and  C4_6 
REMARK    4  A    between atoms: C3_5  and  C9_12 
REMARK    5  A    between atoms: C5_7  and  C6_8 
REMARK    6  A    between atoms: C6_8  and  O3_11 
REMARK    7  A    between atoms: C9_12  and  C11_14 
ROOT
HETATM    1  C11 UNL     1      -2.474   6.951  13.074  1.00  0.00     0.001 C 
HETATM    2  C12 UNL     1      -2.972   8.420  13.227  1.00  0.00     0.007 C 
HETATM    3  C13 UNL     1      -1.738   9.328  13.383  1.00  0.00     0.015 C 
HETATM    4  C14 UNL     1      -0.553   8.455  12.947  1.00  0.00    -0.013 C 
HETATM    5  C15 UNL     1      -0.492   8.513  11.389  1.00  0.00     0.021 C 
HETATM    6  C16 UNL     1       0.853   8.830  13.411  1.00  0.00    -0.068 C 
HETATM    7  C17 UNL     1       1.801   7.867  13.555  1.00  0.00    -0.068 C 
HETATM    8  C18 UNL     1       1.461   6.381  13.358  1.00  0.00     0.036 C 
HETATM    9  C19 UNL     1       0.001   6.022  13.010  1.00  0.00     0.015 C 
HETATM   10  C20 UNL     1      -0.985   7.064  13.553  1.00  0.00    -0.029 C 
HETATM   11  C21 UNL     1      -0.940   7.042  15.116  1.00  0.00     0.016 C 
HETATM   12  C22 UNL     1       3.268   8.199  13.952  1.00  0.00    -0.015 C 
HETATM   13  C23 UNL     1       3.445   7.765  15.428  1.00  0.00     0.020 C 
HETATM   14  C24 UNL     1       4.264   7.398  13.062  1.00  0.00     0.021 C 
HETATM   15  C25 UNL     1       5.661   7.996  12.921  1.00  0.00     0.080 C 
HETATM   16  C26 UNL     1       5.990   9.011  13.988  1.00  0.00     0.135 C 
HETATM   17  O4  UNL     1       7.042   8.931  14.621  1.00  0.00    -0.297 OA
HETATM   18  C27 UNL     1       5.012  10.177  14.164  1.00  0.00     0.018 C 
HETATM   19  C28 UNL     1       5.097  10.702  15.613  1.00  0.00     0.023 C 
HETATM   20  C29 UNL     1       5.503  11.311  13.236  1.00  0.00     0.023 C 
HETATM   21  C30 UNL     1       3.575   9.726  13.728  1.00  0.00     0.013 C 
HETATM   22  C31 UNL     1       2.457  10.600  14.304  1.00  0.00     0.011 C 
HETATM   23  C32 UNL     1       1.126  10.298  13.624  1.00  0.00     0.036 C 
ENDROOT
BRANCH   1  24
HETATM   24  C9  UNL     1      -3.426   5.909  13.753  1.00  0.00     0.020 C 
HETATM   25  C10 UNL     1      -2.971   5.577  15.186  1.00  0.00     0.013 C 
BRANCH  24  26
HETATM   26  C3  UNL     1      -3.568   4.549  12.988  1.00  0.00     0.158 C 
BRANCH  26  27
HETATM   27  O2  UNL     1      -3.065   4.689  11.643  1.00  0.00    -0.312 OA
BRANCH  27  28
HETATM   28  C2  UNL     1      -2.208   3.729  11.204  1.00  0.00     0.255 C 
HETATM   29  C1  UNL     1      -2.712   2.374  11.598  1.00  0.00     0.126 C 
HETATM   30  O1  UNL     1      -1.191   3.916  10.551  1.00  0.00    -0.266 OA
ENDBRANCH  27  28
ENDBRANCH  26  27
BRANCH  26  31
HETATM   31  C4  UNL     1      -4.976   4.025  12.863  1.00  0.00     0.005 C 
HETATM   32  C5  UNL     1      -6.058   4.656  13.356  1.00  0.00     0.008 C 
BRANCH  32  33
HETATM   33  C6  UNL     1      -7.499   4.205  13.286  1.00  0.00     0.068 C 
HETATM   34  C7  UNL     1      -7.561   2.728  12.885  1.00  0.00     0.050 C 
HETATM   35  C8  UNL     1      -8.408   5.030  12.368  1.00  0.00     0.050 C 
BRANCH  33  36
HETATM   36  O3  UNL     1      -8.014   4.306  14.615  1.00  0.00    -0.387 OA
HETATM   37  H13 UNL     1      -7.909   5.235  14.887  1.00  0.00     0.211 HD
ENDBRANCH  33  36
ENDBRANCH  32  33
ENDBRANCH  26  31
ENDBRANCH  24  26
ENDBRANCH   1  24
TORSDOF 7
ENDMDL
MODEL 4
REMARK minimizedAffinity -7.90197802
REMARK CNNscore 0.286792576
REMARK CNNaffinity 6.59633303
REMARK  7 active torsions:
REMARK  status: ('A' for Active; 'I' for Inactive)
REMARK    1  A    between atoms: C2_2  and  O2_4 
REMARK    2  A    between atoms: O2_4  and  C3_5 
REMARK    3  A    between atoms: C3_5  and  C4_6 
REMARK    4  A    between atoms: C3_5  and  C9_12 
REMARK    5  A    between atoms: C5_7  and  C6_8 
REMARK    6  A    between atoms: C6_8  and  O3_11 
REMARK    7  A    between atoms: C9_12  and  C11_14 
ROOT
HETATM    1  C11 UNL     1      -1.151   6.507  13.520  1.00  0.00     0.001 C 
HETATM    2  C12 UNL     1      -2.211   5.755  14.380  1.00  0.00     0.007 C 
HETATM    3  C13 UNL     1      -3.022   6.805  15.161  1.00  0.00     0.015 C 
HETATM    4  C14 UNL     1      -2.693   8.140  14.478  1.00  0.00    -0.013 C 
HETATM    5  C15 UNL     1      -3.616   8.251  13.224  1.00  0.00     0.021 C 
HETATM    6  C16 UNL     1      -2.917   9.440  15.248  1.00  0.00    -0.068 C 
HETATM    7  C17 UNL     1      -2.162  10.535  14.968  1.00  0.00    -0.068 C 
HETATM    8  C18 UNL     1      -1.009  10.466  13.953  1.00  0.00     0.036 C 
HETATM    9  C19 UNL     1      -0.727   9.106  13.281  1.00  0.00     0.015 C 
HETATM   10  C20 UNL     1      -1.160   7.933  14.171  1.00  0.00    -0.029 C 
HETATM   11  C21 UNL     1      -0.278   7.920  15.461  1.00  0.00     0.016 C 
HETATM   12  C22 UNL     1      -2.395  11.904  15.666  1.00  0.00    -0.015 C 
HETATM   13  C23 UNL     1      -1.238  12.096  16.679  1.00  0.00     0.020 C 
HETATM   14  C24 UNL     1      -2.355  13.059  14.622  1.00  0.00     0.021 C 
HETATM   15  C25 UNL     1      -3.096  14.335  15.010  1.00  0.00     0.080 C 
HETATM   16  C26 UNL     1      -3.377  14.441  16.488  1.00  0.00     0.135 C 
HETATM   17  O4  UNL     1      -3.088  15.465  17.106  1.00  0.00    -0.297 OA
HETATM   18  C27 UNL     1      -4.117  13.268  17.141  1.00  0.00     0.018 C 
HETATM   19  C28 UNL     1      -3.752  13.204  18.639  1.00  0.00     0.023 C 
HETATM   20  C29 UNL     1      -5.625  13.590  17.050  1.00  0.00     0.023 C 
HETATM   21  C30 UNL     1      -3.812  11.950  16.349  1.00  0.00     0.013 C 
HETATM   22  C31 UNL     1      -4.071  10.675  17.157  1.00  0.00     0.011 C 
HETATM   23  C32 UNL     1      -4.038   9.444  16.257  1.00  0.00     0.036 C 
ENDROOT
BRANCH   1  24
HETATM   24  C9  UNL     1       0.200   5.725  13.395  1.00  0.00     0.020 C 
HETATM   25  C10 UNL     1       1.387   6.560  13.911  1.00  0.00     0.013 C 
BRANCH  24  26
HETATM   26  C3  UNL     1       0.562   5.260  11.942  1.00  0.00     0.158 C 
BRANCH  26  27
HETATM   27  O2  UNL     1       0.945   6.401  11.146  1.00  0.00    -0.312 OA
BRANCH  27  28
HETATM   28  C2  UNL     1       1.671   6.150  10.023  1.00  0.00     0.255 C 
HETATM   29  C1  UNL     1       1.526   7.285   9.056  1.00  0.00     0.126 C 
HETATM   30  O1  UNL     1       2.376   5.171   9.826  1.00  0.00    -0.266 OA
ENDBRANCH  27  28
ENDBRANCH  26  27
BRANCH  26  31
HETATM   31  C4  UNL     1      -0.549   4.571  11.191  1.00  0.00     0.005 C 
HETATM   32  C5  UNL     1      -1.164   3.454  11.621  1.00  0.00     0.008 C 
BRANCH  32  33
HETATM   33  C6  UNL     1      -2.275   2.692  10.936  1.00  0.00     0.068 C 
HETATM   34  C7  UNL     1      -3.271   3.675  10.314  1.00  0.00     0.050 C 
HETATM   35  C8  UNL     1      -3.024   1.681  11.811  1.00  0.00     0.050 C 
BRANCH  33  36
HETATM   36  O3  UNL     1      -1.664   1.972   9.863  1.00  0.00    -0.387 OA
HETATM   37  H13 UNL     1      -0.985   1.398  10.261  1.00  0.00     0.211 HD
ENDBRANCH  33  36
ENDBRANCH  32  33
ENDBRANCH  26  31
ENDBRANCH  24  26
ENDBRANCH   1  24
TORSDOF 7
ENDMDL
MODEL 5
REMARK minimizedAffinity -7.07394838
REMARK CNNscore 0.282102048
REMARK CNNaffinity 6.62425041
REMARK  7 active torsions:
REMARK  status: ('A' for Active; 'I' for Inactive)
REMARK    1  A    between atoms: C2_2  and  O2_4 
REMARK    2  A    between atoms: O2_4  and  C3_5 
REMARK    3  A    between atoms: C3_5  and  C4_6 
REMARK    4  A    between atoms: C3_5  and  C9_12 
REMARK    5  A    between atoms: C5_7  and  C6_8 
REMARK    6  A    between atoms: C6_8  and  O3_11 
REMARK    7  A    between atoms: C9_12  and  C11_14 
ROOT
HETATM    1  C11 UNL     1      -1.586   9.612  15.183  1.00  0.00     0.001 C 
HETATM    2  C12 UNL     1      -0.424   8.742  14.616  1.00  0.00     0.007 C 
HETATM    3  C13 UNL     1      -1.042   7.522  13.909  1.00  0.00     0.015 C 
HETATM    4  C14 UNL     1      -2.526   7.880  13.740  1.00  0.00    -0.013 C 
HETATM    5  C15 UNL     1      -2.639   8.771  12.464  1.00  0.00     0.021 C 
HETATM    6  C16 UNL     1      -3.538   6.756  13.527  1.00  0.00    -0.068 C 
HETATM    7  C17 UNL     1      -4.827   6.916  13.928  1.00  0.00    -0.068 C 
HETATM    8  C18 UNL     1      -5.271   8.175  14.690  1.00  0.00     0.036 C 
HETATM    9  C19 UNL     1      -4.198   9.240  15.000  1.00  0.00     0.015 C 
HETATM   10  C20 UNL     1      -2.798   8.620  15.106  1.00  0.00    -0.029 C 
HETATM   11  C21 UNL     1      -2.759   7.658  16.338  1.00  0.00     0.016 C 
HETATM   12  C22 UNL     1      -5.916   5.837  13.669  1.00  0.00    -0.015 C 
HETATM   13  C23 UNL     1      -6.200   5.148  15.028  1.00  0.00     0.020 C 
HETATM   14  C24 UNL     1      -7.226   6.503  13.153  1.00  0.00     0.021 C 
HETATM   15  C25 UNL     1      -8.156   5.605  12.342  1.00  0.00     0.080 C 
HETATM   16  C26 UNL     1      -7.884   4.133  12.529  1.00  0.00     0.135 C 
HETATM   17  O4  UNL     1      -8.802   3.359  12.797  1.00  0.00    -0.297 OA
HETATM   18  C27 UNL     1      -6.451   3.653  12.276  1.00  0.00     0.018 C 
HETATM   19  C28 UNL     1      -6.185   2.377  13.102  1.00  0.00     0.023 C 
HETATM   20  C29 UNL     1      -6.374   3.257  10.784  1.00  0.00     0.023 C 
HETATM   21  C30 UNL     1      -5.448   4.823  12.562  1.00  0.00     0.013 C 
HETATM   22  C31 UNL     1      -4.014   4.352  12.823  1.00  0.00     0.011 C 
HETATM   23  C32 UNL     1      -3.043   5.528  12.805  1.00  0.00     0.036 C 
ENDROOT
BRANCH   1  24
HETATM   24  C9  UNL     1      -1.231  10.292  16.549  1.00  0.00     0.020 C 
HETATM   25  C10 UNL     1      -2.320  11.290  16.984  1.00  0.00     0.013 C 
BRANCH  24  26
HETATM   26  C3  UNL     1       0.133  11.062  16.568  1.00  0.00     0.158 C 
BRANCH  26  27
HETATM   27  O2  UNL     1       0.727  10.973  17.880  1.00  0.00    -0.312 OA
BRANCH  27  28
HETATM   28  C2  UNL     1       1.975  10.438  17.954  1.00  0.00     0.255 C 
HETATM   29  C1  UNL     1       2.958  11.489  18.372  1.00  0.00     0.126 C 
HETATM   30  O1  UNL     1       2.270   9.268  17.753  1.00  0.00    -0.266 OA
ENDBRANCH  27  28
ENDBRANCH  26  27
BRANCH  26  31
HETATM   31  C4  UNL     1       0.048  12.532  16.240  1.00  0.00     0.005 C 
HETATM   32  C5  UNL     1       0.323  13.047  15.027  1.00  0.00     0.008 C 
BRANCH  32  33
HETATM   33  C6  UNL     1       0.273  14.498  14.610  1.00  0.00     0.068 C 
HETATM   34  C7  UNL     1       1.676  15.107  14.683  1.00  0.00     0.050 C 
HETATM   35  C8  UNL     1      -0.714  15.378  15.386  1.00  0.00     0.050 C 
BRANCH  33  36
HETATM   36  O3  UNL     1      -0.122  14.506  13.236  1.00  0.00    -0.387 OA
HETATM   37  H13 UNL     1      -0.984  14.058  13.190  1.00  0.00     0.211 HD
ENDBRANCH  33  36
ENDBRANCH  32  33
ENDBRANCH  26  31
ENDBRANCH  24  26
ENDBRANCH   1  24
TORSDOF 7
ENDMDL
MODEL 6
REMARK minimizedAffinity -7.99714184
REMARK CNNscore 0.272724718
REMARK CNNaffinity 6.65035868
REMARK  7 active torsions:
REMARK  status: ('A' for Active; 'I' for Inactive)
REMARK    1  A    between atoms: C2_2  and  O2_4 
REMARK    2  A    between atoms: O2_4  and  C3_5 
REMARK    3  A    between atoms: C3_5  and  C4_6 
REMARK    4  A    between atoms: C3_5  and  C9_12 
REMARK    5  A    between atoms: C5_7  and  C6_8 
REMARK    6  A    between atoms: C6_8  and  O3_11 
REMARK    7  A    between atoms: C9_12  and  C11_14 
ROOT
HETATM    1  C11 UNL     1       2.703   7.427  12.204  1.00  0.00     0.001 C 
HETATM    2  C12 UNL     1       1.699   6.235  12.206  1.00  0.00     0.007 C 
HETATM    3  C13 UNL     1       0.506   6.618  13.101  1.00  0.00     0.015 C 
HETATM    4  C14 UNL     1       0.637   8.135  13.298  1.00  0.00    -0.013 C 
HETATM    5  C15 UNL     1       0.009   8.814  12.040  1.00  0.00     0.021 C 
HETATM    6  C16 UNL     1      -0.060   8.789  14.488  1.00  0.00    -0.068 C 
HETATM    7  C17 UNL     1       0.445   9.929  15.030  1.00  0.00    -0.068 C 
HETATM    8  C18 UNL     1       1.770  10.525  14.531  1.00  0.00     0.036 C 
HETATM    9  C19 UNL     1       2.516   9.773  13.409  1.00  0.00     0.015 C 
HETATM   10  C20 UNL     1       2.203   8.271  13.426  1.00  0.00    -0.029 C 
HETATM   11  C21 UNL     1       2.760   7.650  14.748  1.00  0.00     0.016 C 
HETATM   12  C22 UNL     1      -0.263  10.679  16.194  1.00  0.00    -0.015 C 
HETATM   13  C23 UNL     1       0.564  10.405  17.475  1.00  0.00     0.020 C 
HETATM   14  C24 UNL     1      -0.283  12.212  15.917  1.00  0.00     0.021 C 
HETATM   15  C25 UNL     1      -1.381  13.003  16.623  1.00  0.00     0.080 C 
HETATM   16  C26 UNL     1      -1.992  12.270  17.792  1.00  0.00     0.135 C 
HETATM   17  O4  UNL     1      -2.104  12.824  18.885  1.00  0.00    -0.297 OA
HETATM   18  C27 UNL     1      -2.544  10.866  17.521  1.00  0.00     0.018 C 
HETATM   19  C28 UNL     1      -2.508  10.042  18.824  1.00  0.00     0.023 C 
HETATM   20  C29 UNL     1      -4.029  11.042  17.130  1.00  0.00     0.023 C 
HETATM   21  C30 UNL     1      -1.761  10.217  16.328  1.00  0.00     0.013 C 
HETATM   22  C31 UNL     1      -1.868   8.689  16.284  1.00  0.00     0.011 C 
HETATM   23  C32 UNL     1      -1.339   8.144  14.962  1.00  0.00     0.036 C 
ENDROOT
BRANCH   1  24
HETATM   24  C9  UNL     1       4.199   6.967  12.144  1.00  0.00     0.020 C 
HETATM   25  C10 UNL     1       5.059   7.701  13.190  1.00  0.00     0.013 C 
BRANCH  24  26
HETATM   26  C3  UNL     1       4.896   7.165  10.755  1.00  0.00     0.158 C 
BRANCH  26  27
HETATM   27  O2  UNL     1       6.089   7.960  10.916  1.00  0.00    -0.312 OA
BRANCH  27  28
HETATM   28  C2  UNL     1       6.008   9.269  10.554  1.00  0.00     0.255 C 
HETATM   29  C1  UNL     1       6.938  10.090  11.395  1.00  0.00     0.126 C 
HETATM   30  O1  UNL     1       5.316   9.726   9.656  1.00  0.00    -0.266 OA
ENDBRANCH  27  28
ENDBRANCH  26  27
BRANCH  26  31
HETATM   31  C4  UNL     1       4.061   7.859   9.708  1.00  0.00     0.005 C 
HETATM   32  C5  UNL     1       3.160   7.231   8.930  1.00  0.00     0.008 C 
BRANCH  32  33
HETATM   33  C6  UNL     1       2.289   7.838   7.855  1.00  0.00     0.068 C 
HETATM   34  C7  UNL     1       0.956   8.287   8.461  1.00  0.00     0.050 C 
HETATM   35  C8  UNL     1       2.030   6.952   6.631  1.00  0.00     0.050 C 
BRANCH  33  36
HETATM   36  O3  UNL     1       2.968   9.013   7.406  1.00  0.00    -0.387 OA
HETATM   37  H13 UNL     1       3.841   8.727   7.084  1.00  0.00     0.211 HD
ENDBRANCH  33  36
ENDBRANCH  32  33
ENDBRANCH  26  31
ENDBRANCH  24  26
ENDBRANCH   1  24
TORSDOF 7
ENDMDL
MODEL 7
REMARK minimizedAffinity -7.11484623
REMARK CNNscore 0.265494943
REMARK CNNaffinity 5.42471933
REMARK  7 active torsions:
REMARK  status: ('A' for Active; 'I' for Inactive)
REMARK    1  A    between atoms: C2_2  and  O2_4 
REMARK    2  A    between atoms: O2_4  and  C3_5 
REMARK    3  A    between atoms: C3_5  and  C4_6 
REMARK    4  A    between atoms: C3_5  and  C9_12 
REMARK    5  A    between atoms: C5_7  and  C6_8 
REMARK    6  A    between atoms: C6_8  and  O3_11 
REMARK    7  A    between atoms: C9_12  and  C11_14 
ROOT
HETATM    1  C11 UNL     1       7.331   8.104  14.019  1.00  0.00     0.001 C 
HETATM    2  C12 UNL     1       8.714   7.955  13.315  1.00  0.00     0.007 C 
HETATM    3  C13 UNL     1       9.755   8.737  14.136  1.00  0.00     0.015 C 
HETATM    4  C14 UNL     1       9.067   9.008  15.481  1.00  0.00    -0.013 C 
HETATM    5  C15 UNL     1       9.238   7.722  16.349  1.00  0.00     0.021 C 
HETATM    6  C16 UNL     1       9.581  10.147  16.359  1.00  0.00    -0.068 C 
HETATM    7  C17 UNL     1       8.736  10.784  17.212  1.00  0.00    -0.068 C 
HETATM    8  C18 UNL     1       7.236  10.448  17.241  1.00  0.00     0.036 C 
HETATM    9  C19 UNL     1       6.723   9.379  16.255  1.00  0.00     0.015 C 
HETATM   10  C20 UNL     1       7.595   9.302  14.995  1.00  0.00    -0.029 C 
HETATM   11  C21 UNL     1       7.473  10.648  14.209  1.00  0.00     0.016 C 
HETATM   12  C22 UNL     1       9.220  11.898  18.182  1.00  0.00    -0.015 C 
HETATM   13  C23 UNL     1       8.712  13.245  17.610  1.00  0.00     0.020 C 
HETATM   14  C24 UNL     1       8.611  11.685  19.600  1.00  0.00     0.021 C 
HETATM   15  C25 UNL     1       9.385  12.306  20.759  1.00  0.00     0.080 C 
HETATM   16  C26 UNL     1      10.359  13.374  20.326  1.00  0.00     0.135 C 
HETATM   17  O4  UNL     1      10.367  14.472  20.883  1.00  0.00    -0.297 OA
HETATM   18  C27 UNL     1      11.380  12.991  19.250  1.00  0.00     0.018 C 
HETATM   19  C28 UNL     1      11.812  14.257  18.481  1.00  0.00     0.023 C 
HETATM   20  C29 UNL     1      12.626  12.458  19.992  1.00  0.00     0.023 C 
HETATM   21  C30 UNL     1      10.784  11.859  18.343  1.00  0.00     0.013 C 
HETATM   22  C31 UNL     1      11.472  11.742  16.978  1.00  0.00     0.011 C 
HETATM   23  C32 UNL     1      11.054  10.459  16.267  1.00  0.00     0.036 C 
ENDROOT
BRANCH   1  24
HETATM   24  C9  UNL     1       6.136   8.179  13.011  1.00  0.00     0.020 C 
HETATM   25  C10 UNL     1       4.781   8.032  13.727  1.00  0.00     0.013 C 
BRANCH  24  26
HETATM   26  C3  UNL     1       6.169   7.110  11.866  1.00  0.00     0.158 C 
BRANCH  26  27
HETATM   27  O2  UNL     1       6.685   7.705  10.657  1.00  0.00    -0.312 OA
BRANCH  27  28
HETATM   28  C2  UNL     1       6.584   9.057  10.546  1.00  0.00     0.255 C 
HETATM   29  C1  UNL     1       5.186   9.436  10.160  1.00  0.00     0.126 C 
HETATM   30  O1  UNL     1       7.476   9.865  10.761  1.00  0.00    -0.266 OA
ENDBRANCH  27  28
ENDBRANCH  26  27
BRANCH  26  31
HETATM   31  C4  UNL     1       4.834   6.508  11.507  1.00  0.00     0.005 C 
HETATM   32  C5  UNL     1       4.544   5.993  10.299  1.00  0.00     0.008 C 
BRANCH  32  33
HETATM   33  C6  UNL     1       3.238   5.380   9.848  1.00  0.00     0.068 C 
HETATM   34  C7  UNL     1       2.861   5.922   8.466  1.00  0.00     0.050 C 
HETATM   35  C8  UNL     1       2.058   5.550  10.811  1.00  0.00     0.050 C 
BRANCH  33  36
HETATM   36  O3  UNL     1       3.483   3.979   9.700  1.00  0.00    -0.387 OA
HETATM   37  H13 UNL     1       3.787   3.655  10.567  1.00  0.00     0.211 HD
ENDBRANCH  33  36
ENDBRANCH  32  33
ENDBRANCH  26  31
ENDBRANCH  24  26
ENDBRANCH   1  24
TORSDOF 7
ENDMDL
MODEL 8
REMARK minimizedAffinity -8.10844707
REMARK CNNscore 0.234884933
REMARK CNNaffinity 6.65387487
REMARK  7 active torsions:
REMARK  status: ('A' for Active; 'I' for Inactive)
REMARK    1  A    between atoms: C2_2  and  O2_4 
REMARK    2  A    between atoms: O2_4  and  C3_5 
REMARK    3  A    between atoms: C3_5  and  C4_6 
REMARK    4  A    between atoms: C3_5  and  C9_12 
REMARK    5  A    between atoms: C5_7  and  C6_8 
REMARK    6  A    between atoms: C6_8  and  O3_11 
REMARK    7  A    between atoms: C9_12  and  C11_14 
ROOT
HETATM    1  C11 UNL     1      -4.148   7.282  13.247  1.00  0.00     0.001 C 
HETATM    2  C12 UNL     1      -4.615   8.756  13.442  1.00  0.00     0.007 C 
HETATM    3  C13 UNL     1      -3.374   9.613  13.750  1.00  0.00     0.015 C 
HETATM    4  C14 UNL     1      -2.182   8.726  13.363  1.00  0.00    -0.013 C 
HETATM    5  C15 UNL     1      -1.989   8.867  11.821  1.00  0.00     0.021 C 
HETATM    6  C16 UNL     1      -0.809   9.029  13.961  1.00  0.00    -0.068 C 
HETATM    7  C17 UNL     1       0.096   8.029  14.127  1.00  0.00    -0.068 C 
HETATM    8  C18 UNL     1      -0.269   6.568  13.818  1.00  0.00     0.036 C 
HETATM    9  C19 UNL     1      -1.704   6.277  13.332  1.00  0.00     0.015 C 
HETATM   10  C20 UNL     1      -2.702   7.320  13.852  1.00  0.00    -0.029 C 
HETATM   11  C21 UNL     1      -2.789   7.211  15.409  1.00  0.00     0.016 C 
HETATM   12  C22 UNL     1       1.533   8.291  14.660  1.00  0.00    -0.015 C 
HETATM   13  C23 UNL     1       1.574   7.771  16.119  1.00  0.00     0.020 C 
HETATM   14  C24 UNL     1       2.577   7.507  13.810  1.00  0.00     0.021 C 
HETATM   15  C25 UNL     1       3.998   8.066  13.819  1.00  0.00     0.080 C 
HETATM   16  C26 UNL     1       4.265   9.010  14.964  1.00  0.00     0.135 C 
HETATM   17  O4  UNL     1       5.258   8.860  15.676  1.00  0.00    -0.297 OA
HETATM   18  C27 UNL     1       3.309  10.196  15.126  1.00  0.00     0.018 C 
HETATM   19  C28 UNL     1       3.288  10.638  16.605  1.00  0.00     0.023 C 
HETATM   20  C29 UNL     1       3.907  11.362  14.308  1.00  0.00     0.023 C 
HETATM   21  C30 UNL     1       1.901   9.816  14.549  1.00  0.00     0.013 C 
HETATM   22  C31 UNL     1       0.764  10.694  15.082  1.00  0.00     0.011 C 
HETATM   23  C32 UNL     1      -0.514  10.474  14.279  1.00  0.00     0.036 C 
ENDROOT
BRANCH   1  24
HETATM   24  C9  UNL     1      -5.183   6.237  13.785  1.00  0.00     0.020 C 
HETATM   25  C10 UNL     1      -4.832   5.778  15.213  1.00  0.00     0.013 C 
BRANCH  24  26
HETATM   26  C3  UNL     1      -5.332   4.945  12.910  1.00  0.00     0.158 C 
BRANCH  26  27
HETATM   27  O2  UNL     1      -6.231   4.019  13.556  1.00  0.00    -0.312 OA
BRANCH  27  28
HETATM   28  C2  UNL     1      -7.382   3.719  12.896  1.00  0.00     0.255 C 
HETATM   29  C1  UNL     1      -7.370   2.281  12.474  1.00  0.00     0.126 C 
HETATM   30  O1  UNL     1      -8.317   4.481  12.698  1.00  0.00    -0.266 OA
ENDBRANCH  27  28
ENDBRANCH  26  27
BRANCH  26  31
HETATM   31  C4  UNL     1      -4.053   4.188  12.657  1.00  0.00     0.005 C 
HETATM   32  C5  UNL     1      -3.769   3.562  11.500  1.00  0.00     0.008 C 
BRANCH  32  33
HETATM   33  C6  UNL     1      -2.524   2.776  11.159  1.00  0.00     0.068 C 
HETATM   34  C7  UNL     1      -2.740   1.295  11.486  1.00  0.00     0.050 C 
HETATM   35  C8  UNL     1      -1.228   3.267  11.815  1.00  0.00     0.050 C 
BRANCH  33  36
HETATM   36  O3  UNL     1      -2.362   2.877   9.743  1.00  0.00    -0.387 OA
HETATM   37  H13 UNL     1      -2.292   3.826   9.536  1.00  0.00     0.211 HD
ENDBRANCH  33  36
ENDBRANCH  32  33
ENDBRANCH  26  31
ENDBRANCH  24  26
ENDBRANCH   1  24
TORSDOF 7
ENDMDL
MODEL 9
REMARK minimizedAffinity -9.01963043
REMARK CNNscore 0.234179124
REMARK CNNaffinity 6.78480005
REMARK  7 active torsions:
REMARK  status: ('A' for Active; 'I' for Inactive)
REMARK    1  A    between atoms: C2_2  and  O2_4 
REMARK    2  A    between atoms: O2_4  and  C3_5 
REMARK    3  A    between atoms: C3_5  and  C4_6 
REMARK    4  A    between atoms: C3_5  and  C9_12 
REMARK    5  A    between atoms: C5_7  and  C6_8 
REMARK    6  A    between atoms: C6_8  and  O3_11 
REMARK    7  A    between atoms: C9_12  and  C11_14 
ROOT
HETATM    1  C11 UNL     1      -2.838   5.571  13.391  1.00  0.00     0.001 C 
HETATM    2  C12 UNL     1      -2.821   4.807  12.032  1.00  0.00     0.007 C 
HETATM    3  C13 UNL     1      -1.415   4.953  11.421  1.00  0.00     0.015 C 
HETATM    4  C14 UNL     1      -0.538   5.460  12.575  1.00  0.00    -0.013 C 
HETATM    5  C15 UNL     1      -0.125   4.212  13.416  1.00  0.00     0.021 C 
HETATM    6  C16 UNL     1       0.775   6.169  12.251  1.00  0.00    -0.068 C 
HETATM    7  C17 UNL     1       1.278   7.094  13.110  1.00  0.00    -0.068 C 
HETATM    8  C18 UNL     1       0.499   7.521  14.364  1.00  0.00     0.036 C 
HETATM    9  C19 UNL     1      -0.883   6.877  14.601  1.00  0.00     0.015 C 
HETATM   10  C20 UNL     1      -1.543   6.448  13.284  1.00  0.00    -0.029 C 
HETATM   11  C21 UNL     1      -1.848   7.721  12.429  1.00  0.00     0.016 C 
HETATM   12  C22 UNL     1       2.647   7.793  12.868  1.00  0.00    -0.015 C 
HETATM   13  C23 UNL     1       2.339   9.243  12.418  1.00  0.00     0.020 C 
HETATM   14  C24 UNL     1       3.474   7.833  14.188  1.00  0.00     0.021 C 
HETATM   15  C25 UNL     1       4.987   7.951  14.022  1.00  0.00     0.080 C 
HETATM   16  C26 UNL     1       5.406   8.438  12.657  1.00  0.00     0.135 C 
HETATM   17  O4  UNL     1       6.202   9.370  12.545  1.00  0.00    -0.297 OA
HETATM   18  C27 UNL     1       4.875   7.660  11.448  1.00  0.00     0.018 C 
HETATM   19  C28 UNL     1       4.820   8.596  10.223  1.00  0.00     0.023 C 
HETATM   20  C29 UNL     1       5.914   6.560  11.138  1.00  0.00     0.023 C 
HETATM   21  C30 UNL     1       3.502   6.998  11.813  1.00  0.00     0.013 C 
HETATM   22  C31 UNL     1       2.655   6.628  10.591  1.00  0.00     0.011 C 
HETATM   23  C32 UNL     1       1.483   5.738  10.990  1.00  0.00     0.036 C 
ENDROOT
BRANCH   1  24
HETATM   24  C9  UNL     1      -4.213   6.259  13.688  1.00  0.00     0.020 C 
HETATM   25  C10 UNL     1      -4.225   6.924  15.077  1.00  0.00     0.013 C 
BRANCH  24  26
HETATM   26  C3  UNL     1      -5.456   5.306  13.624  1.00  0.00     0.158 C 
BRANCH  26  27
HETATM   27  O2  UNL     1      -5.412   4.526  12.410  1.00  0.00    -0.312 OA
BRANCH  27  28
HETATM   28  C2  UNL     1      -6.113   3.361  12.403  1.00  0.00     0.255 C 
HETATM   29  C1  UNL     1      -5.649   2.491  11.274  1.00  0.00     0.126 C 
HETATM   30  O1  UNL     1      -6.970   3.032  13.210  1.00  0.00    -0.266 OA
ENDBRANCH  27  28
ENDBRANCH  26  27
BRANCH  26  31
HETATM   31  C4  UNL     1      -6.797   5.994  13.638  1.00  0.00     0.005 C 
HETATM   32  C5  UNL     1      -7.530   6.187  14.750  1.00  0.00     0.008 C 
BRANCH  32  33
HETATM   33  C6  UNL     1      -8.881   6.856  14.859  1.00  0.00     0.068 C 
HETATM   34  C7  UNL     1      -9.694   6.590  13.590  1.00  0.00     0.050 C 
HETATM   35  C8  UNL     1      -8.855   8.360  15.153  1.00  0.00     0.050 C 
BRANCH  33  36
HETATM   36  O3  UNL     1      -9.559   6.212  15.940  1.00  0.00    -0.387 OA
HETATM   37  H13 UNL     1      -9.002   6.327  16.730  1.00  0.00     0.211 HD
ENDBRANCH  33  36
ENDBRANCH  32  33
ENDBRANCH  26  31
ENDBRANCH  24  26
ENDBRANCH   1  24
TORSDOF 7
ENDMDL
