MODEL 1
REMARK minimizedAffinity -9.48696041
REMARK  8 active torsions:
REMARK  status: ('A' for Active; 'I' for Inactive)
REMARK    1  A    between atoms: C2_2  and  C4_4 
REMARK    2  A    between atoms: C4_4  and  O1_5 
REMARK    3  A    between atoms: C4_4  and  C5_6 
REMARK    4  A    between atoms: C5_6  and  C6_7 
REMARK    5  A    between atoms: C6_7  and  C7_8 
REMARK    6  A    between atoms: C7_8  and  C9_10 
REMARK    7  A    between atoms: C12_13  and  C13_14 
REMARK    8  A    between atoms: C13_14  and  O3_16 
ROOT
HETATM    1  C9  UNL     1      -1.620  49.349 -18.398  1.00  0.00    -0.001 C 
HETATM    2  C10 UNL     1      -2.948  48.540 -18.519  1.00  0.00     0.007 C 
HETATM    3  C11 UNL     1      -3.386  48.575 -19.992  1.00  0.00     0.022 C 
HETATM    4  C12 UNL     1      -2.153  49.109 -20.754  1.00  0.00     0.057 C 
HETATM    5  C14 UNL     1      -2.471  49.803 -22.102  1.00  0.00     0.014 C 
HETATM    6  C15 UNL     1      -2.942  48.866 -23.222  1.00  0.00     0.007 C 
HETATM    7  C16 UNL     1      -3.333  49.681 -24.456  1.00  0.00     0.007 C 
HETATM    8  C17 UNL     1      -2.080  50.298 -25.092  1.00  0.00     0.010 C 
HETATM    9  C18 UNL     1      -2.340  51.162 -26.367  1.00  0.00     0.018 C 
HETATM   10  C19 UNL     1      -2.932  50.294 -27.493  1.00  0.00     0.023 C 
HETATM   11  C20 UNL     1      -3.271  52.360 -26.123  1.00  0.00     0.023 C 
HETATM   12  C21 UNL     1      -0.998  51.718 -26.873  1.00  0.00     0.135 C 
HETATM   13  O4  UNL     1      -0.936  52.482 -27.838  1.00  0.00    -0.297 OA
HETATM   14  C22 UNL     1       0.260  51.240 -26.191  1.00  0.00     0.080 C 
HETATM   15  C23 UNL     1       0.176  51.406 -24.679  1.00  0.00     0.018 C 
HETATM   16  C24 UNL     1      -1.191  51.048 -24.094  1.00  0.00    -0.026 A 
HETATM   17  C25 UNL     1      -1.782  52.063 -23.141  1.00  0.00     0.021 A 
HETATM   18  C26 UNL     1      -1.330  50.734 -22.576  1.00  0.00    -0.027 A 
HETATM   19  C27 UNL     1      -0.057  50.719 -21.736  1.00  0.00     0.011 C 
HETATM   20  C28 UNL     1      -0.252  50.721 -20.209  1.00  0.00     0.012 C 
HETATM   21  C29 UNL     1      -1.611  50.177 -19.727  1.00  0.00    -0.022 C 
HETATM   22  C30 UNL     1      -2.554  51.412 -19.555  1.00  0.00     0.017 C 
ENDROOT
BRANCH   1  23
HETATM   23  C7  UNL     1      -1.499  50.072 -17.020  1.00  0.00    -0.014 C 
HETATM   24  C8  UNL     1      -2.852  50.579 -16.512  1.00  0.00     0.010 C 
BRANCH  23  25
HETATM   25  C6  UNL     1      -0.485  51.247 -17.114  1.00  0.00     0.007 C 
BRANCH  25  26
HETATM   26  C5  UNL     1       0.920  50.930 -16.569  1.00  0.00     0.036 C 
BRANCH  26  27
HETATM   27  C4  UNL     1       1.512  52.030 -15.666  1.00  0.00     0.146 C 
BRANCH  27  28
HETATM   28  C2  UNL     1       2.963  51.765 -15.282  1.00  0.00    -0.065 C 
HETATM   29  C1  UNL     1       3.349  50.966 -14.270  1.00  0.00     0.016 C 
HETATM   30  C3  UNL     1       4.005  52.415 -16.159  1.00  0.00     0.045 C 
ENDBRANCH  27  28
BRANCH  27  31
HETATM   31  O1  UNL     1       1.402  53.283 -16.340  1.00  0.00    -0.391 OA
HETATM   32  H7  UNL     1       1.892  53.198 -17.176  1.00  0.00     0.210 HD
ENDBRANCH  27  31
ENDBRANCH  26  27
ENDBRANCH  25  26
ENDBRANCH  23  25
ENDBRANCH   1  23
BRANCH   4  33
HETATM   33  C13 UNL     1      -1.194  47.906 -20.961  1.00  0.00     0.149 C 
HETATM   34  O2  UNL     1       0.015  47.874 -20.803  1.00  0.00    -0.649 OA
BRANCH  33  35
HETATM   35  O3  UNL     1      -1.814  46.777 -21.363  1.00  0.00    -0.776 OA
HETATM   36  H21 UNL     1      -1.087  46.121 -21.429  1.00  0.00     0.167 HD
ENDBRANCH  33  35
ENDBRANCH   4  33
TORSDOF 8
ENDMDL
MODEL 2
REMARK minimizedAffinity -9.47357178
REMARK  8 active torsions:
REMARK  status: ('A' for Active; 'I' for Inactive)
REMARK    1  A    between atoms: C2_2  and  C4_4 
REMARK    2  A    between atoms: C4_4  and  O1_5 
REMARK    3  A    between atoms: C4_4  and  C5_6 
REMARK    4  A    between atoms: C5_6  and  C6_7 
REMARK    5  A    between atoms: C6_7  and  C7_8 
REMARK    6  A    between atoms: C7_8  and  C9_10 
REMARK    7  A    between atoms: C12_13  and  C13_14 
REMARK    8  A    between atoms: C13_14  and  O3_16 
ROOT
HETATM    1  C9  UNL     1      -3.848  50.314 -24.809  1.00  0.00    -0.001 C 
HETATM    2  C10 UNL     1      -5.191  49.792 -24.212  1.00  0.00     0.007 C 
HETATM    3  C11 UNL     1      -5.044  49.762 -22.682  1.00  0.00     0.022 C 
HETATM    4  C12 UNL     1      -3.760  50.571 -22.397  1.00  0.00     0.057 C 
HETATM    5  C14 UNL     1      -3.049  50.216 -21.068  1.00  0.00     0.014 C 
HETATM    6  C15 UNL     1      -3.786  50.657 -19.796  1.00  0.00     0.007 C 
HETATM    7  C16 UNL     1      -3.045  50.149 -18.558  1.00  0.00     0.007 C 
HETATM    8  C17 UNL     1      -1.713  50.896 -18.404  1.00  0.00     0.010 C 
HETATM    9  C18 UNL     1      -0.852  50.469 -17.174  1.00  0.00     0.018 C 
HETATM   10  C19 UNL     1      -1.598  50.777 -15.862  1.00  0.00     0.023 C 
HETATM   11  C20 UNL     1      -0.455  48.984 -17.181  1.00  0.00     0.023 C 
HETATM   12  C21 UNL     1       0.448  51.291 -17.167  1.00  0.00     0.135 C 
HETATM   13  O4  UNL     1       1.329  51.104 -16.326  1.00  0.00    -0.297 OA
HETATM   14  C22 UNL     1       0.583  52.396 -18.186  1.00  0.00     0.080 C 
HETATM   15  C23 UNL     1       0.305  51.894 -19.597  1.00  0.00     0.018 C 
HETATM   16  C24 UNL     1      -0.869  50.916 -19.683  1.00  0.00    -0.026 A 
HETATM   17  C25 UNL     1      -0.607  49.644 -20.459  1.00  0.00     0.021 A 
HETATM   18  C26 UNL     1      -1.565  50.655 -21.050  1.00  0.00    -0.027 A 
HETATM   19  C27 UNL     1      -1.088  51.460 -22.254  1.00  0.00     0.011 C 
HETATM   20  C28 UNL     1      -1.563  50.967 -23.633  1.00  0.00     0.012 C 
HETATM   21  C29 UNL     1      -2.857  50.128 -23.613  1.00  0.00    -0.022 C 
HETATM   22  C30 UNL     1      -2.419  48.629 -23.551  1.00  0.00     0.017 C 
ENDROOT
BRANCH   1  23
HETATM   23  C7  UNL     1      -3.536  49.670 -26.197  1.00  0.00    -0.014 C 
HETATM   24  C8  UNL     1      -2.608  48.459 -26.078  1.00  0.00     0.010 C 
BRANCH  23  25
HETATM   25  C6  UNL     1      -2.920  50.729 -27.156  1.00  0.00     0.007 C 
BRANCH  25  26
HETATM   26  C5  UNL     1      -2.758  52.134 -26.545  1.00  0.00     0.036 C 
BRANCH  26  27
HETATM   27  C4  UNL     1      -1.486  52.877 -26.996  1.00  0.00     0.146 C 
BRANCH  27  28
HETATM   28  C2  UNL     1      -0.340  51.934 -27.344  1.00  0.00    -0.065 C 
HETATM   29  C1  UNL     1       0.240  51.855 -28.556  1.00  0.00     0.016 C 
HETATM   30  C3  UNL     1       0.187  51.093 -26.208  1.00  0.00     0.045 C 
ENDBRANCH  27  28
BRANCH  27  31
HETATM   31  O1  UNL     1      -1.809  53.695 -28.121  1.00  0.00    -0.391 OA
HETATM   32  H7  UNL     1      -2.147  53.101 -28.814  1.00  0.00     0.210 HD
ENDBRANCH  27  31
ENDBRANCH  26  27
ENDBRANCH  25  26
ENDBRANCH  23  25
ENDBRANCH   1  23
BRANCH   4  33
HETATM   33  C13 UNL     1      -4.154  52.072 -22.433  1.00  0.00     0.149 C 
HETATM   34  O2  UNL     1      -3.806  52.921 -23.237  1.00  0.00    -0.649 OA
BRANCH  33  35
HETATM   35  O3  UNL     1      -4.986  52.441 -21.437  1.00  0.00    -0.776 OA
HETATM   36  H21 UNL     1      -5.149  53.393 -21.609  1.00  0.00     0.167 HD
ENDBRANCH  33  35
ENDBRANCH   4  33
TORSDOF 8
ENDMDL
MODEL 3
REMARK minimizedAffinity -9.11993504
REMARK  8 active torsions:
REMARK  status: ('A' for Active; 'I' for Inactive)
REMARK    1  A    between atoms: C2_2  and  C4_4 
REMARK    2  A    between atoms: C4_4  and  O1_5 
REMARK    3  A    between atoms: C4_4  and  C5_6 
REMARK    4  A    between atoms: C5_6  and  C6_7 
REMARK    5  A    between atoms: C6_7  and  C7_8 
REMARK    6  A    between atoms: C7_8  and  C9_10 
REMARK    7  A    between atoms: C12_13  and  C13_14 
REMARK    8  A    between atoms: C13_14  and  O3_16 
ROOT
HETATM    1  C9  UNL     1      -3.995  49.292 -24.322  1.00  0.00    -0.001 C 
HETATM    2  C10 UNL     1      -5.235  48.708 -23.579  1.00  0.00     0.007 C 
HETATM    3  C11 UNL     1      -4.995  48.869 -22.069  1.00  0.00     0.022 C 
HETATM    4  C12 UNL     1      -3.793  49.832 -21.965  1.00  0.00     0.057 C 
HETATM    5  C14 UNL     1      -2.970  49.706 -20.658  1.00  0.00     0.014 C 
HETATM    6  C15 UNL     1      -3.674  50.213 -19.393  1.00  0.00     0.007 C 
HETATM    7  C16 UNL     1      -2.811  49.929 -18.163  1.00  0.00     0.007 C 
HETATM    8  C17 UNL     1      -1.562  50.820 -18.185  1.00  0.00     0.010 C 
HETATM    9  C18 UNL     1      -0.588  50.627 -16.979  1.00  0.00     0.018 C 
HETATM   10  C19 UNL     1      -1.284  51.006 -15.659  1.00  0.00     0.023 C 
HETATM   11  C20 UNL     1      -0.033  49.199 -16.855  1.00  0.00     0.023 C 
HETATM   12  C21 UNL     1       0.613  51.572 -17.154  1.00  0.00     0.135 C 
HETATM   13  O4  UNL     1       1.557  51.573 -16.362  1.00  0.00    -0.297 OA
HETATM   14  C22 UNL     1       0.566  52.561 -18.293  1.00  0.00     0.080 C 
HETATM   15  C23 UNL     1       0.262  51.874 -19.618  1.00  0.00     0.018 C 
HETATM   16  C24 UNL     1      -0.801  50.778 -19.515  1.00  0.00    -0.026 A 
HETATM   17  C25 UNL     1      -0.449  49.459 -20.165  1.00  0.00     0.021 A 
HETATM   18  C26 UNL     1      -1.545  50.292 -20.793  1.00  0.00    -0.027 A 
HETATM   19  C27 UNL     1      -1.230  50.999 -22.108  1.00  0.00     0.011 C 
HETATM   20  C28 UNL     1      -1.729  50.304 -23.388  1.00  0.00     0.012 C 
HETATM   21  C29 UNL     1      -2.920  49.346 -23.186  1.00  0.00    -0.022 C 
HETATM   22  C30 UNL     1      -2.319  47.916 -22.994  1.00  0.00     0.017 C 
ENDROOT
BRANCH   1  23
HETATM   23  C7  UNL     1      -3.697  48.528 -25.651  1.00  0.00    -0.014 C 
HETATM   24  C8  UNL     1      -2.784  49.326 -26.586  1.00  0.00     0.010 C 
BRANCH  23  25
HETATM   25  C6  UNL     1      -5.026  48.167 -26.375  1.00  0.00     0.007 C 
BRANCH  25  26
HETATM   26  C5  UNL     1      -4.909  48.033 -27.905  1.00  0.00     0.036 C 
BRANCH  26  27
HETATM   27  C4  UNL     1      -6.263  47.977 -28.640  1.00  0.00     0.146 C 
BRANCH  27  28
HETATM   28  C2  UNL     1      -6.483  46.660 -29.376  1.00  0.00    -0.065 C 
HETATM   29  C1  UNL     1      -7.117  45.593 -28.855  1.00  0.00     0.016 C 
HETATM   30  C3  UNL     1      -5.994  46.614 -30.803  1.00  0.00     0.045 C 
ENDBRANCH  27  28
BRANCH  27  31
HETATM   31  O1  UNL     1      -7.308  48.191 -27.691  1.00  0.00    -0.391 OA
HETATM   32  H7  UNL     1      -7.229  47.490 -27.022  1.00  0.00     0.210 HD
ENDBRANCH  27  31
ENDBRANCH  26  27
ENDBRANCH  25  26
ENDBRANCH  23  25
ENDBRANCH   1  23
BRANCH   4  33
HETATM   33  C13 UNL     1      -4.349  51.271 -22.134  1.00  0.00     0.149 C 
HETATM   34  O2  UNL     1      -4.019  52.112 -22.954  1.00  0.00    -0.649 OA
BRANCH  33  35
HETATM   35  O3  UNL     1      -5.316  51.589 -21.249  1.00  0.00    -0.776 OA
HETATM   36  H21 UNL     1      -5.569  52.505 -21.496  1.00  0.00     0.167 HD
ENDBRANCH  33  35
ENDBRANCH   4  33
TORSDOF 8
ENDMDL
MODEL 4
REMARK minimizedAffinity -8.97482681
REMARK  8 active torsions:
REMARK  status: ('A' for Active; 'I' for Inactive)
REMARK    1  A    between atoms: C2_2  and  C4_4 
REMARK    2  A    between atoms: C4_4  and  O1_5 
REMARK    3  A    between atoms: C4_4  and  C5_6 
REMARK    4  A    between atoms: C5_6  and  C6_7 
REMARK    5  A    between atoms: C6_7  and  C7_8 
REMARK    6  A    between atoms: C7_8  and  C9_10 
REMARK    7  A    between atoms: C12_13  and  C13_14 
REMARK    8  A    between atoms: C13_14  and  O3_16 
ROOT
HETATM    1  C9  UNL     1      -1.533  51.460 -23.576  1.00  0.00    -0.001 C 
HETATM    2  C10 UNL     1      -1.408  50.666 -24.911  1.00  0.00     0.007 C 
HETATM    3  C11 UNL     1      -2.548  49.635 -24.952  1.00  0.00     0.022 C 
HETATM    4  C12 UNL     1      -3.503  50.063 -23.817  1.00  0.00     0.057 C 
HETATM    5  C14 UNL     1      -4.380  48.924 -23.240  1.00  0.00     0.014 C 
HETATM    6  C15 UNL     1      -5.483  48.412 -24.175  1.00  0.00     0.007 C 
HETATM    7  C16 UNL     1      -6.197  47.218 -23.539  1.00  0.00     0.007 C 
HETATM    8  C17 UNL     1      -7.023  47.686 -22.333  1.00  0.00     0.010 C 
HETATM    9  C18 UNL     1      -7.804  46.559 -21.587  1.00  0.00     0.018 C 
HETATM   10  C19 UNL     1      -8.850  45.920 -22.520  1.00  0.00     0.023 C 
HETATM   11  C20 UNL     1      -6.903  45.451 -21.021  1.00  0.00     0.023 C 
HETATM   12  C21 UNL     1      -8.565  47.181 -20.403  1.00  0.00     0.135 C 
HETATM   13  O4  UNL     1      -9.217  46.491 -19.617  1.00  0.00    -0.297 OA
HETATM   14  C22 UNL     1      -8.550  48.685 -20.273  1.00  0.00     0.080 C 
HETATM   15  C23 UNL     1      -7.130  49.236 -20.314  1.00  0.00     0.018 C 
HETATM   16  C24 UNL     1      -6.232  48.550 -21.345  1.00  0.00    -0.026 A 
HETATM   17  C25 UNL     1      -4.876  48.108 -20.842  1.00  0.00     0.021 A 
HETATM   18  C26 UNL     1      -4.930  49.251 -21.831  1.00  0.00    -0.027 A 
HETATM   19  C27 UNL     1      -4.642  50.654 -21.306  1.00  0.00     0.011 C 
HETATM   20  C28 UNL     1      -3.219  51.189 -21.546  1.00  0.00     0.012 C 
HETATM   21  C29 UNL     1      -2.469  50.538 -22.725  1.00  0.00    -0.022 C 
HETATM   22  C30 UNL     1      -1.615  49.373 -22.126  1.00  0.00     0.017 C 
ENDROOT
BRANCH   1  23
HETATM   23  C7  UNL     1      -0.140  51.894 -23.021  1.00  0.00    -0.014 C 
HETATM   24  C8  UNL     1      -0.230  52.443 -21.594  1.00  0.00     0.010 C 
BRANCH  23  25
HETATM   25  C6  UNL     1       0.511  52.947 -23.963  1.00  0.00     0.007 C 
BRANCH  25  26
HETATM   26  C5  UNL     1      -0.358  53.360 -25.165  1.00  0.00     0.036 C 
BRANCH  26  27
HETATM   27  C4  UNL     1       0.435  53.619 -26.461  1.00  0.00     0.146 C 
BRANCH  27  28
HETATM   28  C2  UNL     1       0.784  52.337 -27.209  1.00  0.00    -0.065 C 
HETATM   29  C1  UNL     1      -0.000  51.763 -28.139  1.00  0.00     0.016 C 
HETATM   30  C3  UNL     1       2.134  51.741 -26.898  1.00  0.00     0.045 C 
ENDBRANCH  27  28
BRANCH  27  31
HETATM   31  O1  UNL     1      -0.327  54.487 -27.299  1.00  0.00    -0.391 OA
HETATM   32  H7  UNL     1      -1.172  54.038 -27.475  1.00  0.00     0.210 HD
ENDBRANCH  27  31
ENDBRANCH  26  27
ENDBRANCH  25  26
ENDBRANCH  23  25
ENDBRANCH   1  23
BRANCH   4  33
HETATM   33  C13 UNL     1      -4.384  51.212 -24.377  1.00  0.00     0.149 C 
HETATM   34  O2  UNL     1      -4.020  52.237 -24.930  1.00  0.00    -0.649 OA
BRANCH  33  35
HETATM   35  O3  UNL     1      -5.709  51.012 -24.213  1.00  0.00    -0.776 OA
HETATM   36  H21 UNL     1      -6.118  51.803 -24.627  1.00  0.00     0.167 HD
ENDBRANCH  33  35
ENDBRANCH   4  33
TORSDOF 8
ENDMDL
MODEL 5
REMARK minimizedAffinity -8.92733955
REMARK  8 active torsions:
REMARK  status: ('A' for Active; 'I' for Inactive)
REMARK    1  A    between atoms: C2_2  and  C4_4 
REMARK    2  A    between atoms: C4_4  and  O1_5 
REMARK    3  A    between atoms: C4_4  and  C5_6 
REMARK    4  A    between atoms: C5_6  and  C6_7 
REMARK    5  A    between atoms: C6_7  and  C7_8 
REMARK    6  A    between atoms: C7_8  and  C9_10 
REMARK    7  A    between atoms: C12_13  and  C13_14 
REMARK    8  A    between atoms: C13_14  and  O3_16 
ROOT
HETATM    1  C9  UNL     1      -0.410  50.868 -21.411  1.00  0.00    -0.001 C 
HETATM    2  C10 UNL     1      -0.412  51.403 -19.947  1.00  0.00     0.007 C 
HETATM    3  C11 UNL     1      -1.651  50.831 -19.239  1.00  0.00     0.022 C 
HETATM    4  C12 UNL     1      -2.163  49.722 -20.184  1.00  0.00     0.057 C 
HETATM    5  C14 UNL     1      -3.672  49.398 -20.050  1.00  0.00     0.014 C 
HETATM    6  C15 UNL     1      -4.073  48.684 -18.753  1.00  0.00     0.007 C 
HETATM    7  C16 UNL     1      -5.593  48.527 -18.691  1.00  0.00     0.007 C 
HETATM    8  C17 UNL     1      -6.057  47.512 -19.745  1.00  0.00     0.010 C 
HETATM    9  C18 UNL     1      -7.597  47.259 -19.789  1.00  0.00     0.018 C 
HETATM   10  C19 UNL     1      -8.082  46.652 -18.459  1.00  0.00     0.023 C 
HETATM   11  C20 UNL     1      -8.423  48.520 -20.088  1.00  0.00     0.023 C 
HETATM   12  C21 UNL     1      -7.901  46.237 -20.899  1.00  0.00     0.135 C 
HETATM   13  O4  UNL     1      -9.055  45.908 -21.177  1.00  0.00    -0.297 OA
HETATM   14  C22 UNL     1      -6.729  45.588 -21.593  1.00  0.00     0.080 C 
HETATM   15  C23 UNL     1      -5.741  46.625 -22.112  1.00  0.00     0.018 C 
HETATM   16  C24 UNL     1      -5.507  47.790 -21.148  1.00  0.00    -0.026 A 
HETATM   17  C25 UNL     1      -5.595  49.172 -21.756  1.00  0.00     0.021 A 
HETATM   18  C26 UNL     1      -4.239  48.681 -21.298  1.00  0.00    -0.027 A 
HETATM   19  C27 UNL     1      -3.227  48.298 -22.373  1.00  0.00     0.011 C 
HETATM   20  C28 UNL     1      -2.161  49.356 -22.709  1.00  0.00     0.012 C 
HETATM   21  C29 UNL     1      -1.887  50.381 -21.590  1.00  0.00    -0.022 C 
HETATM   22  C30 UNL     1      -2.792  51.622 -21.885  1.00  0.00     0.017 C 
ENDROOT
BRANCH   1  23
HETATM   23  C7  UNL     1       0.205  51.899 -22.409  1.00  0.00    -0.014 C 
HETATM   24  C8  UNL     1       0.654  53.185 -21.710  1.00  0.00     0.010 C 
BRANCH  23  25
HETATM   25  C6  UNL     1      -0.812  52.227 -23.540  1.00  0.00     0.007 C 
BRANCH  25  26
HETATM   26  C5  UNL     1      -0.406  51.721 -24.937  1.00  0.00     0.036 C 
BRANCH  26  27
HETATM   27  C4  UNL     1       0.512  52.684 -25.716  1.00  0.00     0.146 C 
BRANCH  27  28
HETATM   28  C2  UNL     1       1.319  51.983 -26.803  1.00  0.00    -0.065 C 
HETATM   29  C1  UNL     1       2.538  51.443 -26.617  1.00  0.00     0.016 C 
HETATM   30  C3  UNL     1       0.644  51.856 -28.146  1.00  0.00     0.045 C 
ENDBRANCH  27  28
BRANCH  27  31
HETATM   31  O1  UNL     1      -0.290  53.718 -26.288  1.00  0.00    -0.391 OA
HETATM   32  H7  UNL     1      -0.938  53.283 -26.870  1.00  0.00     0.210 HD
ENDBRANCH  27  31
ENDBRANCH  26  27
ENDBRANCH  25  26
ENDBRANCH  23  25
ENDBRANCH   1  23
BRANCH   4  33
HETATM   33  C13 UNL     1      -1.298  48.461 -19.911  1.00  0.00     0.149 C 
HETATM   34  O2  UNL     1      -0.838  47.677 -20.723  1.00  0.00    -0.649 OA
BRANCH  33  35
HETATM   35  O3  UNL     1      -1.047  48.246 -18.603  1.00  0.00    -0.776 OA
HETATM   36  H21 UNL     1      -0.487  47.439 -18.602  1.00  0.00     0.167 HD
ENDBRANCH  33  35
ENDBRANCH   4  33
TORSDOF 8
ENDMDL
MODEL 6
REMARK minimizedAffinity -8.8867712
REMARK  8 active torsions:
REMARK  status: ('A' for Active; 'I' for Inactive)
REMARK    1  A    between atoms: C2_2  and  C4_4 
REMARK    2  A    between atoms: C4_4  and  O1_5 
REMARK    3  A    between atoms: C4_4  and  C5_6 
REMARK    4  A    between atoms: C5_6  and  C6_7 
REMARK    5  A    between atoms: C6_7  and  C7_8 
REMARK    6  A    between atoms: C7_8  and  C9_10 
REMARK    7  A    between atoms: C12_13  and  C13_14 
REMARK    8  A    between atoms: C13_14  and  O3_16 
ROOT
HETATM    1  C9  UNL     1      -1.320  52.402 -23.956  1.00  0.00    -0.001 C 
HETATM    2  C10 UNL     1      -1.028  51.643 -25.287  1.00  0.00     0.007 C 
HETATM    3  C11 UNL     1      -2.036  50.487 -25.398  1.00  0.00     0.022 C 
HETATM    4  C12 UNL     1      -3.096  50.788 -24.317  1.00  0.00     0.057 C 
HETATM    5  C14 UNL     1      -3.865  49.548 -23.797  1.00  0.00     0.014 C 
HETATM    6  C15 UNL     1      -4.847  48.922 -24.796  1.00  0.00     0.007 C 
HETATM    7  C16 UNL     1      -5.451  47.646 -24.208  1.00  0.00     0.007 C 
HETATM    8  C17 UNL     1      -6.392  48.001 -23.049  1.00  0.00     0.010 C 
HETATM    9  C18 UNL     1      -7.078  46.781 -22.354  1.00  0.00     0.018 C 
HETATM   10  C19 UNL     1      -7.987  46.037 -23.349  1.00  0.00     0.023 C 
HETATM   11  C20 UNL     1      -6.086  45.779 -21.744  1.00  0.00     0.023 C 
HETATM   12  C21 UNL     1      -7.970  47.297 -21.212  1.00  0.00     0.135 C 
HETATM   13  O4  UNL     1      -8.580  46.527 -20.468  1.00  0.00    -0.297 OA
HETATM   14  C22 UNL     1      -8.138  48.790 -21.074  1.00  0.00     0.080 C 
HETATM   15  C23 UNL     1      -6.793  49.503 -21.031  1.00  0.00     0.018 C 
HETATM   16  C24 UNL     1      -5.764  48.939 -22.013  1.00  0.00    -0.026 A 
HETATM   17  C25 UNL     1      -4.396  48.651 -21.436  1.00  0.00     0.021 A 
HETATM   18  C26 UNL     1      -4.528  49.792 -22.420  1.00  0.00    -0.027 A 
HETATM   19  C27 UNL     1      -4.435  51.213 -21.872  1.00  0.00     0.011 C 
HETATM   20  C28 UNL     1      -3.073  51.913 -22.027  1.00  0.00     0.012 C 
HETATM   21  C29 UNL     1      -2.187  51.367 -23.165  1.00  0.00    -0.022 C 
HETATM   22  C30 UNL     1      -1.239  50.302 -22.525  1.00  0.00     0.017 C 
ENDROOT
BRANCH   1  23
HETATM   23  C7  UNL     1      -0.020  52.988 -23.321  1.00  0.00    -0.014 C 
HETATM   24  C8  UNL     1       0.926  53.573 -24.373  1.00  0.00     0.010 C 
BRANCH  23  25
HETATM   25  C6  UNL     1       0.711  51.897 -22.487  1.00  0.00     0.007 C 
BRANCH  25  26
HETATM   26  C5  UNL     1       1.351  52.406 -21.181  1.00  0.00     0.036 C 
BRANCH  26  27
HETATM   27  C4  UNL     1       0.395  53.213 -20.281  1.00  0.00     0.146 C 
BRANCH  27  28
HETATM   28  C2  UNL     1       0.019  52.472 -19.002  1.00  0.00    -0.065 C 
HETATM   29  C1  UNL     1       0.820  52.354 -17.928  1.00  0.00     0.016 C 
HETATM   30  C3  UNL     1      -1.377  51.901 -18.959  1.00  0.00     0.045 C 
ENDBRANCH  27  28
BRANCH  27  31
HETATM   31  O1  UNL     1       1.009  54.462 -19.964  1.00  0.00    -0.391 OA
HETATM   32  H7  UNL     1       1.847  54.258 -19.513  1.00  0.00     0.210 HD
ENDBRANCH  27  31
ENDBRANCH  26  27
ENDBRANCH  25  26
ENDBRANCH  23  25
ENDBRANCH   1  23
BRANCH   4  33
HETATM   33  C13 UNL     1      -4.073  51.834 -24.920  1.00  0.00     0.149 C 
HETATM   34  O2  UNL     1      -3.810  52.771 -25.654  1.00  0.00    -0.649 OA
BRANCH  33  35
HETATM   35  O3  UNL     1      -5.361  51.644 -24.565  1.00  0.00    -0.776 OA
HETATM   36  H21 UNL     1      -5.841  52.361 -25.033  1.00  0.00     0.167 HD
ENDBRANCH  33  35
ENDBRANCH   4  33
TORSDOF 8
ENDMDL
MODEL 7
REMARK minimizedAffinity -8.54576111
REMARK  8 active torsions:
REMARK  status: ('A' for Active; 'I' for Inactive)
REMARK    1  A    between atoms: C2_2  and  C4_4 
REMARK    2  A    between atoms: C4_4  and  O1_5 
REMARK    3  A    between atoms: C4_4  and  C5_6 
REMARK    4  A    between atoms: C5_6  and  C6_7 
REMARK    5  A    between atoms: C6_7  and  C7_8 
REMARK    6  A    between atoms: C7_8  and  C9_10 
REMARK    7  A    between atoms: C12_13  and  C13_14 
REMARK    8  A    between atoms: C13_14  and  O3_16 
ROOT
HETATM    1  C9  UNL     1      -3.117  50.439 -24.736  1.00  0.00    -0.001 C 
HETATM    2  C10 UNL     1      -4.199  51.560 -24.778  1.00  0.00     0.007 C 
HETATM    3  C11 UNL     1      -5.183  51.306 -23.624  1.00  0.00     0.022 C 
HETATM    4  C12 UNL     1      -4.481  50.253 -22.738  1.00  0.00     0.057 C 
HETATM    5  C14 UNL     1      -5.435  49.386 -21.879  1.00  0.00     0.014 C 
HETATM    6  C15 UNL     1      -6.119  50.122 -20.720  1.00  0.00     0.007 C 
HETATM    7  C16 UNL     1      -7.117  49.193 -20.025  1.00  0.00     0.007 C 
HETATM    8  C17 UNL     1      -6.364  48.088 -19.273  1.00  0.00     0.010 C 
HETATM    9  C18 UNL     1      -7.270  47.064 -18.518  1.00  0.00     0.018 C 
HETATM   10  C19 UNL     1      -8.079  47.771 -17.415  1.00  0.00     0.023 C 
HETATM   11  C20 UNL     1      -8.242  46.304 -19.435  1.00  0.00     0.023 C 
HETATM   12  C21 UNL     1      -6.374  46.018 -17.832  1.00  0.00     0.135 C 
HETATM   13  O4  UNL     1      -6.848  45.063 -17.215  1.00  0.00    -0.297 OA
HETATM   14  C22 UNL     1      -4.881  46.239 -17.875  1.00  0.00     0.080 C 
HETATM   15  C23 UNL     1      -4.391  46.477 -19.297  1.00  0.00     0.018 C 
HETATM   16  C24 UNL     1      -5.317  47.366 -20.128  1.00  0.00    -0.026 A 
HETATM   17  C25 UNL     1      -5.667  46.843 -21.504  1.00  0.00     0.021 A 
HETATM   18  C26 UNL     1      -4.780  48.065 -21.411  1.00  0.00    -0.027 A 
HETATM   19  C27 UNL     1      -3.302  47.892 -21.746  1.00  0.00     0.011 C 
HETATM   20  C28 UNL     1      -2.872  48.320 -23.161  1.00  0.00     0.012 C 
HETATM   21  C29 UNL     1      -3.796  49.353 -23.837  1.00  0.00    -0.022 C 
HETATM   22  C30 UNL     1      -4.814  48.545 -24.706  1.00  0.00     0.017 C 
ENDROOT
BRANCH   1  23
HETATM   23  C7  UNL     1      -2.603  50.070 -26.164  1.00  0.00    -0.014 C 
HETATM   24  C8  UNL     1      -2.955  48.631 -26.551  1.00  0.00     0.010 C 
BRANCH  23  25
HETATM   25  C6  UNL     1      -1.067  50.293 -26.258  1.00  0.00     0.007 C 
BRANCH  25  26
HETATM   26  C5  UNL     1      -0.487  51.238 -25.189  1.00  0.00     0.036 C 
BRANCH  26  27
HETATM   27  C4  UNL     1       0.305  52.430 -25.760  1.00  0.00     0.146 C 
BRANCH  27  28
HETATM   28  C2  UNL     1       1.317  52.015 -26.823  1.00  0.00    -0.065 C 
HETATM   29  C1  UNL     1       2.498  51.428 -26.561  1.00  0.00     0.016 C 
HETATM   30  C3  UNL     1       0.897  52.242 -28.254  1.00  0.00     0.045 C 
ENDBRANCH  27  28
BRANCH  27  31
HETATM   31  O1  UNL     1      -0.618  53.375 -26.301  1.00  0.00    -0.391 OA
HETATM   32  H7  UNL     1      -1.124  52.912 -26.991  1.00  0.00     0.210 HD
ENDBRANCH  27  31
ENDBRANCH  26  27
ENDBRANCH  25  26
ENDBRANCH  23  25
ENDBRANCH   1  23
BRANCH   4  33
HETATM   33  C13 UNL     1      -3.469  51.018 -21.843  1.00  0.00     0.149 C 
HETATM   34  O2  UNL     1      -2.285  51.223 -22.055  1.00  0.00    -0.649 OA
BRANCH  33  35
HETATM   35  O3  UNL     1      -4.005  51.499 -20.702  1.00  0.00    -0.776 OA
HETATM   36  H21 UNL     1      -3.256  51.961 -20.267  1.00  0.00     0.167 HD
ENDBRANCH  33  35
ENDBRANCH   4  33
TORSDOF 8
ENDMDL
MODEL 8
REMARK minimizedAffinity -8.5441494
REMARK  8 active torsions:
REMARK  status: ('A' for Active; 'I' for Inactive)
REMARK    1  A    between atoms: C2_2  and  C4_4 
REMARK    2  A    between atoms: C4_4  and  O1_5 
REMARK    3  A    between atoms: C4_4  and  C5_6 
REMARK    4  A    between atoms: C5_6  and  C6_7 
REMARK    5  A    between atoms: C6_7  and  C7_8 
REMARK    6  A    between atoms: C7_8  and  C9_10 
REMARK    7  A    between atoms: C12_13  and  C13_14 
REMARK    8  A    between atoms: C13_14  and  O3_16 
ROOT
HETATM    1  C9  UNL     1      -3.404  50.123 -22.088  1.00  0.00    -0.001 C 
HETATM    2  C10 UNL     1      -2.205  49.759 -23.017  1.00  0.00     0.007 C 
HETATM    3  C11 UNL     1      -2.777  49.108 -24.287  1.00  0.00     0.022 C 
HETATM    4  C12 UNL     1      -4.292  49.403 -24.229  1.00  0.00     0.057 C 
HETATM    5  C14 UNL     1      -5.180  48.402 -25.009  1.00  0.00     0.014 C 
HETATM    6  C15 UNL     1      -5.072  48.486 -26.536  1.00  0.00     0.007 C 
HETATM    7  C16 UNL     1      -5.903  47.376 -27.183  1.00  0.00     0.007 C 
HETATM    8  C17 UNL     1      -7.398  47.655 -26.974  1.00  0.00     0.010 C 
HETATM    9  C18 UNL     1      -8.362  46.590 -27.587  1.00  0.00     0.018 C 
HETATM   10  C19 UNL     1      -8.209  46.543 -29.119  1.00  0.00     0.023 C 
HETATM   11  C20 UNL     1      -8.158  45.174 -27.025  1.00  0.00     0.023 C 
HETATM   12  C21 UNL     1      -9.813  47.000 -27.282  1.00  0.00     0.135 C 
HETATM   13  O4  UNL     1     -10.769  46.294 -27.610  1.00  0.00    -0.297 OA
HETATM   14  C22 UNL     1     -10.040  48.342 -26.630  1.00  0.00     0.080 C 
HETATM   15  C23 UNL     1      -9.190  48.506 -25.377  1.00  0.00     0.018 C 
HETATM   16  C24 UNL     1      -7.769  47.956 -25.519  1.00  0.00    -0.026 A 
HETATM   17  C25 UNL     1      -7.298  47.059 -24.397  1.00  0.00     0.021 A 
HETATM   18  C26 UNL     1      -6.654  48.421 -24.537  1.00  0.00    -0.027 A 
HETATM   19  C27 UNL     1      -7.016  49.483 -23.504  1.00  0.00     0.011 C 
HETATM   20  C28 UNL     1      -6.006  49.691 -22.361  1.00  0.00     0.012 C 
HETATM   21  C29 UNL     1      -4.562  49.254 -22.682  1.00  0.00    -0.022 C 
HETATM   22  C30 UNL     1      -4.409  47.789 -22.160  1.00  0.00     0.017 C 
ENDROOT
BRANCH   1  23
HETATM   23  C7  UNL     1      -3.028  50.007 -20.577  1.00  0.00    -0.014 C 
HETATM   24  C8  UNL     1      -4.264  49.936 -19.677  1.00  0.00     0.010 C 
BRANCH  23  25
HETATM   25  C6  UNL     1      -2.122  51.199 -20.155  1.00  0.00     0.007 C 
BRANCH  25  26
HETATM   26  C5  UNL     1      -0.614  50.885 -20.133  1.00  0.00     0.036 C 
BRANCH  26  27
HETATM   27  C4  UNL     1       0.285  52.115 -19.905  1.00  0.00     0.146 C 
BRANCH  27  28
HETATM   28  C2  UNL     1       0.721  52.780 -21.206  1.00  0.00    -0.065 C 
HETATM   29  C1  UNL     1       0.526  52.258 -22.430  1.00  0.00     0.016 C 
HETATM   30  C3  UNL     1       1.357  54.141 -21.067  1.00  0.00     0.045 C 
ENDBRANCH  27  28
BRANCH  27  31
HETATM   31  O1  UNL     1      -0.417  53.050 -19.085  1.00  0.00    -0.391 OA
HETATM   32  H7  UNL     1      -1.235  53.281 -19.559  1.00  0.00     0.210 HD
ENDBRANCH  27  31
ENDBRANCH  26  27
ENDBRANCH  25  26
ENDBRANCH  23  25
ENDBRANCH   1  23
BRANCH   4  33
HETATM   33  C13 UNL     1      -4.492  50.849 -24.757  1.00  0.00     0.149 C 
HETATM   34  O2  UNL     1      -3.792  51.465 -25.543  1.00  0.00    -0.649 OA
BRANCH  33  35
HETATM   35  O3  UNL     1      -5.587  51.463 -24.263  1.00  0.00    -0.776 OA
HETATM   36  H21 UNL     1      -5.580  52.342 -24.698  1.00  0.00     0.167 HD
ENDBRANCH  33  35
ENDBRANCH   4  33
TORSDOF 8
ENDMDL
MODEL 9
REMARK minimizedAffinity -8.49848747
REMARK  8 active torsions:
REMARK  status: ('A' for Active; 'I' for Inactive)
REMARK    1  A    between atoms: C2_2  and  C4_4 
REMARK    2  A    between atoms: C4_4  and  O1_5 
REMARK    3  A    between atoms: C4_4  and  C5_6 
REMARK    4  A    between atoms: C5_6  and  C6_7 
REMARK    5  A    between atoms: C6_7  and  C7_8 
REMARK    6  A    between atoms: C7_8  and  C9_10 
REMARK    7  A    between atoms: C12_13  and  C13_14 
REMARK    8  A    between atoms: C13_14  and  O3_16 
ROOT
HETATM    1  C9  UNL     1      -0.592  52.562 -22.064  1.00  0.00    -0.001 C 
HETATM    2  C10 UNL     1      -0.202  52.071 -23.492  1.00  0.00     0.007 C 
HETATM    3  C11 UNL     1      -1.205  50.982 -23.904  1.00  0.00     0.022 C 
HETATM    4  C12 UNL     1      -2.345  51.089 -22.869  1.00  0.00     0.057 C 
HETATM    5  C14 UNL     1      -3.161  49.788 -22.662  1.00  0.00     0.014 C 
HETATM    6  C15 UNL     1      -4.065  49.391 -23.836  1.00  0.00     0.007 C 
HETATM    7  C16 UNL     1      -4.722  48.038 -23.557  1.00  0.00     0.007 C 
HETATM    8  C17 UNL     1      -5.748  48.180 -22.426  1.00  0.00     0.010 C 
HETATM    9  C18 UNL     1      -6.494  46.863 -22.038  1.00  0.00     0.018 C 
HETATM   10  C19 UNL     1      -7.328  46.347 -23.226  1.00  0.00     0.023 C 
HETATM   11  C20 UNL     1      -5.560  45.740 -21.563  1.00  0.00     0.023 C 
HETATM   12  C21 UNL     1      -7.471  47.165 -20.888  1.00  0.00     0.135 C 
HETATM   13  O4  UNL     1      -8.142  46.278 -20.359  1.00  0.00    -0.297 OA
HETATM   14  C22 UNL     1      -7.639  48.606 -20.472  1.00  0.00     0.080 C 
HETATM   15  C23 UNL     1      -6.297  49.268 -20.188  1.00  0.00     0.018 C 
HETATM   16  C24 UNL     1      -5.198  48.884 -21.181  1.00  0.00    -0.026 A 
HETATM   17  C25 UNL     1      -3.881  48.459 -20.570  1.00  0.00     0.021 A 
HETATM   18  C26 UNL     1      -3.928  49.773 -21.318  1.00  0.00    -0.027 A 
HETATM   19  C27 UNL     1      -3.869  51.057 -20.496  1.00  0.00     0.011 C 
HETATM   20  C28 UNL     1      -2.495  51.744 -20.407  1.00  0.00     0.012 C 
HETATM   21  C29 UNL     1      -1.526  51.411 -21.560  1.00  0.00    -0.022 C 
HETATM   22  C30 UNL     1      -0.637  50.221 -21.071  1.00  0.00     0.017 C 
ENDROOT
BRANCH   1  23
HETATM   23  C7  UNL     1       0.658  52.984 -21.230  1.00  0.00    -0.014 C 
HETATM   24  C8  UNL     1       1.795  51.964 -21.334  1.00  0.00     0.010 C 
BRANCH  23  25
HETATM   25  C6  UNL     1       0.263  53.200 -19.741  1.00  0.00     0.007 C 
BRANCH  25  26
HETATM   26  C5  UNL     1       1.246  52.596 -18.720  1.00  0.00     0.036 C 
BRANCH  26  27
HETATM   27  C4  UNL     1       0.695  52.516 -17.283  1.00  0.00     0.146 C 
BRANCH  27  28
HETATM   28  C2  UNL     1       0.607  51.086 -16.761  1.00  0.00    -0.065 C 
HETATM   29  C1  UNL     1       1.150  50.663 -15.605  1.00  0.00     0.016 C 
HETATM   30  C3  UNL     1      -0.205  50.129 -17.599  1.00  0.00     0.045 C 
ENDBRANCH  27  28
BRANCH  27  31
HETATM   31  O1  UNL     1       1.528  53.301 -16.429  1.00  0.00    -0.391 OA
HETATM   32  H7  UNL     1       2.426  52.932 -16.494  1.00  0.00     0.210 HD
ENDBRANCH  27  31
ENDBRANCH  26  27
ENDBRANCH  25  26
ENDBRANCH  23  25
ENDBRANCH   1  23
BRANCH   4  33
HETATM   33  C13 UNL     1      -3.265  52.253 -23.326  1.00  0.00     0.149 C 
HETATM   34  O2  UNL     1      -4.204  52.748 -22.727  1.00  0.00    -0.649 OA
BRANCH  33  35
HETATM   35  O3  UNL     1      -2.949  52.751 -24.540  1.00  0.00    -0.776 OA
HETATM   36  H21 UNL     1      -3.599  53.475 -24.672  1.00  0.00     0.167 HD
ENDBRANCH  33  35
ENDBRANCH   4  33
TORSDOF 8
ENDMDL
