MODEL 1
REMARK minimizedAffinity -8.9910059
REMARK CNNscore 0.779578805
REMARK CNNaffinity 6.32546473
REMARK  14 active torsions:
REMARK  status: ('A' for Active; 'I' for Inactive)
REMARK    1  A    between atoms: C2_2  and  O1_3 
REMARK    2  A    between atoms: O1_3  and  C3_4 
REMARK    3  A    between atoms: C4_6  and  C5_7 
REMARK    4  A    between atoms: C5_7  and  O3_8 
REMARK    5  A    between atoms: C5_7  and  C6_9 
REMARK    6  A    between atoms: C6_9  and  O4_10 
REMARK    7  A    between atoms: O4_10  and  C7_11 
REMARK    8  A    between atoms: C12_16  and  C13_17 
REMARK    9  A    between atoms: C13_17  and  O5_19 
REMARK   10  A    between atoms: C13_17  and  C15_20 
REMARK   11  A    between atoms: C15_20  and  O6_21 
REMARK   12  A    between atoms: C18_24  and  O7_26 
REMARK   13  A    between atoms: C22_29  and  O8_30 
REMARK   14  A    between atoms: C23_31  and  O9_32 
ROOT
HETATM    1  C7  UNL     1      -0.221  52.092 -22.278  1.00  0.00     0.126 C 
HETATM    2  C8  UNL     1      -1.688  51.787 -22.023  1.00  0.00     0.040 C 
HETATM    3  C9  UNL     1      -1.751  51.363 -20.541  1.00  0.00     0.026 C 
HETATM    4  C10 UNL     1      -0.605  52.160 -19.858  1.00  0.00    -0.001 C 
HETATM    5  C11 UNL     1       0.266  51.473 -18.801  1.00  0.00     0.013 C 
HETATM    6  C12 UNL     1      -0.504  50.921 -17.577  1.00  0.00     0.022 C 
HETATM    7  C16 UNL     1      -1.011  49.499 -17.899  1.00  0.00     0.010 C 
HETATM    8  C17 UNL     1      -2.157  49.437 -18.901  1.00  0.00     0.038 C 
HETATM    9  C18 UNL     1      -1.867  49.829 -20.358  1.00  0.00     0.058 C 
HETATM   10  C19 UNL     1      -0.737  49.002 -20.980  1.00  0.00     0.046 C 
HETATM   11  C20 UNL     1       0.177  52.853 -21.013  1.00  0.00     0.015 C 
HETATM   12  C21 UNL     1       1.693  52.967 -20.883  1.00  0.00     0.013 C 
ENDROOT
BRANCH   1  13
HETATM   13  O4  UNL     1      -0.033  52.922 -23.420  1.00  0.00    -0.383 OA
BRANCH  13  14
HETATM   14  C6  UNL     1       0.154  52.168 -24.628  1.00  0.00     0.202 C 
BRANCH  14  15
HETATM   15  C5  UNL     1      -0.426  52.999 -25.778  1.00  0.00     0.173 C 
BRANCH  15  16
HETATM   16  C4  UNL     1      -1.092  52.125 -26.851  1.00  0.00     0.187 C 
HETATM   17  O2  UNL     1      -0.874  50.724 -26.537  1.00  0.00    -0.348 OA
HETATM   18  C3  UNL     1      -2.156  50.085 -26.419  1.00  0.00     0.291 C 
HETATM   19  C23 UNL     1      -3.075  50.892 -27.343  1.00  0.00     0.204 C 
HETATM   20  C22 UNL     1      -2.606  52.313 -27.064  1.00  0.00     0.183 C 
BRANCH  18  21
HETATM   21  O1  UNL     1      -2.643  50.139 -25.082  1.00  0.00    -0.359 OA
BRANCH  21  22
HETATM   22  C2  UNL     1      -3.069  48.861 -24.616  1.00  0.00     0.166 C 
HETATM   23  C1  UNL     1      -4.167  48.365 -25.536  1.00  0.00     0.033 C 
ENDBRANCH  21  22
ENDBRANCH  18  21
BRANCH  19  24
HETATM   24  O9  UNL     1      -2.845  50.560 -28.721  1.00  0.00    -0.388 OA
HETATM   25  H42 UNL     1      -1.891  50.386 -28.832  1.00  0.00     0.210 HD
ENDBRANCH  19  24
BRANCH  20  26
HETATM   26  O8  UNL     1      -3.285  52.854 -25.932  1.00  0.00    -0.390 OA
HETATM   27  H40 UNL     1      -2.862  52.464 -25.132  1.00  0.00     0.210 HD
ENDBRANCH  20  26
ENDBRANCH  15  16
BRANCH  15  28
HETATM   28  O3  UNL     1       0.627  53.802 -26.344  1.00  0.00    -0.391 OA
HETATM   29  H9  UNL     1       1.073  54.203 -25.570  1.00  0.00     0.210 HD
ENDBRANCH  15  28
ENDBRANCH  14  15
ENDBRANCH  13  14
ENDBRANCH   1  13
BRANCH   9  30
HETATM   30  O7  UNL     1      -3.064  49.454 -21.085  1.00  0.00    -0.390 OA
HETATM   31  H34 UNL     1      -3.178  48.492 -21.006  1.00  0.00     0.210 HD
ENDBRANCH   9  30
BRANCH   6  32
HETATM   32  C13 UNL     1       0.390  50.938 -16.277  1.00  0.00     0.079 C 
HETATM   33  C14 UNL     1      -0.398  51.425 -15.045  1.00  0.00     0.048 C 
BRANCH  32  34
HETATM   34  O5  UNL     1       0.819  49.595 -16.006  1.00  0.00    -0.388 OA
HETATM   35  H23 UNL     1       1.351  49.603 -15.191  1.00  0.00     0.210 HD
ENDBRANCH  32  34
BRANCH  32  36
HETATM   36  C15 UNL     1       1.646  51.845 -16.423  1.00  0.00     0.201 C 
BRANCH  36  37
HETATM   37  O6  UNL     1       1.394  53.198 -16.071  1.00  0.00    -0.398 OA
HETATM   38  H26 UNL     1       1.267  53.241 -15.107  1.00  0.00     0.209 HD
ENDBRANCH  36  37
ENDBRANCH  32  36
ENDBRANCH   6  32
TORSDOF 14
ENDMDL
MODEL 2
REMARK minimizedAffinity -7.17945337
REMARK CNNscore 0.720597506
REMARK CNNaffinity 5.97242546
REMARK  14 active torsions:
REMARK  status: ('A' for Active; 'I' for Inactive)
REMARK    1  A    between atoms: C2_2  and  O1_3 
REMARK    2  A    between atoms: O1_3  and  C3_4 
REMARK    3  A    between atoms: C4_6  and  C5_7 
REMARK    4  A    between atoms: C5_7  and  O3_8 
REMARK    5  A    between atoms: C5_7  and  C6_9 
REMARK    6  A    between atoms: C6_9  and  O4_10 
REMARK    7  A    between atoms: O4_10  and  C7_11 
REMARK    8  A    between atoms: C12_16  and  C13_17 
REMARK    9  A    between atoms: C13_17  and  O5_19 
REMARK   10  A    between atoms: C13_17  and  C15_20 
REMARK   11  A    between atoms: C15_20  and  O6_21 
REMARK   12  A    between atoms: C18_24  and  O7_26 
REMARK   13  A    between atoms: C22_29  and  O8_30 
REMARK   14  A    between atoms: C23_31  and  O9_32 
ROOT
HETATM    1  C7  UNL     1      -2.052  51.200 -22.214  1.00  0.00     0.126 C 
HETATM    2  C8  UNL     1      -3.441  51.751 -21.943  1.00  0.00     0.040 C 
HETATM    3  C9  UNL     1      -4.128  50.680 -21.070  1.00  0.00     0.026 C 
HETATM    4  C10 UNL     1      -2.969  50.033 -20.263  1.00  0.00    -0.001 C 
HETATM    5  C11 UNL     1      -2.953  48.516 -20.048  1.00  0.00     0.013 C 
HETATM    6  C12 UNL     1      -4.196  47.947 -19.322  1.00  0.00     0.022 C 
HETATM    7  C16 UNL     1      -5.300  47.659 -20.362  1.00  0.00     0.010 C 
HETATM    8  C17 UNL     1      -5.964  48.896 -20.953  1.00  0.00     0.038 C 
HETATM    9  C18 UNL     1      -5.124  49.801 -21.868  1.00  0.00     0.058 C 
HETATM   10  C19 UNL     1      -4.530  49.048 -23.062  1.00  0.00     0.046 C 
HETATM   11  C20 UNL     1      -1.656  50.633 -20.850  1.00  0.00     0.015 C 
HETATM   12  C21 UNL     1      -0.438  49.720 -20.956  1.00  0.00     0.013 C 
ENDROOT
BRANCH   1  13
HETATM   13  O4  UNL     1      -1.133  52.218 -22.598  1.00  0.00    -0.383 OA
BRANCH  13  14
HETATM   14  C6  UNL     1      -0.640  52.045 -23.935  1.00  0.00     0.202 C 
BRANCH  14  15
HETATM   15  C5  UNL     1      -1.259  53.150 -24.797  1.00  0.00     0.173 C 
BRANCH  15  16
HETATM   16  C4  UNL     1      -1.995  52.590 -26.024  1.00  0.00     0.187 C 
HETATM   17  O2  UNL     1      -1.211  52.849 -27.218  1.00  0.00    -0.348 OA
HETATM   18  C3  UNL     1      -0.936  51.592 -27.858  1.00  0.00     0.291 C 
HETATM   19  C23 UNL     1      -2.118  50.697 -27.471  1.00  0.00     0.204 C 
HETATM   20  C22 UNL     1      -2.324  51.085 -26.013  1.00  0.00     0.183 C 
BRANCH  18  21
HETATM   21  O1  UNL     1       0.279  51.022 -27.383  1.00  0.00    -0.359 OA
BRANCH  21  22
HETATM   22  C2  UNL     1       1.393  51.887 -27.593  1.00  0.00     0.166 C 
HETATM   23  C1  UNL     1       2.466  51.528 -26.584  1.00  0.00     0.033 C 
ENDBRANCH  21  22
ENDBRANCH  18  21
BRANCH  19  24
HETATM   24  O9  UNL     1      -3.289  51.025 -28.237  1.00  0.00    -0.388 OA
HETATM   25  H42 UNL     1      -3.293  51.991 -28.378  1.00  0.00     0.210 HD
ENDBRANCH  19  24
BRANCH  20  26
HETATM   26  O8  UNL     1      -1.476  50.315 -25.163  1.00  0.00    -0.390 OA
HETATM   27  H40 UNL     1      -0.573  50.705 -25.231  1.00  0.00     0.210 HD
ENDBRANCH  20  26
ENDBRANCH  15  16
BRANCH  15  28
HETATM   28  O3  UNL     1      -0.220  54.065 -25.190  1.00  0.00    -0.391 OA
HETATM   29  H9  UNL     1       0.272  54.249 -24.363  1.00  0.00     0.210 HD
ENDBRANCH  15  28
ENDBRANCH  14  15
ENDBRANCH  13  14
ENDBRANCH   1  13
BRANCH   9  30
HETATM   30  O7  UNL     1      -6.077  50.735 -22.436  1.00  0.00    -0.390 OA
HETATM   31  H34 UNL     1      -6.723  50.229 -22.956  1.00  0.00     0.210 HD
ENDBRANCH   9  30
BRANCH   6  32
HETATM   32  C13 UNL     1      -3.836  46.657 -18.486  1.00  0.00     0.079 C 
HETATM   33  C14 UNL     1      -4.099  45.365 -19.284  1.00  0.00     0.048 C 
BRANCH  32  34
HETATM   34  O5  UNL     1      -2.435  46.692 -18.180  1.00  0.00    -0.388 OA
HETATM   35  H23 UNL     1      -2.210  45.885 -17.685  1.00  0.00     0.210 HD
ENDBRANCH  32  34
BRANCH  32  36
HETATM   36  C15 UNL     1      -4.638  46.561 -17.155  1.00  0.00     0.201 C 
BRANCH  36  37
HETATM   37  O6  UNL     1      -5.348  47.753 -16.851  1.00  0.00    -0.398 OA
HETATM   38  H26 UNL     1      -6.082  47.837 -17.484  1.00  0.00     0.209 HD
ENDBRANCH  36  37
ENDBRANCH  32  36
ENDBRANCH   6  32
TORSDOF 14
ENDMDL
MODEL 3
REMARK minimizedAffinity -7.48861361
REMARK CNNscore 0.702818751
REMARK CNNaffinity 6.06144381
REMARK  14 active torsions:
REMARK  status: ('A' for Active; 'I' for Inactive)
REMARK    1  A    between atoms: C2_2  and  O1_3 
REMARK    2  A    between atoms: O1_3  and  C3_4 
REMARK    3  A    between atoms: C4_6  and  C5_7 
REMARK    4  A    between atoms: C5_7  and  O3_8 
REMARK    5  A    between atoms: C5_7  and  C6_9 
REMARK    6  A    between atoms: C6_9  and  O4_10 
REMARK    7  A    between atoms: O4_10  and  C7_11 
REMARK    8  A    between atoms: C12_16  and  C13_17 
REMARK    9  A    between atoms: C13_17  and  O5_19 
REMARK   10  A    between atoms: C13_17  and  C15_20 
REMARK   11  A    between atoms: C15_20  and  O6_21 
REMARK   12  A    between atoms: C18_24  and  O7_26 
REMARK   13  A    between atoms: C22_29  and  O8_30 
REMARK   14  A    between atoms: C23_31  and  O9_32 
ROOT
HETATM    1  C7  UNL     1      -0.287  50.775 -19.157  1.00  0.00     0.126 C 
HETATM    2  C8  UNL     1      -0.300  52.284 -18.985  1.00  0.00     0.040 C 
HETATM    3  C9  UNL     1      -0.313  52.845 -20.423  1.00  0.00     0.026 C 
HETATM    4  C10 UNL     1      -1.074  51.773 -21.253  1.00  0.00    -0.001 C 
HETATM    5  C11 UNL     1      -0.572  51.407 -22.653  1.00  0.00     0.013 C 
HETATM    6  C12 UNL     1      -0.505  52.587 -23.653  1.00  0.00     0.022 C 
HETATM    7  C16 UNL     1       0.852  53.306 -23.494  1.00  0.00     0.010 C 
HETATM    8  C17 UNL     1       1.003  54.119 -22.215  1.00  0.00     0.038 C 
HETATM    9  C18 UNL     1       1.074  53.361 -20.880  1.00  0.00     0.058 C 
HETATM   10  C19 UNL     1       2.208  52.332 -20.844  1.00  0.00     0.046 C 
HETATM   11  C20 UNL     1      -1.292  50.568 -20.290  1.00  0.00     0.015 C 
HETATM   12  C21 UNL     1      -1.195  49.161 -20.874  1.00  0.00     0.013 C 
ENDROOT
BRANCH   1  13
HETATM   13  O4  UNL     1      -0.733  50.095 -17.987  1.00  0.00    -0.383 OA
BRANCH  13  14
HETATM   14  C6  UNL     1       0.293  49.978 -16.989  1.00  0.00     0.202 C 
BRANCH  14  15
HETATM   15  C5  UNL     1      -0.089  50.907 -15.831  1.00  0.00     0.173 C 
BRANCH  15  16
HETATM   16  C4  UNL     1       0.503  50.445 -14.492  1.00  0.00     0.187 C 
HETATM   17  O2  UNL     1       1.906  50.115 -14.672  1.00  0.00    -0.348 OA
HETATM   18  C3  UNL     1       2.678  50.928 -13.772  1.00  0.00     0.291 C 
HETATM   19  C23 UNL     1       1.737  51.197 -12.594  1.00  0.00     0.204 C 
HETATM   20  C22 UNL     1       0.416  51.431 -13.313  1.00  0.00     0.183 C 
BRANCH  18  21
HETATM   21  O1  UNL     1       3.059  52.157 -14.380  1.00  0.00    -0.359 OA
BRANCH  21  22
HETATM   22  C2  UNL     1       3.719  51.956 -15.627  1.00  0.00     0.166 C 
HETATM   23  C1  UNL     1       2.995  52.770 -16.682  1.00  0.00     0.033 C 
ENDBRANCH  21  22
ENDBRANCH  18  21
BRANCH  19  24
HETATM   24  O9  UNL     1       1.634  50.047 -11.739  1.00  0.00    -0.388 OA
HETATM   25  H42 UNL     1       1.672  49.251 -12.302  1.00  0.00     0.210 HD
ENDBRANCH  19  24
BRANCH  20  26
HETATM   26  O8  UNL     1       0.293  52.796 -13.709  1.00  0.00    -0.390 OA
HETATM   27  H40 UNL     1       0.852  52.911 -14.513  1.00  0.00     0.210 HD
ENDBRANCH  20  26
ENDBRANCH  15  16
BRANCH  15  28
HETATM   28  O3  UNL     1      -1.525  50.992 -15.762  1.00  0.00    -0.391 OA
HETATM   29  H9  UNL     1      -1.807  51.150 -16.687  1.00  0.00     0.210 HD
ENDBRANCH  15  28
ENDBRANCH  14  15
ENDBRANCH  13  14
ENDBRANCH   1  13
BRANCH   9  30
HETATM   30  O7  UNL     1       1.439  54.370 -19.904  1.00  0.00    -0.390 OA
HETATM   31  H34 UNL     1       2.313  54.722 -20.145  1.00  0.00     0.210 HD
ENDBRANCH   9  30
BRANCH   6  32
HETATM   32  C13 UNL     1      -0.734  52.101 -25.137  1.00  0.00     0.079 C 
HETATM   33  C14 UNL     1      -1.444  50.735 -25.190  1.00  0.00     0.048 C 
BRANCH  32  34
HETATM   34  O5  UNL     1      -1.583  53.051 -25.798  1.00  0.00    -0.388 OA
HETATM   35  H23 UNL     1      -1.742  52.738 -26.706  1.00  0.00     0.210 HD
ENDBRANCH  32  34
BRANCH  32  36
HETATM   36  C15 UNL     1       0.595  51.975 -25.938  1.00  0.00     0.201 C 
BRANCH  36  37
HETATM   37  O6  UNL     1       0.803  53.055 -26.837  1.00  0.00    -0.398 OA
HETATM   38  H26 UNL     1       0.998  53.851 -26.312  1.00  0.00     0.209 HD
ENDBRANCH  36  37
ENDBRANCH  32  36
ENDBRANCH   6  32
TORSDOF 14
ENDMDL
MODEL 4
REMARK minimizedAffinity -7.16627073
REMARK CNNscore 0.679771006
REMARK CNNaffinity 5.92556715
REMARK  14 active torsions:
REMARK  status: ('A' for Active; 'I' for Inactive)
REMARK    1  A    between atoms: C2_2  and  O1_3 
REMARK    2  A    between atoms: O1_3  and  C3_4 
REMARK    3  A    between atoms: C4_6  and  C5_7 
REMARK    4  A    between atoms: C5_7  and  O3_8 
REMARK    5  A    between atoms: C5_7  and  C6_9 
REMARK    6  A    between atoms: C6_9  and  O4_10 
REMARK    7  A    between atoms: O4_10  and  C7_11 
REMARK    8  A    between atoms: C12_16  and  C13_17 
REMARK    9  A    between atoms: C13_17  and  O5_19 
REMARK   10  A    between atoms: C13_17  and  C15_20 
REMARK   11  A    between atoms: C15_20  and  O6_21 
REMARK   12  A    between atoms: C18_24  and  O7_26 
REMARK   13  A    between atoms: C22_29  and  O8_30 
REMARK   14  A    between atoms: C23_31  and  O9_32 
ROOT
HETATM    1  C7  UNL     1      -2.722  50.399 -22.134  1.00  0.00     0.126 C 
HETATM    2  C8  UNL     1      -3.249  49.327 -23.072  1.00  0.00     0.040 C 
HETATM    3  C9  UNL     1      -2.692  49.708 -24.460  1.00  0.00     0.026 C 
HETATM    4  C10 UNL     1      -1.339  50.410 -24.158  1.00  0.00    -0.001 C 
HETATM    5  C11 UNL     1      -0.942  51.657 -24.955  1.00  0.00     0.013 C 
HETATM    6  C12 UNL     1      -0.854  51.453 -26.487  1.00  0.00     0.022 C 
HETATM    7  C16 UNL     1      -2.253  51.661 -27.105  1.00  0.00     0.010 C 
HETATM    8  C17 UNL     1      -3.255  50.551 -26.813  1.00  0.00     0.038 C 
HETATM    9  C18 UNL     1      -3.750  50.384 -25.368  1.00  0.00     0.058 C 
HETATM   10  C19 UNL     1      -4.383  51.661 -24.808  1.00  0.00     0.046 C 
HETATM   11  C20 UNL     1      -1.279  50.566 -22.609  1.00  0.00     0.015 C 
HETATM   12  C21 UNL     1      -0.647  51.834 -22.042  1.00  0.00     0.013 C 
ENDROOT
BRANCH   1  13
HETATM   13  O4  UNL     1      -2.737  49.980 -20.773  1.00  0.00    -0.383 OA
BRANCH  13  14
HETATM   14  C6  UNL     1      -1.753  48.974 -20.491  1.00  0.00     0.202 C 
BRANCH  14  15
HETATM   15  C5  UNL     1      -2.491  47.761 -19.917  1.00  0.00     0.173 C 
BRANCH  15  16
HETATM   16  C4  UNL     1      -3.999  48.012 -19.768  1.00  0.00     0.187 C 
HETATM   17  O2  UNL     1      -4.668  46.763 -19.448  1.00  0.00    -0.348 OA
HETATM   18  C3  UNL     1      -5.370  46.935 -18.206  1.00  0.00     0.291 C 
HETATM   19  C23 UNL     1      -5.712  48.427 -18.160  1.00  0.00     0.204 C 
HETATM   20  C22 UNL     1      -4.434  49.044 -18.712  1.00  0.00     0.183 C 
BRANCH  18  21
HETATM   21  O1  UNL     1      -4.551  46.589 -17.094  1.00  0.00    -0.359 OA
BRANCH  21  22
HETATM   22  C2  UNL     1      -5.322  46.268 -15.940  1.00  0.00     0.166 C 
HETATM   23  C1  UNL     1      -5.816  44.841 -16.084  1.00  0.00     0.033 C 
ENDBRANCH  21  22
ENDBRANCH  18  21
BRANCH  19  24
HETATM   24  O9  UNL     1      -6.818  48.732 -19.025  1.00  0.00    -0.388 OA
HETATM   25  H42 UNL     1      -6.749  48.160 -19.812  1.00  0.00     0.210 HD
ENDBRANCH  19  24
BRANCH  20  26
HETATM   26  O8  UNL     1      -3.480  49.241 -17.670  1.00  0.00    -0.390 OA
HETATM   27  H40 UNL     1      -3.078  48.361 -17.481  1.00  0.00     0.210 HD
ENDBRANCH  20  26
ENDBRANCH  15  16
BRANCH  15  28
HETATM   28  O3  UNL     1      -1.896  47.415 -18.652  1.00  0.00    -0.391 OA
HETATM   29  H9  UNL     1      -0.932  47.418 -18.824  1.00  0.00     0.210 HD
ENDBRANCH  15  28
ENDBRANCH  14  15
ENDBRANCH  13  14
ENDBRANCH   1  13
BRANCH   9  30
HETATM   30  O7  UNL     1      -4.833  49.425 -25.459  1.00  0.00    -0.390 OA
HETATM   31  H34 UNL     1      -5.531  49.809 -26.017  1.00  0.00     0.210 HD
ENDBRANCH   9  30
BRANCH   6  32
HETATM   32  C13 UNL     1       0.216  52.415 -27.137  1.00  0.00     0.079 C 
HETATM   33  C14 UNL     1       1.647  51.863 -26.992  1.00  0.00     0.048 C 
BRANCH  32  34
HETATM   34  O5  UNL     1      -0.063  52.519 -28.541  1.00  0.00    -0.388 OA
HETATM   35  H23 UNL     1       0.611  53.093 -28.944  1.00  0.00     0.210 HD
ENDBRANCH  32  34
BRANCH  32  36
HETATM   36  C15 UNL     1       0.195  53.842 -26.516  1.00  0.00     0.201 C 
BRANCH  36  37
HETATM   37  O6  UNL     1      -0.343  54.820 -27.395  1.00  0.00    -0.398 OA
HETATM   38  H26 UNL     1      -1.299  54.658 -27.477  1.00  0.00     0.209 HD
ENDBRANCH  36  37
ENDBRANCH  32  36
ENDBRANCH   6  32
TORSDOF 14
ENDMDL
MODEL 5
REMARK minimizedAffinity -8.89403629
REMARK CNNscore 0.657371044
REMARK CNNaffinity 6.5302062
REMARK  14 active torsions:
REMARK  status: ('A' for Active; 'I' for Inactive)
REMARK    1  A    between atoms: C2_2  and  O1_3 
REMARK    2  A    between atoms: O1_3  and  C3_4 
REMARK    3  A    between atoms: C4_6  and  C5_7 
REMARK    4  A    between atoms: C5_7  and  O3_8 
REMARK    5  A    between atoms: C5_7  and  C6_9 
REMARK    6  A    between atoms: C6_9  and  O4_10 
REMARK    7  A    between atoms: O4_10  and  C7_11 
REMARK    8  A    between atoms: C12_16  and  C13_17 
REMARK    9  A    between atoms: C13_17  and  O5_19 
REMARK   10  A    between atoms: C13_17  and  C15_20 
REMARK   11  A    between atoms: C15_20  and  O6_21 
REMARK   12  A    between atoms: C18_24  and  O7_26 
REMARK   13  A    between atoms: C22_29  and  O8_30 
REMARK   14  A    between atoms: C23_31  and  O9_32 
ROOT
HETATM    1  C7  UNL     1      -0.965  52.422 -22.336  1.00  0.00     0.126 C 
HETATM    2  C8  UNL     1       0.494  52.734 -22.048  1.00  0.00     0.040 C 
HETATM    3  C9  UNL     1       0.763  52.114 -20.661  1.00  0.00     0.026 C 
HETATM    4  C10 UNL     1      -0.188  50.887 -20.590  1.00  0.00    -0.001 C 
HETATM    5  C11 UNL     1      -0.928  50.580 -19.284  1.00  0.00     0.013 C 
HETATM    6  C12 UNL     1      -0.016  50.339 -18.057  1.00  0.00     0.022 C 
HETATM    7  C16 UNL     1       0.315  51.696 -17.401  1.00  0.00     0.010 C 
HETATM    8  C17 UNL     1       1.273  52.576 -18.192  1.00  0.00     0.038 C 
HETATM    9  C18 UNL     1       0.783  53.166 -19.524  1.00  0.00     0.058 C 
HETATM   10  C19 UNL     1      -0.496  53.995 -19.368  1.00  0.00     0.046 C 
HETATM   11  C20 UNL     1      -1.089  50.975 -21.858  1.00  0.00     0.015 C 
HETATM   12  C21 UNL     1      -2.550  50.553 -21.728  1.00  0.00     0.013 C 
ENDROOT
BRANCH   1  13
HETATM   13  O4  UNL     1      -1.269  52.500 -23.725  1.00  0.00    -0.383 OA
BRANCH  13  14
HETATM   14  C6  UNL     1      -0.227  51.961 -24.553  1.00  0.00     0.202 C 
BRANCH  14  15
HETATM   15  C5  UNL     1      -0.266  52.716 -25.885  1.00  0.00     0.173 C 
BRANCH  15  16
HETATM   16  C4  UNL     1      -1.026  51.942 -26.973  1.00  0.00     0.187 C 
HETATM   17  O2  UNL     1      -0.948  50.519 -26.697  1.00  0.00    -0.348 OA
HETATM   18  C3  UNL     1      -2.287  50.009 -26.582  1.00  0.00     0.291 C 
HETATM   19  C23 UNL     1      -3.127  50.929 -27.474  1.00  0.00     0.204 C 
HETATM   20  C22 UNL     1      -2.514  52.288 -27.164  1.00  0.00     0.183 C 
BRANCH  18  21
HETATM   21  O1  UNL     1      -2.754  50.076 -25.238  1.00  0.00    -0.359 OA
BRANCH  21  22
HETATM   22  C2  UNL     1      -3.172  48.803 -24.753  1.00  0.00     0.166 C 
HETATM   23  C1  UNL     1      -4.499  48.463 -25.402  1.00  0.00     0.033 C 
ENDBRANCH  21  22
ENDBRANCH  18  21
BRANCH  19  24
HETATM   24  O9  UNL     1      -2.943  50.612 -28.863  1.00  0.00    -0.388 OA
HETATM   25  H42 UNL     1      -2.013  50.347 -28.989  1.00  0.00     0.210 HD
ENDBRANCH  19  24
BRANCH  20  26
HETATM   26  O8  UNL     1      -3.126  52.865 -26.011  1.00  0.00    -0.390 OA
HETATM   27  H40 UNL     1      -2.737  52.412 -25.226  1.00  0.00     0.210 HD
ENDBRANCH  20  26
ENDBRANCH  15  16
BRANCH  15  28
HETATM   28  O3  UNL     1       1.086  52.995 -26.296  1.00  0.00    -0.391 OA
HETATM   29  H9  UNL     1       1.518  53.354 -25.494  1.00  0.00     0.210 HD
ENDBRANCH  15  28
ENDBRANCH  14  15
ENDBRANCH  13  14
ENDBRANCH   1  13
BRANCH   9  30
HETATM   30  O7  UNL     1       1.812  54.113 -19.907  1.00  0.00    -0.390 OA
HETATM   31  H34 UNL     1       1.858  54.803 -19.224  1.00  0.00     0.210 HD
ENDBRANCH   9  30
BRANCH   6  32
HETATM   32  C13 UNL     1      -0.682  49.344 -17.029  1.00  0.00     0.079 C 
HETATM   33  C14 UNL     1      -1.821  50.015 -16.237  1.00  0.00     0.048 C 
BRANCH  32  34
HETATM   34  O5  UNL     1      -1.256  48.252 -17.762  1.00  0.00    -0.388 OA
HETATM   35  H23 UNL     1      -1.687  47.652 -17.128  1.00  0.00     0.210 HD
ENDBRANCH  32  34
BRANCH  32  36
HETATM   36  C15 UNL     1       0.337  48.774 -15.999  1.00  0.00     0.201 C 
BRANCH  36  37
HETATM   37  O6  UNL     1      -0.127  47.595 -15.356  1.00  0.00    -0.398 OA
HETATM   38  H26 UNL     1      -0.127  46.875 -16.009  1.00  0.00     0.209 HD
ENDBRANCH  36  37
ENDBRANCH  32  36
ENDBRANCH   6  32
TORSDOF 14
ENDMDL
MODEL 6
REMARK minimizedAffinity -6.98256588
REMARK CNNscore 0.635544062
REMARK CNNaffinity 5.71719694
REMARK  14 active torsions:
REMARK  status: ('A' for Active; 'I' for Inactive)
REMARK    1  A    between atoms: C2_2  and  O1_3 
REMARK    2  A    between atoms: O1_3  and  C3_4 
REMARK    3  A    between atoms: C4_6  and  C5_7 
REMARK    4  A    between atoms: C5_7  and  O3_8 
REMARK    5  A    between atoms: C5_7  and  C6_9 
REMARK    6  A    between atoms: C6_9  and  O4_10 
REMARK    7  A    between atoms: O4_10  and  C7_11 
REMARK    8  A    between atoms: C12_16  and  C13_17 
REMARK    9  A    between atoms: C13_17  and  O5_19 
REMARK   10  A    between atoms: C13_17  and  C15_20 
REMARK   11  A    between atoms: C15_20  and  O6_21 
REMARK   12  A    between atoms: C18_24  and  O7_26 
REMARK   13  A    between atoms: C22_29  and  O8_30 
REMARK   14  A    between atoms: C23_31  and  O9_32 
ROOT
HETATM    1  C7  UNL     1      -0.742  50.747 -19.596  1.00  0.00     0.126 C 
HETATM    2  C8  UNL     1      -0.673  52.265 -19.595  1.00  0.00     0.040 C 
HETATM    3  C9  UNL     1      -0.638  52.658 -21.087  1.00  0.00     0.026 C 
HETATM    4  C10 UNL     1      -1.448  51.543 -21.804  1.00  0.00    -0.001 C 
HETATM    5  C11 UNL     1      -0.951  50.994 -23.146  1.00  0.00     0.013 C 
HETATM    6  C12 UNL     1      -0.807  52.048 -24.270  1.00  0.00     0.022 C 
HETATM    7  C16 UNL     1       0.586  52.705 -24.170  1.00  0.00     0.010 C 
HETATM    8  C17 UNL     1       0.767  53.648 -22.988  1.00  0.00     0.038 C 
HETATM    9  C18 UNL     1       0.781  53.044 -21.575  1.00  0.00     0.058 C 
HETATM   10  C19 UNL     1       1.855  51.965 -21.403  1.00  0.00     0.046 C 
HETATM   11  C20 UNL     1      -1.744  50.468 -20.716  1.00  0.00     0.015 C 
HETATM   12  C21 UNL     1      -1.718  49.001 -21.136  1.00  0.00     0.013 C 
ENDROOT
BRANCH   1  13
HETATM   13  O4  UNL     1      -1.238  50.229 -18.365  1.00  0.00    -0.383 OA
BRANCH  13  14
HETATM   14  C6  UNL     1      -2.251  51.062 -17.780  1.00  0.00     0.202 C 
BRANCH  14  15
HETATM   15  C5  UNL     1      -2.822  50.308 -16.574  1.00  0.00     0.173 C 
BRANCH  15  16
HETATM   16  C4  UNL     1      -1.788  50.134 -15.453  1.00  0.00     0.187 C 
HETATM   17  O2  UNL     1      -1.563  51.411 -14.799  1.00  0.00    -0.348 OA
HETATM   18  C3  UNL     1      -1.862  51.260 -13.401  1.00  0.00     0.291 C 
HETATM   19  C23 UNL     1      -1.567  49.786 -13.103  1.00  0.00     0.204 C 
HETATM   20  C22 UNL     1      -2.120  49.112 -14.350  1.00  0.00     0.183 C 
BRANCH  18  21
HETATM   21  O1  UNL     1      -3.229  51.547 -13.128  1.00  0.00    -0.359 OA
BRANCH  21  22
HETATM   22  C2  UNL     1      -3.476  51.695 -11.732  1.00  0.00     0.166 C 
HETATM   23  C1  UNL     1      -3.978  53.106 -11.489  1.00  0.00     0.033 C 
ENDBRANCH  21  22
ENDBRANCH  18  21
BRANCH  19  24
HETATM   24  O9  UNL     1      -0.153  49.551 -13.002  1.00  0.00    -0.388 OA
HETATM   25  H42 UNL     1       0.293  50.129 -13.648  1.00  0.00     0.210 HD
ENDBRANCH  19  24
BRANCH  20  26
HETATM   26  O8  UNL     1      -3.515  48.851 -14.205  1.00  0.00    -0.390 OA
HETATM   27  H40 UNL     1      -3.981  49.706 -14.354  1.00  0.00     0.210 HD
ENDBRANCH  20  26
ENDBRANCH  15  16
BRANCH  15  28
HETATM   28  O3  UNL     1      -3.322  49.035 -17.021  1.00  0.00    -0.391 OA
HETATM   29  H9  UNL     1      -3.853  49.244 -17.817  1.00  0.00     0.210 HD
ENDBRANCH  15  28
ENDBRANCH  14  15
ENDBRANCH  13  14
ENDBRANCH   1  13
BRANCH   9  30
HETATM   30  O7  UNL     1       1.190  54.136 -20.712  1.00  0.00    -0.390 OA
HETATM   31  H34 UNL     1       2.085  54.411 -20.975  1.00  0.00     0.210 HD
ENDBRANCH   9  30
BRANCH   6  32
HETATM   32  C13 UNL     1      -1.046  51.410 -25.694  1.00  0.00     0.079 C 
HETATM   33  C14 UNL     1       0.281  51.086 -26.407  1.00  0.00     0.048 C 
BRANCH  32  34
HETATM   34  O5  UNL     1      -1.753  50.173 -25.523  1.00  0.00    -0.388 OA
HETATM   35  H23 UNL     1      -1.878  49.769 -26.400  1.00  0.00     0.210 HD
ENDBRANCH  32  34
BRANCH  32  36
HETATM   36  C15 UNL     1      -1.874  52.333 -26.634  1.00  0.00     0.201 C 
BRANCH  36  37
HETATM   37  O6  UNL     1      -1.145  53.471 -27.074  1.00  0.00    -0.398 OA
HETATM   38  H26 UNL     1      -0.460  53.169 -27.695  1.00  0.00     0.209 HD
ENDBRANCH  36  37
ENDBRANCH  32  36
ENDBRANCH   6  32
TORSDOF 14
ENDMDL
MODEL 7
REMARK minimizedAffinity -8.19314003
REMARK CNNscore 0.573240161
REMARK CNNaffinity 6.29011154
REMARK  14 active torsions:
REMARK  status: ('A' for Active; 'I' for Inactive)
REMARK    1  A    between atoms: C2_2  and  O1_3 
REMARK    2  A    between atoms: O1_3  and  C3_4 
REMARK    3  A    between atoms: C4_6  and  C5_7 
REMARK    4  A    between atoms: C5_7  and  O3_8 
REMARK    5  A    between atoms: C5_7  and  C6_9 
REMARK    6  A    between atoms: C6_9  and  O4_10 
REMARK    7  A    between atoms: O4_10  and  C7_11 
REMARK    8  A    between atoms: C12_16  and  C13_17 
REMARK    9  A    between atoms: C13_17  and  O5_19 
REMARK   10  A    between atoms: C13_17  and  C15_20 
REMARK   11  A    between atoms: C15_20  and  O6_21 
REMARK   12  A    between atoms: C18_24  and  O7_26 
REMARK   13  A    between atoms: C22_29  and  O8_30 
REMARK   14  A    between atoms: C23_31  and  O9_32 
ROOT
HETATM    1  C7  UNL     1      -4.436  48.859 -24.877  1.00  0.00     0.126 C 
HETATM    2  C8  UNL     1      -4.734  50.043 -23.973  1.00  0.00     0.040 C 
HETATM    3  C9  UNL     1      -3.543  51.002 -24.174  1.00  0.00     0.026 C 
HETATM    4  C10 UNL     1      -3.088  50.759 -25.640  1.00  0.00    -0.001 C 
HETATM    5  C11 UNL     1      -1.593  50.711 -25.969  1.00  0.00     0.013 C 
HETATM    6  C12 UNL     1      -0.802  51.991 -25.605  1.00  0.00     0.022 C 
HETATM    7  C16 UNL     1      -0.350  51.903 -24.132  1.00  0.00     0.010 C 
HETATM    8  C17 UNL     1      -1.466  52.060 -23.107  1.00  0.00     0.038 C 
HETATM    9  C18 UNL     1      -2.522  50.947 -23.010  1.00  0.00     0.058 C 
HETATM   10  C19 UNL     1      -1.907  49.572 -22.735  1.00  0.00     0.046 C 
HETATM   11  C20 UNL     1      -3.917  49.540 -26.144  1.00  0.00     0.015 C 
HETATM   12  C21 UNL     1      -3.230  48.543 -27.073  1.00  0.00     0.013 C 
ENDROOT
BRANCH   1  13
HETATM   13  O4  UNL     1      -5.605  48.103 -25.180  1.00  0.00    -0.383 OA
BRANCH  13  14
HETATM   14  C6  UNL     1      -6.648  48.283 -24.209  1.00  0.00     0.202 C 
BRANCH  14  15
HETATM   15  C5  UNL     1      -7.984  48.231 -24.959  1.00  0.00     0.173 C 
BRANCH  15  16
HETATM   16  C4  UNL     1      -7.914  47.349 -26.215  1.00  0.00     0.187 C 
HETATM   17  O2  UNL     1      -8.834  46.235 -26.075  1.00  0.00    -0.348 OA
HETATM   18  C3  UNL     1      -9.756  46.272 -27.177  1.00  0.00     0.291 C 
HETATM   19  C23 UNL     1      -8.971  46.935 -28.313  1.00  0.00     0.204 C 
HETATM   20  C22 UNL     1      -8.223  48.028 -27.562  1.00  0.00     0.183 C 
BRANCH  18  21
HETATM   21  O1  UNL     1     -10.908  47.049 -26.864  1.00  0.00    -0.359 OA
BRANCH  21  22
HETATM   22  C2  UNL     1     -12.104  46.276 -26.912  1.00  0.00     0.166 C 
HETATM   23  C1  UNL     1     -13.283  47.229 -26.924  1.00  0.00     0.033 C 
ENDBRANCH  21  22
ENDBRANCH  18  21
BRANCH  19  24
HETATM   24  O9  UNL     1      -8.038  46.017 -28.903  1.00  0.00    -0.388 OA
HETATM   25  H42 UNL     1      -7.691  45.446 -28.192  1.00  0.00     0.210 HD
ENDBRANCH  19  24
BRANCH  20  26
HETATM   26  O8  UNL     1      -9.027  49.201 -27.447  1.00  0.00    -0.390 OA
HETATM   27  H40 UNL     1      -9.678  49.030 -26.727  1.00  0.00     0.210 HD
ENDBRANCH  20  26
ENDBRANCH  15  16
BRANCH  15  28
HETATM   28  O3  UNL     1      -8.379  49.575 -25.290  1.00  0.00    -0.391 OA
HETATM   29  H9  UNL     1      -8.255  50.080 -24.461  1.00  0.00     0.210 HD
ENDBRANCH  15  28
ENDBRANCH  14  15
ENDBRANCH  13  14
ENDBRANCH   1  13
BRANCH   9  30
HETATM   30  O7  UNL     1      -3.289  51.271 -21.823  1.00  0.00    -0.390 OA
HETATM   31  H34 UNL     1      -2.690  51.242 -21.058  1.00  0.00     0.210 HD
ENDBRANCH   9  30
BRANCH   6  32
HETATM   32  C13 UNL     1       0.424  52.208 -26.575  1.00  0.00     0.079 C 
HETATM   33  C14 UNL     1       0.146  51.651 -27.985  1.00  0.00     0.048 C 
BRANCH  32  34
HETATM   34  O5  UNL     1       0.649  53.619 -26.711  1.00  0.00    -0.388 OA
HETATM   35  H23 UNL     1       1.390  53.752 -27.328  1.00  0.00     0.210 HD
ENDBRANCH  32  34
BRANCH  32  36
HETATM   36  C15 UNL     1       1.729  51.541 -26.052  1.00  0.00     0.201 C 
BRANCH  36  37
HETATM   37  O6  UNL     1       2.892  51.990 -26.734  1.00  0.00    -0.398 OA
HETATM   38  H26 UNL     1       3.057  52.913 -26.472  1.00  0.00     0.209 HD
ENDBRANCH  36  37
ENDBRANCH  32  36
ENDBRANCH   6  32
TORSDOF 14
ENDMDL
MODEL 8
REMARK minimizedAffinity -7.46905327
REMARK CNNscore 0.552654982
REMARK CNNaffinity 5.89351797
REMARK  14 active torsions:
REMARK  status: ('A' for Active; 'I' for Inactive)
REMARK    1  A    between atoms: C2_2  and  O1_3 
REMARK    2  A    between atoms: O1_3  and  C3_4 
REMARK    3  A    between atoms: C4_6  and  C5_7 
REMARK    4  A    between atoms: C5_7  and  O3_8 
REMARK    5  A    between atoms: C5_7  and  C6_9 
REMARK    6  A    between atoms: C6_9  and  O4_10 
REMARK    7  A    between atoms: O4_10  and  C7_11 
REMARK    8  A    between atoms: C12_16  and  C13_17 
REMARK    9  A    between atoms: C13_17  and  O5_19 
REMARK   10  A    between atoms: C13_17  and  C15_20 
REMARK   11  A    between atoms: C15_20  and  O6_21 
REMARK   12  A    between atoms: C18_24  and  O7_26 
REMARK   13  A    between atoms: C22_29  and  O8_30 
REMARK   14  A    between atoms: C23_31  and  O9_32 
ROOT
HETATM    1  C7  UNL     1      -3.567  48.533 -21.118  1.00  0.00     0.126 C 
HETATM    2  C8  UNL     1      -4.768  48.802 -22.009  1.00  0.00     0.040 C 
HETATM    3  C9  UNL     1      -4.227  49.700 -23.140  1.00  0.00     0.026 C 
HETATM    4  C10 UNL     1      -2.744  49.268 -23.307  1.00  0.00    -0.001 C 
HETATM    5  C11 UNL     1      -1.668  50.334 -23.539  1.00  0.00     0.013 C 
HETATM    6  C12 UNL     1      -1.880  51.214 -24.795  1.00  0.00     0.022 C 
HETATM    7  C16 UNL     1      -2.796  52.401 -24.429  1.00  0.00     0.010 C 
HETATM    8  C17 UNL     1      -4.256  52.037 -24.192  1.00  0.00     0.038 C 
HETATM    9  C18 UNL     1      -4.600  51.192 -22.955  1.00  0.00     0.058 C 
HETATM   10  C19 UNL     1      -4.124  51.836 -21.649  1.00  0.00     0.046 C 
HETATM   11  C20 UNL     1      -2.456  48.279 -22.138  1.00  0.00     0.015 C 
HETATM   12  C21 UNL     1      -1.077  48.325 -21.486  1.00  0.00     0.013 C 
ENDROOT
BRANCH   1  13
HETATM   13  O4  UNL     1      -3.747  47.379 -20.303  1.00  0.00    -0.383 OA
BRANCH  13  14
HETATM   14  C6  UNL     1      -2.908  47.387 -19.137  1.00  0.00     0.202 C 
BRANCH  14  15
HETATM   15  C5  UNL     1      -3.054  48.763 -18.479  1.00  0.00     0.173 C 
BRANCH  15  16
HETATM   16  C4  UNL     1      -1.878  49.091 -17.547  1.00  0.00     0.187 C 
HETATM   17  O2  UNL     1      -0.702  49.398 -18.342  1.00  0.00    -0.348 OA
HETATM   18  C3  UNL     1      -0.255  50.718 -17.991  1.00  0.00     0.291 C 
HETATM   19  C23 UNL     1      -0.697  50.900 -16.536  1.00  0.00     0.204 C 
HETATM   20  C22 UNL     1      -2.075  50.255 -16.558  1.00  0.00     0.183 C 
BRANCH  18  21
HETATM   21  O1  UNL     1      -0.866  51.709 -18.812  1.00  0.00    -0.359 OA
BRANCH  21  22
HETATM   22  C2  UNL     1      -0.468  51.593 -20.175  1.00  0.00     0.166 C 
HETATM   23  C1  UNL     1       0.135  52.916 -20.605  1.00  0.00     0.033 C 
ENDBRANCH  21  22
ENDBRANCH  18  21
BRANCH  19  24
HETATM   24  O9  UNL     1       0.167  50.184 -15.638  1.00  0.00    -0.388 OA
HETATM   25  H42 UNL     1       0.438  49.358 -16.080  1.00  0.00     0.210 HD
ENDBRANCH  19  24
BRANCH  20  26
HETATM   26  O8  UNL     1      -3.066  51.198 -16.966  1.00  0.00    -0.390 OA
HETATM   27  H40 UNL     1      -2.993  51.282 -17.945  1.00  0.00     0.210 HD
ENDBRANCH  20  26
ENDBRANCH  15  16
BRANCH  15  28
HETATM   28  O3  UNL     1      -4.306  48.803 -17.769  1.00  0.00    -0.391 OA
HETATM   29  H9  UNL     1      -4.960  48.445 -18.403  1.00  0.00     0.210 HD
ENDBRANCH  15  28
ENDBRANCH  14  15
ENDBRANCH  13  14
ENDBRANCH   1  13
BRANCH   9  30
HETATM   30  O7  UNL     1      -6.048  51.211 -22.889  1.00  0.00    -0.390 OA
HETATM   31  H34 UNL     1      -6.334  52.132 -22.764  1.00  0.00     0.210 HD
ENDBRANCH   9  30
BRANCH   6  32
HETATM   32  C13 UNL     1      -0.505  51.706 -25.394  1.00  0.00     0.079 C 
HETATM   33  C14 UNL     1       0.472  52.159 -24.293  1.00  0.00     0.048 C 
BRANCH  32  34
HETATM   34  O5  UNL     1       0.107  50.606 -26.084  1.00  0.00    -0.388 OA
HETATM   35  H23 UNL     1       0.965  50.904 -26.433  1.00  0.00     0.210 HD
ENDBRANCH  32  34
BRANCH  32  36
HETATM   36  C15 UNL     1      -0.675  52.889 -26.391  1.00  0.00     0.201 C 
BRANCH  36  37
HETATM   37  O6  UNL     1       0.495  53.688 -26.504  1.00  0.00    -0.398 OA
HETATM   38  H26 UNL     1       1.172  53.169 -26.972  1.00  0.00     0.209 HD
ENDBRANCH  36  37
ENDBRANCH  32  36
ENDBRANCH   6  32
TORSDOF 14
ENDMDL
MODEL 9
REMARK minimizedAffinity -8.16925907
REMARK CNNscore 0.533236384
REMARK CNNaffinity 5.88774633
REMARK  14 active torsions:
REMARK  status: ('A' for Active; 'I' for Inactive)
REMARK    1  A    between atoms: C2_2  and  O1_3 
REMARK    2  A    between atoms: O1_3  and  C3_4 
REMARK    3  A    between atoms: C4_6  and  C5_7 
REMARK    4  A    between atoms: C5_7  and  O3_8 
REMARK    5  A    between atoms: C5_7  and  C6_9 
REMARK    6  A    between atoms: C6_9  and  O4_10 
REMARK    7  A    between atoms: O4_10  and  C7_11 
REMARK    8  A    between atoms: C12_16  and  C13_17 
REMARK    9  A    between atoms: C13_17  and  O5_19 
REMARK   10  A    between atoms: C13_17  and  C15_20 
REMARK   11  A    between atoms: C15_20  and  O6_21 
REMARK   12  A    between atoms: C18_24  and  O7_26 
REMARK   13  A    between atoms: C22_29  and  O8_30 
REMARK   14  A    between atoms: C23_31  and  O9_32 
ROOT
HETATM    1  C7  UNL     1      -4.272  49.050 -26.410  1.00  0.00     0.126 C 
HETATM    2  C8  UNL     1      -2.907  49.296 -27.028  1.00  0.00     0.040 C 
HETATM    3  C9  UNL     1      -2.040  49.834 -25.871  1.00  0.00     0.026 C 
HETATM    4  C10 UNL     1      -2.624  49.157 -24.599  1.00  0.00    -0.001 C 
HETATM    5  C11 UNL     1      -2.772  49.972 -23.311  1.00  0.00     0.013 C 
HETATM    6  C12 UNL     1      -1.457  50.578 -22.766  1.00  0.00     0.022 C 
HETATM    7  C16 UNL     1      -1.209  51.941 -23.447  1.00  0.00     0.010 C 
HETATM    8  C17 UNL     1      -0.800  51.862 -24.912  1.00  0.00     0.038 C 
HETATM    9  C18 UNL     1      -1.842  51.369 -25.929  1.00  0.00     0.058 C 
HETATM   10  C19 UNL     1      -3.128  52.203 -25.910  1.00  0.00     0.046 C 
HETATM   11  C20 UNL     1      -3.912  48.416 -25.067  1.00  0.00     0.015 C 
HETATM   12  C21 UNL     1      -5.108  48.394 -24.120  1.00  0.00     0.013 C 
ENDROOT
BRANCH   1  13
HETATM   13  O4  UNL     1      -5.057  48.143 -27.178  1.00  0.00    -0.383 OA
BRANCH  13  14
HETATM   14  C6  UNL     1      -4.763  48.206 -28.582  1.00  0.00     0.202 C 
BRANCH  14  15
HETATM   15  C5  UNL     1      -6.030  47.783 -29.333  1.00  0.00     0.173 C 
BRANCH  15  16
HETATM   16  C4  UNL     1      -5.880  47.924 -30.856  1.00  0.00     0.187 C 
HETATM   17  O2  UNL     1      -4.663  47.258 -31.285  1.00  0.00    -0.348 OA
HETATM   18  C3  UNL     1      -5.016  46.259 -32.257  1.00  0.00     0.291 C 
HETATM   19  C23 UNL     1      -6.286  46.801 -32.921  1.00  0.00     0.204 C 
HETATM   20  C22 UNL     1      -7.029  47.376 -31.723  1.00  0.00     0.183 C 
BRANCH  18  21
HETATM   21  O1  UNL     1      -5.288  45.006 -31.639  1.00  0.00    -0.359 OA
BRANCH  21  22
HETATM   22  C2  UNL     1      -5.563  43.986 -32.596  1.00  0.00     0.166 C 
HETATM   23  C1  UNL     1      -4.331  43.111 -32.721  1.00  0.00     0.033 C 
ENDBRANCH  21  22
ENDBRANCH  18  21
BRANCH  19  24
HETATM   24  O9  UNL     1      -5.976  47.847 -33.856  1.00  0.00    -0.388 OA
HETATM   25  H42 UNL     1      -5.228  48.358 -33.496  1.00  0.00     0.210 HD
ENDBRANCH  19  24
BRANCH  20  26
HETATM   26  O8  UNL     1      -7.807  46.367 -31.081  1.00  0.00    -0.390 OA
HETATM   27  H40 UNL     1      -7.183  45.824 -30.545  1.00  0.00     0.210 HD
ENDBRANCH  20  26
ENDBRANCH  15  16
BRANCH  15  28
HETATM   28  O3  UNL     1      -7.137  48.564 -28.847  1.00  0.00    -0.391 OA
HETATM   29  H9  UNL     1      -7.058  48.522 -27.871  1.00  0.00     0.210 HD
ENDBRANCH  15  28
ENDBRANCH  14  15
ENDBRANCH  13  14
ENDBRANCH   1  13
BRANCH   9  30
HETATM   30  O7  UNL     1      -1.240  51.620 -27.224  1.00  0.00    -0.390 OA
HETATM   31  H34 UNL     1      -1.101  52.579 -27.313  1.00  0.00     0.210 HD
ENDBRANCH   9  30
BRANCH   6  32
HETATM   32  C13 UNL     1      -1.491  50.714 -21.193  1.00  0.00     0.079 C 
HETATM   33  C14 UNL     1      -0.535  49.718 -20.510  1.00  0.00     0.048 C 
BRANCH  32  34
HETATM   34  O5  UNL     1      -1.053  52.035 -20.844  1.00  0.00    -0.388 OA
HETATM   35  H23 UNL     1      -1.052  52.110 -19.873  1.00  0.00     0.210 HD
ENDBRANCH  32  34
BRANCH  32  36
HETATM   36  C15 UNL     1      -2.912  50.486 -20.602  1.00  0.00     0.201 C 
BRANCH  36  37
HETATM   37  O6  UNL     1      -3.232  51.400 -19.563  1.00  0.00    -0.398 OA
HETATM   38  H26 UNL     1      -3.355  52.280 -19.961  1.00  0.00     0.209 HD
ENDBRANCH  36  37
ENDBRANCH  32  36
ENDBRANCH   6  32
TORSDOF 14
ENDMDL
