MODEL 1
REMARK minimizedAffinity -8.43687153
REMARK CNNscore 0.809702575
REMARK CNNaffinity 7.17042351
REMARK  13 active torsions:
REMARK  status: ('A' for Active; 'I' for Inactive)
REMARK    1  A    between atoms: C19_21  and  O3_22 
REMARK    2  A    between atoms: C19_21  and  C20_23 
REMARK    3  A    between atoms: C20_23  and  C21_25 
REMARK    4  A    between atoms: C21_25  and  O5_26 
REMARK    5  A    between atoms: O5_26  and  C22_27 
REMARK    6  A    between atoms: C22_27  and  C23_29 
REMARK    7  A    between atoms: C23_29  and  C24_30 
REMARK    8  A    between atoms: C24_30  and  C25_31 
REMARK       I    between atoms: C25_31  and  N1_33 
REMARK    9  A    between atoms: N1_33  and  C26_34 
REMARK   10  A    between atoms: C26_34  and  C27_35 
REMARK   11  A    between atoms: C27_35  and  C28_36 
REMARK   12  A    between atoms: C31_39  and  O8_40 
REMARK   13  A    between atoms: C32_41  and  O9_42 
ROOT
HETATM    1  C20 UNL     1      -3.226  49.870 -27.052  1.00  0.00     0.185 C 
HETATM    2  O4  UNL     1      -2.343  50.307 -27.796  1.00  0.00    -0.292 OA
ENDROOT
BRANCH   1   3
HETATM    3  C19 UNL     1      -3.576  50.550 -25.683  1.00  0.00     0.128 C 
HETATM    4  C14 UNL     1      -2.406  50.593 -24.637  1.00  0.00     0.005 C 
HETATM    5  C13 UNL     1      -2.644  51.684 -23.564  1.00  0.00     0.091 C 
HETATM    6  C15 UNL     1      -1.048  50.904 -25.311  1.00  0.00     0.019 C 
HETATM    7  C16 UNL     1      -2.426  49.182 -23.969  1.00  0.00     0.002 C 
HETATM    8  C12 UNL     1      -1.592  51.607 -22.480  1.00  0.00     0.133 C 
HETATM    9  C11 UNL     1      -1.314  50.239 -21.862  1.00  0.00     0.072 C 
HETATM   10  O2  UNL     1      -0.975  52.612 -22.132  1.00  0.00    -0.297 OA
HETATM   11  C2  UNL     1      -1.339  50.271 -20.282  1.00  0.00    -0.009 C 
HETATM   12  C10 UNL     1      -2.283  49.173 -22.423  1.00  0.00     0.003 C 
HETATM   13  C1  UNL     1       0.038  50.750 -19.766  1.00  0.00     0.021 C 
HETATM   14  C3  UNL     1      -2.462  51.195 -19.732  1.00  0.00     0.022 C 
HETATM   15  C7  UNL     1      -1.585  48.856 -19.739  1.00  0.00    -0.067 C 
HETATM   16  C4  UNL     1      -2.638  51.104 -18.217  1.00  0.00     0.084 C 
HETATM   17  C5  UNL     1      -2.805  49.678 -17.759  1.00  0.00     0.149 C 
HETATM   18  O1  UNL     1      -3.359  49.391 -16.700  1.00  0.00    -0.293 OA
HETATM   19  C6  UNL     1      -2.250  48.594 -18.602  1.00  0.00     0.053 C 
HETATM   20  C8  UNL     1      -1.106  47.740 -20.622  1.00  0.00     0.035 C 
HETATM   21  C9  UNL     1      -1.887  47.753 -21.936  1.00  0.00     0.010 C 
HETATM   22  C17 UNL     1      -3.774  48.539 -24.373  1.00  0.00     0.009 C 
HETATM   23  C18 UNL     1      -4.608  49.657 -24.987  1.00  0.00     0.047 C 
BRANCH   3  24
HETATM   24  O3  UNL     1      -4.104  51.860 -25.829  1.00  0.00    -0.381 OA
HETATM   25  H25 UNL     1      -4.937  51.816 -26.332  1.00  0.00     0.211 HD
ENDBRANCH   3  24
ENDBRANCH   1   3
BRANCH   1  26
HETATM   26  C21 UNL     1      -3.864  48.512 -27.357  1.00  0.00     0.260 C 
BRANCH  26  27
HETATM   27  O5  UNL     1      -5.205  48.553 -27.828  1.00  0.00    -0.314 OA
BRANCH  27  28
HETATM   28  C22 UNL     1      -5.388  47.964 -29.043  1.00  0.00     0.259 C 
HETATM   29  O6  UNL     1      -4.534  47.880 -29.915  1.00  0.00    -0.265 OA
BRANCH  28  30
HETATM   30  C23 UNL     1      -6.804  47.466 -29.186  1.00  0.00     0.120 C 
BRANCH  30  31
HETATM   31  C24 UNL     1      -6.810  45.970 -29.477  1.00  0.00     0.112 C 
BRANCH  31  32
HETATM   32  C25 UNL     1      -7.767  45.639 -30.606  1.00  0.00     0.218 C 
HETATM   33  O7  UNL     1      -8.600  44.742 -30.535  1.00  0.00    -0.274 OA
HETATM   34  N1  UNL     1      -7.629  46.465 -31.699  1.00  0.00    -0.361 N 
HETATM   35  H32 UNL     1      -6.778  47.006 -31.783  1.00  0.00     0.162 HD
BRANCH  34  36
HETATM   36  C26 UNL     1      -8.370  46.214 -32.923  1.00  0.00     0.127 C 
BRANCH  36  37
HETATM   37  C27 UNL     1      -8.454  47.441 -33.839  1.00  0.00     0.058 C 
BRANCH  37  38
HETATM   38  C28 UNL     1      -8.749  47.074 -35.277  1.00  0.00    -0.054 A 
HETATM   39  C29 UNL     1      -8.044  47.694 -36.323  1.00  0.00     0.010 A 
HETATM   40  C30 UNL     1      -8.329  47.387 -37.655  1.00  0.00     0.040 A 
HETATM   41  C31 UNL     1      -9.317  46.456 -37.937  1.00  0.00     0.098 A 
HETATM   42  C32 UNL     1     -10.019  45.829 -36.911  1.00  0.00     0.099 A 
HETATM   43  C33 UNL     1      -9.745  46.132 -35.582  1.00  0.00     0.046 A 
BRANCH  41  44
HETATM   44  O8  UNL     1      -9.602  46.157 -39.239  1.00  0.00    -0.358 OA
HETATM   45  H39 UNL     1     -10.301  45.476 -39.186  1.00  0.00     0.217 HD
ENDBRANCH  41  44
BRANCH  42  46
HETATM   46  O9  UNL     1     -10.976  44.915 -37.263  1.00  0.00    -0.358 OA
HETATM   47  H40 UNL     1     -11.344  44.533 -36.448  1.00  0.00     0.217 HD
ENDBRANCH  42  46
ENDBRANCH  37  38
ENDBRANCH  36  37
ENDBRANCH  34  36
ENDBRANCH  31  32
ENDBRANCH  30  31
ENDBRANCH  28  30
ENDBRANCH  27  28
ENDBRANCH  26  27
ENDBRANCH   1  26
TORSDOF 13
ENDMDL
MODEL 2
REMARK minimizedAffinity -8.92594528
REMARK CNNscore 0.745104074
REMARK CNNaffinity 7.10415459
REMARK  13 active torsions:
REMARK  status: ('A' for Active; 'I' for Inactive)
REMARK    1  A    between atoms: C19_21  and  O3_22 
REMARK    2  A    between atoms: C19_21  and  C20_23 
REMARK    3  A    between atoms: C20_23  and  C21_25 
REMARK    4  A    between atoms: C21_25  and  O5_26 
REMARK    5  A    between atoms: O5_26  and  C22_27 
REMARK    6  A    between atoms: C22_27  and  C23_29 
REMARK    7  A    between atoms: C23_29  and  C24_30 
REMARK    8  A    between atoms: C24_30  and  C25_31 
REMARK       I    between atoms: C25_31  and  N1_33 
REMARK    9  A    between atoms: N1_33  and  C26_34 
REMARK   10  A    between atoms: C26_34  and  C27_35 
REMARK   11  A    between atoms: C27_35  and  C28_36 
REMARK   12  A    between atoms: C31_39  and  O8_40 
REMARK   13  A    between atoms: C32_41  and  O9_42 
ROOT
HETATM    1  C20 UNL     1      -2.079  52.807 -10.967  1.00  0.00     0.185 C 
HETATM    2  O4  UNL     1      -2.939  53.635 -11.280  1.00  0.00    -0.292 OA
ENDROOT
BRANCH   1   3
HETATM    3  C19 UNL     1      -1.191  52.972  -9.684  1.00  0.00     0.128 C 
HETATM    4  C14 UNL     1      -0.356  54.300  -9.613  1.00  0.00     0.005 C 
HETATM    5  C13 UNL     1       0.068  54.626  -8.158  1.00  0.00     0.091 C 
HETATM    6  C15 UNL     1      -1.164  55.513 -10.135  1.00  0.00     0.019 C 
HETATM    7  C16 UNL     1       0.909  54.014 -10.480  1.00  0.00     0.002 C 
HETATM    8  C12 UNL     1       1.000  55.816  -8.128  1.00  0.00     0.133 C 
HETATM    9  C11 UNL     1       2.186  55.809  -9.088  1.00  0.00     0.072 C 
HETATM   10  O2  UNL     1       0.789  56.759  -7.366  1.00  0.00    -0.297 OA
HETATM   11  C2  UNL     1       3.554  56.134  -8.365  1.00  0.00    -0.009 C 
HETATM   12  C10 UNL     1       2.258  54.476  -9.866  1.00  0.00     0.003 C 
HETATM   13  C1  UNL     1       3.705  57.668  -8.238  1.00  0.00     0.021 C 
HETATM   14  C3  UNL     1       3.646  55.474  -6.961  1.00  0.00     0.022 C 
HETATM   15  C7  UNL     1       4.724  55.609  -9.210  1.00  0.00    -0.067 C 
HETATM   16  C4  UNL     1       5.023  55.608  -6.314  1.00  0.00     0.084 C 
HETATM   17  C5  UNL     1       6.120  55.135  -7.233  1.00  0.00     0.149 C 
HETATM   18  O1  UNL     1       7.212  54.762  -6.811  1.00  0.00    -0.293 OA
HETATM   19  C6  UNL     1       5.878  55.156  -8.693  1.00  0.00     0.053 C 
HETATM   20  C8  UNL     1       4.466  55.541 -10.688  1.00  0.00     0.035 C 
HETATM   21  C9  UNL     1       3.349  54.535 -10.969  1.00  0.00     0.010 C 
HETATM   22  C17 UNL     1       0.934  52.482 -10.704  1.00  0.00     0.009 C 
HETATM   23  C18 UNL     1      -0.100  51.900  -9.750  1.00  0.00     0.047 C 
BRANCH   3  24
HETATM   24  O3  UNL     1      -1.925  52.831  -8.476  1.00  0.00    -0.381 OA
HETATM   25  H25 UNL     1      -2.302  51.933  -8.433  1.00  0.00     0.211 HD
ENDBRANCH   3  24
ENDBRANCH   1   3
BRANCH   1  26
HETATM   26  C21 UNL     1      -1.708  51.695 -11.951  1.00  0.00     0.260 C 
BRANCH  26  27
HETATM   27  O5  UNL     1      -1.085  52.121 -13.155  1.00  0.00    -0.314 OA
BRANCH  27  28
HETATM   28  C22 UNL     1      -0.536  51.111 -13.887  1.00  0.00     0.259 C 
HETATM   29  O6  UNL     1      -0.081  50.076 -13.420  1.00  0.00    -0.265 OA
BRANCH  28  30
HETATM   30  C23 UNL     1      -0.526  51.461 -15.355  1.00  0.00     0.120 C 
BRANCH  30  31
HETATM   31  C24 UNL     1      -1.559  50.625 -16.103  1.00  0.00     0.112 C 
BRANCH  31  32
HETATM   32  C25 UNL     1      -1.707  51.099 -17.536  1.00  0.00     0.218 C 
HETATM   33  O7  UNL     1      -2.768  51.500 -18.001  1.00  0.00    -0.274 OA
HETATM   34  N1  UNL     1      -0.529  51.065 -18.247  1.00  0.00    -0.361 N 
HETATM   35  H32 UNL     1       0.231  50.502 -17.884  1.00  0.00     0.162 HD
BRANCH  34  36
HETATM   36  C26 UNL     1      -0.507  51.356 -19.670  1.00  0.00     0.127 C 
BRANCH  36  37
HETATM   37  C27 UNL     1       0.517  52.434 -20.049  1.00  0.00     0.058 C 
BRANCH  37  38
HETATM   38  C28 UNL     1       0.515  52.743 -21.530  1.00  0.00    -0.054 A 
HETATM   39  C29 UNL     1      -0.037  51.827 -22.442  1.00  0.00     0.010 A 
HETATM   40  C30 UNL     1      -0.016  52.087 -23.813  1.00  0.00     0.040 A 
HETATM   41  C31 UNL     1       0.556  53.265 -24.269  1.00  0.00     0.098 A 
HETATM   42  C32 UNL     1       1.101  54.184 -23.377  1.00  0.00     0.099 A 
HETATM   43  C33 UNL     1       1.089  53.932 -22.009  1.00  0.00     0.046 A 
BRANCH  41  44
HETATM   44  O8  UNL     1       0.583  53.520 -25.611  1.00  0.00    -0.358 OA
HETATM   45  H39 UNL     1       1.006  54.398 -25.684  1.00  0.00     0.217 HD
ENDBRANCH  41  44
BRANCH  42  46
HETATM   46  O9  UNL     1       1.642  55.330 -23.896  1.00  0.00    -0.358 OA
HETATM   47  H40 UNL     1       1.939  55.887 -23.157  1.00  0.00     0.217 HD
ENDBRANCH  42  46
ENDBRANCH  37  38
ENDBRANCH  36  37
ENDBRANCH  34  36
ENDBRANCH  31  32
ENDBRANCH  30  31
ENDBRANCH  28  30
ENDBRANCH  27  28
ENDBRANCH  26  27
ENDBRANCH   1  26
TORSDOF 13
ENDMDL
MODEL 3
REMARK minimizedAffinity -9.32333469
REMARK CNNscore 0.709047198
REMARK CNNaffinity 7.3520546
REMARK  13 active torsions:
REMARK  status: ('A' for Active; 'I' for Inactive)
REMARK    1  A    between atoms: C19_21  and  O3_22 
REMARK    2  A    between atoms: C19_21  and  C20_23 
REMARK    3  A    between atoms: C20_23  and  C21_25 
REMARK    4  A    between atoms: C21_25  and  O5_26 
REMARK    5  A    between atoms: O5_26  and  C22_27 
REMARK    6  A    between atoms: C22_27  and  C23_29 
REMARK    7  A    between atoms: C23_29  and  C24_30 
REMARK    8  A    between atoms: C24_30  and  C25_31 
REMARK       I    between atoms: C25_31  and  N1_33 
REMARK    9  A    between atoms: N1_33  and  C26_34 
REMARK   10  A    between atoms: C26_34  and  C27_35 
REMARK   11  A    between atoms: C27_35  and  C28_36 
REMARK   12  A    between atoms: C31_39  and  O8_40 
REMARK   13  A    between atoms: C32_41  and  O9_42 
ROOT
HETATM    1  C20 UNL     1      -3.020  49.981 -27.061  1.00  0.00     0.185 C 
HETATM    2  O4  UNL     1      -2.361  50.546 -27.939  1.00  0.00    -0.292 OA
ENDROOT
BRANCH   1   3
HETATM    3  C19 UNL     1      -3.382  50.683 -25.707  1.00  0.00     0.128 C 
HETATM    4  C14 UNL     1      -2.241  50.689 -24.629  1.00  0.00     0.005 C 
HETATM    5  C13 UNL     1      -2.468  51.797 -23.569  1.00  0.00     0.091 C 
HETATM    6  C15 UNL     1      -0.854  50.944 -25.266  1.00  0.00     0.019 C 
HETATM    7  C16 UNL     1      -2.333  49.286 -23.953  1.00  0.00     0.002 C 
HETATM    8  C12 UNL     1      -1.450  51.688 -22.456  1.00  0.00     0.133 C 
HETATM    9  C11 UNL     1      -1.242  50.315 -21.822  1.00  0.00     0.072 C 
HETATM   10  O2  UNL     1      -0.805  52.671 -22.096  1.00  0.00    -0.297 OA
HETATM   11  C2  UNL     1      -1.310  50.360 -20.243  1.00  0.00    -0.009 C 
HETATM   12  C10 UNL     1      -2.234  49.283 -22.403  1.00  0.00     0.003 C 
HETATM   13  C1  UNL     1       0.070  50.790 -19.691  1.00  0.00     0.021 C 
HETATM   14  C3  UNL     1      -2.412  51.329 -19.731  1.00  0.00     0.022 C 
HETATM   15  C7  UNL     1      -1.625  48.959 -19.698  1.00  0.00    -0.067 C 
HETATM   16  C4  UNL     1      -2.633  51.257 -18.221  1.00  0.00     0.084 C 
HETATM   17  C5  UNL     1      -2.867  49.841 -17.759  1.00  0.00     0.149 C 
HETATM   18  O1  UNL     1      -3.461  49.583 -16.715  1.00  0.00    -0.293 OA
HETATM   19  C6  UNL     1      -2.331  48.731 -18.579  1.00  0.00     0.053 C 
HETATM   20  C8  UNL     1      -1.164  47.819 -20.561  1.00  0.00     0.035 C 
HETATM   21  C9  UNL     1      -1.907  47.852 -21.896  1.00  0.00     0.010 C 
HETATM   22  C17 UNL     1      -3.694  48.691 -24.390  1.00  0.00     0.009 C 
HETATM   23  C18 UNL     1      -4.466  49.835 -25.035  1.00  0.00     0.047 C 
BRANCH   3  24
HETATM   24  O3  UNL     1      -3.855  52.012 -25.876  1.00  0.00    -0.381 OA
HETATM   25  H25 UNL     1      -4.675  51.996 -26.403  1.00  0.00     0.211 HD
ENDBRANCH   3  24
ENDBRANCH   1   3
BRANCH   1  26
HETATM   26  C21 UNL     1      -3.322  48.486 -27.192  1.00  0.00     0.260 C 
BRANCH  26  27
HETATM   27  O5  UNL     1      -3.787  48.060 -28.466  1.00  0.00    -0.314 OA
BRANCH  27  28
HETATM   28  C22 UNL     1      -5.145  48.002 -28.574  1.00  0.00     0.259 C 
HETATM   29  O6  UNL     1      -5.910  47.768 -27.649  1.00  0.00    -0.265 OA
BRANCH  28  30
HETATM   30  C23 UNL     1      -5.576  48.225 -30.003  1.00  0.00     0.120 C 
BRANCH  30  31
HETATM   31  C24 UNL     1      -5.642  46.896 -30.747  1.00  0.00     0.112 C 
BRANCH  31  32
HETATM   32  C25 UNL     1      -6.926  46.782 -31.545  1.00  0.00     0.218 C 
HETATM   33  O7  UNL     1      -7.063  46.008 -32.485  1.00  0.00    -0.274 OA
HETATM   34  N1  UNL     1      -7.929  47.607 -31.087  1.00  0.00    -0.361 N 
HETATM   35  H32 UNL     1      -7.673  48.378 -30.481  1.00  0.00     0.162 HD
BRANCH  34  36
HETATM   36  C26 UNL     1      -9.184  47.729 -31.808  1.00  0.00     0.127 C 
BRANCH  36  37
HETATM   37  C27 UNL     1     -10.347  47.002 -31.122  1.00  0.00     0.058 C 
BRANCH  37  38
HETATM   38  C28 UNL     1     -10.472  47.357 -29.657  1.00  0.00    -0.054 A 
HETATM   39  C29 UNL     1      -9.349  47.289 -28.814  1.00  0.00     0.010 A 
HETATM   40  C30 UNL     1      -9.460  47.584 -27.455  1.00  0.00     0.040 A 
HETATM   41  C31 UNL     1     -10.695  47.951 -26.941  1.00  0.00     0.098 A 
HETATM   42  C32 UNL     1     -11.814  48.030 -27.765  1.00  0.00     0.099 A 
HETATM   43  C33 UNL     1     -11.715  47.733 -29.120  1.00  0.00     0.046 A 
BRANCH  41  44
HETATM   44  O8  UNL     1     -10.808  48.236 -25.610  1.00  0.00    -0.358 OA
HETATM   45  H39 UNL     1     -11.745  48.484 -25.492  1.00  0.00     0.217 HD
ENDBRANCH  41  44
BRANCH  42  46
HETATM   46  O9  UNL     1     -12.999  48.406 -27.192  1.00  0.00    -0.358 OA
HETATM   47  H40 UNL     1     -13.671  48.459 -27.893  1.00  0.00     0.217 HD
ENDBRANCH  42  46
ENDBRANCH  37  38
ENDBRANCH  36  37
ENDBRANCH  34  36
ENDBRANCH  31  32
ENDBRANCH  30  31
ENDBRANCH  28  30
ENDBRANCH  27  28
ENDBRANCH  26  27
ENDBRANCH   1  26
TORSDOF 13
ENDMDL
MODEL 4
REMARK minimizedAffinity -8.8869772
REMARK CNNscore 0.677404642
REMARK CNNaffinity 6.21561766
REMARK  13 active torsions:
REMARK  status: ('A' for Active; 'I' for Inactive)
REMARK    1  A    between atoms: C19_21  and  O3_22 
REMARK    2  A    between atoms: C19_21  and  C20_23 
REMARK    3  A    between atoms: C20_23  and  C21_25 
REMARK    4  A    between atoms: C21_25  and  O5_26 
REMARK    5  A    between atoms: O5_26  and  C22_27 
REMARK    6  A    between atoms: C22_27  and  C23_29 
REMARK    7  A    between atoms: C23_29  and  C24_30 
REMARK    8  A    between atoms: C24_30  and  C25_31 
REMARK       I    between atoms: C25_31  and  N1_33 
REMARK    9  A    between atoms: N1_33  and  C26_34 
REMARK   10  A    between atoms: C26_34  and  C27_35 
REMARK   11  A    between atoms: C27_35  and  C28_36 
REMARK   12  A    between atoms: C31_39  and  O8_40 
REMARK   13  A    between atoms: C32_41  and  O9_42 
ROOT
HETATM    1  C20 UNL     1     -10.606  46.718 -27.811  1.00  0.00     0.185 C 
HETATM    2  O4  UNL     1      -9.836  45.847 -27.395  1.00  0.00    -0.292 OA
ENDROOT
BRANCH   1   3
HETATM    3  C19 UNL     1     -11.772  47.290 -26.931  1.00  0.00     0.128 C 
HETATM    4  C14 UNL     1     -12.606  46.218 -26.143  1.00  0.00     0.005 C 
HETATM    5  C13 UNL     1     -13.362  46.854 -24.950  1.00  0.00     0.091 C 
HETATM    6  C15 UNL     1     -11.703  45.100 -25.569  1.00  0.00     0.019 C 
HETATM    7  C16 UNL     1     -13.630  45.674 -27.188  1.00  0.00     0.002 C 
HETATM    8  C12 UNL     1     -14.281  45.843 -24.301  1.00  0.00     0.133 C 
HETATM    9  C11 UNL     1     -15.207  45.042 -25.212  1.00  0.00     0.072 C 
HETATM   10  O2  UNL     1     -14.260  45.666 -23.084  1.00  0.00    -0.297 OA
HETATM   11  C2  UNL     1     -16.708  45.059 -24.717  1.00  0.00    -0.009 C 
HETATM   12  C10 UNL     1     -15.088  45.520 -26.677  1.00  0.00     0.003 C 
HETATM   13  C1  UNL     1     -16.892  43.975 -23.629  1.00  0.00     0.021 C 
HETATM   14  C3  UNL     1     -17.125  46.448 -24.158  1.00  0.00     0.022 C 
HETATM   15  C7  UNL     1     -17.643  44.722 -25.887  1.00  0.00    -0.067 C 
HETATM   16  C4  UNL     1     -18.617  46.555 -23.846  1.00  0.00     0.084 C 
HETATM   17  C5  UNL     1     -19.465  46.143 -25.022  1.00  0.00     0.149 C 
HETATM   18  O1  UNL     1     -20.624  46.527 -25.161  1.00  0.00    -0.293 OA
HETATM   19  C6  UNL     1     -18.885  45.217 -26.022  1.00  0.00     0.053 C 
HETATM   20  C8  UNL     1     -17.044  43.854 -26.956  1.00  0.00     0.035 C 
HETATM   21  C9  UNL     1     -15.888  44.593 -27.631  1.00  0.00     0.010 C 
HETATM   22  C17 UNL     1     -13.594  46.666 -28.376  1.00  0.00     0.009 C 
HETATM   23  C18 UNL     1     -12.811  47.879 -27.889  1.00  0.00     0.047 C 
BRANCH   3  24
HETATM   24  O3  UNL     1     -11.343  48.292 -26.020  1.00  0.00    -0.381 OA
HETATM   25  H25 UNL     1     -10.983  49.047 -26.520  1.00  0.00     0.211 HD
ENDBRANCH   3  24
ENDBRANCH   1   3
BRANCH   1  26
HETATM   26  C21 UNL     1     -10.570  47.111 -29.290  1.00  0.00     0.260 C 
BRANCH  26  27
HETATM   27  O5  UNL     1      -9.326  46.915 -29.949  1.00  0.00    -0.314 OA
BRANCH  27  28
HETATM   28  C22 UNL     1      -8.602  48.056 -30.125  1.00  0.00     0.259 C 
HETATM   29  O6  UNL     1      -8.609  48.738 -31.141  1.00  0.00    -0.265 OA
BRANCH  28  30
HETATM   30  C23 UNL     1      -7.755  48.343 -28.911  1.00  0.00     0.120 C 
BRANCH  30  31
HETATM   31  C24 UNL     1      -6.512  47.460 -28.913  1.00  0.00     0.112 C 
BRANCH  31  32
HETATM   32  C25 UNL     1      -5.254  48.292 -29.070  1.00  0.00     0.218 C 
HETATM   33  O7  UNL     1      -4.740  48.528 -30.157  1.00  0.00    -0.274 OA
HETATM   34  N1  UNL     1      -4.770  48.780 -27.877  1.00  0.00    -0.361 N 
HETATM   35  H32 UNL     1      -5.093  48.349 -27.019  1.00  0.00     0.162 HD
BRANCH  34  36
HETATM   36  C26 UNL     1      -3.502  49.486 -27.818  1.00  0.00     0.127 C 
BRANCH  36  37
HETATM   37  C27 UNL     1      -2.799  49.352 -26.462  1.00  0.00     0.058 C 
BRANCH  37  38
HETATM   38  C28 UNL     1      -1.747  50.417 -26.244  1.00  0.00    -0.054 A 
HETATM   39  C29 UNL     1      -1.325  50.738 -24.942  1.00  0.00     0.010 A 
HETATM   40  C30 UNL     1      -0.378  51.740 -24.727  1.00  0.00     0.040 A 
HETATM   41  C31 UNL     1       0.148  52.419 -25.816  1.00  0.00     0.098 A 
HETATM   42  C32 UNL     1      -0.256  52.107 -27.112  1.00  0.00     0.099 A 
HETATM   43  C33 UNL     1      -1.202  51.113 -27.336  1.00  0.00     0.046 A 
BRANCH  41  44
HETATM   44  O8  UNL     1       1.072  53.403 -25.609  1.00  0.00    -0.358 OA
HETATM   45  H39 UNL     1       1.304  53.712 -26.506  1.00  0.00     0.217 HD
ENDBRANCH  41  44
BRANCH  42  46
HETATM   46  O9  UNL     1       0.311  52.811 -28.140  1.00  0.00    -0.358 OA
HETATM   47  H40 UNL     1      -0.033  52.455 -28.977  1.00  0.00     0.217 HD
ENDBRANCH  42  46
ENDBRANCH  37  38
ENDBRANCH  36  37
ENDBRANCH  34  36
ENDBRANCH  31  32
ENDBRANCH  30  31
ENDBRANCH  28  30
ENDBRANCH  27  28
ENDBRANCH  26  27
ENDBRANCH   1  26
TORSDOF 13
ENDMDL
MODEL 5
REMARK minimizedAffinity -9.01578712
REMARK CNNscore 0.629520595
REMARK CNNaffinity 7.14640236
REMARK  13 active torsions:
REMARK  status: ('A' for Active; 'I' for Inactive)
REMARK    1  A    between atoms: C19_21  and  O3_22 
REMARK    2  A    between atoms: C19_21  and  C20_23 
REMARK    3  A    between atoms: C20_23  and  C21_25 
REMARK    4  A    between atoms: C21_25  and  O5_26 
REMARK    5  A    between atoms: O5_26  and  C22_27 
REMARK    6  A    between atoms: C22_27  and  C23_29 
REMARK    7  A    between atoms: C23_29  and  C24_30 
REMARK    8  A    between atoms: C24_30  and  C25_31 
REMARK       I    between atoms: C25_31  and  N1_33 
REMARK    9  A    between atoms: N1_33  and  C26_34 
REMARK   10  A    between atoms: C26_34  and  C27_35 
REMARK   11  A    between atoms: C27_35  and  C28_36 
REMARK   12  A    between atoms: C31_39  and  O8_40 
REMARK   13  A    between atoms: C32_41  and  O9_42 
ROOT
HETATM    1  C20 UNL     1      -3.160  49.930 -27.071  1.00  0.00     0.185 C 
HETATM    2  O4  UNL     1      -2.285  50.364 -27.826  1.00  0.00    -0.292 OA
ENDROOT
BRANCH   1   3
HETATM    3  C19 UNL     1      -3.500  50.620 -25.704  1.00  0.00     0.128 C 
HETATM    4  C14 UNL     1      -2.336  50.629 -24.650  1.00  0.00     0.005 C 
HETATM    5  C13 UNL     1      -2.551  51.727 -23.579  1.00  0.00     0.091 C 
HETATM    6  C15 UNL     1      -0.965  50.900 -25.314  1.00  0.00     0.019 C 
HETATM    7  C16 UNL     1      -2.402  49.220 -23.982  1.00  0.00     0.002 C 
HETATM    8  C12 UNL     1      -1.509  51.619 -22.487  1.00  0.00     0.133 C 
HETATM    9  C11 UNL     1      -1.276  50.244 -21.867  1.00  0.00     0.072 C 
HETATM   10  O2  UNL     1      -0.865  52.606 -22.134  1.00  0.00    -0.297 OA
HETATM   11  C2  UNL     1      -1.311  50.277 -20.288  1.00  0.00    -0.009 C 
HETATM   12  C10 UNL     1      -2.270  49.207 -22.435  1.00  0.00     0.003 C 
HETATM   13  C1  UNL     1       0.076  50.716 -19.761  1.00  0.00     0.021 C 
HETATM   14  C3  UNL     1      -2.410  51.233 -19.746  1.00  0.00     0.022 C 
HETATM   15  C7  UNL     1      -1.601  48.870 -19.746  1.00  0.00    -0.067 C 
HETATM   16  C4  UNL     1      -2.599  51.148 -18.232  1.00  0.00     0.084 C 
HETATM   17  C5  UNL     1      -2.811  49.728 -17.775  1.00  0.00     0.149 C 
HETATM   18  O1  UNL     1      -3.381  49.457 -16.720  1.00  0.00    -0.293 OA
HETATM   19  C6  UNL     1      -2.282  48.628 -18.614  1.00  0.00     0.053 C 
HETATM   20  C8  UNL     1      -1.149  47.740 -20.626  1.00  0.00     0.035 C 
HETATM   21  C9  UNL     1      -1.920  47.776 -21.946  1.00  0.00     0.010 C 
HETATM   22  C17 UNL     1      -3.766  48.616 -24.396  1.00  0.00     0.009 C 
HETATM   23  C18 UNL     1      -4.562  49.757 -25.016  1.00  0.00     0.047 C 
BRANCH   3  24
HETATM   24  O3  UNL     1      -3.988  51.945 -25.854  1.00  0.00    -0.381 OA
HETATM   25  H25 UNL     1      -4.819  51.925 -26.363  1.00  0.00     0.211 HD
ENDBRANCH   3  24
ENDBRANCH   1   3
BRANCH   1  26
HETATM   26  C21 UNL     1      -3.796  48.568 -27.359  1.00  0.00     0.260 C 
BRANCH  26  27
HETATM   27  O5  UNL     1      -5.078  48.604 -27.973  1.00  0.00    -0.314 OA
BRANCH  27  28
HETATM   28  C22 UNL     1      -5.224  47.732 -29.010  1.00  0.00     0.259 C 
HETATM   29  O6  UNL     1      -4.515  47.705 -30.007  1.00  0.00    -0.265 OA
BRANCH  28  30
HETATM   30  C23 UNL     1      -6.410  46.828 -28.783  1.00  0.00     0.120 C 
BRANCH  30  31
HETATM   31  C24 UNL     1      -7.315  47.407 -27.702  1.00  0.00     0.112 C 
BRANCH  31  32
HETATM   32  C25 UNL     1      -8.570  48.008 -28.307  1.00  0.00     0.218 C 
HETATM   33  O7  UNL     1      -9.506  48.419 -27.631  1.00  0.00    -0.274 OA
HETATM   34  N1  UNL     1      -8.535  48.076 -29.681  1.00  0.00    -0.361 N 
HETATM   35  H32 UNL     1      -7.855  47.506 -30.170  1.00  0.00     0.162 HD
BRANCH  34  36
HETATM   36  C26 UNL     1      -9.700  48.500 -30.437  1.00  0.00     0.127 C 
BRANCH  36  37
HETATM   37  C27 UNL     1     -10.609  47.335 -30.849  1.00  0.00     0.058 C 
BRANCH  37  38
HETATM   38  C28 UNL     1     -10.045  46.538 -32.005  1.00  0.00    -0.054 A 
HETATM   39  C29 UNL     1     -10.476  45.219 -32.230  1.00  0.00     0.010 A 
HETATM   40  C30 UNL     1      -9.940  44.463 -33.274  1.00  0.00     0.040 A 
HETATM   41  C31 UNL     1      -8.976  45.031 -34.094  1.00  0.00     0.098 A 
HETATM   42  C32 UNL     1      -8.546  46.338 -33.887  1.00  0.00     0.099 A 
HETATM   43  C33 UNL     1      -9.070  47.097 -32.846  1.00  0.00     0.046 A 
BRANCH  41  44
HETATM   44  O8  UNL     1      -8.447  44.293 -35.114  1.00  0.00    -0.358 OA
HETATM   45  H39 UNL     1      -7.819  44.899 -35.554  1.00  0.00     0.217 HD
ENDBRANCH  41  44
BRANCH  42  46
HETATM   46  O9  UNL     1      -7.597  46.837 -34.740  1.00  0.00    -0.358 OA
HETATM   47  H40 UNL     1      -7.432  47.765 -34.500  1.00  0.00     0.217 HD
ENDBRANCH  42  46
ENDBRANCH  37  38
ENDBRANCH  36  37
ENDBRANCH  34  36
ENDBRANCH  31  32
ENDBRANCH  30  31
ENDBRANCH  28  30
ENDBRANCH  27  28
ENDBRANCH  26  27
ENDBRANCH   1  26
TORSDOF 13
ENDMDL
MODEL 6
REMARK minimizedAffinity -8.18949795
REMARK CNNscore 0.617962897
REMARK CNNaffinity 6.18776083
REMARK  13 active torsions:
REMARK  status: ('A' for Active; 'I' for Inactive)
REMARK    1  A    between atoms: C19_21  and  O3_22 
REMARK    2  A    between atoms: C19_21  and  C20_23 
REMARK    3  A    between atoms: C20_23  and  C21_25 
REMARK    4  A    between atoms: C21_25  and  O5_26 
REMARK    5  A    between atoms: O5_26  and  C22_27 
REMARK    6  A    between atoms: C22_27  and  C23_29 
REMARK    7  A    between atoms: C23_29  and  C24_30 
REMARK    8  A    between atoms: C24_30  and  C25_31 
REMARK       I    between atoms: C25_31  and  N1_33 
REMARK    9  A    between atoms: N1_33  and  C26_34 
REMARK   10  A    between atoms: C26_34  and  C27_35 
REMARK   11  A    between atoms: C27_35  and  C28_36 
REMARK   12  A    between atoms: C31_39  and  O8_40 
REMARK   13  A    between atoms: C32_41  and  O9_42 
ROOT
HETATM    1  C20 UNL     1     -10.415  47.397 -27.729  1.00  0.00     0.185 C 
HETATM    2  O4  UNL     1      -9.845  46.531 -28.399  1.00  0.00    -0.292 OA
ENDROOT
BRANCH   1   3
HETATM    3  C19 UNL     1     -11.975  47.553 -27.722  1.00  0.00     0.128 C 
HETATM    4  C14 UNL     1     -12.750  46.509 -26.841  1.00  0.00     0.005 C 
HETATM    5  C13 UNL     1     -14.168  47.016 -26.478  1.00  0.00     0.091 C 
HETATM    6  C15 UNL     1     -12.012  46.225 -25.511  1.00  0.00     0.019 C 
HETATM    7  C16 UNL     1     -12.857  45.240 -27.742  1.00  0.00     0.002 C 
HETATM    8  C12 UNL     1     -14.954  45.937 -25.766  1.00  0.00     0.133 C 
HETATM    9  C11 UNL     1     -14.980  44.548 -26.398  1.00  0.00     0.072 C 
HETATM   10  O2  UNL     1     -15.531  46.177 -24.706  1.00  0.00    -0.297 OA
HETATM   11  C2  UNL     1     -16.445  43.969 -26.528  1.00  0.00    -0.009 C 
HETATM   12  C10 UNL     1     -14.247  44.548 -27.758  1.00  0.00     0.003 C 
HETATM   13  C1  UNL     1     -16.856  43.330 -25.181  1.00  0.00     0.021 C 
HETATM   14  C3  UNL     1     -17.474  45.061 -26.933  1.00  0.00     0.022 C 
HETATM   15  C7  UNL     1     -16.475  42.873 -27.603  1.00  0.00    -0.067 C 
HETATM   16  C4  UNL     1     -18.860  44.504 -27.251  1.00  0.00     0.084 C 
HETATM   17  C5  UNL     1     -18.795  43.388 -28.262  1.00  0.00     0.149 C 
HETATM   18  O1  UNL     1     -19.756  43.082 -28.963  1.00  0.00    -0.293 OA
HETATM   19  C6  UNL     1     -17.536  42.618 -28.385  1.00  0.00     0.053 C 
HETATM   20  C8  UNL     1     -15.180  42.138 -27.803  1.00  0.00     0.035 C 
HETATM   21  C9  UNL     1     -14.113  43.105 -28.316  1.00  0.00     0.010 C 
HETATM   22  C17 UNL     1     -12.485  45.699 -29.172  1.00  0.00     0.009 C 
HETATM   23  C18 UNL     1     -12.467  47.222 -29.134  1.00  0.00     0.047 C 
BRANCH   3  24
HETATM   24  O3  UNL     1     -12.404  48.859 -27.363  1.00  0.00    -0.381 OA
HETATM   25  H25 UNL     1     -12.069  49.498 -28.018  1.00  0.00     0.211 HD
ENDBRANCH   3  24
ENDBRANCH   1   3
BRANCH   1  26
HETATM   26  C21 UNL     1      -9.587  48.488 -27.046  1.00  0.00     0.260 C 
BRANCH  26  27
HETATM   27  O5  UNL     1      -8.314  48.081 -26.560  1.00  0.00    -0.314 OA
BRANCH  27  28
HETATM   28  C22 UNL     1      -8.245  47.964 -25.204  1.00  0.00     0.259 C 
HETATM   29  O6  UNL     1      -9.159  48.224 -24.433  1.00  0.00    -0.265 OA
BRANCH  28  30
HETATM   30  C23 UNL     1      -6.871  47.511 -24.777  1.00  0.00     0.120 C 
BRANCH  30  31
HETATM   31  C24 UNL     1      -6.337  48.416 -23.673  1.00  0.00     0.112 C 
BRANCH  31  32
HETATM   32  C25 UNL     1      -5.446  49.502 -24.243  1.00  0.00     0.218 C 
HETATM   33  O7  UNL     1      -4.542  49.275 -25.039  1.00  0.00    -0.274 OA
HETATM   34  N1  UNL     1      -5.775  50.765 -23.804  1.00  0.00    -0.361 N 
HETATM   35  H32 UNL     1      -6.355  50.846 -22.978  1.00  0.00     0.162 HD
BRANCH  34  36
HETATM   36  C26 UNL     1      -4.949  51.911 -24.141  1.00  0.00     0.127 C 
BRANCH  36  37
HETATM   37  C27 UNL     1      -3.846  52.184 -23.111  1.00  0.00     0.058 C 
BRANCH  37  38
HETATM   38  C28 UNL     1      -2.476  52.297 -23.741  1.00  0.00    -0.054 A 
HETATM   39  C29 UNL     1      -1.325  52.311 -22.933  1.00  0.00     0.010 A 
HETATM   40  C30 UNL     1      -0.058  52.446 -23.501  1.00  0.00     0.040 A 
HETATM   41  C31 UNL     1       0.057  52.564 -24.878  1.00  0.00     0.098 A 
HETATM   42  C32 UNL     1      -1.073  52.545 -25.691  1.00  0.00     0.099 A 
HETATM   43  C33 UNL     1      -2.341  52.415 -25.134  1.00  0.00     0.046 A 
BRANCH  41  44
HETATM   44  O8  UNL     1       1.296  52.701 -25.437  1.00  0.00    -0.358 OA
HETATM   45  H39 UNL     1       1.126  52.743 -26.399  1.00  0.00     0.217 HD
ENDBRANCH  41  44
BRANCH  42  46
HETATM   46  O9  UNL     1      -0.885  52.658 -27.043  1.00  0.00    -0.358 OA
HETATM   47  H40 UNL     1      -1.752  52.584 -27.477  1.00  0.00     0.217 HD
ENDBRANCH  42  46
ENDBRANCH  37  38
ENDBRANCH  36  37
ENDBRANCH  34  36
ENDBRANCH  31  32
ENDBRANCH  30  31
ENDBRANCH  28  30
ENDBRANCH  27  28
ENDBRANCH  26  27
ENDBRANCH   1  26
TORSDOF 13
ENDMDL
MODEL 7
REMARK minimizedAffinity -9.84342289
REMARK CNNscore 0.556275487
REMARK CNNaffinity 7.39803839
REMARK  13 active torsions:
REMARK  status: ('A' for Active; 'I' for Inactive)
REMARK    1  A    between atoms: C19_21  and  O3_22 
REMARK    2  A    between atoms: C19_21  and  C20_23 
REMARK    3  A    between atoms: C20_23  and  C21_25 
REMARK    4  A    between atoms: C21_25  and  O5_26 
REMARK    5  A    between atoms: O5_26  and  C22_27 
REMARK    6  A    between atoms: C22_27  and  C23_29 
REMARK    7  A    between atoms: C23_29  and  C24_30 
REMARK    8  A    between atoms: C24_30  and  C25_31 
REMARK       I    between atoms: C25_31  and  N1_33 
REMARK    9  A    between atoms: N1_33  and  C26_34 
REMARK   10  A    between atoms: C26_34  and  C27_35 
REMARK   11  A    between atoms: C27_35  and  C28_36 
REMARK   12  A    between atoms: C31_39  and  O8_40 
REMARK   13  A    between atoms: C32_41  and  O9_42 
ROOT
HETATM    1  C20 UNL     1      -2.709  50.485 -26.859  1.00  0.00     0.185 C 
HETATM    2  O4  UNL     1      -1.698  50.806 -27.490  1.00  0.00    -0.292 OA
ENDROOT
BRANCH   1   3
HETATM    3  C19 UNL     1      -3.074  51.139 -25.481  1.00  0.00     0.128 C 
HETATM    4  C14 UNL     1      -1.965  51.034 -24.374  1.00  0.00     0.005 C 
HETATM    5  C13 UNL     1      -2.167  52.099 -23.267  1.00  0.00     0.091 C 
HETATM    6  C15 UNL     1      -0.549  51.246 -24.961  1.00  0.00     0.019 C 
HETATM    7  C16 UNL     1      -2.148  49.606 -23.771  1.00  0.00     0.002 C 
HETATM    8  C12 UNL     1      -1.189  51.883 -22.134  1.00  0.00     0.133 C 
HETATM    9  C11 UNL     1      -1.069  50.473 -21.564  1.00  0.00     0.072 C 
HETATM   10  O2  UNL     1      -0.505  52.814 -21.708  1.00  0.00    -0.297 OA
HETATM   11  C2  UNL     1      -1.180  50.444 -19.987  1.00  0.00    -0.009 C 
HETATM   12  C10 UNL     1      -2.094  49.522 -22.222  1.00  0.00     0.003 C 
HETATM   13  C1  UNL     1       0.203  50.775 -19.378  1.00  0.00     0.021 C 
HETATM   14  C3  UNL     1      -2.246  51.443 -19.457  1.00  0.00     0.022 C 
HETATM   15  C7  UNL     1      -1.580  49.037 -19.521  1.00  0.00    -0.067 C 
HETATM   16  C4  UNL     1      -2.514  51.309 -17.958  1.00  0.00     0.084 C 
HETATM   17  C5  UNL     1      -2.832  49.887 -17.574  1.00  0.00     0.149 C 
HETATM   18  O1  UNL     1      -3.469  49.610 -16.560  1.00  0.00    -0.293 OA
HETATM   19  C6  UNL     1      -2.329  48.792 -18.434  1.00  0.00     0.053 C 
HETATM   20  C8  UNL     1      -1.153  47.918 -20.427  1.00  0.00     0.035 C 
HETATM   21  C9  UNL     1      -1.854  48.054 -21.779  1.00  0.00     0.010 C 
HETATM   22  C17 UNL     1      -3.524  49.104 -24.274  1.00  0.00     0.009 C 
HETATM   23  C18 UNL     1      -4.218  50.317 -24.881  1.00  0.00     0.047 C 
BRANCH   3  24
HETATM   24  O3  UNL     1      -3.474  52.497 -25.596  1.00  0.00    -0.381 OA
HETATM   25  H25 UNL     1      -4.278  52.549 -26.144  1.00  0.00     0.211 HD
ENDBRANCH   3  24
ENDBRANCH   1   3
BRANCH   1  26
HETATM   26  C21 UNL     1      -3.527  49.273 -27.311  1.00  0.00     0.260 C 
BRANCH  26  27
HETATM   27  O5  UNL     1      -4.159  49.396 -28.579  1.00  0.00    -0.314 OA
BRANCH  27  28
HETATM   28  C22 UNL     1      -4.852  48.288 -28.967  1.00  0.00     0.259 C 
HETATM   29  O6  UNL     1      -4.806  47.790 -30.083  1.00  0.00    -0.265 OA
BRANCH  28  30
HETATM   30  C23 UNL     1      -5.719  47.781 -27.841  1.00  0.00     0.120 C 
BRANCH  30  31
HETATM   31  C24 UNL     1      -7.184  47.781 -28.263  1.00  0.00     0.112 C 
BRANCH  31  32
HETATM   32  C25 UNL     1      -7.526  46.527 -29.044  1.00  0.00     0.218 C 
HETATM   33  O7  UNL     1      -7.703  45.437 -28.513  1.00  0.00    -0.274 OA
HETATM   34  N1  UNL     1      -7.649  46.744 -30.398  1.00  0.00    -0.361 N 
HETATM   35  H32 UNL     1      -7.253  47.593 -30.783  1.00  0.00     0.162 HD
BRANCH  34  36
HETATM   36  C26 UNL     1      -7.842  45.635 -31.317  1.00  0.00     0.127 C 
BRANCH  36  37
HETATM   37  C27 UNL     1      -7.748  46.050 -32.790  1.00  0.00     0.058 C 
BRANCH  37  38
HETATM   38  C28 UNL     1      -6.379  46.576 -33.161  1.00  0.00    -0.054 A 
HETATM   39  C29 UNL     1      -5.224  45.983 -32.620  1.00  0.00     0.010 A 
HETATM   40  C30 UNL     1      -3.957  46.480 -32.930  1.00  0.00     0.040 A 
HETATM   41  C31 UNL     1      -3.847  47.567 -33.784  1.00  0.00     0.098 A 
HETATM   42  C32 UNL     1      -4.981  48.159 -34.332  1.00  0.00     0.099 A 
HETATM   43  C33 UNL     1      -6.248  47.675 -34.026  1.00  0.00     0.046 A 
BRANCH  41  44
HETATM   44  O8  UNL     1      -2.609  48.058 -34.086  1.00  0.00    -0.358 OA
HETATM   45  H39 UNL     1      -2.782  48.792 -34.707  1.00  0.00     0.217 HD
ENDBRANCH  41  44
BRANCH  42  46
HETATM   46  O9  UNL     1      -4.798  49.224 -35.174  1.00  0.00    -0.358 OA
HETATM   47  H40 UNL     1      -5.668  49.499 -35.509  1.00  0.00     0.217 HD
ENDBRANCH  42  46
ENDBRANCH  37  38
ENDBRANCH  36  37
ENDBRANCH  34  36
ENDBRANCH  31  32
ENDBRANCH  30  31
ENDBRANCH  28  30
ENDBRANCH  27  28
ENDBRANCH  26  27
ENDBRANCH   1  26
TORSDOF 13
ENDMDL
MODEL 8
REMARK minimizedAffinity -9.21358776
REMARK CNNscore 0.545675993
REMARK CNNaffinity 7.41332197
REMARK  13 active torsions:
REMARK  status: ('A' for Active; 'I' for Inactive)
REMARK    1  A    between atoms: C19_21  and  O3_22 
REMARK    2  A    between atoms: C19_21  and  C20_23 
REMARK    3  A    between atoms: C20_23  and  C21_25 
REMARK    4  A    between atoms: C21_25  and  O5_26 
REMARK    5  A    between atoms: O5_26  and  C22_27 
REMARK    6  A    between atoms: C22_27  and  C23_29 
REMARK    7  A    between atoms: C23_29  and  C24_30 
REMARK    8  A    between atoms: C24_30  and  C25_31 
REMARK       I    between atoms: C25_31  and  N1_33 
REMARK    9  A    between atoms: N1_33  and  C26_34 
REMARK   10  A    between atoms: C26_34  and  C27_35 
REMARK   11  A    between atoms: C27_35  and  C28_36 
REMARK   12  A    between atoms: C31_39  and  O8_40 
REMARK   13  A    between atoms: C32_41  and  O9_42 
ROOT
HETATM    1  C20 UNL     1      -3.272  49.456 -19.852  1.00  0.00     0.185 C 
HETATM    2  O4  UNL     1      -4.142  48.856 -20.490  1.00  0.00    -0.292 OA
ENDROOT
BRANCH   1   3
HETATM    3  C19 UNL     1      -2.338  48.726 -18.824  1.00  0.00     0.128 C 
HETATM    4  C14 UNL     1      -2.071  49.507 -17.489  1.00  0.00     0.005 C 
HETATM    5  C13 UNL     1      -1.597  48.556 -16.361  1.00  0.00     0.091 C 
HETATM    6  C15 UNL     1      -3.347  50.220 -16.978  1.00  0.00     0.019 C 
HETATM    7  C16 UNL     1      -0.933  50.513 -17.844  1.00  0.00     0.002 C 
HETATM    8  C12 UNL     1      -1.195  49.342 -15.134  1.00  0.00     0.133 C 
HETATM    9  C11 UNL     1      -0.248  50.524 -15.330  1.00  0.00     0.072 C 
HETATM   10  O2  UNL     1      -1.636  49.044 -14.025  1.00  0.00    -0.297 OA
HETATM   11  C2  UNL     1       0.982  50.487 -14.338  1.00  0.00    -0.009 C 
HETATM   12  C10 UNL     1       0.212  50.623 -16.801  1.00  0.00     0.003 C 
HETATM   13  C1  UNL     1       0.554  51.095 -12.981  1.00  0.00     0.021 C 
HETATM   14  C3  UNL     1       1.521  49.045 -14.126  1.00  0.00     0.022 C 
HETATM   15  C7  UNL     1       2.127  51.340 -14.901  1.00  0.00    -0.067 C 
HETATM   16  C4  UNL     1       2.822  48.992 -13.326  1.00  0.00     0.084 C 
HETATM   17  C5  UNL     1       3.870  49.908 -13.904  1.00  0.00     0.149 C 
HETATM   18  O1  UNL     1       5.071  49.735 -13.709  1.00  0.00    -0.293 OA
HETATM   19  C6  UNL     1       3.428  51.072 -14.706  1.00  0.00     0.053 C 
HETATM   20  C8  UNL     1       1.702  52.476 -15.788  1.00  0.00     0.035 C 
HETATM   21  C9  UNL     1       1.026  51.923 -17.043  1.00  0.00     0.010 C 
HETATM   22  C17 UNL     1      -0.359  50.045 -19.203  1.00  0.00     0.009 C 
HETATM   23  C18 UNL     1      -0.943  48.660 -19.452  1.00  0.00     0.047 C 
BRANCH   3  24
HETATM   24  O3  UNL     1      -2.779  47.414 -18.504  1.00  0.00    -0.381 OA
HETATM   25  H25 UNL     1      -2.775  46.869 -19.311  1.00  0.00     0.211 HD
ENDBRANCH   3  24
ENDBRANCH   1   3
BRANCH   1  26
HETATM   26  C21 UNL     1      -3.227  50.985 -19.894  1.00  0.00     0.260 C 
BRANCH  26  27
HETATM   27  O5  UNL     1      -2.442  51.549 -20.937  1.00  0.00    -0.314 OA
BRANCH  27  28
HETATM   28  C22 UNL     1      -2.880  51.244 -22.191  1.00  0.00     0.259 C 
HETATM   29  O6  UNL     1      -2.366  50.414 -22.928  1.00  0.00    -0.265 OA
BRANCH  28  30
HETATM   30  C23 UNL     1      -4.062  52.102 -22.567  1.00  0.00     0.120 C 
BRANCH  30  31
HETATM   31  C24 UNL     1      -4.796  51.496 -23.758  1.00  0.00     0.112 C 
BRANCH  31  32
HETATM   32  C25 UNL     1      -4.044  51.753 -25.049  1.00  0.00     0.218 C 
HETATM   33  O7  UNL     1      -3.729  52.876 -25.427  1.00  0.00    -0.274 OA
HETATM   34  N1  UNL     1      -3.721  50.602 -25.732  1.00  0.00    -0.361 N 
HETATM   35  H32 UNL     1      -4.217  49.752 -25.494  1.00  0.00     0.162 HD
BRANCH  34  36
HETATM   36  C26 UNL     1      -3.117  50.661 -27.051  1.00  0.00     0.127 C 
BRANCH  36  37
HETATM   37  C27 UNL     1      -2.423  51.998 -27.338  1.00  0.00     0.058 C 
BRANCH  37  38
HETATM   38  C28 UNL     1      -0.917  51.906 -27.230  1.00  0.00    -0.054 A 
HETATM   39  C29 UNL     1      -0.134  51.748 -28.387  1.00  0.00     0.010 A 
HETATM   40  C30 UNL     1       1.253  51.630 -28.298  1.00  0.00     0.040 A 
HETATM   41  C31 UNL     1       1.857  51.675 -27.050  1.00  0.00     0.098 A 
HETATM   42  C32 UNL     1       1.095  51.838 -25.896  1.00  0.00     0.099 A 
HETATM   43  C33 UNL     1      -0.289  51.951 -25.975  1.00  0.00     0.046 A 
BRANCH  41  44
HETATM   44  O8  UNL     1       3.214  51.556 -26.958  1.00  0.00    -0.358 OA
HETATM   45  H39 UNL     1       3.403  51.637 -26.003  1.00  0.00     0.217 HD
ENDBRANCH  41  44
BRANCH  42  46
HETATM   46  O9  UNL     1       1.757  51.882 -24.698  1.00  0.00    -0.358 OA
HETATM   47  H40 UNL     1       1.104  52.043 -23.996  1.00  0.00     0.217 HD
ENDBRANCH  42  46
ENDBRANCH  37  38
ENDBRANCH  36  37
ENDBRANCH  34  36
ENDBRANCH  31  32
ENDBRANCH  30  31
ENDBRANCH  28  30
ENDBRANCH  27  28
ENDBRANCH  26  27
ENDBRANCH   1  26
TORSDOF 13
ENDMDL
MODEL 9
REMARK minimizedAffinity -8.499753
REMARK CNNscore 0.468639225
REMARK CNNaffinity 6.14030266
REMARK  13 active torsions:
REMARK  status: ('A' for Active; 'I' for Inactive)
REMARK    1  A    between atoms: C19_21  and  O3_22 
REMARK    2  A    between atoms: C19_21  and  C20_23 
REMARK    3  A    between atoms: C20_23  and  C21_25 
REMARK    4  A    between atoms: C21_25  and  O5_26 
REMARK    5  A    between atoms: O5_26  and  C22_27 
REMARK    6  A    between atoms: C22_27  and  C23_29 
REMARK    7  A    between atoms: C23_29  and  C24_30 
REMARK    8  A    between atoms: C24_30  and  C25_31 
REMARK       I    between atoms: C25_31  and  N1_33 
REMARK    9  A    between atoms: N1_33  and  C26_34 
REMARK   10  A    between atoms: C26_34  and  C27_35 
REMARK   11  A    between atoms: C27_35  and  C28_36 
REMARK   12  A    between atoms: C31_39  and  O8_40 
REMARK   13  A    between atoms: C32_41  and  O9_42 
ROOT
HETATM    1  C20 UNL     1     -10.245  46.632 -29.453  1.00  0.00     0.185 C 
HETATM    2  O4  UNL     1     -10.612  46.525 -30.627  1.00  0.00    -0.292 OA
ENDROOT
BRANCH   1   3
HETATM    3  C19 UNL     1     -11.171  47.238 -28.342  1.00  0.00     0.128 C 
HETATM    4  C14 UNL     1     -11.918  46.188 -27.446  1.00  0.00     0.005 C 
HETATM    5  C13 UNL     1     -12.379  46.813 -26.105  1.00  0.00     0.091 C 
HETATM    6  C15 UNL     1     -11.011  44.982 -27.100  1.00  0.00     0.019 C 
HETATM    7  C16 UNL     1     -13.164  45.769 -28.288  1.00  0.00     0.002 C 
HETATM    8  C12 UNL     1     -13.231  45.836 -25.325  1.00  0.00     0.133 C 
HETATM    9  C11 UNL     1     -14.375  45.149 -26.066  1.00  0.00     0.072 C 
HETATM   10  O2  UNL     1     -12.989  45.597 -24.143  1.00  0.00    -0.297 OA
HETATM   11  C2  UNL     1     -15.746  45.243 -25.286  1.00  0.00    -0.009 C 
HETATM   12  C10 UNL     1     -14.503  45.691 -27.507  1.00  0.00     0.003 C 
HETATM   13  C1  UNL     1     -15.800  44.121 -24.223  1.00  0.00     0.021 C 
HETATM   14  C3  UNL     1     -15.939  46.627 -24.605  1.00  0.00     0.022 C 
HETATM   15  C7  UNL     1     -16.912  45.031 -26.261  1.00  0.00    -0.067 C 
HETATM   16  C4  UNL     1     -17.329  46.821 -24.003  1.00  0.00     0.084 C 
HETATM   17  C5  UNL     1     -18.417  46.528 -25.004  1.00  0.00     0.149 C 
HETATM   18  O1  UNL     1     -19.548  46.998 -24.899  1.00  0.00    -0.293 OA
HETATM   19  C6  UNL     1     -18.114  45.617 -26.131  1.00  0.00     0.053 C 
HETATM   20  C8  UNL     1     -16.599  44.179 -27.457  1.00  0.00     0.035 C 
HETATM   21  C9  UNL     1     -15.542  44.870 -28.318  1.00  0.00     0.010 C 
HETATM   22  C17 UNL     1     -13.281  46.815 -29.423  1.00  0.00     0.009 C 
HETATM   23  C18 UNL     1     -12.328  47.945 -29.056  1.00  0.00     0.047 C 
BRANCH   3  24
HETATM   24  O3  UNL     1     -10.499  48.161 -27.497  1.00  0.00    -0.381 OA
HETATM   25  H25 UNL     1     -10.184  48.914 -28.031  1.00  0.00     0.211 HD
ENDBRANCH   3  24
ENDBRANCH   1   3
BRANCH   1  26
HETATM   26  C21 UNL     1      -8.781  46.368 -29.095  1.00  0.00     0.260 C 
BRANCH  26  27
HETATM   27  O5  UNL     1      -7.964  47.523 -28.953  1.00  0.00    -0.314 OA
BRANCH  27  28
HETATM   28  C22 UNL     1      -6.631  47.286 -29.112  1.00  0.00     0.259 C 
HETATM   29  O6  UNL     1      -6.147  46.556 -29.966  1.00  0.00    -0.265 OA
BRANCH  28  30
HETATM   30  C23 UNL     1      -5.832  48.014 -28.060  1.00  0.00     0.120 C 
BRANCH  30  31
HETATM   31  C24 UNL     1      -6.273  47.579 -26.667  1.00  0.00     0.112 C 
BRANCH  31  32
HETATM   32  C25 UNL     1      -5.434  48.249 -25.596  1.00  0.00     0.218 C 
HETATM   33  O7  UNL     1      -5.902  48.667 -24.543  1.00  0.00    -0.274 OA
HETATM   34  N1  UNL     1      -4.095  48.310 -25.910  1.00  0.00    -0.361 N 
HETATM   35  H32 UNL     1      -3.825  48.175 -26.877  1.00  0.00     0.162 HD
BRANCH  34  36
HETATM   36  C26 UNL     1      -3.161  49.033 -25.065  1.00  0.00     0.127 C 
BRANCH  36  37
HETATM   37  C27 UNL     1      -3.096  50.532 -25.384  1.00  0.00     0.058 C 
BRANCH  37  38
HETATM   38  C28 UNL     1      -1.679  51.021 -25.593  1.00  0.00    -0.054 A 
HETATM   39  C29 UNL     1      -0.962  50.639 -26.740  1.00  0.00     0.010 A 
HETATM   40  C30 UNL     1       0.356  51.058 -26.928  1.00  0.00     0.040 A 
HETATM   41  C31 UNL     1       0.953  51.862 -25.968  1.00  0.00     0.098 A 
HETATM   42  C32 UNL     1       0.253  52.253 -24.831  1.00  0.00     0.099 A 
HETATM   43  C33 UNL     1      -1.059  51.837 -24.632  1.00  0.00     0.046 A 
BRANCH  41  44
HETATM   44  O8  UNL     1       2.245  52.270 -26.147  1.00  0.00    -0.358 OA
HETATM   45  H39 UNL     1       2.433  52.830 -25.369  1.00  0.00     0.217 HD
ENDBRANCH  41  44
BRANCH  42  46
HETATM   46  O9  UNL     1       0.902  53.054 -23.929  1.00  0.00    -0.358 OA
HETATM   47  H40 UNL     1       0.277  53.278 -23.218  1.00  0.00     0.217 HD
ENDBRANCH  42  46
ENDBRANCH  37  38
ENDBRANCH  36  37
ENDBRANCH  34  36
ENDBRANCH  31  32
ENDBRANCH  30  31
ENDBRANCH  28  30
ENDBRANCH  27  28
ENDBRANCH  26  27
ENDBRANCH   1  26
TORSDOF 13
ENDMDL
