MODEL 1
REMARK minimizedAffinity -8.65838051
REMARK  13 active torsions:
REMARK  status: ('A' for Active; 'I' for Inactive)
REMARK    1  A    between atoms: C2_2  and  C3_3 
REMARK    2  A    between atoms: C2_2  and  C14_14 
REMARK    3  A    between atoms: C4_4  and  C5_5 
REMARK    4  A    between atoms: C6_6  and  C8_8 
REMARK    5  A    between atoms: C8_8  and  C9_9 
REMARK    6  A    between atoms: C9_9  and  C10_10 
REMARK    7  A    between atoms: C18_18  and  C19_19 
REMARK    8  A    between atoms: C19_19  and  C20_20 
REMARK    9  A    between atoms: C20_20  and  C21_21 
REMARK   10  A    between atoms: C21_21  and  O1_22 
REMARK   11  A    between atoms: C23_24  and  C25_26 
REMARK   12  A    between atoms: C28_30  and  O3_32 
REMARK   13  A    between atoms: C30_33  and  O4_34 
ROOT
HETATM    1  C14 UNL     1      -6.805  46.706 -28.505  1.00  0.00     0.047 C 
HETATM    2  C15 UNL     1      -8.156  45.974 -28.555  1.00  0.00     0.013 C 
HETATM    3  C16 UNL     1      -8.306  45.569 -30.010  1.00  0.00     0.017 C 
HETATM    4  C17 UNL     1      -7.686  46.731 -30.858  1.00  0.00     0.024 C 
HETATM    5  C18 UNL     1      -6.754  46.059 -31.975  1.00  0.00     0.029 C 
HETATM    6  C22 UNL     1      -6.686  46.898 -33.263  1.00  0.00    -0.066 C 
HETATM    7  C23 UNL     1      -5.695  47.664 -33.775  1.00  0.00    -0.021 C 
HETATM    8  C24 UNL     1      -5.676  48.258 -35.161  1.00  0.00     0.052 C 
HETATM    9  C26 UNL     1      -8.046  46.859 -33.962  1.00  0.00     0.038 C 
HETATM   10  C27 UNL     1      -9.215  46.913 -32.956  1.00  0.00     0.042 C 
HETATM   11  C28 UNL     1      -8.831  47.573 -31.608  1.00  0.00     0.065 C 
HETATM   12  C29 UNL     1     -10.119  47.803 -30.795  1.00  0.00     0.047 C 
HETATM   13  C30 UNL     1      -6.895  47.579 -29.788  1.00  0.00     0.138 C 
ENDROOT
BRANCH   5  14
HETATM   14  C19 UNL     1      -5.560  45.128 -31.590  1.00  0.00     0.012 C 
BRANCH  14  15
HETATM   15  C20 UNL     1      -4.797  44.300 -32.618  1.00  0.00     0.027 C 
BRANCH  15  16
HETATM   16  C21 UNL     1      -5.046  42.801 -32.449  1.00  0.00     0.164 C 
BRANCH  16  17
HETATM   17  O1  UNL     1      -3.821  42.084 -32.400  1.00  0.00    -0.401 OA
HETATM   18  H32 UNL     1      -3.351  42.359 -31.591  1.00  0.00     0.209 HD
ENDBRANCH  16  17
ENDBRANCH  15  16
ENDBRANCH  14  15
ENDBRANCH   5  14
BRANCH  11  19
HETATM   19  O3  UNL     1      -8.313  48.890 -31.908  1.00  0.00    -0.389 OA
HETATM   20  H44 UNL     1      -8.995  49.367 -32.419  1.00  0.00     0.210 HD
ENDBRANCH  11  19
BRANCH  13  21
HETATM   21  O4  UNL     1      -7.552  48.805 -29.464  1.00  0.00    -0.394 OA
HETATM   22  H46 UNL     1      -7.682  49.269 -30.317  1.00  0.00     0.210 HD
ENDBRANCH  13  21
BRANCH   1  23
HETATM   23  C2  UNL     1      -6.498  47.419 -27.180  1.00  0.00    -0.061 C 
HETATM   24  C1  UNL     1      -7.363  47.444 -26.149  1.00  0.00     0.019 C 
BRANCH  23  25
HETATM   25  C3  UNL     1      -5.212  48.085 -26.959  1.00  0.00     0.007 C 
HETATM   26  C4  UNL     1      -4.599  48.355 -25.796  1.00  0.00     0.001 C 
BRANCH  26  27
HETATM   27  C5  UNL     1      -3.333  49.059 -25.738  1.00  0.00     0.002 C 
HETATM   28  C6  UNL     1      -3.102  50.300 -25.261  1.00  0.00    -0.084 C 
HETATM   29  C7  UNL     1      -4.122  51.216 -24.645  1.00  0.00     0.043 C 
BRANCH  28  30
HETATM   30  C8  UNL     1      -1.694  50.868 -25.326  1.00  0.00     0.037 C 
BRANCH  30  31
HETATM   31  C9  UNL     1      -1.240  51.102 -26.773  1.00  0.00     0.031 C 
BRANCH  31  32
HETATM   32  C10 UNL     1       0.254  50.973 -26.909  1.00  0.00    -0.024 C 
HETATM   33  C11 UNL     1       1.208  51.651 -26.244  1.00  0.00    -0.091 C 
HETATM   34  C12 UNL     1       2.668  51.395 -26.525  1.00  0.00     0.042 C 
HETATM   35  C13 UNL     1       0.957  52.692 -25.186  1.00  0.00     0.042 C 
ENDBRANCH  31  32
ENDBRANCH  30  31
ENDBRANCH  28  30
ENDBRANCH  26  27
ENDBRANCH  23  25
ENDBRANCH   1  23
BRANCH   7  36
HETATM   36  C25 UNL     1      -4.523  48.093 -32.970  1.00  0.00     0.265 C 
HETATM   37  O2  UNL     1      -3.404  47.612 -33.101  1.00  0.00    -0.302 OA
ENDBRANCH   7  36
TORSDOF 13
ENDMDL
MODEL 2
REMARK minimizedAffinity -8.5899744
REMARK  13 active torsions:
REMARK  status: ('A' for Active; 'I' for Inactive)
REMARK    1  A    between atoms: C2_2  and  C3_3 
REMARK    2  A    between atoms: C2_2  and  C14_14 
REMARK    3  A    between atoms: C4_4  and  C5_5 
REMARK    4  A    between atoms: C6_6  and  C8_8 
REMARK    5  A    between atoms: C8_8  and  C9_9 
REMARK    6  A    between atoms: C9_9  and  C10_10 
REMARK    7  A    between atoms: C18_18  and  C19_19 
REMARK    8  A    between atoms: C19_19  and  C20_20 
REMARK    9  A    between atoms: C20_20  and  C21_21 
REMARK   10  A    between atoms: C21_21  and  O1_22 
REMARK   11  A    between atoms: C23_24  and  C25_26 
REMARK   12  A    between atoms: C28_30  and  O3_32 
REMARK   13  A    between atoms: C30_33  and  O4_34 
ROOT
HETATM    1  C14 UNL     1      -1.199  51.095 -24.671  1.00  0.00     0.047 C 
HETATM    2  C15 UNL     1      -1.966  52.423 -24.559  1.00  0.00     0.013 C 
HETATM    3  C16 UNL     1      -2.204  52.591 -23.069  1.00  0.00     0.017 C 
HETATM    4  C17 UNL     1      -2.461  51.154 -22.498  1.00  0.00     0.024 C 
HETATM    5  C18 UNL     1      -1.587  51.010 -21.163  1.00  0.00     0.029 C 
HETATM    6  C22 UNL     1      -2.237  50.064 -20.138  1.00  0.00    -0.066 C 
HETATM    7  C23 UNL     1      -1.910  48.810 -19.752  1.00  0.00    -0.021 C 
HETATM    8  C24 UNL     1      -2.498  48.076 -18.574  1.00  0.00     0.052 C 
HETATM    9  C26 UNL     1      -3.504  50.718 -19.582  1.00  0.00     0.038 C 
HETATM   10  C27 UNL     1      -4.286  51.480 -20.673  1.00  0.00     0.042 C 
HETATM   11  C28 UNL     1      -4.006  50.957 -22.104  1.00  0.00     0.065 C 
HETATM   12  C29 UNL     1      -5.019  51.607 -23.066  1.00  0.00     0.047 C 
HETATM   13  C30 UNL     1      -1.996  50.209 -23.673  1.00  0.00     0.138 C 
ENDROOT
BRANCH   5  14
HETATM   14  C19 UNL     1      -0.035  51.191 -21.178  1.00  0.00     0.012 C 
BRANCH  14  15
HETATM   15  C20 UNL     1       0.640  52.481 -21.630  1.00  0.00     0.027 C 
BRANCH  15  16
HETATM   16  C21 UNL     1       0.905  53.431 -20.462  1.00  0.00     0.164 C 
BRANCH  16  17
HETATM   17  O1  UNL     1       1.457  54.657 -20.919  1.00  0.00    -0.401 OA
HETATM   18  H32 UNL     1       0.779  55.100 -21.461  1.00  0.00     0.209 HD
ENDBRANCH  16  17
ENDBRANCH  15  16
ENDBRANCH  14  15
ENDBRANCH   5  14
BRANCH  11  19
HETATM   19  O3  UNL     1      -4.307  49.542 -22.111  1.00  0.00    -0.389 OA
HETATM   20  H44 UNL     1      -5.229  49.434 -21.808  1.00  0.00     0.210 HD
ENDBRANCH  11  19
BRANCH  13  21
HETATM   21  O4  UNL     1      -3.095  49.613 -24.366  1.00  0.00    -0.394 OA
HETATM   22  H46 UNL     1      -3.625  49.158 -23.679  1.00  0.00     0.210 HD
ENDBRANCH  13  21
BRANCH   1  23
HETATM   23  C2  UNL     1      -1.014  50.567 -26.101  1.00  0.00    -0.061 C 
HETATM   24  C1  UNL     1       0.194  50.442 -26.680  1.00  0.00     0.019 C 
BRANCH  23  25
HETATM   25  C3  UNL     1      -2.162  50.136 -26.903  1.00  0.00     0.007 C 
HETATM   26  C4  UNL     1      -2.699  48.910 -27.004  1.00  0.00     0.001 C 
BRANCH  26  27
HETATM   27  C5  UNL     1      -3.823  48.631 -27.875  1.00  0.00     0.002 C 
HETATM   28  C6  UNL     1      -5.061  48.229 -27.517  1.00  0.00    -0.084 C 
HETATM   29  C7  UNL     1      -5.553  48.019 -26.113  1.00  0.00     0.043 C 
BRANCH  28  30
HETATM   30  C8  UNL     1      -6.092  47.955 -28.599  1.00  0.00     0.037 C 
BRANCH  30  31
HETATM   31  C9  UNL     1      -5.499  48.118 -30.005  1.00  0.00     0.031 C 
BRANCH  31  32
HETATM   32  C10 UNL     1      -5.289  46.784 -30.673  1.00  0.00    -0.024 C 
HETATM   33  C11 UNL     1      -4.825  46.543 -31.913  1.00  0.00    -0.091 C 
HETATM   34  C12 UNL     1      -4.695  45.129 -32.421  1.00  0.00     0.042 C 
HETATM   35  C13 UNL     1      -4.396  47.595 -32.901  1.00  0.00     0.042 C 
ENDBRANCH  31  32
ENDBRANCH  30  31
ENDBRANCH  28  30
ENDBRANCH  26  27
ENDBRANCH  23  25
ENDBRANCH   1  23
BRANCH   7  36
HETATM   36  C25 UNL     1      -0.975  47.956 -20.528  1.00  0.00     0.265 C 
HETATM   37  O2  UNL     1      -1.298  47.358 -21.548  1.00  0.00    -0.302 OA
ENDBRANCH   7  36
TORSDOF 13
ENDMDL
MODEL 3
REMARK minimizedAffinity -8.54930019
REMARK  13 active torsions:
REMARK  status: ('A' for Active; 'I' for Inactive)
REMARK    1  A    between atoms: C2_2  and  C3_3 
REMARK    2  A    between atoms: C2_2  and  C14_14 
REMARK    3  A    between atoms: C4_4  and  C5_5 
REMARK    4  A    between atoms: C6_6  and  C8_8 
REMARK    5  A    between atoms: C8_8  and  C9_9 
REMARK    6  A    between atoms: C9_9  and  C10_10 
REMARK    7  A    between atoms: C18_18  and  C19_19 
REMARK    8  A    between atoms: C19_19  and  C20_20 
REMARK    9  A    between atoms: C20_20  and  C21_21 
REMARK   10  A    between atoms: C21_21  and  O1_22 
REMARK   11  A    between atoms: C23_24  and  C25_26 
REMARK   12  A    between atoms: C28_30  and  O3_32 
REMARK   13  A    between atoms: C30_33  and  O4_34 
ROOT
HETATM    1  C14 UNL     1      -6.491  46.898 -28.370  1.00  0.00     0.047 C 
HETATM    2  C15 UNL     1      -7.843  46.171 -28.278  1.00  0.00     0.013 C 
HETATM    3  C16 UNL     1      -8.112  45.706 -29.698  1.00  0.00     0.017 C 
HETATM    4  C17 UNL     1      -7.561  46.828 -30.642  1.00  0.00     0.024 C 
HETATM    5  C18 UNL     1      -6.724  46.105 -31.801  1.00  0.00     0.029 C 
HETATM    6  C22 UNL     1      -6.760  46.889 -33.125  1.00  0.00    -0.066 C 
HETATM    7  C23 UNL     1      -5.813  47.627 -33.749  1.00  0.00    -0.021 C 
HETATM    8  C24 UNL     1      -5.906  48.162 -35.155  1.00  0.00     0.052 C 
HETATM    9  C26 UNL     1      -8.173  46.827 -33.709  1.00  0.00     0.038 C 
HETATM   10  C27 UNL     1      -9.255  46.929 -32.614  1.00  0.00     0.042 C 
HETATM   11  C28 UNL     1      -8.762  47.644 -31.331  1.00  0.00     0.065 C 
HETATM   12  C29 UNL     1      -9.979  47.914 -30.427  1.00  0.00     0.047 C 
HETATM   13  C30 UNL     1      -6.684  47.716 -29.677  1.00  0.00     0.138 C 
ENDROOT
BRANCH   5  14
HETATM   14  C19 UNL     1      -5.504  45.185 -31.476  1.00  0.00     0.012 C 
BRANCH  14  15
HETATM   15  C20 UNL     1      -4.761  44.393 -32.546  1.00  0.00     0.027 C 
BRANCH  15  16
HETATM   16  C21 UNL     1      -5.060  42.896 -32.465  1.00  0.00     0.164 C 
BRANCH  16  17
HETATM   17  O1  UNL     1      -3.862  42.144 -32.344  1.00  0.00    -0.401 OA
HETATM   18  H32 UNL     1      -3.457  42.371 -31.487  1.00  0.00     0.209 HD
ENDBRANCH  16  17
ENDBRANCH  15  16
ENDBRANCH  14  15
ENDBRANCH   5  14
BRANCH  11  19
HETATM   19  O3  UNL     1      -8.268  48.944 -31.728  1.00  0.00    -0.389 OA
HETATM   20  H44 UNL     1      -8.988  49.403 -32.201  1.00  0.00     0.210 HD
ENDBRANCH  11  19
BRANCH  13  21
HETATM   21  O4  UNL     1      -7.310  48.958 -29.352  1.00  0.00    -0.394 OA
HETATM   22  H46 UNL     1      -7.509  49.387 -30.211  1.00  0.00     0.210 HD
ENDBRANCH  13  21
BRANCH   1  23
HETATM   23  C2  UNL     1      -6.076  47.664 -27.105  1.00  0.00    -0.061 C 
HETATM   24  C1  UNL     1      -6.894  47.823 -26.049  1.00  0.00     0.019 C 
BRANCH  23  25
HETATM   25  C3  UNL     1      -4.733  48.236 -26.973  1.00  0.00     0.007 C 
HETATM   26  C4  UNL     1      -4.034  48.481 -25.854  1.00  0.00     0.001 C 
BRANCH  26  27
HETATM   27  C5  UNL     1      -2.719  49.089 -25.885  1.00  0.00     0.002 C 
HETATM   28  C6  UNL     1      -2.420  50.404 -25.870  1.00  0.00    -0.084 C 
HETATM   29  C7  UNL     1      -3.406  51.536 -25.779  1.00  0.00     0.043 C 
BRANCH  28  30
HETATM   30  C8  UNL     1      -0.965  50.834 -25.945  1.00  0.00     0.037 C 
BRANCH  30  31
HETATM   31  C9  UNL     1      -0.619  51.865 -24.861  1.00  0.00     0.031 C 
BRANCH  31  32
HETATM   32  C10 UNL     1      -0.720  51.269 -23.482  1.00  0.00    -0.024 C 
HETATM   33  C11 UNL     1      -0.148  51.710 -22.345  1.00  0.00    -0.091 C 
HETATM   34  C12 UNL     1      -0.351  50.969 -21.048  1.00  0.00     0.042 C 
HETATM   35  C13 UNL     1       0.719  52.935 -22.228  1.00  0.00     0.042 C 
ENDBRANCH  31  32
ENDBRANCH  30  31
ENDBRANCH  28  30
ENDBRANCH  26  27
ENDBRANCH  23  25
ENDBRANCH   1  23
BRANCH   7  36
HETATM   36  C25 UNL     1      -4.579  48.084 -33.060  1.00  0.00     0.265 C 
HETATM   37  O2  UNL     1      -4.573  48.545 -31.924  1.00  0.00    -0.302 OA
ENDBRANCH   7  36
TORSDOF 13
ENDMDL
MODEL 4
REMARK minimizedAffinity -8.08193207
REMARK  13 active torsions:
REMARK  status: ('A' for Active; 'I' for Inactive)
REMARK    1  A    between atoms: C2_2  and  C3_3 
REMARK    2  A    between atoms: C2_2  and  C14_14 
REMARK    3  A    between atoms: C4_4  and  C5_5 
REMARK    4  A    between atoms: C6_6  and  C8_8 
REMARK    5  A    between atoms: C8_8  and  C9_9 
REMARK    6  A    between atoms: C9_9  and  C10_10 
REMARK    7  A    between atoms: C18_18  and  C19_19 
REMARK    8  A    between atoms: C19_19  and  C20_20 
REMARK    9  A    between atoms: C20_20  and  C21_21 
REMARK   10  A    between atoms: C21_21  and  O1_22 
REMARK   11  A    between atoms: C23_24  and  C25_26 
REMARK   12  A    between atoms: C28_30  and  O3_32 
REMARK   13  A    between atoms: C30_33  and  O4_34 
ROOT
HETATM    1  C14 UNL     1      -5.185  48.327 -24.846  1.00  0.00     0.047 C 
HETATM    2  C15 UNL     1      -4.128  48.650 -25.914  1.00  0.00     0.013 C 
HETATM    3  C16 UNL     1      -2.933  49.144 -25.118  1.00  0.00     0.017 C 
HETATM    4  C17 UNL     1      -3.513  49.950 -23.906  1.00  0.00     0.024 C 
HETATM    5  C18 UNL     1      -2.720  49.477 -22.597  1.00  0.00     0.029 C 
HETATM    6  C22 UNL     1      -2.607  50.595 -21.545  1.00  0.00    -0.066 C 
HETATM    7  C23 UNL     1      -3.229  50.765 -20.356  1.00  0.00    -0.021 C 
HETATM    8  C24 UNL     1      -2.864  51.793 -19.316  1.00  0.00     0.052 C 
HETATM    9  C26 UNL     1      -1.672  51.687 -22.069  1.00  0.00     0.038 C 
HETATM   10  C27 UNL     1      -1.866  51.937 -23.579  1.00  0.00     0.042 C 
HETATM   11  C28 UNL     1      -3.269  51.528 -24.092  1.00  0.00     0.065 C 
HETATM   12  C29 UNL     1      -3.434  52.054 -25.531  1.00  0.00     0.047 C 
HETATM   13  C30 UNL     1      -5.041  49.556 -23.906  1.00  0.00     0.138 C 
ENDROOT
BRANCH   5  14
HETATM   14  C19 UNL     1      -2.705  47.982 -22.145  1.00  0.00     0.012 C 
BRANCH  14  15
HETATM   15  C20 UNL     1      -1.686  47.430 -21.155  1.00  0.00     0.027 C 
BRANCH  15  16
HETATM   16  C21 UNL     1      -2.308  47.145 -19.788  1.00  0.00     0.164 C 
BRANCH  16  17
HETATM   17  O1  UNL     1      -1.607  47.827 -18.758  1.00  0.00    -0.401 OA
HETATM   18  H32 UNL     1      -1.730  48.783 -18.902  1.00  0.00     0.209 HD
ENDBRANCH  16  17
ENDBRANCH  15  16
ENDBRANCH  14  15
ENDBRANCH   5  14
BRANCH  11  19
HETATM   19  O3  UNL     1      -4.242  52.242 -23.295  1.00  0.00    -0.389 OA
HETATM   20  H44 UNL     1      -4.042  53.195 -23.367  1.00  0.00     0.210 HD
ENDBRANCH  11  19
BRANCH  13  21
HETATM   21  O4  UNL     1      -5.879  50.606 -24.393  1.00  0.00    -0.394 OA
HETATM   22  H46 UNL     1      -5.673  51.387 -23.839  1.00  0.00     0.210 HD
ENDBRANCH  13  21
BRANCH   1  23
HETATM   23  C2  UNL     1      -6.585  48.006 -25.390  1.00  0.00    -0.061 C 
HETATM   24  C1  UNL     1      -7.713  48.322 -24.728  1.00  0.00     0.019 C 
BRANCH  23  25
HETATM   25  C3  UNL     1      -6.761  47.362 -26.694  1.00  0.00     0.007 C 
HETATM   26  C4  UNL     1      -6.246  47.721 -27.881  1.00  0.00     0.001 C 
BRANCH  26  27
HETATM   27  C5  UNL     1      -6.543  46.996 -29.100  1.00  0.00     0.002 C 
HETATM   28  C6  UNL     1      -6.217  47.342 -30.363  1.00  0.00    -0.084 C 
HETATM   29  C7  UNL     1      -5.432  48.555 -30.775  1.00  0.00     0.043 C 
BRANCH  28  30
HETATM   30  C8  UNL     1      -6.659  46.451 -31.512  1.00  0.00     0.037 C 
BRANCH  30  31
HETATM   31  C9  UNL     1      -7.679  47.153 -32.418  1.00  0.00     0.031 C 
BRANCH  31  32
HETATM   32  C10 UNL     1      -9.092  46.831 -32.010  1.00  0.00    -0.024 C 
HETATM   33  C11 UNL     1      -9.889  47.518 -31.170  1.00  0.00    -0.091 C 
HETATM   34  C12 UNL     1     -11.283  47.032 -30.866  1.00  0.00     0.042 C 
HETATM   35  C13 UNL     1      -9.513  48.795 -30.465  1.00  0.00     0.042 C 
ENDBRANCH  31  32
ENDBRANCH  30  31
ENDBRANCH  28  30
ENDBRANCH  26  27
ENDBRANCH  23  25
ENDBRANCH   1  23
BRANCH   7  36
HETATM   36  C25 UNL     1      -4.440  49.993 -19.974  1.00  0.00     0.265 C 
HETATM   37  O2  UNL     1      -5.551  50.207 -20.446  1.00  0.00    -0.302 OA
ENDBRANCH   7  36
TORSDOF 13
ENDMDL
MODEL 5
REMARK minimizedAffinity -8.07489109
REMARK  13 active torsions:
REMARK  status: ('A' for Active; 'I' for Inactive)
REMARK    1  A    between atoms: C2_2  and  C3_3 
REMARK    2  A    between atoms: C2_2  and  C14_14 
REMARK    3  A    between atoms: C4_4  and  C5_5 
REMARK    4  A    between atoms: C6_6  and  C8_8 
REMARK    5  A    between atoms: C8_8  and  C9_9 
REMARK    6  A    between atoms: C9_9  and  C10_10 
REMARK    7  A    between atoms: C18_18  and  C19_19 
REMARK    8  A    between atoms: C19_19  and  C20_20 
REMARK    9  A    between atoms: C20_20  and  C21_21 
REMARK   10  A    between atoms: C21_21  and  O1_22 
REMARK   11  A    between atoms: C23_24  and  C25_26 
REMARK   12  A    between atoms: C28_30  and  O3_32 
REMARK   13  A    between atoms: C30_33  and  O4_34 
ROOT
HETATM    1  C14 UNL     1      -5.351  48.375 -24.667  1.00  0.00     0.047 C 
HETATM    2  C15 UNL     1      -4.386  48.467 -25.859  1.00  0.00     0.013 C 
HETATM    3  C16 UNL     1      -3.061  48.869 -25.236  1.00  0.00     0.017 C 
HETATM    4  C17 UNL     1      -3.405  49.844 -24.059  1.00  0.00     0.024 C 
HETATM    5  C18 UNL     1      -2.535  49.386 -22.794  1.00  0.00     0.029 C 
HETATM    6  C22 UNL     1      -2.176  50.565 -21.873  1.00  0.00    -0.066 C 
HETATM    7  C23 UNL     1      -2.640  50.915 -20.651  1.00  0.00    -0.021 C 
HETATM    8  C24 UNL     1      -2.043  51.972 -19.758  1.00  0.00     0.052 C 
HETATM    9  C26 UNL     1      -1.180  51.479 -22.590  1.00  0.00     0.038 C 
HETATM   10  C27 UNL     1      -1.506  51.622 -24.092  1.00  0.00     0.042 C 
HETATM   11  C28 UNL     1      -2.996  51.355 -24.422  1.00  0.00     0.065 C 
HETATM   12  C29 UNL     1      -3.253  51.774 -25.882  1.00  0.00     0.047 C 
HETATM   13  C30 UNL     1      -4.960  49.652 -23.871  1.00  0.00     0.138 C 
ENDROOT
BRANCH   5  14
HETATM   14  C19 UNL     1      -2.650  47.945 -22.201  1.00  0.00     0.012 C 
BRANCH  14  15
HETATM   15  C20 UNL     1      -1.652  47.386 -21.194  1.00  0.00     0.027 C 
BRANCH  15  16
HETATM   16  C21 UNL     1      -2.270  47.210 -19.807  1.00  0.00     0.164 C 
BRANCH  16  17
HETATM   17  O1  UNL     1      -1.518  47.905 -18.823  1.00  0.00    -0.401 OA
HETATM   18  H32 UNL     1      -1.589  48.857 -19.017  1.00  0.00     0.209 HD
ENDBRANCH  16  17
ENDBRANCH  15  16
ENDBRANCH  14  15
ENDBRANCH   5  14
BRANCH  11  19
HETATM   19  O3  UNL     1      -3.784  52.254 -23.608  1.00  0.00    -0.389 OA
HETATM   20  H44 UNL     1      -3.480  53.163 -23.792  1.00  0.00     0.210 HD
ENDBRANCH  11  19
BRANCH  13  21
HETATM   21  O4  UNL     1      -5.715  50.755 -24.374  1.00  0.00    -0.394 OA
HETATM   22  H46 UNL     1      -5.358  51.548 -23.922  1.00  0.00     0.210 HD
ENDBRANCH  13  21
BRANCH   1  23
HETATM   23  C2  UNL     1      -6.830  48.193 -25.037  1.00  0.00    -0.061 C 
HETATM   24  C1  UNL     1      -7.835  48.668 -24.278  1.00  0.00     0.019 C 
BRANCH  23  25
HETATM   25  C3  UNL     1      -7.223  47.513 -26.275  1.00  0.00     0.007 C 
HETATM   26  C4  UNL     1      -6.514  47.354 -27.403  1.00  0.00     0.001 C 
BRANCH  26  27
HETATM   27  C5  UNL     1      -7.057  46.681 -28.566  1.00  0.00     0.002 C 
HETATM   28  C6  UNL     1      -7.565  45.432 -28.631  1.00  0.00    -0.084 C 
HETATM   29  C7  UNL     1      -7.709  44.473 -27.483  1.00  0.00     0.043 C 
BRANCH  28  30
HETATM   30  C8  UNL     1      -8.054  44.901 -29.968  1.00  0.00     0.037 C 
BRANCH  30  31
HETATM   31  C9  UNL     1      -6.919  44.258 -30.776  1.00  0.00     0.031 C 
BRANCH  31  32
HETATM   32  C10 UNL     1      -6.078  45.298 -31.468  1.00  0.00    -0.024 C 
HETATM   33  C11 UNL     1      -5.016  45.103 -32.273  1.00  0.00    -0.091 C 
HETATM   34  C12 UNL     1      -4.281  46.277 -32.870  1.00  0.00     0.042 C 
HETATM   35  C13 UNL     1      -4.457  43.761 -32.663  1.00  0.00     0.042 C 
ENDBRANCH  31  32
ENDBRANCH  30  31
ENDBRANCH  28  30
ENDBRANCH  26  27
ENDBRANCH  23  25
ENDBRANCH   1  23
BRANCH   7  36
HETATM   36  C25 UNL     1      -3.885  50.341 -20.079  1.00  0.00     0.265 C 
HETATM   37  O2  UNL     1      -5.007  50.652 -20.461  1.00  0.00    -0.302 OA
ENDBRANCH   7  36
TORSDOF 13
ENDMDL
MODEL 6
REMARK minimizedAffinity -7.99142218
REMARK  13 active torsions:
REMARK  status: ('A' for Active; 'I' for Inactive)
REMARK    1  A    between atoms: C2_2  and  C3_3 
REMARK    2  A    between atoms: C2_2  and  C14_14 
REMARK    3  A    between atoms: C4_4  and  C5_5 
REMARK    4  A    between atoms: C6_6  and  C8_8 
REMARK    5  A    between atoms: C8_8  and  C9_9 
REMARK    6  A    between atoms: C9_9  and  C10_10 
REMARK    7  A    between atoms: C18_18  and  C19_19 
REMARK    8  A    between atoms: C19_19  and  C20_20 
REMARK    9  A    between atoms: C20_20  and  C21_21 
REMARK   10  A    between atoms: C21_21  and  O1_22 
REMARK   11  A    between atoms: C23_24  and  C25_26 
REMARK   12  A    between atoms: C28_30  and  O3_32 
REMARK   13  A    between atoms: C30_33  and  O4_34 
ROOT
HETATM    1  C14 UNL     1      -8.250  46.752 -26.789  1.00  0.00     0.047 C 
HETATM    2  C15 UNL     1      -9.668  46.254 -26.466  1.00  0.00     0.013 C 
HETATM    3  C16 UNL     1     -10.197  45.750 -27.797  1.00  0.00     0.017 C 
HETATM    4  C17 UNL     1      -9.623  46.712 -28.893  1.00  0.00     0.024 C 
HETATM    5  C18 UNL     1      -9.070  45.797 -30.086  1.00  0.00     0.029 C 
HETATM    6  C22 UNL     1      -9.173  46.495 -31.454  1.00  0.00    -0.066 C 
HETATM    7  C23 UNL     1      -8.223  47.035 -32.251  1.00  0.00    -0.021 C 
HETATM    8  C24 UNL     1      -8.430  47.491 -33.673  1.00  0.00     0.052 C 
HETATM    9  C26 UNL     1     -10.646  46.620 -31.846  1.00  0.00     0.038 C 
HETATM   10  C27 UNL     1     -11.540  46.957 -30.634  1.00  0.00     0.042 C 
HETATM   11  C28 UNL     1     -10.774  47.663 -29.487  1.00  0.00     0.065 C 
HETATM   12  C29 UNL     1     -11.801  48.176 -28.460  1.00  0.00     0.047 C 
HETATM   13  C30 UNL     1      -8.499  47.508 -28.123  1.00  0.00     0.138 C 
ENDROOT
BRANCH   5  14
HETATM   14  C19 UNL     1      -7.966  44.718 -29.845  1.00  0.00     0.012 C 
BRANCH  14  15
HETATM   15  C20 UNL     1      -7.916  43.404 -30.616  1.00  0.00     0.027 C 
BRANCH  15  16
HETATM   16  C21 UNL     1      -6.618  43.251 -31.408  1.00  0.00     0.164 C 
BRANCH  16  17
HETATM   17  O1  UNL     1      -6.361  41.886 -31.705  1.00  0.00    -0.401 OA
HETATM   18  H32 UNL     1      -7.065  41.578 -32.304  1.00  0.00     0.209 HD
ENDBRANCH  16  17
ENDBRANCH  15  16
ENDBRANCH  14  15
ENDBRANCH   5  14
BRANCH  11  19
HETATM   19  O3  UNL     1     -10.153  48.843 -30.049  1.00  0.00    -0.389 OA
HETATM   20  H44 UNL     1     -10.856  49.379 -30.462  1.00  0.00     0.210 HD
ENDBRANCH  11  19
BRANCH  13  21
HETATM   21  O4  UNL     1      -8.884  48.851 -27.824  1.00  0.00    -0.394 OA
HETATM   22  H46 UNL     1      -9.134  49.252 -28.682  1.00  0.00     0.210 HD
ENDBRANCH  13  21
BRANCH   1  23
HETATM   23  C2  UNL     1      -7.555  47.519 -25.654  1.00  0.00    -0.061 C 
HETATM   24  C1  UNL     1      -8.184  47.860 -24.514  1.00  0.00     0.019 C 
BRANCH  23  25
HETATM   25  C3  UNL     1      -6.140  47.890 -25.746  1.00  0.00     0.007 C 
HETATM   26  C4  UNL     1      -5.380  48.522 -24.839  1.00  0.00     0.001 C 
BRANCH  26  27
HETATM   27  C5  UNL     1      -3.992  48.852 -25.092  1.00  0.00     0.002 C 
HETATM   28  C6  UNL     1      -3.364  48.906 -26.285  1.00  0.00    -0.084 C 
HETATM   29  C7  UNL     1      -3.992  48.665 -27.629  1.00  0.00     0.043 C 
BRANCH  28  30
HETATM   30  C8  UNL     1      -1.883  49.241 -26.328  1.00  0.00     0.037 C 
BRANCH  30  31
HETATM   31  C9  UNL     1      -1.608  50.670 -25.842  1.00  0.00     0.031 C 
BRANCH  31  32
HETATM   32  C10 UNL     1      -0.130  50.935 -25.716  1.00  0.00    -0.024 C 
HETATM   33  C11 UNL     1       0.716  51.374 -26.667  1.00  0.00    -0.091 C 
HETATM   34  C12 UNL     1       2.180  51.569 -26.359  1.00  0.00     0.042 C 
HETATM   35  C13 UNL     1       0.333  51.712 -28.083  1.00  0.00     0.042 C 
ENDBRANCH  31  32
ENDBRANCH  30  31
ENDBRANCH  28  30
ENDBRANCH  26  27
ENDBRANCH  23  25
ENDBRANCH   1  23
BRANCH   7  36
HETATM   36  C25 UNL     1      -6.851  47.334 -31.765  1.00  0.00     0.265 C 
HETATM   37  O2  UNL     1      -6.496  48.447 -31.395  1.00  0.00    -0.302 OA
ENDBRANCH   7  36
TORSDOF 13
ENDMDL
MODEL 7
REMARK minimizedAffinity -7.97298717
REMARK  13 active torsions:
REMARK  status: ('A' for Active; 'I' for Inactive)
REMARK    1  A    between atoms: C2_2  and  C3_3 
REMARK    2  A    between atoms: C2_2  and  C14_14 
REMARK    3  A    between atoms: C4_4  and  C5_5 
REMARK    4  A    between atoms: C6_6  and  C8_8 
REMARK    5  A    between atoms: C8_8  and  C9_9 
REMARK    6  A    between atoms: C9_9  and  C10_10 
REMARK    7  A    between atoms: C18_18  and  C19_19 
REMARK    8  A    between atoms: C19_19  and  C20_20 
REMARK    9  A    between atoms: C20_20  and  C21_21 
REMARK   10  A    between atoms: C21_21  and  O1_22 
REMARK   11  A    between atoms: C23_24  and  C25_26 
REMARK   12  A    between atoms: C28_30  and  O3_32 
REMARK   13  A    between atoms: C30_33  and  O4_34 
ROOT
HETATM    1  C14 UNL     1      -5.355  48.810 -23.986  1.00  0.00     0.047 C 
HETATM    2  C15 UNL     1      -4.648  48.552 -25.326  1.00  0.00     0.013 C 
HETATM    3  C16 UNL     1      -3.184  48.826 -25.033  1.00  0.00     0.017 C 
HETATM    4  C17 UNL     1      -3.153  50.020 -24.018  1.00  0.00     0.024 C 
HETATM    5  C18 UNL     1      -2.112  49.634 -22.864  1.00  0.00     0.029 C 
HETATM    6  C22 UNL     1      -1.424  50.870 -22.259  1.00  0.00    -0.066 C 
HETATM    7  C23 UNL     1      -1.581  51.481 -21.062  1.00  0.00    -0.021 C 
HETATM    8  C24 UNL     1      -0.684  52.556 -20.504  1.00  0.00     0.052 C 
HETATM    9  C26 UNL     1      -0.484  51.483 -23.300  1.00  0.00     0.038 C 
HETATM   10  C27 UNL     1      -1.087  51.436 -24.720  1.00  0.00     0.042 C 
HETATM   11  C28 UNL     1      -2.634  51.366 -24.726  1.00  0.00     0.065 C 
HETATM   12  C29 UNL     1      -3.126  51.583 -26.169  1.00  0.00     0.047 C 
HETATM   13  C30 UNL     1      -4.649  50.116 -23.526  1.00  0.00     0.138 C 
ENDROOT
BRANCH   5  14
HETATM   14  C19 UNL     1      -2.290  48.344 -21.999  1.00  0.00     0.012 C 
BRANCH  14  15
HETATM   15  C20 UNL     1      -1.275  47.910 -20.948  1.00  0.00     0.027 C 
BRANCH  15  16
HETATM   16  C21 UNL     1      -1.925  47.675 -19.584  1.00  0.00     0.164 C 
BRANCH  16  17
HETATM   17  O1  UNL     1      -1.158  48.267 -18.546  1.00  0.00    -0.401 OA
HETATM   18  H32 UNL     1      -1.180  49.233 -18.678  1.00  0.00     0.209 HD
ENDBRANCH  16  17
ENDBRANCH  15  16
ENDBRANCH  14  15
ENDBRANCH   5  14
BRANCH  11  19
HETATM   19  O3  UNL     1      -3.118  52.500 -23.969  1.00  0.00    -0.389 OA
HETATM   20  H44 UNL     1      -2.743  53.306 -24.371  1.00  0.00     0.210 HD
ENDBRANCH  11  19
BRANCH  13  21
HETATM   21  O4  UNL     1      -5.341  51.233 -24.086  1.00  0.00    -0.394 OA
HETATM   22  H46 UNL     1      -4.800  52.019 -23.862  1.00  0.00     0.210 HD
ENDBRANCH  13  21
BRANCH   1  23
HETATM   23  C2  UNL     1      -6.890  48.815 -24.048  1.00  0.00    -0.061 C 
HETATM   24  C1  UNL     1      -7.653  49.474 -23.157  1.00  0.00     0.019 C 
BRANCH  23  25
HETATM   25  C3  UNL     1      -7.606  48.119 -25.121  1.00  0.00     0.007 C 
HETATM   26  C4  UNL     1      -7.576  46.816 -25.439  1.00  0.00     0.001 C 
BRANCH  26  27
HETATM   27  C5  UNL     1      -8.321  46.279 -26.560  1.00  0.00     0.002 C 
HETATM   28  C6  UNL     1      -7.980  46.312 -27.865  1.00  0.00    -0.084 C 
HETATM   29  C7  UNL     1      -6.716  46.891 -28.436  1.00  0.00     0.043 C 
BRANCH  28  30
HETATM   30  C8  UNL     1      -8.927  45.718 -28.894  1.00  0.00     0.037 C 
BRANCH  30  31
HETATM   31  C9  UNL     1      -9.693  46.805 -29.659  1.00  0.00     0.031 C 
BRANCH  31  32
HETATM   32  C10 UNL     1      -9.248  46.884 -31.096  1.00  0.00    -0.024 C 
HETATM   33  C11 UNL     1      -8.742  47.948 -31.749  1.00  0.00    -0.091 C 
HETATM   34  C12 UNL     1      -8.362  47.844 -33.204  1.00  0.00     0.042 C 
HETATM   35  C13 UNL     1      -8.499  49.304 -31.142  1.00  0.00     0.042 C 
ENDBRANCH  31  32
ENDBRANCH  30  31
ENDBRANCH  28  30
ENDBRANCH  26  27
ENDBRANCH  23  25
ENDBRANCH   1  23
BRANCH   7  36
HETATM   36  C25 UNL     1      -2.748  51.217 -20.181  1.00  0.00     0.265 C 
HETATM   37  O2  UNL     1      -2.896  51.744 -19.085  1.00  0.00    -0.302 OA
ENDBRANCH   7  36
TORSDOF 13
ENDMDL
MODEL 8
REMARK minimizedAffinity -7.82224798
REMARK  13 active torsions:
REMARK  status: ('A' for Active; 'I' for Inactive)
REMARK    1  A    between atoms: C2_2  and  C3_3 
REMARK    2  A    between atoms: C2_2  and  C14_14 
REMARK    3  A    between atoms: C4_4  and  C5_5 
REMARK    4  A    between atoms: C6_6  and  C8_8 
REMARK    5  A    between atoms: C8_8  and  C9_9 
REMARK    6  A    between atoms: C9_9  and  C10_10 
REMARK    7  A    between atoms: C18_18  and  C19_19 
REMARK    8  A    between atoms: C19_19  and  C20_20 
REMARK    9  A    between atoms: C20_20  and  C21_21 
REMARK   10  A    between atoms: C21_21  and  O1_22 
REMARK   11  A    between atoms: C23_24  and  C25_26 
REMARK   12  A    between atoms: C28_30  and  O3_32 
REMARK   13  A    between atoms: C30_33  and  O4_34 
ROOT
HETATM    1  C14 UNL     1      -8.314  47.098 -29.639  1.00  0.00     0.047 C 
HETATM    2  C15 UNL     1      -7.842  48.451 -30.195  1.00  0.00     0.013 C 
HETATM    3  C16 UNL     1      -8.402  48.490 -31.605  1.00  0.00     0.017 C 
HETATM    4  C17 UNL     1      -8.327  47.023 -32.151  1.00  0.00     0.024 C 
HETATM    5  C18 UNL     1      -9.735  46.703 -32.846  1.00  0.00     0.029 C 
HETATM    6  C22 UNL     1      -9.599  45.703 -34.008  1.00  0.00    -0.066 C 
HETATM    7  C23 UNL     1      -9.951  44.401 -34.108  1.00  0.00    -0.021 C 
HETATM    8  C24 UNL     1      -9.966  43.594 -35.381  1.00  0.00     0.052 C 
HETATM    9  C26 UNL     1      -8.854  46.373 -35.164  1.00  0.00     0.038 C 
HETATM   10  C27 UNL     1      -7.709  47.279 -34.665  1.00  0.00     0.042 C 
HETATM   11  C28 UNL     1      -7.179  46.879 -33.265  1.00  0.00     0.065 C 
HETATM   12  C29 UNL     1      -5.889  47.675 -32.988  1.00  0.00     0.047 C 
HETATM   13  C30 UNL     1      -8.044  46.169 -30.855  1.00  0.00     0.138 C 
ENDROOT
BRANCH   5  14
HETATM   14  C19 UNL     1     -11.078  46.795 -32.053  1.00  0.00     0.012 C 
BRANCH  14  15
HETATM   15  C20 UNL     1     -11.348  45.983 -30.792  1.00  0.00     0.027 C 
BRANCH  15  16
HETATM   16  C21 UNL     1     -12.060  46.807 -29.718  1.00  0.00     0.164 C 
BRANCH  16  17
HETATM   17  O1  UNL     1     -13.393  46.356 -29.532  1.00  0.00    -0.401 OA
HETATM   18  H32 UNL     1     -13.350  45.450 -29.174  1.00  0.00     0.209 HD
ENDBRANCH  16  17
ENDBRANCH  15  16
ENDBRANCH  14  15
ENDBRANCH   5  14
BRANCH  11  19
HETATM   19  O3  UNL     1      -6.779  45.491 -33.338  1.00  0.00    -0.389 OA
HETATM   20  H44 UNL     1      -6.128  45.408 -34.061  1.00  0.00     0.210 HD
ENDBRANCH  11  19
BRANCH  13  21
HETATM   21  O4  UNL     1      -6.694  45.706 -30.787  1.00  0.00    -0.394 OA
HETATM   22  H46 UNL     1      -6.539  45.219 -31.623  1.00  0.00     0.210 HD
ENDBRANCH  13  21
BRANCH   1  23
HETATM   23  C2  UNL     1      -7.703  46.699 -28.288  1.00  0.00    -0.061 C 
HETATM   24  C1  UNL     1      -8.373  45.976 -27.371  1.00  0.00     0.019 C 
BRANCH  23  25
HETATM   25  C3  UNL     1      -6.326  47.062 -27.943  1.00  0.00     0.007 C 
HETATM   26  C4  UNL     1      -5.651  48.179 -28.258  1.00  0.00     0.001 C 
BRANCH  26  27
HETATM   27  C5  UNL     1      -4.270  48.379 -27.869  1.00  0.00     0.002 C 
HETATM   28  C6  UNL     1      -3.783  48.556 -26.623  1.00  0.00    -0.084 C 
HETATM   29  C7  UNL     1      -4.582  48.546 -25.350  1.00  0.00     0.043 C 
BRANCH  28  30
HETATM   30  C8  UNL     1      -2.293  48.787 -26.436  1.00  0.00     0.037 C 
BRANCH  30  31
HETATM   31  C9  UNL     1      -1.907  50.251 -26.683  1.00  0.00     0.031 C 
BRANCH  31  32
HETATM   32  C10 UNL     1      -0.491  50.528 -26.252  1.00  0.00    -0.024 C 
HETATM   33  C11 UNL     1       0.466  51.193 -26.928  1.00  0.00    -0.091 C 
HETATM   34  C12 UNL     1       1.844  51.362 -26.338  1.00  0.00     0.042 C 
HETATM   35  C13 UNL     1       0.293  51.824 -28.283  1.00  0.00     0.042 C 
ENDBRANCH  31  32
ENDBRANCH  30  31
ENDBRANCH  28  30
ENDBRANCH  26  27
ENDBRANCH  23  25
ENDBRANCH   1  23
BRANCH   7  36
HETATM   36  C25 UNL     1     -10.281  43.572 -32.919  1.00  0.00     0.265 C 
HETATM   37  O2  UNL     1      -9.434  43.112 -32.164  1.00  0.00    -0.302 OA
ENDBRANCH   7  36
TORSDOF 13
ENDMDL
MODEL 9
REMARK minimizedAffinity -7.7927475
REMARK  13 active torsions:
REMARK  status: ('A' for Active; 'I' for Inactive)
REMARK    1  A    between atoms: C2_2  and  C3_3 
REMARK    2  A    between atoms: C2_2  and  C14_14 
REMARK    3  A    between atoms: C4_4  and  C5_5 
REMARK    4  A    between atoms: C6_6  and  C8_8 
REMARK    5  A    between atoms: C8_8  and  C9_9 
REMARK    6  A    between atoms: C9_9  and  C10_10 
REMARK    7  A    between atoms: C18_18  and  C19_19 
REMARK    8  A    between atoms: C19_19  and  C20_20 
REMARK    9  A    between atoms: C20_20  and  C21_21 
REMARK   10  A    between atoms: C21_21  and  O1_22 
REMARK   11  A    between atoms: C23_24  and  C25_26 
REMARK   12  A    between atoms: C28_30  and  O3_32 
REMARK   13  A    between atoms: C30_33  and  O4_34 
ROOT
HETATM    1  C14 UNL     1      -1.384  49.699 -21.246  1.00  0.00     0.047 C 
HETATM    2  C15 UNL     1      -1.026  48.249 -20.880  1.00  0.00     0.013 C 
HETATM    3  C16 UNL     1      -2.015  47.411 -21.670  1.00  0.00     0.017 C 
HETATM    4  C17 UNL     1      -3.362  48.211 -21.681  1.00  0.00     0.024 C 
HETATM    5  C18 UNL     1      -3.917  48.186 -23.183  1.00  0.00     0.029 C 
HETATM    6  C22 UNL     1      -5.454  48.235 -23.240  1.00  0.00    -0.066 C 
HETATM    7  C23 UNL     1      -6.300  49.228 -23.598  1.00  0.00    -0.021 C 
HETATM    8  C24 UNL     1      -7.783  49.075 -23.823  1.00  0.00     0.052 C 
HETATM    9  C26 UNL     1      -6.020  46.919 -22.702  1.00  0.00     0.038 C 
HETATM   10  C27 UNL     1      -5.216  46.396 -21.494  1.00  0.00     0.042 C 
HETATM   11  C28 UNL     1      -4.457  47.512 -20.735  1.00  0.00     0.065 C 
HETATM   12  C29 UNL     1      -3.911  46.922 -19.420  1.00  0.00     0.047 C 
HETATM   13  C30 UNL     1      -2.935  49.645 -21.180  1.00  0.00     0.138 C 
ENDROOT
BRANCH   5  14
HETATM   14  C19 UNL     1      -3.077  48.748 -24.375  1.00  0.00     0.012 C 
BRANCH  14  15
HETATM   15  C20 UNL     1      -3.439  48.489 -25.833  1.00  0.00     0.027 C 
BRANCH  15  16
HETATM   16  C21 UNL     1      -2.916  49.587 -26.760  1.00  0.00     0.164 C 
BRANCH  16  17
HETATM   17  O1  UNL     1      -3.435  49.433 -28.072  1.00  0.00    -0.401 OA
HETATM   18  H32 UNL     1      -4.398  49.574 -28.027  1.00  0.00     0.209 HD
ENDBRANCH  16  17
ENDBRANCH  15  16
ENDBRANCH  14  15
ENDBRANCH   5  14
BRANCH  11  19
HETATM   19  O3  UNL     1      -5.432  48.507 -20.346  1.00  0.00    -0.389 OA
HETATM   20  H44 UNL     1      -6.124  48.056 -19.826  1.00  0.00     0.210 HD
ENDBRANCH  11  19
BRANCH  13  21
HETATM   21  O4  UNL     1      -3.345  49.902 -19.835  1.00  0.00    -0.394 OA
HETATM   22  H46 UNL     1      -4.313  49.750 -19.821  1.00  0.00     0.210 HD
ENDBRANCH  13  21
BRANCH   1  23
HETATM   23  C2  UNL     1      -0.672  50.776 -20.415  1.00  0.00    -0.061 C 
HETATM   24  C1  UNL     1      -0.625  52.069 -20.786  1.00  0.00     0.019 C 
BRANCH  23  25
HETATM   25  C3  UNL     1      -0.030  50.447 -19.139  1.00  0.00     0.007 C 
HETATM   26  C4  UNL     1      -0.520  49.731 -18.116  1.00  0.00     0.001 C 
BRANCH  26  27
HETATM   27  C5  UNL     1       0.230  49.519 -16.894  1.00  0.00     0.002 C 
HETATM   28  C6  UNL     1      -0.051  49.996 -15.664  1.00  0.00    -0.084 C 
HETATM   29  C7  UNL     1      -1.242  50.830 -15.287  1.00  0.00     0.043 C 
BRANCH  28  30
HETATM   30  C8  UNL     1       0.893  49.682 -14.515  1.00  0.00     0.037 C 
BRANCH  30  31
HETATM   31  C9  UNL     1       1.499  50.956 -13.911  1.00  0.00     0.031 C 
BRANCH  31  32
HETATM   32  C10 UNL     1       2.810  51.306 -14.565  1.00  0.00    -0.024 C 
HETATM   33  C11 UNL     1       3.016  52.082 -15.645  1.00  0.00    -0.091 C 
HETATM   34  C12 UNL     1       4.411  52.311 -16.171  1.00  0.00     0.042 C 
HETATM   35  C13 UNL     1       1.939  52.788 -16.426  1.00  0.00     0.042 C 
ENDBRANCH  31  32
ENDBRANCH  30  31
ENDBRANCH  28  30
ENDBRANCH  26  27
ENDBRANCH  23  25
ENDBRANCH   1  23
BRANCH   7  36
HETATM   36  C25 UNL     1      -5.861  50.642 -23.720  1.00  0.00     0.265 C 
HETATM   37  O2  UNL     1      -5.464  51.308 -22.771  1.00  0.00    -0.302 OA
ENDBRANCH   7  36
TORSDOF 13
ENDMDL
