MODEL 1
REMARK minimizedAffinity -9.9539175
REMARK  5 active torsions:
REMARK  status: ('A' for Active; 'I' for Inactive)
REMARK    1  A    between atoms: N1_2  and  C2_3 
REMARK    2  A    between atoms: C4_5  and  N3_29 
REMARK    3  A    between atoms: C5_7  and  N2_12 
REMARK    4  A    between atoms: C7_9  and  O2_10 
REMARK    5  A    between atoms: C28_35  and  O4_36 
ROOT
HETATM    1  C2  UNL     1       8.766 -10.713  27.612  1.00  0.00     0.257 C 
HETATM    2  C3  UNL     1       8.020  -9.840  28.699  1.00  0.00     0.092 C 
HETATM    3  C4  UNL     1       7.151  -8.924  27.891  1.00  0.00     0.234 C 
HETATM    4  O1  UNL     1       6.419  -9.800  27.030  1.00  0.00    -0.333 OA
HETATM    5  C5  UNL     1       7.088  -9.879  25.760  1.00  0.00     0.168 C 
HETATM    6  C6  UNL     1       6.376 -11.056  25.069  1.00  0.00     0.074 C 
HETATM    7  C7  UNL     1       8.623 -10.187  26.084  1.00  0.00     0.209 C 
ENDROOT
BRANCH   1   8
HETATM    8  N1  UNL     1      10.140 -11.059  28.031  1.00  0.00     0.086 N 
HETATM    9  C1  UNL     1      11.187 -10.196  27.505  1.00  0.00     0.307 C 
HETATM   10  H4  UNL     1      10.321 -12.024  27.744  1.00  0.00     0.316 HD
ENDBRANCH   1   8
BRANCH   7  11
HETATM   11  O2  UNL     1       9.143 -11.188  25.188  1.00  0.00    -0.384 OA
HETATM   12  C8  UNL     1       8.955 -12.522  25.643  1.00  0.00     0.202 C 
ENDBRANCH   7  11
BRANCH   3  13
HETATM   13  N3  UNL     1       6.239  -7.881  28.195  1.00  0.00    -0.316 N 
HETATM   14  C24 UNL     1       4.892  -7.715  28.092  1.00  0.00     0.048 A 
HETATM   15  C19 UNL     1       4.584  -6.521  28.791  1.00  0.00     0.004 A 
HETATM   16  C23 UNL     1       3.909  -8.495  27.469  1.00  0.00     0.030 A 
HETATM   17  C18 UNL     1       5.804  -5.989  29.330  1.00  0.00     0.022 A 
HETATM   18  C20 UNL     1       3.232  -6.122  28.848  1.00  0.00     0.014 A 
HETATM   19  C17 UNL     1       6.292  -4.947  30.130  1.00  0.00     0.057 A 
HETATM   20  C25 UNL     1       6.785  -6.843  28.898  1.00  0.00     0.077 A 
HETATM   21  C16 UNL     1       7.669  -4.782  30.525  1.00  0.00     0.020 A 
HETATM   22  C27 UNL     1       5.528  -3.866  30.763  1.00  0.00     0.255 A 
HETATM   23  C15 UNL     1       8.693  -5.659  30.106  1.00  0.00     0.017 A 
HETATM   24  C28 UNL     1       7.763  -3.559  31.395  1.00  0.00     0.257 A 
HETATM   25  C14 UNL     1      10.089  -5.844  30.327  1.00  0.00     0.004 A 
HETATM   26  C26 UNL     1       8.312  -6.676  29.260  1.00  0.00     0.077 A 
HETATM   27  C9  UNL     1      10.511  -6.958  29.571  1.00  0.00     0.049 A 
HETATM   28  C13 UNL     1      11.037  -5.166  31.125  1.00  0.00     0.014 A 
HETATM   29  N2  UNL     1       9.413  -7.418  28.851  1.00  0.00    -0.308 N 
HETATM   30  C10 UNL     1      11.846  -7.396  29.611  1.00  0.00     0.030 A 
HETATM   31  C11 UNL     1      12.759  -6.705  30.413  1.00  0.00     0.002 A 
HETATM   32  C12 UNL     1      12.363  -5.604  31.159  1.00  0.00     0.001 A 
HETATM   33  N4  UNL     1       6.411  -3.134  31.522  1.00  0.00    -0.326 N 
HETATM   34  H24 UNL     1       6.127  -2.287  31.993  1.00  0.00     0.165 HD
HETATM   35  O3  UNL     1       4.339  -3.642  30.658  1.00  0.00    -0.268 OA
HETATM   36  C21 UNL     1       2.247  -6.893  28.222  1.00  0.00     0.001 A 
HETATM   37  C22 UNL     1       2.583  -8.062  27.544  1.00  0.00     0.002 A 
BRANCH  24  38
HETATM   38  O4  UNL     1       8.212  -3.849  32.693  1.00  0.00    -0.372 OA
HETATM   39  H26 UNL     1       7.639  -4.567  33.010  1.00  0.00     0.212 HD
ENDBRANCH  24  38
ENDBRANCH   3  13
TORSDOF 5
ENDMDL
MODEL 2
REMARK minimizedAffinity -9.89465141
REMARK  5 active torsions:
REMARK  status: ('A' for Active; 'I' for Inactive)
REMARK    1  A    between atoms: N1_2  and  C2_3 
REMARK    2  A    between atoms: C4_5  and  N3_29 
REMARK    3  A    between atoms: C5_7  and  N2_12 
REMARK    4  A    between atoms: C7_9  and  O2_10 
REMARK    5  A    between atoms: C28_35  and  O4_36 
ROOT
HETATM    1  C2  UNL     1      11.196  -4.371  31.790  1.00  0.00     0.257 C 
HETATM    2  C3  UNL     1      10.266  -5.650  31.788  1.00  0.00     0.092 C 
HETATM    3  C4  UNL     1       9.236  -5.345  30.743  1.00  0.00     0.234 C 
HETATM    4  O1  UNL     1       9.999  -4.995  29.586  1.00  0.00    -0.333 OA
HETATM    5  C5  UNL     1      10.127  -3.564  29.521  1.00  0.00     0.168 C 
HETATM    6  C6  UNL     1      11.196  -3.364  28.432  1.00  0.00     0.074 C 
HETATM    7  C7  UNL     1      10.621  -3.097  30.968  1.00  0.00     0.209 C 
ENDROOT
BRANCH   1   8
HETATM    8  N1  UNL     1      11.711  -4.067  33.142  1.00  0.00     0.086 N 
HETATM    9  C1  UNL     1      10.700  -3.947  34.180  1.00  0.00     0.307 C 
HETATM   10  H4  UNL     1      12.242  -3.195  33.085  1.00  0.00     0.316 HD
ENDBRANCH   1   8
BRANCH   7  11
HETATM   11  O2  UNL     1      11.656  -2.100  30.856  1.00  0.00    -0.384 OA
HETATM   12  C8  UNL     1      11.595  -1.092  31.857  1.00  0.00     0.202 C 
ENDBRANCH   7  11
BRANCH   3  13
HETATM   13  N3  UNL     1       8.100  -6.021  30.228  1.00  0.00    -0.316 N 
HETATM   14  C24 UNL     1       6.791  -5.701  30.035  1.00  0.00     0.048 A 
HETATM   15  C19 UNL     1       6.236  -6.750  29.260  1.00  0.00     0.004 A 
HETATM   16  C23 UNL     1       6.038  -4.595  30.450  1.00  0.00     0.030 A 
HETATM   17  C18 UNL     1       7.275  -7.703  28.984  1.00  0.00     0.022 A 
HETATM   18  C20 UNL     1       4.874  -6.656  28.905  1.00  0.00     0.014 A 
HETATM   19  C17 UNL     1       7.520  -8.892  28.284  1.00  0.00     0.057 A 
HETATM   20  C25 UNL     1       8.380  -7.220  29.635  1.00  0.00     0.077 A 
HETATM   21  C16 UNL     1       8.801  -9.547  28.189  1.00  0.00     0.020 A 
HETATM   22  C27 UNL     1       6.575  -9.672  27.477  1.00  0.00     0.255 A 
HETATM   23  C15 UNL     1       9.957  -9.059  28.839  1.00  0.00     0.017 A 
HETATM   24  C28 UNL     1       8.639 -10.772  27.333  1.00  0.00     0.257 A 
HETATM   25  C14 UNL     1      11.342  -9.384  28.927  1.00  0.00     0.004 A 
HETATM   26  C26 UNL     1       9.790  -7.928  29.606  1.00  0.00     0.077 A 
HETATM   27  C9  UNL     1      11.961  -8.447  29.780  1.00  0.00     0.049 A 
HETATM   28  C13 UNL     1      12.135 -10.393  28.336  1.00  0.00     0.014 A 
HETATM   29  N2  UNL     1      10.970  -7.594  30.258  1.00  0.00    -0.308 N 
HETATM   30  C10 UNL     1      13.342  -8.504  30.038  1.00  0.00     0.030 A 
HETATM   31  C11 UNL     1      14.100  -9.512  29.435  1.00  0.00     0.002 A 
HETATM   32  C12 UNL     1      13.506 -10.446  28.596  1.00  0.00     0.001 A 
HETATM   33  N4  UNL     1       7.281 -10.706  26.909  1.00  0.00    -0.326 N 
HETATM   34  H24 UNL     1       6.823 -11.426  26.370  1.00  0.00     0.165 HD
HETATM   35  O3  UNL     1       5.390  -9.462  27.319  1.00  0.00    -0.268 OA
HETATM   36  C21 UNL     1       4.115  -5.557  29.322  1.00  0.00     0.001 A 
HETATM   37  C22 UNL     1       4.691  -4.543  30.082  1.00  0.00     0.002 A 
BRANCH  24  38
HETATM   38  O4  UNL     1       9.421 -10.728  26.168  1.00  0.00    -0.372 OA
HETATM   39  H26 UNL     1       9.217  -9.874  25.753  1.00  0.00     0.212 HD
ENDBRANCH  24  38
ENDBRANCH   3  13
TORSDOF 5
ENDMDL
MODEL 3
REMARK minimizedAffinity -9.78755569
REMARK  5 active torsions:
REMARK  status: ('A' for Active; 'I' for Inactive)
REMARK    1  A    between atoms: N1_2  and  C2_3 
REMARK    2  A    between atoms: C4_5  and  N3_29 
REMARK    3  A    between atoms: C5_7  and  N2_12 
REMARK    4  A    between atoms: C7_9  and  O2_10 
REMARK    5  A    between atoms: C28_35  and  O4_36 
ROOT
HETATM    1  C2  UNL     1      10.752  -3.287  32.046  1.00  0.00     0.257 C 
HETATM    2  C3  UNL     1       9.726  -3.449  30.854  1.00  0.00     0.092 C 
HETATM    3  C4  UNL     1       8.986  -4.710  31.185  1.00  0.00     0.234 C 
HETATM    4  O1  UNL     1       8.526  -4.509  32.523  1.00  0.00    -0.333 OA
HETATM    5  C5  UNL     1       9.457  -5.110  33.438  1.00  0.00     0.168 C 
HETATM    6  C6  UNL     1       9.000  -4.562  34.802  1.00  0.00     0.074 C 
HETATM    7  C7  UNL     1      10.904  -4.582  33.010  1.00  0.00     0.209 C 
ENDROOT
BRANCH   1   8
HETATM    8  N1  UNL     1      12.025  -2.683  31.598  1.00  0.00     0.086 N 
HETATM    9  C1  UNL     1      12.215  -1.289  31.966  1.00  0.00     0.307 C 
HETATM   10  H4  UNL     1      12.074  -2.774  30.581  1.00  0.00     0.316 HD
ENDBRANCH   1   8
BRANCH   7  11
HETATM   11  O2  UNL     1      11.679  -4.220  34.170  1.00  0.00    -0.384 OA
HETATM   12  C8  UNL     1      11.473  -2.882  34.606  1.00  0.00     0.202 C 
ENDBRANCH   7  11
BRANCH   3  13
HETATM   13  N3  UNL     1       7.955  -5.460  30.564  1.00  0.00    -0.316 N 
HETATM   14  C24 UNL     1       6.623  -5.278  30.349  1.00  0.00     0.048 A 
HETATM   15  C19 UNL     1       6.220  -6.305  29.459  1.00  0.00     0.004 A 
HETATM   16  C23 UNL     1       5.731  -4.313  30.834  1.00  0.00     0.030 A 
HETATM   17  C18 UNL     1       7.374  -7.099  29.137  1.00  0.00     0.022 A 
HETATM   18  C20 UNL     1       4.868  -6.337  29.059  1.00  0.00     0.014 A 
HETATM   19  C17 UNL     1       7.780  -8.178  28.340  1.00  0.00     0.057 A 
HETATM   20  C25 UNL     1       8.394  -6.556  29.874  1.00  0.00     0.077 A 
HETATM   21  C16 UNL     1       9.132  -8.666  28.237  1.00  0.00     0.020 A 
HETATM   22  C27 UNL     1       6.959  -8.981  27.427  1.00  0.00     0.255 A 
HETATM   23  C15 UNL     1      10.203  -8.112  28.975  1.00  0.00     0.017 A 
HETATM   24  C28 UNL     1       9.143  -9.813  27.265  1.00  0.00     0.257 A 
HETATM   25  C14 UNL     1      11.613  -8.281  29.088  1.00  0.00     0.004 A 
HETATM   26  C26 UNL     1       9.879  -7.088  29.836  1.00  0.00     0.077 A 
HETATM   27  C9  UNL     1      12.090  -7.365  30.049  1.00  0.00     0.049 A 
HETATM   28  C13 UNL     1      12.538  -9.128  28.438  1.00  0.00     0.014 A 
HETATM   29  N2  UNL     1      10.991  -6.684  30.563  1.00  0.00    -0.308 N 
HETATM   30  C10 UNL     1      13.461  -7.285  30.355  1.00  0.00     0.030 A 
HETATM   31  C11 UNL     1      14.350  -8.135  29.692  1.00  0.00     0.002 A 
HETATM   32  C12 UNL     1      13.898  -9.046  28.748  1.00  0.00     0.001 A 
HETATM   33  N4  UNL     1       7.800  -9.866  26.795  1.00  0.00    -0.326 N 
HETATM   34  H24 UNL     1       7.447 -10.578  26.174  1.00  0.00     0.165 HD
HETATM   35  O3  UNL     1       5.762  -8.896  27.243  1.00  0.00    -0.268 OA
HETATM   36  C21 UNL     1       3.971  -5.379  29.546  1.00  0.00     0.001 A 
HETATM   37  C22 UNL     1       4.400  -4.383  30.419  1.00  0.00     0.002 A 
BRANCH  24  38
HETATM   38  O4  UNL     1       9.947  -9.567  26.142  1.00  0.00    -0.372 OA
HETATM   39  H26 UNL     1       9.655  -8.706  25.799  1.00  0.00     0.212 HD
ENDBRANCH  24  38
ENDBRANCH   3  13
TORSDOF 5
ENDMDL
MODEL 4
REMARK minimizedAffinity -9.77667809
REMARK  5 active torsions:
REMARK  status: ('A' for Active; 'I' for Inactive)
REMARK    1  A    between atoms: N1_2  and  C2_3 
REMARK    2  A    between atoms: C4_5  and  N3_29 
REMARK    3  A    between atoms: C5_7  and  N2_12 
REMARK    4  A    between atoms: C7_9  and  O2_10 
REMARK    5  A    between atoms: C28_35  and  O4_36 
ROOT
HETATM    1  C2  UNL     1      10.082 -10.306  27.392  1.00  0.00     0.257 C 
HETATM    2  C3  UNL     1       9.406  -9.747  28.708  1.00  0.00     0.092 C 
HETATM    3  C4  UNL     1       9.924  -8.345  28.811  1.00  0.00     0.234 C 
HETATM    4  O1  UNL     1       9.633  -7.765  27.537  1.00  0.00    -0.333 OA
HETATM    5  C5  UNL     1      10.794  -7.867  26.696  1.00  0.00     0.168 C 
HETATM    6  C6  UNL     1      10.246  -7.491  25.307  1.00  0.00     0.074 C 
HETATM    7  C7  UNL     1      11.274  -9.389  26.783  1.00  0.00     0.209 C 
ENDROOT
BRANCH   1   8
HETATM    8  N1  UNL     1      10.391 -11.747  27.501  1.00  0.00     0.086 N 
HETATM    9  C1  UNL     1      11.385 -12.096  28.505  1.00  0.00     0.307 C 
HETATM   10  H4  UNL     1      10.710 -12.069  26.584  1.00  0.00     0.316 HD
ENDBRANCH   1   8
BRANCH   7  11
HETATM   11  O2  UNL     1      11.634  -9.886  25.479  1.00  0.00    -0.384 OA
HETATM   12  C8  UNL     1      10.804  -9.404  24.429  1.00  0.00     0.202 C 
ENDBRANCH   7  11
BRANCH   3  13
HETATM   13  N3  UNL     1       9.756  -7.279  29.732  1.00  0.00    -0.316 N 
HETATM   14  C24 UNL     1      10.594  -6.472  30.439  1.00  0.00     0.048 A 
HETATM   15  C19 UNL     1       9.785  -5.452  30.999  1.00  0.00     0.004 A 
HETATM   16  C23 UNL     1      11.980  -6.524  30.637  1.00  0.00     0.030 A 
HETATM   17  C18 UNL     1       8.428  -5.675  30.581  1.00  0.00     0.022 A 
HETATM   18  C20 UNL     1      10.418  -4.463  31.780  1.00  0.00     0.014 A 
HETATM   19  C17 UNL     1       7.146  -5.115  30.660  1.00  0.00     0.057 A 
HETATM   20  C25 UNL     1       8.470  -6.828  29.842  1.00  0.00     0.077 A 
HETATM   21  C16 UNL     1       5.973  -5.638  30.005  1.00  0.00     0.020 A 
HETATM   22  C27 UNL     1       6.741  -3.889  31.357  1.00  0.00     0.255 A 
HETATM   23  C15 UNL     1       5.996  -6.816  29.224  1.00  0.00     0.017 A 
HETATM   24  C28 UNL     1       4.815  -4.735  30.326  1.00  0.00     0.257 A 
HETATM   25  C14 UNL     1       5.098  -7.571  28.416  1.00  0.00     0.004 A 
HETATM   26  C26 UNL     1       7.206  -7.468  29.148  1.00  0.00     0.077 A 
HETATM   27  C9  UNL     1       5.797  -8.683  27.902  1.00  0.00     0.049 A 
HETATM   28  C13 UNL     1       3.743  -7.395  28.057  1.00  0.00     0.014 A 
HETATM   29  N2  UNL     1       7.085  -8.650  28.428  1.00  0.00    -0.308 N 
HETATM   30  C10 UNL     1       5.167  -9.600  27.042  1.00  0.00     0.030 A 
HETATM   31  C11 UNL     1       3.826  -9.396  26.704  1.00  0.00     0.002 A 
HETATM   32  C12 UNL     1       3.121  -8.310  27.205  1.00  0.00     0.001 A 
HETATM   33  N4  UNL     1       5.408  -3.687  31.085  1.00  0.00    -0.326 N 
HETATM   34  H24 UNL     1       4.887  -2.941  31.522  1.00  0.00     0.165 HD
HETATM   35  O3  UNL     1       7.434  -3.167  32.044  1.00  0.00    -0.268 OA
HETATM   36  C21 UNL     1      11.801  -4.514  31.986  1.00  0.00     0.001 A 
HETATM   37  C22 UNL     1      12.567  -5.529  31.422  1.00  0.00     0.002 A 
BRANCH  24  38
HETATM   38  O4  UNL     1       4.261  -4.133  29.185  1.00  0.00    -0.372 OA
HETATM   39  H26 UNL     1       5.012  -3.732  28.715  1.00  0.00     0.212 HD
ENDBRANCH  24  38
ENDBRANCH   3  13
TORSDOF 5
ENDMDL
MODEL 5
REMARK minimizedAffinity -9.68110847
REMARK  5 active torsions:
REMARK  status: ('A' for Active; 'I' for Inactive)
REMARK    1  A    between atoms: N1_2  and  C2_3 
REMARK    2  A    between atoms: C4_5  and  N3_29 
REMARK    3  A    between atoms: C5_7  and  N2_12 
REMARK    4  A    between atoms: C7_9  and  O2_10 
REMARK    5  A    between atoms: C28_35  and  O4_36 
ROOT
HETATM    1  C2  UNL     1      12.059  -7.546  27.267  1.00  0.00     0.257 C 
HETATM    2  C3  UNL     1      11.461  -6.106  27.526  1.00  0.00     0.092 C 
HETATM    3  C4  UNL     1      10.895  -6.194  28.911  1.00  0.00     0.234 C 
HETATM    4  O1  UNL     1      11.977  -6.689  29.704  1.00  0.00    -0.333 OA
HETATM    5  C5  UNL     1      11.855  -8.115  29.832  1.00  0.00     0.168 C 
HETATM    6  C6  UNL     1      13.212  -8.524  30.431  1.00  0.00     0.074 C 
HETATM    7  C7  UNL     1      11.636  -8.677  28.351  1.00  0.00     0.209 C 
ENDROOT
BRANCH   1   8
HETATM    8  N1  UNL     1      11.928  -7.951  25.852  1.00  0.00     0.086 N 
HETATM    9  C1  UNL     1      12.945  -7.422  24.957  1.00  0.00     0.307 C 
HETATM   10  H4  UNL     1      11.005  -7.656  25.527  1.00  0.00     0.316 HD
ENDBRANCH   1   8
BRANCH   7  11
HETATM   11  O2  UNL     1      12.426  -9.861  28.132  1.00  0.00    -0.384 OA
HETATM   12  C8  UNL     1      11.677 -11.069  28.172  1.00  0.00     0.202 C 
ENDBRANCH   7  11
BRANCH   3  13
HETATM   13  N3  UNL     1      10.205  -5.302  29.771  1.00  0.00    -0.316 N 
HETATM   14  C24 UNL     1      10.537  -4.183  30.471  1.00  0.00     0.048 A 
HETATM   15  C19 UNL     1       9.319  -3.635  30.947  1.00  0.00     0.004 A 
HETATM   16  C23 UNL     1      11.778  -3.586  30.728  1.00  0.00     0.030 A 
HETATM   17  C18 UNL     1       8.242  -4.467  30.486  1.00  0.00     0.022 A 
HETATM   18  C20 UNL     1       9.382  -2.447  31.703  1.00  0.00     0.014 A 
HETATM   19  C17 UNL     1       6.844  -4.558  30.486  1.00  0.00     0.057 A 
HETATM   20  C25 UNL     1       8.850  -5.491  29.806  1.00  0.00     0.077 A 
HETATM   21  C16 UNL     1       6.081  -5.578  29.810  1.00  0.00     0.020 A 
HETATM   22  C27 UNL     1       5.883  -3.638  31.104  1.00  0.00     0.255 A 
HETATM   23  C15 UNL     1       6.686  -6.632  29.090  1.00  0.00     0.017 A 
HETATM   24  C28 UNL     1       4.621  -5.300  30.039  1.00  0.00     0.257 A 
HETATM   25  C14 UNL     1       6.282  -7.736  28.284  1.00  0.00     0.004 A 
HETATM   26  C26 UNL     1       8.063  -6.658  29.095  1.00  0.00     0.077 A 
HETATM   27  C9  UNL     1       7.442  -8.415  27.854  1.00  0.00     0.049 A 
HETATM   28  C13 UNL     1       5.021  -8.212  27.862  1.00  0.00     0.014 A 
HETATM   29  N2  UNL     1       8.539  -7.780  28.430  1.00  0.00    -0.308 N 
HETATM   30  C10 UNL     1       7.353  -9.540  27.016  1.00  0.00     0.030 A 
HETATM   31  C11 UNL     1       6.090  -9.984  26.614  1.00  0.00     0.002 A 
HETATM   32  C12 UNL     1       4.938  -9.331  27.032  1.00  0.00     0.001 A 
HETATM   33  N4  UNL     1       4.624  -4.079  30.769  1.00  0.00    -0.326 N 
HETATM   34  H24 UNL     1       3.795  -3.645  31.148  1.00  0.00     0.165 HD
HETATM   35  O3  UNL     1       6.127  -2.662  31.783  1.00  0.00    -0.268 OA
HETATM   36  C21 UNL     1      10.621  -1.850  31.968  1.00  0.00     0.001 A 
HETATM   37  C22 UNL     1      11.798  -2.414  31.486  1.00  0.00     0.002 A 
BRANCH  24  38
HETATM   38  O4  UNL     1       3.922  -5.050  28.849  1.00  0.00    -0.372 OA
HETATM   39  H26 UNL     1       4.431  -4.361  28.390  1.00  0.00     0.212 HD
ENDBRANCH  24  38
ENDBRANCH   3  13
TORSDOF 5
ENDMDL
MODEL 6
REMARK minimizedAffinity -9.59161282
REMARK  5 active torsions:
REMARK  status: ('A' for Active; 'I' for Inactive)
REMARK    1  A    between atoms: N1_2  and  C2_3 
REMARK    2  A    between atoms: C4_5  and  N3_29 
REMARK    3  A    between atoms: C5_7  and  N2_12 
REMARK    4  A    between atoms: C7_9  and  O2_10 
REMARK    5  A    between atoms: C28_35  and  O4_36 
ROOT
HETATM    1  C2  UNL     1      10.211  -9.710  26.649  1.00  0.00     0.257 C 
HETATM    2  C3  UNL     1      10.234  -8.171  27.008  1.00  0.00     0.092 C 
HETATM    3  C4  UNL     1       9.947  -8.139  28.479  1.00  0.00     0.234 C 
HETATM    4  O1  UNL     1      10.906  -9.036  29.045  1.00  0.00    -0.333 OA
HETATM    5  C5  UNL     1      10.302 -10.331  29.208  1.00  0.00     0.168 C 
HETATM    6  C6  UNL     1      11.507 -11.234  29.529  1.00  0.00     0.074 C 
HETATM    7  C7  UNL     1       9.620 -10.682  27.805  1.00  0.00     0.209 C 
ENDROOT
BRANCH   1   8
HETATM    8  N1  UNL     1       9.677  -9.951  25.292  1.00  0.00     0.086 N 
HETATM    9  C1  UNL     1       9.554  -8.769  24.453  1.00  0.00     0.307 C 
HETATM   10  H4  UNL     1       8.760 -10.393  25.390  1.00  0.00     0.316 HD
ENDBRANCH   1   8
BRANCH   7  11
HETATM   11  O2  UNL     1       9.871 -12.054  27.445  1.00  0.00    -0.384 OA
HETATM   12  C8  UNL     1      11.006 -12.231  26.606  1.00  0.00     0.202 C 
ENDBRANCH   7  11
BRANCH   3  13
HETATM   13  N3  UNL     1       9.802  -7.116  29.450  1.00  0.00    -0.316 N 
HETATM   14  C24 UNL     1      10.655  -6.320  30.150  1.00  0.00     0.048 A 
HETATM   15  C19 UNL     1       9.853  -5.343  30.790  1.00  0.00     0.004 A 
HETATM   16  C23 UNL     1      12.050  -6.348  30.280  1.00  0.00     0.030 A 
HETATM   17  C18 UNL     1       8.483  -5.579  30.428  1.00  0.00     0.022 A 
HETATM   18  C20 UNL     1      10.502  -4.372  31.581  1.00  0.00     0.014 A 
HETATM   19  C17 UNL     1       7.194  -5.053  30.591  1.00  0.00     0.057 A 
HETATM   20  C25 UNL     1       8.513  -6.700  29.639  1.00  0.00     0.077 A 
HETATM   21  C16 UNL     1       6.002  -5.575  29.970  1.00  0.00     0.020 A 
HETATM   22  C27 UNL     1       6.798  -3.866  31.356  1.00  0.00     0.255 A 
HETATM   23  C15 UNL     1       6.012  -6.719  29.141  1.00  0.00     0.017 A 
HETATM   24  C28 UNL     1       4.842  -4.713  30.383  1.00  0.00     0.257 A 
HETATM   25  C14 UNL     1       5.092  -7.461  28.345  1.00  0.00     0.004 A 
HETATM   26  C26 UNL     1       7.231  -7.340  28.980  1.00  0.00     0.077 A 
HETATM   27  C9  UNL     1       5.789  -8.535  27.752  1.00  0.00     0.049 A 
HETATM   28  C13 UNL     1       3.719  -7.302  28.058  1.00  0.00     0.014 A 
HETATM   29  N2  UNL     1       7.100  -8.495  28.218  1.00  0.00    -0.308 N 
HETATM   30  C10 UNL     1       5.138  -9.431  26.885  1.00  0.00     0.030 A 
HETATM   31  C11 UNL     1       3.778  -9.244  26.620  1.00  0.00     0.002 A 
HETATM   32  C12 UNL     1       3.075  -8.196  27.198  1.00  0.00     0.001 A 
HETATM   33  N4  UNL     1       5.450  -3.684  31.157  1.00  0.00    -0.326 N 
HETATM   34  H24 UNL     1       4.934  -2.968  31.649  1.00  0.00     0.165 HD
HETATM   35  O3  UNL     1       7.508  -3.157  32.040  1.00  0.00    -0.268 OA
HETATM   36  C21 UNL     1      11.894  -4.399  31.719  1.00  0.00     0.001 A 
HETATM   37  C22 UNL     1      12.653  -5.372  31.077  1.00  0.00     0.002 A 
BRANCH  24  38
HETATM   38  O4  UNL     1       4.222  -4.078  29.296  1.00  0.00    -0.372 OA
HETATM   39  H26 UNL     1       4.940  -3.641  28.808  1.00  0.00     0.212 HD
ENDBRANCH  24  38
ENDBRANCH   3  13
TORSDOF 5
ENDMDL
MODEL 7
REMARK minimizedAffinity -9.24960041
REMARK  5 active torsions:
REMARK  status: ('A' for Active; 'I' for Inactive)
REMARK    1  A    between atoms: N1_2  and  C2_3 
REMARK    2  A    between atoms: C4_5  and  N3_29 
REMARK    3  A    between atoms: C5_7  and  N2_12 
REMARK    4  A    between atoms: C7_9  and  O2_10 
REMARK    5  A    between atoms: C28_35  and  O4_36 
ROOT
HETATM    1  C2  UNL     1      11.560  -9.535  28.677  1.00  0.00     0.257 C 
HETATM    2  C3  UNL     1      10.298  -9.080  29.514  1.00  0.00     0.092 C 
HETATM    3  C4  UNL     1      10.507  -7.609  29.710  1.00  0.00     0.234 C 
HETATM    4  O1  UNL     1      10.729  -7.104  28.390  1.00  0.00    -0.333 OA
HETATM    5  C5  UNL     1      12.144  -7.020  28.149  1.00  0.00     0.168 C 
HETATM    6  C6  UNL     1      12.219  -6.762  26.634  1.00  0.00     0.074 C 
HETATM    7  C7  UNL     1      12.751  -8.439  28.568  1.00  0.00     0.209 C 
ENDROOT
BRANCH   1   8
HETATM    8  N1  UNL     1      11.994 -10.902  29.033  1.00  0.00     0.086 N 
HETATM    9  C1  UNL     1      11.970 -11.211  30.455  1.00  0.00     0.307 C 
HETATM   10  H4  UNL     1      12.944 -11.031  28.676  1.00  0.00     0.316 HD
ENDBRANCH   1   8
BRANCH   7  11
HETATM   11  O2  UNL     1      13.719  -8.886  27.599  1.00  0.00    -0.384 OA
HETATM   12  C8  UNL     1      15.030  -8.382  27.820  1.00  0.00     0.202 C 
ENDBRANCH   7  11
BRANCH   3  13
HETATM   13  N3  UNL     1       9.796  -6.574  30.370  1.00  0.00    -0.316 N 
HETATM   14  C24 UNL     1      10.138  -5.508  31.144  1.00  0.00     0.048 A 
HETATM   15  C19 UNL     1       8.963  -4.731  31.292  1.00  0.00     0.004 A 
HETATM   16  C23 UNL     1      11.360  -5.138  31.720  1.00  0.00     0.030 A 
HETATM   17  C18 UNL     1       7.906  -5.370  30.558  1.00  0.00     0.022 A 
HETATM   18  C20 UNL     1       9.048  -3.545  32.052  1.00  0.00     0.014 A 
HETATM   19  C17 UNL     1       6.563  -5.205  30.193  1.00  0.00     0.057 A 
HETATM   20  C25 UNL     1       8.468  -6.512  30.049  1.00  0.00     0.077 A 
HETATM   21  C16 UNL     1       5.825  -6.094  29.331  1.00  0.00     0.020 A 
HETATM   22  C27 UNL     1       5.663  -4.103  30.550  1.00  0.00     0.255 A 
HETATM   23  C15 UNL     1       6.388  -7.268  28.783  1.00  0.00     0.017 A 
HETATM   24  C28 UNL     1       4.432  -5.547  29.176  1.00  0.00     0.257 A 
HETATM   25  C14 UNL     1       6.008  -8.309  27.887  1.00  0.00     0.004 A 
HETATM   26  C26 UNL     1       7.688  -7.542  29.145  1.00  0.00     0.077 A 
HETATM   27  C9  UNL     1       7.093  -9.203  27.767  1.00  0.00     0.049 A 
HETATM   28  C13 UNL     1       4.832  -8.564  27.147  1.00  0.00     0.014 A 
HETATM   29  N2  UNL     1       8.102  -8.758  28.615  1.00  0.00    -0.308 N 
HETATM   30  C10 UNL     1       7.016 -10.325  26.922  1.00  0.00     0.030 A 
HETATM   31  C11 UNL     1       5.839 -10.547  26.201  1.00  0.00     0.002 A 
HETATM   32  C12 UNL     1       4.760  -9.681  26.312  1.00  0.00     0.001 A 
HETATM   33  N4  UNL     1       4.473  -4.319  29.895  1.00  0.00    -0.326 N 
HETATM   34  H24 UNL     1       3.670  -3.728  30.049  1.00  0.00     0.165 HD
HETATM   35  O3  UNL     1       5.901  -3.162  31.280  1.00  0.00    -0.268 OA
HETATM   36  C21 UNL     1      10.265  -3.174  32.635  1.00  0.00     0.001 A 
HETATM   37  C22 UNL     1      11.401  -3.960  32.470  1.00  0.00     0.002 A 
BRANCH  24  38
HETATM   38  O4  UNL     1       4.122  -5.219  27.848  1.00  0.00    -0.372 OA
HETATM   39  H26 UNL     1       4.851  -4.652  27.545  1.00  0.00     0.212 HD
ENDBRANCH  24  38
ENDBRANCH   3  13
TORSDOF 5
ENDMDL
MODEL 8
REMARK minimizedAffinity -9.17456818
REMARK  5 active torsions:
REMARK  status: ('A' for Active; 'I' for Inactive)
REMARK    1  A    between atoms: N1_2  and  C2_3 
REMARK    2  A    between atoms: C4_5  and  N3_29 
REMARK    3  A    between atoms: C5_7  and  N2_12 
REMARK    4  A    between atoms: C7_9  and  O2_10 
REMARK    5  A    between atoms: C28_35  and  O4_36 
ROOT
HETATM    1  C2  UNL     1      10.438  -8.328  28.555  1.00  0.00     0.257 C 
HETATM    2  C3  UNL     1       8.988  -8.665  29.087  1.00  0.00     0.092 C 
HETATM    3  C4  UNL     1       8.217  -7.399  28.857  1.00  0.00     0.234 C 
HETATM    4  O1  UNL     1       8.437  -7.097  27.477  1.00  0.00    -0.333 OA
HETATM    5  C5  UNL     1       9.523  -6.162  27.366  1.00  0.00     0.168 C 
HETATM    6  C6  UNL     1       9.831  -6.170  25.858  1.00  0.00     0.074 C 
HETATM    7  C7  UNL     1      10.716  -6.760  28.247  1.00  0.00     0.209 C 
ENDROOT
BRANCH   1   8
HETATM    8  N1  UNL     1      11.486  -9.010  29.343  1.00  0.00     0.086 N 
HETATM    9  C1  UNL     1      11.514 -10.459  29.219  1.00  0.00     0.307 C 
HETATM   10  H4  UNL     1      11.353  -8.757  30.325  1.00  0.00     0.316 HD
ENDBRANCH   1   8
BRANCH   7  11
HETATM   11  O2  UNL     1      11.974  -6.630  27.557  1.00  0.00    -0.384 OA
HETATM   12  C8  UNL     1      12.308  -7.751  26.749  1.00  0.00     0.202 C 
ENDBRANCH   7  11
BRANCH   3  13
HETATM   13  N3  UNL     1       6.886  -6.977  29.105  1.00  0.00    -0.316 N 
HETATM   14  C24 UNL     1       6.310  -5.903  29.712  1.00  0.00     0.048 A 
HETATM   15  C19 UNL     1       4.927  -5.971  29.412  1.00  0.00     0.004 A 
HETATM   16  C23 UNL     1       6.861  -4.872  30.485  1.00  0.00     0.030 A 
HETATM   17  C18 UNL     1       4.703  -7.124  28.584  1.00  0.00     0.022 A 
HETATM   18  C20 UNL     1       4.092  -4.953  29.919  1.00  0.00     0.014 A 
HETATM   19  C17 UNL     1       3.695  -7.792  27.876  1.00  0.00     0.057 A 
HETATM   20  C25 UNL     1       5.932  -7.718  28.464  1.00  0.00     0.077 A 
HETATM   21  C16 UNL     1       3.895  -8.959  27.054  1.00  0.00     0.020 A 
HETATM   22  C27 UNL     1       2.276  -7.432  27.777  1.00  0.00     0.255 A 
HETATM   23  C15 UNL     1       5.156  -9.579  26.904  1.00  0.00     0.017 A 
HETATM   24  C28 UNL     1       2.570  -9.346  26.458  1.00  0.00     0.257 A 
HETATM   25  C14 UNL     1       5.727 -10.658  26.167  1.00  0.00     0.004 A 
HETATM   26  C26 UNL     1       6.193  -9.025  27.620  1.00  0.00     0.077 A 
HETATM   27  C9  UNL     1       7.097 -10.737  26.495  1.00  0.00     0.049 A 
HETATM   28  C13 UNL     1       5.199 -11.570  25.228  1.00  0.00     0.014 A 
HETATM   29  N2  UNL     1       7.357  -9.767  27.458  1.00  0.00    -0.308 N 
HETATM   30  C10 UNL     1       7.930 -11.699  25.897  1.00  0.00     0.030 A 
HETATM   31  C11 UNL     1       7.377 -12.587  24.969  1.00  0.00     0.002 A 
HETATM   32  C12 UNL     1       6.030 -12.526  24.639  1.00  0.00     0.001 A 
HETATM   33  N4  UNL     1       1.690  -8.321  26.907  1.00  0.00    -0.326 N 
HETATM   34  H24 UNL     1       0.695  -8.319  26.740  1.00  0.00     0.165 HD
HETATM   35  O3  UNL     1       1.704  -6.521  28.341  1.00  0.00    -0.268 OA
HETATM   36  C21 UNL     1       4.636  -3.925  30.696  1.00  0.00     0.001 A 
HETATM   37  C22 UNL     1       5.999  -3.887  30.973  1.00  0.00     0.002 A 
BRANCH  24  38
HETATM   38  O4  UNL     1       2.566  -9.286  25.056  1.00  0.00    -0.372 OA
HETATM   39  H26 UNL     1       2.904  -8.402  24.835  1.00  0.00     0.212 HD
ENDBRANCH  24  38
ENDBRANCH   3  13
TORSDOF 5
ENDMDL
MODEL 9
REMARK minimizedAffinity -9.11729622
REMARK  5 active torsions:
REMARK  status: ('A' for Active; 'I' for Inactive)
REMARK    1  A    between atoms: N1_2  and  C2_3 
REMARK    2  A    between atoms: C4_5  and  N3_29 
REMARK    3  A    between atoms: C5_7  and  N2_12 
REMARK    4  A    between atoms: C7_9  and  O2_10 
REMARK    5  A    between atoms: C28_35  and  O4_36 
ROOT
HETATM    1  C2  UNL     1       8.148  -8.940  25.618  1.00  0.00     0.257 C 
HETATM    2  C3  UNL     1       9.104  -7.820  26.193  1.00  0.00     0.092 C 
HETATM    3  C4  UNL     1       9.538  -8.363  27.521  1.00  0.00     0.234 C 
HETATM    4  O1  UNL     1      10.039  -9.668  27.222  1.00  0.00    -0.333 OA
HETATM    5  C5  UNL     1       8.999 -10.636  27.446  1.00  0.00     0.168 C 
HETATM    6  C6  UNL     1       9.575 -11.913  26.809  1.00  0.00     0.074 C 
HETATM    7  C7  UNL     1       7.709 -10.087  26.677  1.00  0.00     0.209 C 
ENDROOT
BRANCH   1   8
HETATM    8  N1  UNL     1       7.044  -8.367  24.819  1.00  0.00     0.086 N 
HETATM    9  C1  UNL     1       5.787  -8.193  25.531  1.00  0.00     0.307 C 
HETATM   10  H4  UNL     1       6.893  -8.975  24.011  1.00  0.00     0.316 HD
ENDBRANCH   1   8
BRANCH   7  11
HETATM   11  O2  UNL     1       7.043 -11.153  25.973  1.00  0.00    -0.384 OA
HETATM   12  C8  UNL     1       7.530 -11.364  24.654  1.00  0.00     0.202 C 
ENDBRANCH   7  11
BRANCH   3  13
HETATM   13  N3  UNL     1      10.367  -7.897  28.572  1.00  0.00    -0.316 N 
HETATM   14  C24 UNL     1      11.703  -7.924  28.834  1.00  0.00     0.048 A 
HETATM   15  C19 UNL     1      11.907  -7.072  29.947  1.00  0.00     0.004 A 
HETATM   16  C23 UNL     1      12.756  -8.598  28.202  1.00  0.00     0.030 A 
HETATM   17  C18 UNL     1      10.637  -6.520  30.330  1.00  0.00     0.022 A 
HETATM   18  C20 UNL     1      13.226  -6.911  30.421  1.00  0.00     0.014 A 
HETATM   19  C17 UNL     1      10.055  -5.617  31.230  1.00  0.00     0.057 A 
HETATM   20  C25 UNL     1       9.730  -7.093  29.477  1.00  0.00     0.077 A 
HETATM   21  C16 UNL     1       8.658  -5.260  31.257  1.00  0.00     0.020 A 
HETATM   22  C27 UNL     1      10.723  -4.825  32.268  1.00  0.00     0.255 A 
HETATM   23  C15 UNL     1       7.709  -5.826  30.377  1.00  0.00     0.017 A 
HETATM   24  C28 UNL     1       8.454  -4.251  32.352  1.00  0.00     0.257 A 
HETATM   25  C14 UNL     1       6.322  -5.686  30.079  1.00  0.00     0.004 A 
HETATM   26  C26 UNL     1       8.185  -6.775  29.500  1.00  0.00     0.077 A 
HETATM   27  C9  UNL     1       6.001  -6.590  29.044  1.00  0.00     0.049 A 
HETATM   28  C13 UNL     1       5.306  -4.849  30.590  1.00  0.00     0.014 A 
HETATM   29  N2  UNL     1       7.150  -7.316  28.748  1.00  0.00    -0.308 N 
HETATM   30  C10 UNL     1       4.697  -6.658  28.521  1.00  0.00     0.030 A 
HETATM   31  C11 UNL     1       3.715  -5.813  29.047  1.00  0.00     0.002 A 
HETATM   32  C12 UNL     1       4.012  -4.922  30.068  1.00  0.00     0.001 A 
HETATM   33  N4  UNL     1       9.770  -4.018  32.842  1.00  0.00    -0.326 N 
HETATM   34  H24 UNL     1       9.981  -3.435  33.639  1.00  0.00     0.165 HD
HETATM   35  O3  UNL     1      11.897  -4.854  32.578  1.00  0.00    -0.268 OA
HETATM   36  C21 UNL     1      14.281  -7.587  29.797  1.00  0.00     0.001 A 
HETATM   37  C22 UNL     1      14.046  -8.417  28.705  1.00  0.00     0.002 A 
BRANCH  24  38
HETATM   38  O4  UNL     1       7.985  -3.017  31.874  1.00  0.00    -0.372 OA
HETATM   39  H26 UNL     1       8.594  -2.769  31.159  1.00  0.00     0.212 HD
ENDBRANCH  24  38
ENDBRANCH   3  13
TORSDOF 5
ENDMDL
