MODEL 1
REMARK minimizedAffinity -7.68493414
REMARK CNNscore 0.121629767
REMARK CNNaffinity 6.11792135
REMARK  12 active torsions:
REMARK  status: ('A' for Active; 'I' for Inactive)
REMARK    1  A    between atoms: C2_2  and  C3_3 
REMARK    2  A    between atoms: C5_5  and  S1_6 
REMARK    3  A    between atoms: C14_18  and  C15_19 
REMARK    4  A    between atoms: C15_19  and  O4_20 
REMARK    5  A    between atoms: C21_26  and  O5_27 
REMARK    6  A    between atoms: C33_40  and  C34_41 
REMARK    7  A    between atoms: C33_40  and  N1_52 
REMARK    8  A    between atoms: C34_41  and  C35_42 
REMARK    9  A    between atoms: C35_42  and  C36_43 
REMARK   10  A    between atoms: C35_42  and  C37_45 
REMARK   11  A    between atoms: C36_43  and  O7_44 
REMARK   12  A    between atoms: C37_45  and  C38_46 
REMARK       I    between atoms: C44_54  and  N2_55 
REMARK       I    between atoms: C44_54  and  N3_56 
ROOT
HETATM    1  C3  UNL     1      10.931  15.669  18.895  1.00  0.00     0.019 C 
HETATM    2  C4  UNL     1       9.599  14.860  18.993  1.00  0.00     0.033 C 
HETATM    3  C5  UNL     1       9.746  13.317  18.957  1.00  0.00     0.139 C 
HETATM    4  C6  UNL     1       8.462  12.525  18.544  1.00  0.00     0.038 C 
HETATM    5  C7  UNL     1       7.253  12.676  19.458  1.00  0.00    -0.014 C 
HETATM    6  C8  UNL     1       6.126  12.013  19.117  1.00  0.00    -0.050 C 
HETATM    7  C9  UNL     1       6.201  11.161  17.875  1.00  0.00     0.042 C 
HETATM    8  C10 UNL     1       6.504  12.190  16.784  1.00  0.00     0.001 C 
HETATM    9  C11 UNL     1       5.433  13.344  16.778  1.00  0.00     0.037 C 
HETATM   10  C12 UNL     1       3.991  13.038  17.270  1.00  0.00     0.123 C 
HETATM   11  C13 UNL     1       3.189  12.308  16.166  1.00  0.00     0.039 C 
HETATM   12  C14 UNL     1       1.677  12.002  16.387  1.00  0.00     0.023 C 
HETATM   13  C16 UNL     1       1.349  10.657  17.089  1.00  0.00     0.101 C 
HETATM   14  C17 UNL     1       1.794  10.526  18.477  1.00  0.00    -0.101 C 
HETATM   15  C18 UNL     1       2.322  10.526  19.558  1.00  0.00    -0.066 C 
HETATM   16  C19 UNL     1       3.129  10.691  20.732  1.00  0.00     0.029 A 
HETATM   17  C20 UNL     1       2.781   9.952  21.870  1.00  0.00     0.057 A 
HETATM   18  C21 UNL     1       3.537  10.060  23.031  1.00  0.00     0.067 A 
HETATM   19  C22 UNL     1       4.635  10.906  23.087  1.00  0.00     0.037 A 
HETATM   20  C23 UNL     1       4.985  11.649  21.958  1.00  0.00     0.014 A 
HETATM   21  C24 UNL     1       4.254  11.553  20.753  1.00  0.00    -0.006 A 
HETATM   22  C25 UNL     1       4.739  12.402  19.568  1.00  0.00     0.185 C 
HETATM   23  O6  UNL     1       3.877  12.255  18.444  1.00  0.00    -0.371 OA
HETATM   24  C26 UNL     1       7.940  12.816  17.063  1.00  0.00     0.030 C 
HETATM   25  C27 UNL     1       8.916  12.527  15.931  1.00  0.00    -0.057 C 
HETATM   26  C28 UNL     1       9.936  11.582  16.028  1.00  0.00     0.092 A 
HETATM   27  C29 UNL     1      11.006  11.614  15.131  1.00  0.00     0.096 A 
HETATM   28  C30 UNL     1      11.064  12.562  14.091  1.00  0.00    -0.007 C 
HETATM   29  C31 UNL     1       9.928  13.363  13.881  1.00  0.00     0.010 C 
HETATM   30  C32 UNL     1       8.872  13.347  14.793  1.00  0.00     0.005 C 
HETATM   31  C33 UNL     1      12.412  12.869  13.389  1.00  0.00     0.169 C 
HETATM   32  O8  UNL     1      12.896  14.224  13.766  1.00  0.00    -0.316 OA
HETATM   33  C45 UNL     1      12.592  14.666  15.028  1.00  0.00     0.072 C 
HETATM   34  C46 UNL     1      11.722  15.751  15.132  1.00  0.00     0.037 C 
HETATM   35  C47 UNL     1      11.200  16.112  16.377  1.00  0.00     0.010 C 
HETATM   36  C48 UNL     1      11.601  15.440  17.539  1.00  0.00    -0.054 C 
HETATM   37  C49 UNL     1      12.592  14.450  17.426  1.00  0.00     0.010 C 
HETATM   38  C50 UNL     1      13.079  14.056  16.177  1.00  0.00     0.037 C 
HETATM   39 NA1  UNL     1       8.843  12.445  16.105  1.00  0.00    -0.355 Na
ATOM     40 1HA1 UNL     1       8.179  13.099  16.519  1.00  0.00     0.103 HD
ATOM     41 2HA1 UNL     1       7.866  12.737  16.134  1.00  0.00     0.103 HD
ENDROOT
BRANCH  31  42
HETATM   42  C34 UNL     1      12.235  13.023  11.836  1.00  0.00     0.074 C 
BRANCH  42  43
HETATM   43  C35 UNL     1      11.843  11.847  10.897  1.00  0.00     0.018 C 
BRANCH  43  44
HETATM   44  C36 UNL     1      12.935  11.413   9.909  1.00  0.00     0.169 C 
BRANCH  44  45
HETATM   45  O7  UNL     1      13.939  10.599  10.487  1.00  0.00    -0.400 OA
HETATM   46  H41 UNL     1      13.618   9.680  10.502  1.00  0.00     0.209 HD
ENDBRANCH  44  45
ENDBRANCH  43  44
BRANCH  43  47
HETATM   47  C37 UNL     1      10.456  12.017  10.243  1.00  0.00     0.045 C 
BRANCH  47  48
HETATM   48  C38 UNL     1      10.513  11.982   8.730  1.00  0.00    -0.058 A 
HETATM   49  C39 UNL     1      10.937  13.109   8.011  1.00  0.00     0.007 A 
HETATM   50  C40 UNL     1      10.978  13.084   6.615  1.00  0.00     0.001 A 
HETATM   51  C41 UNL     1      10.592  11.935   5.927  1.00  0.00     0.000 A 
HETATM   52  C42 UNL     1      10.170  10.810   6.635  1.00  0.00     0.001 A 
HETATM   53  C43 UNL     1      10.127  10.833   8.030  1.00  0.00     0.007 A 
ENDBRANCH  47  48
ENDBRANCH  43  47
ENDBRANCH  42  43
ENDBRANCH  31  42
BRANCH  31  54
HETATM   54  N1  UNL     1      13.360  11.756  13.571  1.00  0.00    -0.336 N 
HETATM   55  C44 UNL     1      14.623  11.901  13.531  1.00  0.00     0.124 C 
HETATM   56  N2  UNL     1      15.419  10.821  13.695  1.00  0.00    -0.279 NA
HETATM   57  N3  UNL     1      15.381  13.001  13.365  1.00  0.00    -0.279 NA
HETATM   58  H49 UNL     1      16.152  10.999  14.376  1.00  0.00     0.126 HD
HETATM   59  H50 UNL     1      14.859  10.027  13.993  1.00  0.00     0.126 HD
HETATM   60  H51 UNL     1      16.207  12.864  12.802  1.00  0.00     0.126 HD
HETATM   61  H52 UNL     1      14.858  13.845  13.135  1.00  0.00     0.126 HD
ATOM     62  H1  UNL     1      12.984  10.822  13.738  1.00  0.00     0.165 HD
ENDBRANCH  31  54
BRANCH   1  63
HETATM   63  C2  UNL     1      10.651  17.158  19.212  1.00  0.00     0.005 C 
HETATM   64  C1  UNL     1      11.138  17.580  20.593  1.00  0.00     0.006 C 
ENDBRANCH   1  63
BRANCH   3  65
HETATM   65  S1  UNL     1      10.408  12.667  20.528  1.00  0.00     0.106 S 
HETATM   66  O1  UNL     1      11.855  12.593  20.312  1.00  0.00    -0.595 OA
HETATM   67  O2  UNL     1      10.001  13.655  21.527  1.00  0.00    -0.595 OA
HETATM   68  O3  UNL     1       9.779  11.355  20.670  1.00  0.00    -0.595 OA
ENDBRANCH   3  65
BRANCH  12  69
HETATM   69  C15 UNL     1       0.844  13.185  16.904  1.00  0.00     0.169 C 
BRANCH  69  70
HETATM   70  O4  UNL     1       1.116  13.528  18.246  1.00  0.00    -0.400 OA
HETATM   71  H23 UNL     1       0.382  14.064  18.582  1.00  0.00     0.209 HD
ENDBRANCH  69  70
ENDBRANCH  12  69
BRANCH  18  72
HETATM   72  O5  UNL     1       3.180   9.299  24.105  1.00  0.00    -0.361 OA
HETATM   73  H27 UNL     1       3.839   9.447  24.804  1.00  0.00     0.217 HD
ENDBRANCH  18  72
TORSDOF 12
ENDMDL
MODEL 2
REMARK minimizedAffinity -9.0482235
REMARK CNNscore 0.114675283
REMARK CNNaffinity 6.98068857
REMARK  12 active torsions:
REMARK  status: ('A' for Active; 'I' for Inactive)
REMARK    1  A    between atoms: C2_2  and  C3_3 
REMARK    2  A    between atoms: C5_5  and  S1_6 
REMARK    3  A    between atoms: C14_18  and  C15_19 
REMARK    4  A    between atoms: C15_19  and  O4_20 
REMARK    5  A    between atoms: C21_26  and  O5_27 
REMARK    6  A    between atoms: C33_40  and  C34_41 
REMARK    7  A    between atoms: C33_40  and  N1_52 
REMARK    8  A    between atoms: C34_41  and  C35_42 
REMARK    9  A    between atoms: C35_42  and  C36_43 
REMARK   10  A    between atoms: C35_42  and  C37_45 
REMARK   11  A    between atoms: C36_43  and  O7_44 
REMARK   12  A    between atoms: C37_45  and  C38_46 
REMARK       I    between atoms: C44_54  and  N2_55 
REMARK       I    between atoms: C44_54  and  N3_56 
ROOT
HETATM    1  C3  UNL     1      -2.034  16.560  16.751  1.00  0.00     0.019 C 
HETATM    2  C4  UNL     1      -2.979  16.248  17.955  1.00  0.00     0.033 C 
HETATM    3  C5  UNL     1      -2.439  15.220  18.983  1.00  0.00     0.139 C 
HETATM    4  C6  UNL     1      -3.520  14.524  19.873  1.00  0.00     0.038 C 
HETATM    5  C7  UNL     1      -4.335  15.436  20.782  1.00  0.00    -0.014 C 
HETATM    6  C8  UNL     1      -5.285  14.862  21.551  1.00  0.00    -0.050 C 
HETATM    7  C9  UNL     1      -5.411  13.362  21.452  1.00  0.00     0.042 C 
HETATM    8  C10 UNL     1      -5.792  13.158  19.985  1.00  0.00     0.001 C 
HETATM    9  C11 UNL     1      -7.071  13.995  19.607  1.00  0.00     0.037 C 
HETATM   10  C12 UNL     1      -8.116  14.315  20.712  1.00  0.00     0.123 C 
HETATM   11  C13 UNL     1      -9.018  13.084  20.974  1.00  0.00     0.039 C 
HETATM   12  C14 UNL     1     -10.218  13.204  21.960  1.00  0.00     0.023 C 
HETATM   13  C16 UNL     1      -9.907  12.913  23.452  1.00  0.00     0.101 C 
HETATM   14  C17 UNL     1      -8.995  13.844  24.118  1.00  0.00    -0.101 C 
HETATM   15  C18 UNL     1      -8.151  14.618  24.485  1.00  0.00    -0.066 C 
HETATM   16  C19 UNL     1      -7.068  15.541  24.667  1.00  0.00     0.029 A 
HETATM   17  C20 UNL     1      -6.790  15.971  25.970  1.00  0.00     0.057 A 
HETATM   18  C21 UNL     1      -5.741  16.852  26.207  1.00  0.00     0.067 A 
HETATM   19  C22 UNL     1      -4.965  17.329  25.160  1.00  0.00     0.037 A 
HETATM   20  C23 UNL     1      -5.238  16.908  23.858  1.00  0.00     0.014 A 
HETATM   21  C24 UNL     1      -6.283  15.998  23.578  1.00  0.00    -0.006 A 
HETATM   22  C25 UNL     1      -6.484  15.589  22.111  1.00  0.00     0.185 C 
HETATM   23  O6  UNL     1      -7.604  14.722  21.967  1.00  0.00    -0.371 OA
HETATM   24  C26 UNL     1      -4.575  13.631  19.075  1.00  0.00     0.030 C 
HETATM   25  C27 UNL     1      -4.007  12.487  18.246  1.00  0.00    -0.057 C 
HETATM   26  C28 UNL     1      -2.800  11.858  18.544  1.00  0.00     0.092 A 
HETATM   27  C29 UNL     1      -2.153  11.090  17.573  1.00  0.00     0.096 A 
HETATM   28  C30 UNL     1      -2.715  10.896  16.296  1.00  0.00    -0.007 C 
HETATM   29  C31 UNL     1      -4.026  11.359  16.089  1.00  0.00     0.010 C 
HETATM   30  C32 UNL     1      -4.659  12.147  17.051  1.00  0.00     0.005 C 
HETATM   31  C33 UNL     1      -1.826  10.425  15.116  1.00  0.00     0.169 C 
HETATM   32  O8  UNL     1      -1.631  11.532  14.141  1.00  0.00    -0.316 OA
HETATM   33  C45 UNL     1      -1.592  12.807  14.644  1.00  0.00     0.072 C 
HETATM   34  C46 UNL     1      -2.634  13.664  14.292  1.00  0.00     0.037 C 
HETATM   35  C47 UNL     1      -2.775  14.896  14.937  1.00  0.00     0.010 C 
HETATM   36  C48 UNL     1      -1.833  15.315  15.887  1.00  0.00    -0.054 C 
HETATM   37  C49 UNL     1      -0.712  14.499  16.115  1.00  0.00     0.010 C 
HETATM   38  C50 UNL     1      -0.595  13.247  15.506  1.00  0.00     0.037 C 
HETATM   39 NA1  UNL     1      -3.991  12.575  18.432  1.00  0.00    -0.355 Na
ATOM     40 1HA1 UNL     1      -4.624  13.373  18.472  1.00  0.00     0.103 HD
ATOM     41 2HA1 UNL     1      -4.939  12.879  18.654  1.00  0.00     0.103 HD
ENDROOT
BRANCH  31  42
HETATM   42  C34 UNL     1      -2.560   9.357  14.229  1.00  0.00     0.074 C 
BRANCH  42  43
HETATM   43  C35 UNL     1      -3.710   8.451  14.755  1.00  0.00     0.018 C 
BRANCH  43  44
HETATM   44  C36 UNL     1      -3.255   7.194  15.509  1.00  0.00     0.169 C 
BRANCH  44  45
HETATM   45  O7  UNL     1      -2.563   7.468  16.713  1.00  0.00    -0.400 OA
HETATM   46  H41 UNL     1      -3.219   7.626  17.414  1.00  0.00     0.209 HD
ENDBRANCH  44  45
ENDBRANCH  43  44
BRANCH  43  47
HETATM   47  C37 UNL     1      -4.804   8.174  13.703  1.00  0.00     0.045 C 
BRANCH  47  48
HETATM   48  C38 UNL     1      -4.966   6.699  13.401  1.00  0.00    -0.058 A 
HETATM   49  C39 UNL     1      -6.187   6.054  13.649  1.00  0.00     0.007 A 
HETATM   50  C40 UNL     1      -6.334   4.691  13.384  1.00  0.00     0.001 A 
HETATM   51  C41 UNL     1      -5.264   3.961  12.871  1.00  0.00     0.000 A 
HETATM   52  C42 UNL     1      -4.047   4.594  12.620  1.00  0.00     0.001 A 
HETATM   53  C43 UNL     1      -3.897   5.956  12.886  1.00  0.00     0.007 A 
ENDBRANCH  47  48
ENDBRANCH  43  47
ENDBRANCH  42  43
ENDBRANCH  31  42
BRANCH  31  54
HETATM   54  N1  UNL     1      -0.609   9.761  15.612  1.00  0.00    -0.336 N 
HETATM   55  C44 UNL     1       0.432   9.591  14.902  1.00  0.00     0.124 C 
HETATM   56  N2  UNL     1       1.501   8.958  15.436  1.00  0.00    -0.279 NA
HETATM   57  N3  UNL     1       0.709   9.961  13.638  1.00  0.00    -0.279 NA
HETATM   58  H49 UNL     1       2.360   9.475  15.270  1.00  0.00     0.126 HD
HETATM   59  H50 UNL     1       1.361   8.835  16.435  1.00  0.00     0.126 HD
HETATM   60  H51 UNL     1       1.243   9.288  13.108  1.00  0.00     0.126 HD
HETATM   61  H52 UNL     1      -0.080  10.358  13.130  1.00  0.00     0.126 HD
ATOM     62  H1  UNL     1      -0.601   9.420  16.574  1.00  0.00     0.165 HD
ENDBRANCH  31  54
BRANCH   1  63
HETATM   63  C2  UNL     1      -2.582  17.781  15.973  1.00  0.00     0.005 C 
HETATM   64  C1  UNL     1      -1.551  18.415  15.047  1.00  0.00     0.006 C 
ENDBRANCH   1  63
BRANCH   3  65
HETATM   65  S1  UNL     1      -1.128  15.939  20.029  1.00  0.00     0.106 S 
HETATM   66  O1  UNL     1      -1.177  17.374  19.741  1.00  0.00    -0.595 OA
HETATM   67  O2  UNL     1      -1.523  15.588  21.393  1.00  0.00    -0.595 OA
HETATM   68  O3  UNL     1       0.100  15.298  19.561  1.00  0.00    -0.595 OA
ENDBRANCH   3  65
BRANCH  12  69
HETATM   69  C15 UNL     1     -11.111  14.436  21.748  1.00  0.00     0.169 C 
BRANCH  69  70
HETATM   70  O4  UNL     1     -12.198  14.512  22.646  1.00  0.00    -0.400 OA
HETATM   71  H23 UNL     1     -12.854  15.126  22.283  1.00  0.00     0.209 HD
ENDBRANCH  69  70
ENDBRANCH  12  69
BRANCH  18  72
HETATM   72  O5  UNL     1      -5.488  17.220  27.495  1.00  0.00    -0.361 OA
HETATM   73  H27 UNL     1      -4.696  17.784  27.490  1.00  0.00     0.217 HD
ENDBRANCH  18  72
TORSDOF 12
ENDMDL
MODEL 3
REMARK minimizedAffinity -7.48577499
REMARK CNNscore 0.106797591
REMARK CNNaffinity 6.77773428
REMARK  12 active torsions:
REMARK  status: ('A' for Active; 'I' for Inactive)
REMARK    1  A    between atoms: C2_2  and  C3_3 
REMARK    2  A    between atoms: C5_5  and  S1_6 
REMARK    3  A    between atoms: C14_18  and  C15_19 
REMARK    4  A    between atoms: C15_19  and  O4_20 
REMARK    5  A    between atoms: C21_26  and  O5_27 
REMARK    6  A    between atoms: C33_40  and  C34_41 
REMARK    7  A    between atoms: C33_40  and  N1_52 
REMARK    8  A    between atoms: C34_41  and  C35_42 
REMARK    9  A    between atoms: C35_42  and  C36_43 
REMARK   10  A    between atoms: C35_42  and  C37_45 
REMARK   11  A    between atoms: C36_43  and  O7_44 
REMARK   12  A    between atoms: C37_45  and  C38_46 
REMARK       I    between atoms: C44_54  and  N2_55 
REMARK       I    between atoms: C44_54  and  N3_56 
ROOT
HETATM    1  C3  UNL     1      -7.050  14.416  20.182  1.00  0.00     0.019 C 
HETATM    2  C4  UNL     1      -5.780  13.729  19.586  1.00  0.00     0.033 C 
HETATM    3  C5  UNL     1      -4.623  14.684  19.192  1.00  0.00     0.139 C 
HETATM    4  C6  UNL     1      -3.598  14.113  18.157  1.00  0.00     0.038 C 
HETATM    5  C7  UNL     1      -2.815  12.881  18.593  1.00  0.00    -0.014 C 
HETATM    6  C8  UNL     1      -1.933  12.360  17.713  1.00  0.00    -0.050 C 
HETATM    7  C9  UNL     1      -1.793  13.082  16.397  1.00  0.00     0.042 C 
HETATM    8  C10 UNL     1      -3.196  12.961  15.801  1.00  0.00     0.001 C 
HETATM    9  C11 UNL     1      -3.655  11.457  15.728  1.00  0.00     0.037 C 
HETATM   10  C12 UNL     1      -2.579  10.346  15.580  1.00  0.00     0.123 C 
HETATM   11  C13 UNL     1      -2.097  10.254  14.112  1.00  0.00     0.039 C 
HETATM   12  C14 UNL     1      -1.100   9.131  13.697  1.00  0.00     0.023 C 
HETATM   13  C16 UNL     1       0.408   9.464  13.851  1.00  0.00     0.101 C 
HETATM   14  C17 UNL     1       0.887   9.675  15.218  1.00  0.00    -0.101 C 
HETATM   15  C18 UNL     1       1.100   9.934  16.373  1.00  0.00    -0.066 C 
HETATM   16  C19 UNL     1       1.098  10.320  17.755  1.00  0.00     0.029 A 
HETATM   17  C20 UNL     1       2.307  10.241  18.456  1.00  0.00     0.057 A 
HETATM   18  C21 UNL     1       2.367  10.618  19.792  1.00  0.00     0.067 A 
HETATM   19  C22 UNL     1       1.233  11.065  20.454  1.00  0.00     0.037 A 
HETATM   20  C23 UNL     1       0.022  11.143  19.764  1.00  0.00     0.014 A 
HETATM   21  C24 UNL     1      -0.076  10.786  18.399  1.00  0.00    -0.006 A 
HETATM   22  C25 UNL     1      -1.453  10.928  17.734  1.00  0.00     0.185 C 
HETATM   23  O6  UNL     1      -1.420  10.478  16.384  1.00  0.00    -0.371 OA
HETATM   24  C26 UNL     1      -4.210  13.769  16.724  1.00  0.00     0.030 C 
HETATM   25  C27 UNL     1      -4.869  14.918  15.973  1.00  0.00    -0.057 C 
HETATM   26  C28 UNL     1      -4.518  16.253  16.167  1.00  0.00     0.092 A 
HETATM   27  C29 UNL     1      -5.379  17.270  15.746  1.00  0.00     0.096 A 
HETATM   28  C30 UNL     1      -6.590  16.981  15.087  1.00  0.00    -0.007 C 
HETATM   29  C31 UNL     1      -6.821  15.646  14.714  1.00  0.00     0.010 C 
HETATM   30  C32 UNL     1      -5.973  14.630  15.157  1.00  0.00     0.005 C 
HETATM   31  C33 UNL     1      -7.713  18.049  15.014  1.00  0.00     0.169 C 
HETATM   32  O8  UNL     1      -8.855  17.660  15.885  1.00  0.00    -0.316 OA
HETATM   33  C45 UNL     1      -8.558  16.964  17.029  1.00  0.00     0.072 C 
HETATM   34  C46 UNL     1      -9.004  15.645  17.106  1.00  0.00     0.037 C 
HETATM   35  C47 UNL     1      -8.554  14.815  18.136  1.00  0.00     0.010 C 
HETATM   36  C48 UNL     1      -7.715  15.316  19.141  1.00  0.00    -0.054 C 
HETATM   37  C49 UNL     1      -7.401  16.686  19.122  1.00  0.00     0.010 C 
HETATM   38  C50 UNL     1      -7.810  17.506  18.067  1.00  0.00     0.037 C 
HETATM   39 NA1  UNL     1      -4.700  14.873  16.082  1.00  0.00    -0.355 Na
ATOM     40 1HA1 UNL     1      -4.764  13.905  16.396  1.00  0.00     0.103 HD
ATOM     41 2HA1 UNL     1      -4.496  13.903  15.843  1.00  0.00     0.103 HD
ENDROOT
BRANCH  31  42
HETATM   42  C34 UNL     1      -8.395  18.074  13.600  1.00  0.00     0.074 C 
BRANCH  42  43
HETATM   43  C35 UNL     1      -7.650  18.477  12.295  1.00  0.00     0.018 C 
BRANCH  43  44
HETATM   44  C36 UNL     1      -6.246  19.061  12.503  1.00  0.00     0.169 C 
BRANCH  44  45
HETATM   45  O7  UNL     1      -5.199  18.165  12.178  1.00  0.00    -0.400 OA
HETATM   46  H41 UNL     1      -5.050  18.204  11.216  1.00  0.00     0.209 HD
ENDBRANCH  44  45
ENDBRANCH  43  44
BRANCH  43  47
HETATM   47  C37 UNL     1      -8.518  19.297  11.319  1.00  0.00     0.045 C 
BRANCH  47  48
HETATM   48  C38 UNL     1      -8.503  18.740   9.911  1.00  0.00    -0.058 A 
HETATM   49  C39 UNL     1      -9.698  18.355   9.287  1.00  0.00     0.007 A 
HETATM   50  C40 UNL     1      -9.685  17.829   7.994  1.00  0.00     0.001 A 
HETATM   51  C41 UNL     1      -8.478  17.680   7.315  1.00  0.00     0.000 A 
HETATM   52  C42 UNL     1      -7.284  18.061   7.926  1.00  0.00     0.001 A 
HETATM   53  C43 UNL     1      -7.295  18.585   9.220  1.00  0.00     0.007 A 
ENDBRANCH  47  48
ENDBRANCH  43  47
ENDBRANCH  42  43
ENDBRANCH  31  42
BRANCH  31  54
HETATM   54  N1  UNL     1      -7.161  19.400  15.212  1.00  0.00    -0.336 N 
HETATM   55  C44 UNL     1      -7.848  20.377  15.648  1.00  0.00     0.124 C 
HETATM   56  N2  UNL     1      -7.263  21.588  15.788  1.00  0.00    -0.279 NA
HETATM   57  N3  UNL     1      -9.132  20.446  16.047  1.00  0.00    -0.279 NA
HETATM   58  H49 UNL     1      -7.456  21.991  16.700  1.00  0.00     0.126 HD
HETATM   59  H50 UNL     1      -6.259  21.499  15.655  1.00  0.00     0.126 HD
HETATM   60  H51 UNL     1      -9.610  21.296  15.787  1.00  0.00     0.126 HD
HETATM   61  H52 UNL     1      -9.674  19.599  15.881  1.00  0.00     0.126 HD
ATOM     62  H1  UNL     1      -6.178  19.560  14.989  1.00  0.00     0.165 HD
ENDBRANCH  31  54
BRANCH   1  63
HETATM   63  C2  UNL     1      -7.989  13.333  20.767  1.00  0.00     0.005 C 
HETATM   64  C1  UNL     1      -7.788  13.105  22.260  1.00  0.00     0.006 C 
ENDBRANCH   1  63
BRANCH   3  65
HETATM   65  S1  UNL     1      -3.748  15.322  20.660  1.00  0.00     0.106 S 
HETATM   66  O1  UNL     1      -4.181  14.449  21.752  1.00  0.00    -0.595 OA
HETATM   67  O2  UNL     1      -2.331  15.197  20.318  1.00  0.00    -0.595 OA
HETATM   68  O3  UNL     1      -4.227  16.698  20.796  1.00  0.00    -0.595 OA
ENDBRANCH   3  65
BRANCH  12  69
HETATM   69  C15 UNL     1      -1.471   7.722  14.185  1.00  0.00     0.169 C 
BRANCH  69  70
HETATM   70  O4  UNL     1      -1.966   6.879  13.166  1.00  0.00    -0.400 OA
HETATM   71  H23 UNL     1      -2.434   6.138  13.580  1.00  0.00     0.209 HD
ENDBRANCH  69  70
ENDBRANCH  12  69
BRANCH  18  72
HETATM   72  O5  UNL     1       3.573  10.554  20.425  1.00  0.00    -0.361 OA
HETATM   73  H27 UNL     1       3.452  10.905  21.324  1.00  0.00     0.217 HD
ENDBRANCH  18  72
TORSDOF 12
ENDMDL
MODEL 4
REMARK minimizedAffinity -9.50449276
REMARK CNNscore 0.097406663
REMARK CNNaffinity 7.26641989
REMARK  12 active torsions:
REMARK  status: ('A' for Active; 'I' for Inactive)
REMARK    1  A    between atoms: C2_2  and  C3_3 
REMARK    2  A    between atoms: C5_5  and  S1_6 
REMARK    3  A    between atoms: C14_18  and  C15_19 
REMARK    4  A    between atoms: C15_19  and  O4_20 
REMARK    5  A    between atoms: C21_26  and  O5_27 
REMARK    6  A    between atoms: C33_40  and  C34_41 
REMARK    7  A    between atoms: C33_40  and  N1_52 
REMARK    8  A    between atoms: C34_41  and  C35_42 
REMARK    9  A    between atoms: C35_42  and  C36_43 
REMARK   10  A    between atoms: C35_42  and  C37_45 
REMARK   11  A    between atoms: C36_43  and  O7_44 
REMARK   12  A    between atoms: C37_45  and  C38_46 
REMARK       I    between atoms: C44_54  and  N2_55 
REMARK       I    between atoms: C44_54  and  N3_56 
ROOT
HETATM    1  C3  UNL     1      -0.042  11.363  18.592  1.00  0.00     0.019 C 
HETATM    2  C4  UNL     1      -0.696  10.317  17.635  1.00  0.00     0.033 C 
HETATM    3  C5  UNL     1      -0.649  10.666  16.125  1.00  0.00     0.139 C 
HETATM    4  C6  UNL     1      -1.703   9.936  15.229  1.00  0.00     0.038 C 
HETATM    5  C7  UNL     1      -1.606   8.417  15.174  1.00  0.00    -0.014 C 
HETATM    6  C8  UNL     1      -2.512   7.761  14.419  1.00  0.00    -0.050 C 
HETATM    7  C9  UNL     1      -3.510   8.615  13.677  1.00  0.00     0.042 C 
HETATM    8  C10 UNL     1      -4.251   9.322  14.813  1.00  0.00     0.001 C 
HETATM    9  C11 UNL     1      -4.843   8.285  15.838  1.00  0.00     0.037 C 
HETATM   10  C12 UNL     1      -5.228   6.865  15.337  1.00  0.00     0.123 C 
HETATM   11  C13 UNL     1      -6.593   6.902  14.608  1.00  0.00     0.039 C 
HETATM   12  C14 UNL     1      -7.242   5.572  14.120  1.00  0.00     0.023 C 
HETATM   13  C16 UNL     1      -6.840   5.099  12.697  1.00  0.00     0.101 C 
HETATM   14  C17 UNL     1      -5.437   4.728  12.511  1.00  0.00    -0.101 C 
HETATM   15  C18 UNL     1      -4.244   4.574  12.488  1.00  0.00    -0.066 C 
HETATM   16  C19 UNL     1      -2.819   4.578  12.652  1.00  0.00     0.029 A 
HETATM   17  C20 UNL     1      -2.062   3.769  11.795  1.00  0.00     0.057 A 
HETATM   18  C21 UNL     1      -0.677   3.746  11.897  1.00  0.00     0.067 A 
HETATM   19  C22 UNL     1      -0.023   4.510  12.854  1.00  0.00     0.037 A 
HETATM   20  C23 UNL     1      -0.771   5.316  13.714  1.00  0.00     0.014 A 
HETATM   21  C24 UNL     1      -2.180   5.381  13.630  1.00  0.00    -0.006 A 
HETATM   22  C25 UNL     1      -2.900   6.315  14.615  1.00  0.00     0.185 C 
HETATM   23  O6  UNL     1      -4.313   6.235  14.459  1.00  0.00    -0.371 OA
HETATM   24  C26 UNL     1      -3.225  10.274  15.572  1.00  0.00     0.030 C 
HETATM   25  C27 UNL     1      -3.633  11.737  15.480  1.00  0.00    -0.057 C 
HETATM   26  C28 UNL     1      -2.992  12.655  14.650  1.00  0.00     0.092 A 
HETATM   27  C29 UNL     1      -3.151  14.026  14.869  1.00  0.00     0.096 A 
HETATM   28  C30 UNL     1      -3.985  14.514  15.893  1.00  0.00    -0.007 C 
HETATM   29  C31 UNL     1      -4.784  13.581  16.577  1.00  0.00     0.010 C 
HETATM   30  C32 UNL     1      -4.605  12.212  16.374  1.00  0.00     0.005 C 
HETATM   31  C33 UNL     1      -3.827  15.971  16.401  1.00  0.00     0.169 C 
HETATM   32  O8  UNL     1      -3.243  15.982  17.769  1.00  0.00    -0.316 OA
HETATM   33  C45 UNL     1      -2.356  14.983  18.078  1.00  0.00     0.072 C 
HETATM   34  C46 UNL     1      -2.747  14.060  19.048  1.00  0.00     0.037 C 
HETATM   35  C47 UNL     1      -1.994  12.900  19.252  1.00  0.00     0.010 C 
HETATM   36  C48 UNL     1      -0.805  12.688  18.543  1.00  0.00    -0.054 C 
HETATM   37  C49 UNL     1      -0.356  13.703  17.681  1.00  0.00     0.010 C 
HETATM   38  C50 UNL     1      -1.130  14.840  17.439  1.00  0.00     0.037 C 
HETATM   39 NA1  UNL     1      -3.528  11.593  15.377  1.00  0.00    -0.355 Na
ATOM     40 1HA1 UNL     1      -3.547  10.730  15.920  1.00  0.00     0.103 HD
ATOM     41 2HA1 UNL     1      -4.042  10.730  15.556  1.00  0.00     0.103 HD
ENDROOT
BRANCH  31  42
HETATM   42  C34 UNL     1      -5.220  16.650  16.652  1.00  0.00     0.074 C 
BRANCH  42  43
HETATM   43  C35 UNL     1      -6.002  16.533  17.992  1.00  0.00     0.018 C 
BRANCH  43  44
HETATM   44  C36 UNL     1      -5.191  16.872  19.249  1.00  0.00     0.169 C 
BRANCH  44  45
HETATM   45  O7  UNL     1      -5.605  18.062  19.894  1.00  0.00    -0.400 OA
HETATM   46  H41 UNL     1      -6.364  17.853  20.466  1.00  0.00     0.209 HD
ENDBRANCH  44  45
ENDBRANCH  43  44
BRANCH  43  47
HETATM   47  C37 UNL     1      -6.814  15.227  18.118  1.00  0.00     0.045 C 
BRANCH  47  48
HETATM   48  C38 UNL     1      -6.818  14.673  19.527  1.00  0.00    -0.058 A 
HETATM   49  C39 UNL     1      -5.811  13.790  19.945  1.00  0.00     0.007 A 
HETATM   50  C40 UNL     1      -5.821  13.268  21.240  1.00  0.00     0.001 A 
HETATM   51  C41 UNL     1      -6.836  13.621  22.126  1.00  0.00     0.000 A 
HETATM   52  C42 UNL     1      -7.840  14.499  21.720  1.00  0.00     0.001 A 
HETATM   53  C43 UNL     1      -7.834  15.021  20.426  1.00  0.00     0.007 A 
ENDBRANCH  47  48
ENDBRANCH  43  47
ENDBRANCH  42  43
ENDBRANCH  31  42
BRANCH  31  54
HETATM   54  N1  UNL     1      -3.155  16.805  15.390  1.00  0.00    -0.336 N 
HETATM   55  C44 UNL     1      -3.736  17.234  14.342  1.00  0.00     0.124 C 
HETATM   56  N2  UNL     1      -3.038  17.984  13.459  1.00  0.00    -0.279 NA
HETATM   57  N3  UNL     1      -5.004  17.096  13.916  1.00  0.00    -0.279 NA
HETATM   58  H49 UNL     1      -3.546  18.825  13.203  1.00  0.00     0.126 HD
HETATM   59  H50 UNL     1      -2.138  18.234  13.861  1.00  0.00     0.126 HD
HETATM   60  H51 UNL     1      -5.104  16.968  12.920  1.00  0.00     0.126 HD
HETATM   61  H52 UNL     1      -5.573  16.461  14.475  1.00  0.00     0.126 HD
ATOM     62  H1  UNL     1      -2.176  17.051  15.537  1.00  0.00     0.165 HD
ENDBRANCH  31  54
BRANCH   1  63
HETATM   63  C2  UNL     1       0.071  10.758  20.012  1.00  0.00     0.005 C 
HETATM   64  C1  UNL     1       1.484  10.823  20.582  1.00  0.00     0.006 C 
ENDBRANCH   1  63
BRANCH   3  65
HETATM   65  S1  UNL     1       1.026  10.444  15.435  1.00  0.00     0.106 S 
HETATM   66  O1  UNL     1       0.798   9.995  14.060  1.00  0.00    -0.595 OA
HETATM   67  O2  UNL     1       1.637  11.769  15.540  1.00  0.00    -0.595 OA
HETATM   68  O3  UNL     1       1.633   9.419  16.284  1.00  0.00    -0.595 OA
ENDBRANCH   3  65
BRANCH  12  69
HETATM   69  C15 UNL     1      -7.267   4.442  15.160  1.00  0.00     0.169 C 
BRANCH  69  70
HETATM   70  O4  UNL     1      -8.255   4.606  16.155  1.00  0.00    -0.400 OA
HETATM   71  H23 UNL     1      -8.031   4.038  16.907  1.00  0.00     0.209 HD
ENDBRANCH  69  70
ENDBRANCH  12  69
BRANCH  18  72
HETATM   72  O5  UNL     1       0.020   2.967  11.022  1.00  0.00    -0.361 OA
HETATM   73  H27 UNL     1       0.968   3.112  11.189  1.00  0.00     0.217 HD
ENDBRANCH  18  72
TORSDOF 12
ENDMDL
MODEL 5
REMARK minimizedAffinity -8.37446499
REMARK CNNscore 0.0967858359
REMARK CNNaffinity 6.51532316
REMARK  12 active torsions:
REMARK  status: ('A' for Active; 'I' for Inactive)
REMARK    1  A    between atoms: C2_2  and  C3_3 
REMARK    2  A    between atoms: C5_5  and  S1_6 
REMARK    3  A    between atoms: C14_18  and  C15_19 
REMARK    4  A    between atoms: C15_19  and  O4_20 
REMARK    5  A    between atoms: C21_26  and  O5_27 
REMARK    6  A    between atoms: C33_40  and  C34_41 
REMARK    7  A    between atoms: C33_40  and  N1_52 
REMARK    8  A    between atoms: C34_41  and  C35_42 
REMARK    9  A    between atoms: C35_42  and  C36_43 
REMARK   10  A    between atoms: C35_42  and  C37_45 
REMARK   11  A    between atoms: C36_43  and  O7_44 
REMARK   12  A    between atoms: C37_45  and  C38_46 
REMARK       I    between atoms: C44_54  and  N2_55 
REMARK       I    between atoms: C44_54  and  N3_56 
ROOT
HETATM    1  C3  UNL     1       0.480  11.549  18.387  1.00  0.00     0.019 C 
HETATM    2  C4  UNL     1      -0.257  10.505  17.490  1.00  0.00     0.033 C 
HETATM    3  C5  UNL     1      -0.208  10.778  15.964  1.00  0.00     0.139 C 
HETATM    4  C6  UNL     1      -1.322  10.080  15.117  1.00  0.00     0.038 C 
HETATM    5  C7  UNL     1      -1.329   8.556  15.135  1.00  0.00    -0.014 C 
HETATM    6  C8  UNL     1      -2.289   7.929  14.422  1.00  0.00    -0.050 C 
HETATM    7  C9  UNL     1      -3.237   8.813  13.651  1.00  0.00     0.042 C 
HETATM    8  C10 UNL     1      -3.911   9.622  14.759  1.00  0.00     0.001 C 
HETATM    9  C11 UNL     1      -4.558   8.678  15.840  1.00  0.00     0.037 C 
HETATM   10  C12 UNL     1      -5.045   7.265  15.413  1.00  0.00     0.123 C 
HETATM   11  C13 UNL     1      -6.415   7.361  14.699  1.00  0.00     0.039 C 
HETATM   12  C14 UNL     1      -7.160   6.057  14.283  1.00  0.00     0.023 C 
HETATM   13  C16 UNL     1      -6.811   5.490  12.881  1.00  0.00     0.101 C 
HETATM   14  C17 UNL     1      -5.439   5.015  12.697  1.00  0.00    -0.101 C 
HETATM   15  C18 UNL     1      -4.260   4.779  12.668  1.00  0.00    -0.066 C 
HETATM   16  C19 UNL     1      -2.836   4.694  12.815  1.00  0.00     0.029 A 
HETATM   17  C20 UNL     1      -2.148   3.795  11.990  1.00  0.00     0.057 A 
HETATM   18  C21 UNL     1      -0.766   3.682  12.078  1.00  0.00     0.067 A 
HETATM   19  C22 UNL     1      -0.048   4.445  12.989  1.00  0.00     0.037 A 
HETATM   20  C23 UNL     1      -0.727   5.339  13.818  1.00  0.00     0.014 A 
HETATM   21  C24 UNL     1      -2.130   5.497  13.746  1.00  0.00    -0.006 A 
HETATM   22  C25 UNL     1      -2.770   6.524  14.692  1.00  0.00     0.185 C 
HETATM   23  O6  UNL     1      -4.187   6.533  14.557  1.00  0.00    -0.371 OA
HETATM   24  C26 UNL     1      -2.813  10.536  15.460  1.00  0.00     0.030 C 
HETATM   25  C27 UNL     1      -3.122  12.019  15.301  1.00  0.00    -0.057 C 
HETATM   26  C28 UNL     1      -2.432  12.850  14.421  1.00  0.00     0.092 A 
HETATM   27  C29 UNL     1      -2.495  14.237  14.574  1.00  0.00     0.096 A 
HETATM   28  C30 UNL     1      -3.279  14.829  15.583  1.00  0.00    -0.007 C 
HETATM   29  C31 UNL     1      -4.130  13.987  16.320  1.00  0.00     0.010 C 
HETATM   30  C32 UNL     1      -4.047  12.600  16.182  1.00  0.00     0.005 C 
HETATM   31  C33 UNL     1      -3.016  16.294  16.018  1.00  0.00     0.169 C 
HETATM   32  O8  UNL     1      -2.413  16.331  17.377  1.00  0.00    -0.316 OA
HETATM   33  C45 UNL     1      -1.591  15.289  17.724  1.00  0.00     0.072 C 
HETATM   34  C46 UNL     1      -2.029  14.443  18.742  1.00  0.00     0.037 C 
HETATM   35  C47 UNL     1      -1.354  13.245  18.994  1.00  0.00     0.010 C 
HETATM   36  C48 UNL     1      -0.192  12.919  18.283  1.00  0.00    -0.054 C 
HETATM   37  C49 UNL     1       0.313  13.858  17.367  1.00  0.00     0.010 C 
HETATM   38  C50 UNL     1      -0.387  15.033  17.079  1.00  0.00     0.037 C 
HETATM   39 NA1  UNL     1      -3.028  11.863  15.204  1.00  0.00    -0.355 Na
ATOM     40 1HA1 UNL     1      -3.098  11.029  15.789  1.00  0.00     0.103 HD
ATOM     41 2HA1 UNL     1      -3.597  11.046  15.431  1.00  0.00     0.103 HD
ENDROOT
BRANCH  31  42
HETATM   42  C34 UNL     1      -4.356  17.078  16.251  1.00  0.00     0.074 C 
BRANCH  42  43
HETATM   43  C35 UNL     1      -4.416  18.515  16.844  1.00  0.00     0.018 C 
BRANCH  43  44
HETATM   44  C36 UNL     1      -5.242  19.520  16.029  1.00  0.00     0.169 C 
BRANCH  44  45
HETATM   45  O7  UNL     1      -5.832  18.967  14.867  1.00  0.00    -0.400 OA
HETATM   46  H41 UNL     1      -6.662  18.526  15.124  1.00  0.00     0.209 HD
ENDBRANCH  44  45
ENDBRANCH  43  44
BRANCH  43  47
HETATM   47  C37 UNL     1      -3.040  19.060  17.278  1.00  0.00     0.045 C 
BRANCH  47  48
HETATM   48  C38 UNL     1      -3.028  19.548  18.711  1.00  0.00    -0.058 A 
HETATM   49  C39 UNL     1      -3.494  18.723  19.745  1.00  0.00     0.007 A 
HETATM   50  C40 UNL     1      -3.496  19.175  21.066  1.00  0.00     0.001 A 
HETATM   51  C41 UNL     1      -3.036  20.456  21.365  1.00  0.00     0.000 A 
HETATM   52  C42 UNL     1      -2.569  21.283  20.343  1.00  0.00     0.001 A 
HETATM   53  C43 UNL     1      -2.568  20.834  19.022  1.00  0.00     0.007 A 
ENDBRANCH  47  48
ENDBRANCH  43  47
ENDBRANCH  42  43
ENDBRANCH  31  42
BRANCH  31  54
HETATM   54  N1  UNL     1      -2.304  17.031  14.960  1.00  0.00    -0.336 N 
HETATM   55  C44 UNL     1      -2.815  17.289  13.824  1.00  0.00     0.124 C 
HETATM   56  N2  UNL     1      -2.084  17.961  12.906  1.00  0.00    -0.279 NA
HETATM   57  N3  UNL     1      -4.037  17.024  13.325  1.00  0.00    -0.279 NA
HETATM   58  H49 UNL     1      -2.610  18.731  12.504  1.00  0.00     0.126 HD
HETATM   59  H50 UNL     1      -1.234  18.312  13.338  1.00  0.00     0.126 HD
HETATM   60  H51 UNL     1      -4.047  16.765  12.349  1.00  0.00     0.126 HD
HETATM   61  H52 UNL     1      -4.618  16.433  13.917  1.00  0.00     0.126 HD
ATOM     62  H1  UNL     1      -1.353  17.351  15.147  1.00  0.00     0.165 HD
ENDBRANCH  31  54
BRANCH   1  63
HETATM   63  C2  UNL     1       0.573  11.006  19.834  1.00  0.00     0.005 C 
HETATM   64  C1  UNL     1       1.978  10.556  20.218  1.00  0.00     0.006 C 
ENDBRANCH   1  63
BRANCH   3  65
HETATM   65  S1  UNL     1       1.438  10.409  15.267  1.00  0.00     0.106 S 
HETATM   66  O1  UNL     1       1.984   9.374  16.148  1.00  0.00    -0.595 OA
HETATM   67  O2  UNL     1       1.159   9.952  13.906  1.00  0.00    -0.595 OA
HETATM   68  O3  UNL     1       2.159  11.679  15.353  1.00  0.00    -0.595 OA
ENDBRANCH   3  65
BRANCH  12  69
HETATM   69  C15 UNL     1      -7.246   4.982  15.377  1.00  0.00     0.169 C 
BRANCH  69  70
HETATM   70  O4  UNL     1      -8.425   5.050  16.150  1.00  0.00    -0.400 OA
HETATM   71  H23 UNL     1      -8.284   4.552  16.970  1.00  0.00     0.209 HD
ENDBRANCH  69  70
ENDBRANCH  12  69
BRANCH  18  72
HETATM   72  O5  UNL     1      -0.136   2.817  11.233  1.00  0.00    -0.361 OA
HETATM   73  H27 UNL     1       0.821   2.904  11.383  1.00  0.00     0.217 HD
ENDBRANCH  18  72
TORSDOF 12
ENDMDL
MODEL 6
REMARK minimizedAffinity -7.51065493
REMARK CNNscore 0.0948965624
REMARK CNNaffinity 6.49398947
REMARK  12 active torsions:
REMARK  status: ('A' for Active; 'I' for Inactive)
REMARK    1  A    between atoms: C2_2  and  C3_3 
REMARK    2  A    between atoms: C5_5  and  S1_6 
REMARK    3  A    between atoms: C14_18  and  C15_19 
REMARK    4  A    between atoms: C15_19  and  O4_20 
REMARK    5  A    between atoms: C21_26  and  O5_27 
REMARK    6  A    between atoms: C33_40  and  C34_41 
REMARK    7  A    between atoms: C33_40  and  N1_52 
REMARK    8  A    between atoms: C34_41  and  C35_42 
REMARK    9  A    between atoms: C35_42  and  C36_43 
REMARK   10  A    between atoms: C35_42  and  C37_45 
REMARK   11  A    between atoms: C36_43  and  O7_44 
REMARK   12  A    between atoms: C37_45  and  C38_46 
REMARK       I    between atoms: C44_54  and  N2_55 
REMARK       I    between atoms: C44_54  and  N3_56 
ROOT
HETATM    1  C3  UNL     1       2.223  11.320  17.424  1.00  0.00     0.019 C 
HETATM    2  C4  UNL     1       1.193  10.386  16.713  1.00  0.00     0.033 C 
HETATM    3  C5  UNL     1       0.978  10.653  15.201  1.00  0.00     0.139 C 
HETATM    4  C6  UNL     1      -0.363  10.112  14.603  1.00  0.00     0.038 C 
HETATM    5  C7  UNL     1      -0.566   8.603  14.659  1.00  0.00    -0.014 C 
HETATM    6  C8  UNL     1      -1.721   8.111  14.162  1.00  0.00    -0.050 C 
HETATM    7  C9  UNL     1      -2.677   9.115  13.568  1.00  0.00     0.042 C 
HETATM    8  C10 UNL     1      -3.009  10.006  14.767  1.00  0.00     0.001 C 
HETATM    9  C11 UNL     1      -3.550   9.154  15.976  1.00  0.00     0.037 C 
HETATM   10  C12 UNL     1      -4.293   7.820  15.686  1.00  0.00     0.123 C 
HETATM   11  C13 UNL     1      -5.752   8.100  15.250  1.00  0.00     0.039 C 
HETATM   12  C14 UNL     1      -6.728   6.908  15.018  1.00  0.00     0.023 C 
HETATM   13  C16 UNL     1      -6.739   6.302  13.589  1.00  0.00     0.101 C 
HETATM   14  C17 UNL     1      -5.504   5.649  13.154  1.00  0.00    -0.101 C 
HETATM   15  C18 UNL     1      -4.395   5.257  12.902  1.00  0.00    -0.066 C 
HETATM   16  C19 UNL     1      -2.993   4.982  12.771  1.00  0.00     0.029 A 
HETATM   17  C20 UNL     1      -2.605   4.000  11.850  1.00  0.00     0.057 A 
HETATM   18  C21 UNL     1      -1.259   3.704  11.670  1.00  0.00     0.067 A 
HETATM   19  C22 UNL     1      -0.283   4.361  12.405  1.00  0.00     0.037 A 
HETATM   20  C23 UNL     1      -0.663   5.337  13.328  1.00  0.00     0.014 A 
HETATM   21  C24 UNL     1      -2.019   5.681  13.527  1.00  0.00    -0.006 A 
HETATM   22  C25 UNL     1      -2.321   6.782  14.555  1.00  0.00     0.185 C 
HETATM   23  O6  UNL     1      -3.724   6.982  14.697  1.00  0.00    -0.371 OA
HETATM   24  C26 UNL     1      -1.684  10.763  15.218  1.00  0.00     0.030 C 
HETATM   25  C27 UNL     1      -1.821  12.274  15.087  1.00  0.00    -0.057 C 
HETATM   26  C28 UNL     1      -1.213  13.007  14.069  1.00  0.00     0.092 A 
HETATM   27  C29 UNL     1      -1.062  14.390  14.199  1.00  0.00     0.096 A 
HETATM   28  C30 UNL     1      -1.548  15.079  15.326  1.00  0.00    -0.007 C 
HETATM   29  C31 UNL     1      -2.341  14.357  16.234  1.00  0.00     0.010 C 
HETATM   30  C32 UNL     1      -2.470  12.972  16.117  1.00  0.00     0.005 C 
HETATM   31  C33 UNL     1      -1.014  16.495  15.665  1.00  0.00     0.169 C 
HETATM   32  O8  UNL     1      -0.157  16.448  16.881  1.00  0.00    -0.316 OA
HETATM   33  C45 UNL     1       0.572  15.305  17.086  1.00  0.00     0.072 C 
HETATM   34  C46 UNL     1       0.235  14.523  18.190  1.00  0.00     0.037 C 
HETATM   35  C47 UNL     1       0.783  13.245  18.335  1.00  0.00     0.010 C 
HETATM   36  C48 UNL     1       1.730  12.768  17.419  1.00  0.00    -0.054 C 
HETATM   37  C49 UNL     1       2.164  13.633  16.400  1.00  0.00     0.010 C 
HETATM   38  C50 UNL     1       1.582  14.891  16.226  1.00  0.00     0.037 C 
HETATM   39 NA1  UNL     1      -1.769  12.107  14.978  1.00  0.00    -0.355 Na
ATOM     40 1HA1 UNL     1      -1.832  11.289  15.584  1.00  0.00     0.103 HD
ATOM     41 2HA1 UNL     1      -2.384  11.373  15.330  1.00  0.00     0.103 HD
ENDROOT
BRANCH  31  42
HETATM   42  C34 UNL     1      -2.168  17.451  16.136  1.00  0.00     0.074 C 
BRANCH  42  43
HETATM   43  C35 UNL     1      -3.476  16.949  16.810  1.00  0.00     0.018 C 
BRANCH  43  44
HETATM   44  C36 UNL     1      -4.716  16.953  15.905  1.00  0.00     0.169 C 
BRANCH  44  45
HETATM   45  O7  UNL     1      -5.939  17.054  16.611  1.00  0.00    -0.400 OA
HETATM   46  H41 UNL     1      -6.104  17.993  16.805  1.00  0.00     0.209 HD
ENDBRANCH  44  45
ENDBRANCH  43  44
BRANCH  43  47
HETATM   47  C37 UNL     1      -3.729  17.567  18.201  1.00  0.00     0.045 C 
BRANCH  47  48
HETATM   48  C38 UNL     1      -2.792  18.715  18.511  1.00  0.00    -0.058 A 
HETATM   49  C39 UNL     1      -3.208  20.041  18.324  1.00  0.00     0.007 A 
HETATM   50  C40 UNL     1      -2.341  21.101  18.597  1.00  0.00     0.001 A 
HETATM   51  C41 UNL     1      -1.050  20.845  19.056  1.00  0.00     0.000 A 
HETATM   52  C42 UNL     1      -0.628  19.529  19.245  1.00  0.00     0.001 A 
HETATM   53  C43 UNL     1      -1.493  18.469  18.971  1.00  0.00     0.007 A 
ENDBRANCH  47  48
ENDBRANCH  43  47
ENDBRANCH  42  43
ENDBRANCH  31  42
BRANCH  31  54
HETATM   54  N1  UNL     1      -0.433  17.133  14.472  1.00  0.00    -0.336 N 
HETATM   55  C44 UNL     1      -1.074  17.946  13.733  1.00  0.00     0.124 C 
HETATM   56  N2  UNL     1      -0.465  18.475  12.648  1.00  0.00    -0.279 NA
HETATM   57  N3  UNL     1      -2.322  18.437  13.837  1.00  0.00    -0.279 NA
HETATM   58  H49 UNL     1      -0.583  19.483  12.610  1.00  0.00     0.126 HD
HETATM   59  H50 UNL     1       0.525  18.245  12.666  1.00  0.00     0.126 HD
HETATM   60  H51 UNL     1      -2.809  18.544  12.959  1.00  0.00     0.126 HD
HETATM   61  H52 UNL     1      -2.885  18.014  14.574  1.00  0.00     0.126 HD
ATOM     62  H1  UNL     1       0.532  16.911  14.225  1.00  0.00     0.165 HD
ENDBRANCH  31  54
BRANCH   1  63
HETATM   63  C2  UNL     1       2.525  10.767  18.838  1.00  0.00     0.005 C 
HETATM   64  C1  UNL     1       3.702  11.459  19.515  1.00  0.00     0.006 C 
ENDBRANCH   1  63
BRANCH   3  65
HETATM   65  S1  UNL     1       2.392  10.069  14.206  1.00  0.00     0.106 S 
HETATM   66  O1  UNL     1       1.783   9.516  12.995  1.00  0.00    -0.595 OA
HETATM   67  O2  UNL     1       3.193  11.271  13.979  1.00  0.00    -0.595 OA
HETATM   68  O3  UNL     1       3.030   9.055  15.045  1.00  0.00    -0.595 OA
ENDBRANCH   3  65
BRANCH  12  69
HETATM   69  C15 UNL     1      -6.739   5.852  16.133  1.00  0.00     0.169 C 
BRANCH  69  70
HETATM   70  O4  UNL     1      -7.880   5.020  16.118  1.00  0.00    -0.400 OA
HETATM   71  H23 UNL     1      -7.959   4.591  16.983  1.00  0.00     0.209 HD
ENDBRANCH  69  70
ENDBRANCH  12  69
BRANCH  18  72
HETATM   72  O5  UNL     1      -0.927   2.764  10.740  1.00  0.00    -0.361 OA
HETATM   73  H27 UNL     1       0.044   2.722  10.699  1.00  0.00     0.217 HD
ENDBRANCH  18  72
TORSDOF 12
ENDMDL
MODEL 7
REMARK minimizedAffinity -8.1833086
REMARK CNNscore 0.0904619098
REMARK CNNaffinity 6.93080378
REMARK  12 active torsions:
REMARK  status: ('A' for Active; 'I' for Inactive)
REMARK    1  A    between atoms: C2_2  and  C3_3 
REMARK    2  A    between atoms: C5_5  and  S1_6 
REMARK    3  A    between atoms: C14_18  and  C15_19 
REMARK    4  A    between atoms: C15_19  and  O4_20 
REMARK    5  A    between atoms: C21_26  and  O5_27 
REMARK    6  A    between atoms: C33_40  and  C34_41 
REMARK    7  A    between atoms: C33_40  and  N1_52 
REMARK    8  A    between atoms: C34_41  and  C35_42 
REMARK    9  A    between atoms: C35_42  and  C36_43 
REMARK   10  A    between atoms: C35_42  and  C37_45 
REMARK   11  A    between atoms: C36_43  and  O7_44 
REMARK   12  A    between atoms: C37_45  and  C38_46 
REMARK       I    between atoms: C44_54  and  N2_55 
REMARK       I    between atoms: C44_54  and  N3_56 
ROOT
HETATM    1  C3  UNL     1       1.917  11.004  17.440  1.00  0.00     0.019 C 
HETATM    2  C4  UNL     1       0.864  10.103  16.719  1.00  0.00     0.033 C 
HETATM    3  C5  UNL     1       0.609  10.433  15.226  1.00  0.00     0.139 C 
HETATM    4  C6  UNL     1      -0.750   9.922  14.643  1.00  0.00     0.038 C 
HETATM    5  C7  UNL     1      -0.959   8.413  14.643  1.00  0.00    -0.014 C 
HETATM    6  C8  UNL     1      -2.130   7.946  14.158  1.00  0.00    -0.050 C 
HETATM    7  C9  UNL     1      -3.096   8.977  13.632  1.00  0.00     0.042 C 
HETATM    8  C10 UNL     1      -3.391   9.819  14.875  1.00  0.00     0.001 C 
HETATM    9  C11 UNL     1      -3.903   8.920  16.062  1.00  0.00     0.037 C 
HETATM   10  C12 UNL     1      -4.660   7.601  15.738  1.00  0.00     0.123 C 
HETATM   11  C13 UNL     1      -6.129   7.904  15.354  1.00  0.00     0.039 C 
HETATM   12  C14 UNL     1      -7.117   6.727  15.101  1.00  0.00     0.023 C 
HETATM   13  C16 UNL     1      -7.170   6.181  13.649  1.00  0.00     0.101 C 
HETATM   14  C17 UNL     1      -5.950   5.541  13.153  1.00  0.00    -0.101 C 
HETATM   15  C18 UNL     1      -4.850   5.156  12.855  1.00  0.00    -0.066 C 
HETATM   16  C19 UNL     1      -3.454   4.881  12.675  1.00  0.00     0.029 A 
HETATM   17  C20 UNL     1      -3.096   3.937  11.705  1.00  0.00     0.057 A 
HETATM   18  C21 UNL     1      -1.757   3.643  11.476  1.00  0.00     0.067 A 
HETATM   19  C22 UNL     1      -0.758   4.266  12.210  1.00  0.00     0.037 A 
HETATM   20  C23 UNL     1      -1.107   5.205  13.183  1.00  0.00     0.014 A 
HETATM   21  C24 UNL     1      -2.456   5.545  13.433  1.00  0.00    -0.006 A 
HETATM   22  C25 UNL     1      -2.725   6.604  14.512  1.00  0.00     0.185 C 
HETATM   23  O6  UNL     1      -4.122   6.803  14.701  1.00  0.00    -0.371 OA
HETATM   24  C26 UNL     1      -2.051  10.552  15.320  1.00  0.00     0.030 C 
HETATM   25  C27 UNL     1      -2.184  12.067  15.255  1.00  0.00    -0.057 C 
HETATM   26  C28 UNL     1      -1.601  12.839  14.252  1.00  0.00     0.092 A 
HETATM   27  C29 UNL     1      -1.439  14.215  14.433  1.00  0.00     0.096 A 
HETATM   28  C30 UNL     1      -1.892  14.860  15.601  1.00  0.00    -0.007 C 
HETATM   29  C31 UNL     1      -2.663  14.103  16.501  1.00  0.00     0.010 C 
HETATM   30  C32 UNL     1      -2.802  12.725  16.330  1.00  0.00     0.005 C 
HETATM   31  C33 UNL     1      -1.342  16.258  15.983  1.00  0.00     0.169 C 
HETATM   32  O8  UNL     1      -0.452  16.158  17.172  1.00  0.00    -0.316 OA
HETATM   33  C45 UNL     1       0.277  15.005  17.310  1.00  0.00     0.072 C 
HETATM   34  C46 UNL     1      -0.034  14.179  18.390  1.00  0.00     0.037 C 
HETATM   35  C47 UNL     1       0.511  12.895  18.468  1.00  0.00     0.010 C 
HETATM   36  C48 UNL     1       1.431  12.452  17.508  1.00  0.00    -0.054 C 
HETATM   37  C49 UNL     1       1.841  13.357  16.514  1.00  0.00     0.010 C 
HETATM   38  C50 UNL     1       1.261  14.623  16.407  1.00  0.00     0.037 C 
HETATM   39 NA1  UNL     1      -2.136  11.905  15.138  1.00  0.00    -0.355 Na
ATOM     40 1HA1 UNL     1      -2.186  11.063  15.712  1.00  0.00     0.103 HD
ATOM     41 2HA1 UNL     1      -2.745  11.160  15.476  1.00  0.00     0.103 HD
ENDROOT
BRANCH  31  42
HETATM   42  C34 UNL     1      -2.477  17.199  16.524  1.00  0.00     0.074 C 
BRANCH  42  43
HETATM   43  C35 UNL     1      -2.956  18.479  15.782  1.00  0.00     0.018 C 
BRANCH  43  44
HETATM   44  C36 UNL     1      -2.603  19.802  16.476  1.00  0.00     0.169 C 
BRANCH  44  45
HETATM   45  O7  UNL     1      -3.730  20.578  16.837  1.00  0.00    -0.400 OA
HETATM   46  H41 UNL     1      -4.070  20.248  17.687  1.00  0.00     0.209 HD
ENDBRANCH  44  45
ENDBRANCH  43  44
BRANCH  43  47
HETATM   47  C37 UNL     1      -4.424  18.405  15.312  1.00  0.00     0.045 C 
BRANCH  47  48
HETATM   48  C38 UNL     1      -5.031  17.031  15.499  1.00  0.00    -0.058 A 
HETATM   49  C39 UNL     1      -5.566  16.655  16.739  1.00  0.00     0.007 A 
HETATM   50  C40 UNL     1      -6.115  15.383  16.917  1.00  0.00     0.001 A 
HETATM   51  C41 UNL     1      -6.130  14.476  15.859  1.00  0.00     0.000 A 
HETATM   52  C42 UNL     1      -5.601  14.842  14.622  1.00  0.00     0.001 A 
HETATM   53  C43 UNL     1      -5.051  16.112  14.442  1.00  0.00     0.007 A 
ENDBRANCH  47  48
ENDBRANCH  43  47
ENDBRANCH  42  43
ENDBRANCH  31  42
BRANCH  31  54
HETATM   54  N1  UNL     1      -0.790  16.942  14.802  1.00  0.00    -0.336 N 
HETATM   55  C44 UNL     1       0.142  17.806  14.867  1.00  0.00     0.124 C 
HETATM   56  N2  UNL     1       0.579  18.394  13.731  1.00  0.00    -0.279 NA
HETATM   57  N3  UNL     1       0.845  18.269  15.917  1.00  0.00    -0.279 NA
HETATM   58  H49 UNL     1       1.593  18.375  13.669  1.00  0.00     0.126 HD
HETATM   59  H50 UNL     1       0.176  17.923  12.926  1.00  0.00     0.126 HD
HETATM   60  H51 UNL     1       1.057  19.255  15.881  1.00  0.00     0.126 HD
HETATM   61  H52 UNL     1       0.511  17.949  16.825  1.00  0.00     0.126 HD
ATOM     62  H1  UNL     1      -1.174  16.712  13.885  1.00  0.00     0.165 HD
ENDBRANCH  31  54
BRANCH   1  63
HETATM   63  C2  UNL     1       2.254  10.391  18.821  1.00  0.00     0.005 C 
HETATM   64  C1  UNL     1       3.376  11.127  19.546  1.00  0.00     0.006 C 
ENDBRANCH   1  63
BRANCH   3  65
HETATM   65  S1  UNL     1       1.992   9.885  14.170  1.00  0.00     0.106 S 
HETATM   66  O1  UNL     1       1.357   9.484  12.913  1.00  0.00    -0.595 OA
HETATM   67  O2  UNL     1       2.850  11.065  14.059  1.00  0.00    -0.595 OA
HETATM   68  O3  UNL     1       2.582   8.764  14.900  1.00  0.00    -0.595 OA
ENDBRANCH   3  65
BRANCH  12  69
HETATM   69  C15 UNL     1      -7.103   5.626  16.171  1.00  0.00     0.169 C 
BRANCH  69  70
HETATM   70  O4  UNL     1      -7.955   4.538  15.880  1.00  0.00    -0.400 OA
HETATM   71  H23 UNL     1      -8.112   4.043  16.699  1.00  0.00     0.209 HD
ENDBRANCH  69  70
ENDBRANCH  12  69
BRANCH  18  72
HETATM   72  O5  UNL     1      -1.454   2.740  10.500  1.00  0.00    -0.361 OA
HETATM   73  H27 UNL     1      -0.485   2.696  10.430  1.00  0.00     0.217 HD
ENDBRANCH  18  72
TORSDOF 12
ENDMDL
MODEL 8
REMARK minimizedAffinity -8.30546379
REMARK CNNscore 0.0849609599
REMARK CNNaffinity 5.88153791
REMARK  12 active torsions:
REMARK  status: ('A' for Active; 'I' for Inactive)
REMARK    1  A    between atoms: C2_2  and  C3_3 
REMARK    2  A    between atoms: C5_5  and  S1_6 
REMARK    3  A    between atoms: C14_18  and  C15_19 
REMARK    4  A    between atoms: C15_19  and  O4_20 
REMARK    5  A    between atoms: C21_26  and  O5_27 
REMARK    6  A    between atoms: C33_40  and  C34_41 
REMARK    7  A    between atoms: C33_40  and  N1_52 
REMARK    8  A    between atoms: C34_41  and  C35_42 
REMARK    9  A    between atoms: C35_42  and  C36_43 
REMARK   10  A    between atoms: C35_42  and  C37_45 
REMARK   11  A    between atoms: C36_43  and  O7_44 
REMARK   12  A    between atoms: C37_45  and  C38_46 
REMARK       I    between atoms: C44_54  and  N2_55 
REMARK       I    between atoms: C44_54  and  N3_56 
ROOT
HETATM    1  C3  UNL     1     -11.013  11.723  22.822  1.00  0.00     0.019 C 
HETATM    2  C4  UNL     1     -11.527  11.797  21.349  1.00  0.00     0.033 C 
HETATM    3  C5  UNL     1     -13.060  11.967  21.180  1.00  0.00     0.139 C 
HETATM    4  C6  UNL     1     -13.638  11.538  19.792  1.00  0.00     0.038 C 
HETATM    5  C7  UNL     1     -13.130  12.310  18.581  1.00  0.00    -0.014 C 
HETATM    6  C8  UNL     1     -13.604  11.951  17.369  1.00  0.00    -0.050 C 
HETATM    7  C9  UNL     1     -14.620  10.837  17.350  1.00  0.00     0.042 C 
HETATM    8  C10 UNL     1     -13.833   9.660  17.927  1.00  0.00     0.001 C 
HETATM    9  C11 UNL     1     -12.506   9.411  17.117  1.00  0.00     0.037 C 
HETATM   10  C12 UNL     1     -12.455   9.801  15.614  1.00  0.00     0.123 C 
HETATM   11  C13 UNL     1     -13.164   8.726  14.754  1.00  0.00     0.039 C 
HETATM   12  C14 UNL     1     -13.139   8.843  13.201  1.00  0.00     0.023 C 
HETATM   13  C16 UNL     1     -14.283   9.673  12.560  1.00  0.00     0.101 C 
HETATM   14  C17 UNL     1     -14.301  11.102  12.877  1.00  0.00    -0.101 C 
HETATM   15  C18 UNL     1     -14.251  12.219  13.320  1.00  0.00    -0.066 C 
HETATM   16  C19 UNL     1     -14.082  13.433  14.064  1.00  0.00     0.029 A 
HETATM   17  C20 UNL     1     -14.572  14.617  13.499  1.00  0.00     0.057 A 
HETATM   18  C21 UNL     1     -14.451  15.821  14.183  1.00  0.00     0.067 A 
HETATM   19  C22 UNL     1     -13.834  15.873  15.424  1.00  0.00     0.037 A 
HETATM   20  C23 UNL     1     -13.339  14.697  15.992  1.00  0.00     0.014 A 
HETATM   21  C24 UNL     1     -13.459  13.451  15.338  1.00  0.00    -0.006 A 
HETATM   22  C25 UNL     1     -12.895  12.219  16.063  1.00  0.00     0.185 C 
HETATM   23  O6  UNL     1     -13.029  11.048  15.265  1.00  0.00    -0.371 OA
HETATM   24  C26 UNL     1     -13.463   9.991  19.440  1.00  0.00     0.030 C 
HETATM   25  C27 UNL     1     -14.091   8.998  20.408  1.00  0.00    -0.057 C 
HETATM   26  C28 UNL     1     -15.192   9.307  21.206  1.00  0.00     0.092 A 
HETATM   27  C29 UNL     1     -15.494   8.515  22.317  1.00  0.00     0.096 A 
HETATM   28  C30 UNL     1     -14.731   7.375  22.635  1.00  0.00    -0.007 C 
HETATM   29  C31 UNL     1     -13.763   6.963  21.703  1.00  0.00     0.010 C 
HETATM   30  C32 UNL     1     -13.446   7.768  20.608  1.00  0.00     0.005 C 
HETATM   31  C33 UNL     1     -14.792   6.769  24.061  1.00  0.00     0.169 C 
HETATM   32  O8  UNL     1     -13.516   7.017  24.785  1.00  0.00    -0.316 OA
HETATM   33  C45 UNL     1     -12.850   8.181  24.495  1.00  0.00     0.072 C 
HETATM   34  C46 UNL     1     -11.615   8.068  23.859  1.00  0.00     0.037 C 
HETATM   35  C47 UNL     1     -10.988   9.205  23.341  1.00  0.00     0.010 C 
HETATM   36  C48 UNL     1     -11.555  10.474  23.519  1.00  0.00    -0.054 C 
HETATM   37  C49 UNL     1     -12.724  10.577  24.292  1.00  0.00     0.010 C 
HETATM   38  C50 UNL     1     -13.376   9.438  24.770  1.00  0.00     0.037 C 
HETATM   39 NA1  UNL     1     -14.133   9.174  20.309  1.00  0.00    -0.355 Na
ATOM     40 1HA1 UNL     1     -13.311   9.440  19.766  1.00  0.00     0.103 HD
ATOM     41 2HA1 UNL     1     -13.656   9.075  19.412  1.00  0.00     0.103 HD
ENDROOT
BRANCH  31  42
HETATM   42  C34 UNL     1     -14.825   5.199  24.022  1.00  0.00     0.074 C 
BRANCH  42  43
HETATM   43  C35 UNL     1     -13.839   4.300  24.820  1.00  0.00     0.018 C 
BRANCH  43  44
HETATM   44  C36 UNL     1     -12.851   3.498  23.961  1.00  0.00     0.169 C 
BRANCH  44  45
HETATM   45  O7  UNL     1     -13.431   2.378  23.318  1.00  0.00    -0.400 OA
HETATM   46  H41 UNL     1     -13.861   2.683  22.500  1.00  0.00     0.209 HD
ENDBRANCH  44  45
ENDBRANCH  43  44
BRANCH  43  47
HETATM   47  C37 UNL     1     -14.523   3.459  25.917  1.00  0.00     0.045 C 
BRANCH  47  48
HETATM   48  C38 UNL     1     -13.613   3.178  27.094  1.00  0.00    -0.058 A 
HETATM   49  C39 UNL     1     -12.810   2.029  27.112  1.00  0.00     0.007 A 
HETATM   50  C40 UNL     1     -11.980   1.762  28.203  1.00  0.00     0.001 A 
HETATM   51  C41 UNL     1     -11.948   2.638  29.285  1.00  0.00     0.000 A 
HETATM   52  C42 UNL     1     -12.742   3.785  29.276  1.00  0.00     0.001 A 
HETATM   53  C43 UNL     1     -13.574   4.053  28.187  1.00  0.00     0.007 A 
ENDBRANCH  47  48
ENDBRANCH  43  47
ENDBRANCH  42  43
ENDBRANCH  31  42
BRANCH  31  54
HETATM   54  N1  UNL     1     -16.030   7.175  24.748  1.00  0.00    -0.336 N 
HETATM   55  C44 UNL     1     -16.137   7.236  26.014  1.00  0.00     0.124 C 
HETATM   56  N2  UNL     1     -17.317   7.607  26.560  1.00  0.00    -0.279 NA
HETATM   57  N3  UNL     1     -15.238   7.008  26.989  1.00  0.00    -0.279 NA
HETATM   58  H49 UNL     1     -17.190   8.326  27.266  1.00  0.00     0.126 HD
HETATM   59  H50 UNL     1     -17.939   7.946  25.832  1.00  0.00     0.126 HD
HETATM   60  H51 UNL     1     -15.609   6.547  27.807  1.00  0.00     0.126 HD
HETATM   61  H52 UNL     1     -14.350   6.628  26.666  1.00  0.00     0.126 HD
ATOM     62  H1  UNL     1     -16.841   7.420  24.180  1.00  0.00     0.165 HD
ENDBRANCH  31  54
BRANCH   1  63
HETATM   63  C2  UNL     1      -9.469  11.824  22.831  1.00  0.00     0.005 C 
HETATM   64  C1  UNL     1      -8.937  12.968  21.975  1.00  0.00     0.006 C 
ENDBRANCH   1  63
BRANCH   3  65
HETATM   65  S1  UNL     1     -13.598  13.661  21.591  1.00  0.00     0.106 S 
HETATM   66  O1  UNL     1     -14.813  13.861  20.798  1.00  0.00    -0.595 OA
HETATM   67  O2  UNL     1     -13.824  13.627  23.036  1.00  0.00    -0.595 OA
HETATM   68  O3  UNL     1     -12.485  14.507  21.164  1.00  0.00    -0.595 OA
ENDBRANCH   3  65
BRANCH  12  69
HETATM   69  C15 UNL     1     -11.757   9.129  12.594  1.00  0.00     0.169 C 
BRANCH  69  70
HETATM   70  O4  UNL     1     -11.808   9.634  11.277  1.00  0.00    -0.400 OA
HETATM   71  H23 UNL     1     -10.936   9.520  10.870  1.00  0.00     0.209 HD
ENDBRANCH  69  70
ENDBRANCH  12  69
BRANCH  18  72
HETATM   72  O5  UNL     1     -14.971  16.943  13.608  1.00  0.00    -0.361 OA
HETATM   73  H27 UNL     1     -14.855  17.676  14.236  1.00  0.00     0.217 HD
ENDBRANCH  18  72
TORSDOF 12
ENDMDL
MODEL 9
REMARK minimizedAffinity -7.33246803
REMARK CNNscore 0.0816788748
REMARK CNNaffinity 6.23204947
REMARK  12 active torsions:
REMARK  status: ('A' for Active; 'I' for Inactive)
REMARK    1  A    between atoms: C2_2  and  C3_3 
REMARK    2  A    between atoms: C5_5  and  S1_6 
REMARK    3  A    between atoms: C14_18  and  C15_19 
REMARK    4  A    between atoms: C15_19  and  O4_20 
REMARK    5  A    between atoms: C21_26  and  O5_27 
REMARK    6  A    between atoms: C33_40  and  C34_41 
REMARK    7  A    between atoms: C33_40  and  N1_52 
REMARK    8  A    between atoms: C34_41  and  C35_42 
REMARK    9  A    between atoms: C35_42  and  C36_43 
REMARK   10  A    between atoms: C35_42  and  C37_45 
REMARK   11  A    between atoms: C36_43  and  O7_44 
REMARK   12  A    between atoms: C37_45  and  C38_46 
REMARK       I    between atoms: C44_54  and  N2_55 
REMARK       I    between atoms: C44_54  and  N3_56 
ROOT
HETATM    1  C3  UNL     1     -17.350  10.392  22.247  1.00  0.00     0.019 C 
HETATM    2  C4  UNL     1     -16.735   9.288  23.164  1.00  0.00     0.033 C 
HETATM    3  C5  UNL     1     -15.502   9.719  23.999  1.00  0.00     0.139 C 
HETATM    4  C6  UNL     1     -14.587   8.555  24.503  1.00  0.00     0.038 C 
HETATM    5  C7  UNL     1     -15.233   7.548  25.446  1.00  0.00    -0.014 C 
HETATM    6  C8  UNL     1     -14.469   6.525  25.885  1.00  0.00    -0.050 C 
HETATM    7  C9  UNL     1     -13.035   6.511  25.418  1.00  0.00     0.042 C 
HETATM    8  C10 UNL     1     -13.182   6.386  23.900  1.00  0.00     0.001 C 
HETATM    9  C11 UNL     1     -14.056   5.134  23.515  1.00  0.00     0.037 C 
HETATM   10  C12 UNL     1     -14.076   3.906  24.468  1.00  0.00     0.123 C 
HETATM   11  C13 UNL     1     -12.798   3.054  24.276  1.00  0.00     0.039 C 
HETATM   12  C14 UNL     1     -12.649   1.705  25.042  1.00  0.00     0.023 C 
HETATM   13  C16 UNL     1     -12.013   1.790  26.455  1.00  0.00     0.101 C 
HETATM   14  C17 UNL     1     -12.777   2.522  27.466  1.00  0.00    -0.101 C 
HETATM   15  C18 UNL     1     -13.459   3.245  28.144  1.00  0.00    -0.066 C 
HETATM   16  C19 UNL     1     -14.335   4.224  28.719  1.00  0.00     0.029 A 
HETATM   17  C20 UNL     1     -14.444   4.260  30.115  1.00  0.00     0.057 A 
HETATM   18  C21 UNL     1     -15.266   5.199  30.728  1.00  0.00     0.067 A 
HETATM   19  C22 UNL     1     -15.999   6.102  29.971  1.00  0.00     0.037 A 
HETATM   20  C23 UNL     1     -15.898   6.069  28.579  1.00  0.00     0.014 A 
HETATM   21  C24 UNL     1     -15.059   5.143  27.919  1.00  0.00    -0.006 A 
HETATM   22  C25 UNL     1     -15.012   5.208  26.385  1.00  0.00     0.185 C 
HETATM   23  O6  UNL     1     -14.179   4.183  25.853  1.00  0.00    -0.371 OA
HETATM   24  C26 UNL     1     -13.889   7.701  23.349  1.00  0.00     0.030 C 
HETATM   25  C27 UNL     1     -12.992   8.466  22.386  1.00  0.00    -0.057 C 
HETATM   26  C28 UNL     1     -12.338   9.648  22.731  1.00  0.00     0.092 A 
HETATM   27  C29 UNL     1     -11.841  10.490  21.733  1.00  0.00     0.096 A 
HETATM   28  C30 UNL     1     -11.948  10.154  20.370  1.00  0.00    -0.007 C 
HETATM   29  C31 UNL     1     -12.417   8.867  20.055  1.00  0.00     0.010 C 
HETATM   30  C32 UNL     1     -12.935   8.038  21.051  1.00  0.00     0.005 C 
HETATM   31  C33 UNL     1     -11.797  11.250  19.282  1.00  0.00     0.169 C 
HETATM   32  O8  UNL     1     -13.111  11.528  18.642  1.00  0.00    -0.316 OA
HETATM   33  C45 UNL     1     -14.227  11.405  19.428  1.00  0.00     0.072 C 
HETATM   34  C46 UNL     1     -15.120  10.381  19.113  1.00  0.00     0.037 C 
HETATM   35  C47 UNL     1     -16.156  10.060  19.994  1.00  0.00     0.010 C 
HETATM   36  C48 UNL     1     -16.355  10.808  21.162  1.00  0.00    -0.054 C 
HETATM   37  C49 UNL     1     -15.534  11.928  21.382  1.00  0.00     0.010 C 
HETATM   38  C50 UNL     1     -14.469  12.221  20.527  1.00  0.00     0.037 C 
HETATM   39 NA1  UNL     1     -13.033   8.447  22.587  1.00  0.00    -0.355 Na
ATOM     40 1HA1 UNL     1     -13.783   7.767  22.703  1.00  0.00     0.103 HD
ATOM     41 2HA1 UNL     1     -13.252   7.458  22.708  1.00  0.00     0.103 HD
ENDROOT
BRANCH  31  42
HETATM   42  C34 UNL     1     -10.957  10.738  18.058  1.00  0.00     0.074 C 
BRANCH  42  43
HETATM   43  C35 UNL     1     -11.442  10.840  16.583  1.00  0.00     0.018 C 
BRANCH  43  44
HETATM   44  C36 UNL     1     -12.727  10.062  16.266  1.00  0.00     0.169 C 
BRANCH  44  45
HETATM   45  O7  UNL     1     -12.803   8.799  16.903  1.00  0.00    -0.400 OA
HETATM   46  H41 UNL     1     -13.132   8.932  17.809  1.00  0.00     0.209 HD
ENDBRANCH  44  45
ENDBRANCH  43  44
BRANCH  43  47
HETATM   47  C37 UNL     1     -10.318  10.617  15.550  1.00  0.00     0.045 C 
BRANCH  47  48
HETATM   48  C38 UNL     1     -10.630   9.500  14.576  1.00  0.00    -0.058 A 
HETATM   49  C39 UNL     1     -10.103   8.216  14.777  1.00  0.00     0.007 A 
HETATM   50  C40 UNL     1     -10.379   7.188  13.874  1.00  0.00     0.001 A 
HETATM   51  C41 UNL     1     -11.180   7.435  12.760  1.00  0.00     0.000 A 
HETATM   52  C42 UNL     1     -11.709   8.709  12.553  1.00  0.00     0.001 A 
HETATM   53  C43 UNL     1     -11.434   9.738  13.454  1.00  0.00     0.007 A 
ENDBRANCH  47  48
ENDBRANCH  43  47
ENDBRANCH  42  43
ENDBRANCH  31  42
BRANCH  31  54
HETATM   54  N1  UNL     1     -11.061  12.410  19.811  1.00  0.00    -0.336 N 
HETATM   55  C44 UNL     1     -11.179  13.585  19.338  1.00  0.00     0.124 C 
HETATM   56  N2  UNL     1     -10.454  14.591  19.878  1.00  0.00    -0.279 NA
HETATM   57  N3  UNL     1     -11.955  14.066  18.349  1.00  0.00    -0.279 NA
HETATM   58  H49 UNL     1     -11.033  15.401  20.079  1.00  0.00     0.126 HD
HETATM   59  H50 UNL     1     -10.004  14.268  20.730  1.00  0.00     0.126 HD
HETATM   60  H51 UNL     1     -11.517  14.769  17.772  1.00  0.00     0.126 HD
HETATM   61  H52 UNL     1     -12.461  13.355  17.824  1.00  0.00     0.126 HD
ATOM     62  H1  UNL     1     -10.424  12.265  20.595  1.00  0.00     0.165 HD
ENDBRANCH  31  54
BRANCH   1  63
HETATM   63  C2  UNL     1     -18.709   9.900  21.693  1.00  0.00     0.005 C 
HETATM   64  C1  UNL     1     -19.220   8.643  22.386  1.00  0.00     0.006 C 
ENDBRANCH   1  63
BRANCH   3  65
HETATM   65  S1  UNL     1     -15.977  10.795  25.394  1.00  0.00     0.106 S 
HETATM   66  O1  UNL     1     -15.993  12.145  24.825  1.00  0.00    -0.595 OA
HETATM   67  O2  UNL     1     -17.292  10.300  25.799  1.00  0.00    -0.595 OA
HETATM   68  O3  UNL     1     -14.916  10.598  26.380  1.00  0.00    -0.595 OA
ENDBRANCH   3  65
BRANCH  12  69
HETATM   69  C15 UNL     1     -13.874   0.782  24.974  1.00  0.00     0.169 C 
BRANCH  69  70
HETATM   70  O4  UNL     1     -15.040   1.341  25.540  1.00  0.00    -0.400 OA
HETATM   71  H23 UNL     1     -15.669   0.625  25.719  1.00  0.00     0.209 HD
ENDBRANCH  69  70
ENDBRANCH  12  69
BRANCH  18  72
HETATM   72  O5  UNL     1     -15.317   5.217  32.090  1.00  0.00    -0.361 OA
HETATM   73  H27 UNL     1     -15.884   5.963  32.353  1.00  0.00     0.217 HD
ENDBRANCH  18  72
TORSDOF 12
ENDMDL
