MODEL 1
REMARK minimizedAffinity -8.20780468
REMARK  6 active torsions:
REMARK  status: ('A' for Active; 'I' for Inactive)
REMARK    1  A    between atoms: C2_2  and  C3_3 
REMARK    2  A    between atoms: C2_2  and  C9_10 
REMARK    3  A    between atoms: C3_3  and  C4_4 
REMARK    4  A    between atoms: C4_4  and  C5_5 
REMARK    5  A    between atoms: C17_18  and  C18_19 
REMARK    6  A    between atoms: C18_19  and  O2_22 
ROOT
HETATM    1  C9  UNL     1      -2.496   8.721  15.246  1.00  0.00    -0.002 C 
HETATM    2  C10 UNL     1      -1.537   8.077  16.298  1.00  0.00     0.006 C 
HETATM    3  C11 UNL     1      -0.375   7.421  15.515  1.00  0.00     0.011 C 
HETATM    4  C12 UNL     1      -0.876   7.368  14.061  1.00  0.00    -0.032 C 
HETATM    5  C13 UNL     1      -1.832   6.128  13.994  1.00  0.00     0.016 C 
HETATM    6  C14 UNL     1       0.228   7.287  12.964  1.00  0.00     0.003 C 
HETATM    7  C15 UNL     1       1.189   6.090  13.072  1.00  0.00     0.009 C 
HETATM    8  C16 UNL     1       1.925   5.778  11.766  1.00  0.00     0.042 C 
HETATM    9  C17 UNL     1       2.251   6.970  10.810  1.00  0.00     0.095 C 
HETATM   10  O3  UNL     1       2.562   6.284   9.575  1.00  0.00    -0.377 OA
HETATM   11  C21 UNL     1       2.736   7.041   8.388  1.00  0.00     0.169 C 
HETATM   12  C22 UNL     1       1.805   8.231   8.245  1.00  0.00     0.027 C 
HETATM   13  C23 UNL     1       0.585   8.089   9.128  1.00  0.00     0.010 C 
HETATM   14  C24 UNL     1       0.959   7.869  10.613  1.00  0.00     0.032 C 
HETATM   15  C25 UNL     1      -0.311   7.477  11.501  1.00  0.00    -0.033 C 
HETATM   16  C26 UNL     1      -1.011   6.193  10.962  1.00  0.00     0.016 C 
HETATM   17  C27 UNL     1      -1.349   8.658  11.421  1.00  0.00     0.011 C 
HETATM   18  C28 UNL     1      -2.340   8.801  12.596  1.00  0.00     0.011 C 
HETATM   19  C29 UNL     1      -1.620   8.762  13.956  1.00  0.00    -0.032 C 
HETATM   20  C30 UNL     1      -0.678  10.003  14.024  1.00  0.00     0.016 C 
ENDROOT
BRANCH   1  21
HETATM   21  C2  UNL     1      -3.296   9.949  15.785  1.00  0.00    -0.014 C 
HETATM   22  C1  UNL     1      -2.793  11.333  15.358  1.00  0.00     0.010 C 
BRANCH  21  23
HETATM   23  C3  UNL     1      -4.811   9.789  15.512  1.00  0.00     0.007 C 
BRANCH  23  24
HETATM   24  C4  UNL     1      -5.206   8.532  14.726  1.00  0.00     0.035 C 
BRANCH  24  25
HETATM   25  C5  UNL     1      -6.275   7.717  15.384  1.00  0.00     0.156 A 
HETATM   26  O1  UNL     1      -7.430   7.509  14.549  1.00  0.00    -0.370 OA
HETATM   27  C6  UNL     1      -6.707   6.330  14.919  1.00  0.00     0.080 A 
HETATM   28  C7  UNL     1      -6.045   5.642  13.765  1.00  0.00     0.048 C 
HETATM   29  C8  UNL     1      -7.435   5.451  15.889  1.00  0.00     0.048 C 
ENDBRANCH  24  25
ENDBRANCH  23  24
ENDBRANCH  21  23
ENDBRANCH   1  21
BRANCH   9  30
HETATM   30  C18 UNL     1       3.542   7.763  11.367  1.00  0.00     0.082 C 
HETATM   31  C19 UNL     1       4.547   8.106  10.244  1.00  0.00     0.049 C 
HETATM   32  C20 UNL     1       3.267   9.078  12.115  1.00  0.00     0.049 C 
BRANCH  30  33
HETATM   33  O2  UNL     1       4.234   6.964  12.342  1.00  0.00    -0.388 OA
HETATM   34  H35 UNL     1       4.880   6.405  11.875  1.00  0.00     0.210 HD
ENDBRANCH  30  33
ENDBRANCH   9  30
TORSDOF 6
ENDMDL
MODEL 2
REMARK minimizedAffinity -8.18612099
REMARK  6 active torsions:
REMARK  status: ('A' for Active; 'I' for Inactive)
REMARK    1  A    between atoms: C2_2  and  C3_3 
REMARK    2  A    between atoms: C2_2  and  C9_10 
REMARK    3  A    between atoms: C3_3  and  C4_4 
REMARK    4  A    between atoms: C4_4  and  C5_5 
REMARK    5  A    between atoms: C17_18  and  C18_19 
REMARK    6  A    between atoms: C18_19  and  O2_22 
ROOT
HETATM    1  C9  UNL     1      -5.277   6.762  14.158  1.00  0.00    -0.002 C 
HETATM    2  C10 UNL     1      -4.654   5.970  12.965  1.00  0.00     0.006 C 
HETATM    3  C11 UNL     1      -3.184   6.433  12.828  1.00  0.00     0.011 C 
HETATM    4  C12 UNL     1      -3.109   7.720  13.667  1.00  0.00    -0.032 C 
HETATM    5  C13 UNL     1      -3.715   8.847  12.762  1.00  0.00     0.016 C 
HETATM    6  C14 UNL     1      -1.691   8.115  14.182  1.00  0.00     0.003 C 
HETATM    7  C15 UNL     1      -0.620   8.314  13.097  1.00  0.00     0.009 C 
HETATM    8  C16 UNL     1       0.582   9.138  13.568  1.00  0.00     0.042 C 
HETATM    9  C17 UNL     1       0.990   9.035  15.073  1.00  0.00     0.095 C 
HETATM   10  O3  UNL     1       1.852  10.187  15.226  1.00  0.00    -0.377 OA
HETATM   11  C21 UNL     1       2.289  10.556  16.524  1.00  0.00     0.169 C 
HETATM   12  C22 UNL     1       1.258  10.374  17.623  1.00  0.00     0.027 C 
HETATM   13  C23 UNL     1      -0.145  10.306  17.061  1.00  0.00     0.010 C 
HETATM   14  C24 UNL     1      -0.293   9.199  15.990  1.00  0.00     0.032 C 
HETATM   15  C25 UNL     1      -1.695   9.288  15.227  1.00  0.00    -0.033 C 
HETATM   16  C26 UNL     1      -1.890  10.677  14.547  1.00  0.00     0.016 C 
HETATM   17  C27 UNL     1      -2.844   9.108  16.287  1.00  0.00     0.011 C 
HETATM   18  C28 UNL     1      -4.198   8.577  15.770  1.00  0.00     0.011 C 
HETATM   19  C29 UNL     1      -4.022   7.321  14.899  1.00  0.00    -0.032 C 
HETATM   20  C30 UNL     1      -3.430   6.200  15.805  1.00  0.00     0.016 C 
ENDROOT
BRANCH   1  21
HETATM   21  C2  UNL     1      -6.440   6.011  14.880  1.00  0.00    -0.014 C 
HETATM   22  C1  UNL     1      -7.333   6.855  15.798  1.00  0.00     0.010 C 
BRANCH  21  23
HETATM   23  C3  UNL     1      -7.280   5.188  13.874  1.00  0.00     0.007 C 
BRANCH  23  24
HETATM   24  C4  UNL     1      -7.221   3.666  14.061  1.00  0.00     0.035 C 
BRANCH  24  25
HETATM   25  C5  UNL     1      -7.263   2.897  12.778  1.00  0.00     0.156 A 
HETATM   26  O1  UNL     1      -6.821   3.659  11.639  1.00  0.00    -0.370 OA
HETATM   27  C6  UNL     1      -6.031   2.512  11.966  1.00  0.00     0.080 A 
HETATM   28  C7  UNL     1      -4.646   2.845  12.426  1.00  0.00     0.048 C 
HETATM   29  C8  UNL     1      -6.153   1.391  10.979  1.00  0.00     0.048 C 
ENDBRANCH  24  25
ENDBRANCH  23  24
ENDBRANCH  21  23
ENDBRANCH   1  21
BRANCH   9  30
HETATM   30  C18 UNL     1       1.814   7.667  15.310  1.00  0.00     0.082 C 
HETATM   31  C19 UNL     1       1.590   6.645  14.174  1.00  0.00     0.049 C 
HETATM   32  C20 UNL     1       3.337   7.805  15.472  1.00  0.00     0.049 C 
BRANCH  30  33
HETATM   33  O2  UNL     1       1.403   7.047  16.542  1.00  0.00    -0.388 OA
HETATM   34  H35 UNL     1       0.648   6.463  16.352  1.00  0.00     0.210 HD
ENDBRANCH  30  33
ENDBRANCH   9  30
TORSDOF 6
ENDMDL
MODEL 3
REMARK minimizedAffinity -8.12890911
REMARK  6 active torsions:
REMARK  status: ('A' for Active; 'I' for Inactive)
REMARK    1  A    between atoms: C2_2  and  C3_3 
REMARK    2  A    between atoms: C2_2  and  C9_10 
REMARK    3  A    between atoms: C3_3  and  C4_4 
REMARK    4  A    between atoms: C4_4  and  C5_5 
REMARK    5  A    between atoms: C17_18  and  C18_19 
REMARK    6  A    between atoms: C18_19  and  O2_22 
ROOT
HETATM    1  C9  UNL     1      -1.996   6.882  14.069  1.00  0.00    -0.002 C 
HETATM    2  C10 UNL     1      -2.212   7.112  12.539  1.00  0.00     0.006 C 
HETATM    3  C11 UNL     1      -0.879   7.651  11.967  1.00  0.00     0.011 C 
HETATM    4  C12 UNL     1      -0.073   8.073  13.208  1.00  0.00    -0.032 C 
HETATM    5  C13 UNL     1      -0.645   9.472  13.623  1.00  0.00     0.016 C 
HETATM    6  C14 UNL     1       1.474   8.128  13.027  1.00  0.00     0.003 C 
HETATM    7  C15 UNL     1       1.982   9.064  11.917  1.00  0.00     0.009 C 
HETATM    8  C16 UNL     1       3.454   9.456  12.074  1.00  0.00     0.042 C 
HETATM    9  C17 UNL     1       4.417   8.420  12.737  1.00  0.00     0.095 C 
HETATM   10  O3  UNL     1       5.560   9.244  13.065  1.00  0.00    -0.377 OA
HETATM   11  C21 UNL     1       6.599   8.700  13.863  1.00  0.00     0.169 C 
HETATM   12  C22 UNL     1       6.137   7.771  14.970  1.00  0.00     0.027 C 
HETATM   13  C23 UNL     1       4.679   7.992  15.307  1.00  0.00     0.010 C 
HETATM   14  C24 UNL     1       3.764   7.853  14.066  1.00  0.00     0.032 C 
HETATM   15  C25 UNL     1       2.267   8.325  14.369  1.00  0.00    -0.033 C 
HETATM   16  C26 UNL     1       2.221   9.801  14.867  1.00  0.00     0.016 C 
HETATM   17  C27 UNL     1       1.688   7.415  15.516  1.00  0.00     0.011 C 
HETATM   18  C28 UNL     1       0.154   7.262  15.582  1.00  0.00     0.011 C 
HETATM   19  C29 UNL     1      -0.443   6.902  14.209  1.00  0.00    -0.032 C 
HETATM   20  C30 UNL     1       0.119   5.505  13.805  1.00  0.00     0.016 C 
ENDROOT
BRANCH   1  21
HETATM   21  C2  UNL     1      -2.902   5.764  14.676  1.00  0.00    -0.014 C 
HETATM   22  C1  UNL     1      -4.063   6.231  15.561  1.00  0.00     0.010 C 
BRANCH  21  23
HETATM   23  C3  UNL     1      -3.385   4.783  13.581  1.00  0.00     0.007 C 
BRANCH  23  24
HETATM   24  C4  UNL     1      -4.849   4.947  13.153  1.00  0.00     0.035 C 
BRANCH  24  25
HETATM   25  C5  UNL     1      -5.523   3.660  12.792  1.00  0.00     0.156 A 
HETATM   26  O1  UNL     1      -6.498   3.800  11.742  1.00  0.00    -0.370 OA
HETATM   27  C6  UNL     1      -5.377   2.962  11.444  1.00  0.00     0.080 A 
HETATM   28  C7  UNL     1      -4.490   3.503  10.367  1.00  0.00     0.048 C 
HETATM   29  C8  UNL     1      -5.716   1.505  11.359  1.00  0.00     0.048 C 
ENDBRANCH  24  25
ENDBRANCH  23  24
ENDBRANCH  21  23
ENDBRANCH   1  21
BRANCH   9  30
HETATM   30  C18 UNL     1       4.816   7.293  11.652  1.00  0.00     0.082 C 
HETATM   31  C19 UNL     1       4.805   7.840  10.208  1.00  0.00     0.049 C 
HETATM   32  C20 UNL     1       6.182   6.611  11.844  1.00  0.00     0.049 C 
BRANCH  30  33
HETATM   33  O2  UNL     1       3.887   6.196  11.709  1.00  0.00    -0.388 OA
HETATM   34  H35 UNL     1       3.145   6.394  11.111  1.00  0.00     0.210 HD
ENDBRANCH  30  33
ENDBRANCH   9  30
TORSDOF 6
ENDMDL
MODEL 4
REMARK minimizedAffinity -8.05202103
REMARK  6 active torsions:
REMARK  status: ('A' for Active; 'I' for Inactive)
REMARK    1  A    between atoms: C2_2  and  C3_3 
REMARK    2  A    between atoms: C2_2  and  C9_10 
REMARK    3  A    between atoms: C3_3  and  C4_4 
REMARK    4  A    between atoms: C4_4  and  C5_5 
REMARK    5  A    between atoms: C17_18  and  C18_19 
REMARK    6  A    between atoms: C18_19  and  O2_22 
ROOT
HETATM    1  C9  UNL     1       0.870   6.568  10.809  1.00  0.00    -0.002 C 
HETATM    2  C10 UNL     1      -0.289   5.521  10.785  1.00  0.00     0.006 C 
HETATM    3  C11 UNL     1      -1.144   5.758  12.053  1.00  0.00     0.011 C 
HETATM    4  C12 UNL     1      -0.265   6.650  12.946  1.00  0.00    -0.032 C 
HETATM    5  C13 UNL     1       0.762   5.679  13.626  1.00  0.00     0.016 C 
HETATM    6  C14 UNL     1      -1.020   7.504  14.009  1.00  0.00     0.003 C 
HETATM    7  C15 UNL     1      -1.884   6.713  15.006  1.00  0.00     0.009 C 
HETATM    8  C16 UNL     1      -2.213   7.494  16.282  1.00  0.00     0.042 C 
HETATM    9  C17 UNL     1      -2.353   9.046  16.171  1.00  0.00     0.095 C 
HETATM   10  O3  UNL     1      -2.267   9.452  17.557  1.00  0.00    -0.377 OA
HETATM   11  C21 UNL     1      -2.166  10.833  17.869  1.00  0.00     0.169 C 
HETATM   12  C22 UNL     1      -1.320  11.646  16.906  1.00  0.00     0.027 C 
HETATM   13  C23 UNL     1      -0.378  10.766  16.115  1.00  0.00     0.010 C 
HETATM   14  C24 UNL     1      -1.126   9.639  15.361  1.00  0.00     0.032 C 
HETATM   15  C25 UNL     1      -0.119   8.571  14.729  1.00  0.00    -0.033 C 
HETATM   16  C26 UNL     1       0.792   7.929  15.818  1.00  0.00     0.016 C 
HETATM   17  C27 UNL     1       0.813   9.319  13.704  1.00  0.00     0.011 C 
HETATM   18  C28 UNL     1       1.434   8.472  12.573  1.00  0.00     0.011 C 
HETATM   19  C29 UNL     1       0.377   7.610  11.861  1.00  0.00    -0.032 C 
HETATM   20  C30 UNL     1      -0.635   8.578  11.177  1.00  0.00     0.016 C 
ENDROOT
BRANCH   1  21
HETATM   21  C2  UNL     1       1.402   6.959   9.394  1.00  0.00    -0.014 C 
HETATM   22  C1  UNL     1       0.820   8.234   8.773  1.00  0.00     0.010 C 
BRANCH  21  23
HETATM   23  C3  UNL     1       2.949   6.971   9.365  1.00  0.00     0.007 C 
BRANCH  23  24
HETATM   24  C4  UNL     1       3.629   5.892  10.219  1.00  0.00     0.035 C 
BRANCH  24  25
HETATM   25  C5  UNL     1       4.705   6.418  11.116  1.00  0.00     0.156 A 
HETATM   26  O1  UNL     1       5.932   6.717  10.423  1.00  0.00    -0.370 OA
HETATM   27  C6  UNL     1       5.276   7.830  11.038  1.00  0.00     0.080 A 
HETATM   28  C7  UNL     1       4.757   8.839  10.061  1.00  0.00     0.048 C 
HETATM   29  C8  UNL     1       5.995   8.372  12.234  1.00  0.00     0.048 C 
ENDBRANCH  24  25
ENDBRANCH  23  24
ENDBRANCH  21  23
ENDBRANCH   1  21
BRANCH   9  30
HETATM   30  C18 UNL     1      -3.801   9.409  15.557  1.00  0.00     0.082 C 
HETATM   31  C19 UNL     1      -4.251  10.840  15.925  1.00  0.00     0.049 C 
HETATM   32  C20 UNL     1      -3.945   9.291  14.030  1.00  0.00     0.049 C 
BRANCH  30  33
HETATM   33  O2  UNL     1      -4.796   8.498  16.056  1.00  0.00    -0.388 OA
HETATM   34  H35 UNL     1      -5.149   8.858  16.888  1.00  0.00     0.210 HD
ENDBRANCH  30  33
ENDBRANCH   9  30
TORSDOF 6
ENDMDL
MODEL 5
REMARK minimizedAffinity -7.93748999
REMARK  6 active torsions:
REMARK  status: ('A' for Active; 'I' for Inactive)
REMARK    1  A    between atoms: C2_2  and  C3_3 
REMARK    2  A    between atoms: C2_2  and  C9_10 
REMARK    3  A    between atoms: C3_3  and  C4_4 
REMARK    4  A    between atoms: C4_4  and  C5_5 
REMARK    5  A    between atoms: C17_18  and  C18_19 
REMARK    6  A    between atoms: C18_19  and  O2_22 
ROOT
HETATM    1  C9  UNL     1      -1.944   8.963  15.449  1.00  0.00    -0.002 C 
HETATM    2  C10 UNL     1      -1.041   8.133  16.417  1.00  0.00     0.006 C 
HETATM    3  C11 UNL     1      -0.070   7.308  15.539  1.00  0.00     0.011 C 
HETATM    4  C12 UNL     1      -0.673   7.383  14.126  1.00  0.00    -0.032 C 
HETATM    5  C13 UNL     1      -1.834   6.331  14.110  1.00  0.00     0.016 C 
HETATM    6  C14 UNL     1       0.319   7.144  12.948  1.00  0.00     0.003 C 
HETATM    7  C15 UNL     1       1.060   5.796  12.966  1.00  0.00     0.009 C 
HETATM    8  C16 UNL     1       1.637   5.398  11.604  1.00  0.00     0.042 C 
HETATM    9  C17 UNL     1       2.098   6.542  10.645  1.00  0.00     0.095 C 
HETATM   10  O3  UNL     1       2.198   5.848   9.380  1.00  0.00    -0.377 OA
HETATM   11  C21 UNL     1       2.417   6.597   8.195  1.00  0.00     0.169 C 
HETATM   12  C22 UNL     1       1.702   7.934   8.141  1.00  0.00     0.027 C 
HETATM   13  C23 UNL     1       0.540   7.981   9.110  1.00  0.00     0.010 C 
HETATM   14  C24 UNL     1       0.974   7.657  10.559  1.00  0.00     0.032 C 
HETATM   15  C25 UNL     1      -0.279   7.467  11.533  1.00  0.00    -0.033 C 
HETATM   16  C26 UNL     1      -1.230   6.340  11.027  1.00  0.00     0.016 C 
HETATM   17  C27 UNL     1      -1.098   8.811  11.549  1.00  0.00     0.011 C 
HETATM   18  C28 UNL     1      -1.963   9.090  12.796  1.00  0.00     0.011 C 
HETATM   19  C29 UNL     1      -1.167   8.889  14.098  1.00  0.00    -0.032 C 
HETATM   20  C30 UNL     1      -0.020   9.944  14.116  1.00  0.00     0.016 C 
ENDROOT
BRANCH   1  21
HETATM   21  C2  UNL     1      -2.476  10.295  16.065  1.00  0.00    -0.014 C 
HETATM   22  C1  UNL     1      -3.596  11.004  15.295  1.00  0.00     0.010 C 
BRANCH  21  23
HETATM   23  C3  UNL     1      -2.844  10.111  17.557  1.00  0.00     0.007 C 
BRANCH  23  24
HETATM   24  C4  UNL     1      -2.207  11.121  18.520  1.00  0.00     0.035 C 
BRANCH  24  25
HETATM   25  C5  UNL     1      -0.900  10.671  19.093  1.00  0.00     0.156 A 
HETATM   26  O1  UNL     1       0.236  11.053  18.294  1.00  0.00    -0.370 OA
HETATM   27  C6  UNL     1       0.182  11.614  19.610  1.00  0.00     0.080 A 
HETATM   28  C7  UNL     1      -0.006  13.099  19.625  1.00  0.00     0.048 C 
HETATM   29  C8  UNL     1       1.214  11.064  20.545  1.00  0.00     0.048 C 
ENDBRANCH  24  25
ENDBRANCH  23  24
ENDBRANCH  21  23
ENDBRANCH   1  21
BRANCH   9  30
HETATM   30  C18 UNL     1       3.545   7.082  11.117  1.00  0.00     0.082 C 
HETATM   31  C19 UNL     1       4.161   8.069  10.101  1.00  0.00     0.049 C 
HETATM   32  C20 UNL     1       3.600   7.783  12.485  1.00  0.00     0.049 C 
BRANCH  30  33
HETATM   33  O2  UNL     1       4.461   5.984  11.269  1.00  0.00    -0.388 OA
HETATM   34  H35 UNL     1       4.891   5.825  10.410  1.00  0.00     0.210 HD
ENDBRANCH  30  33
ENDBRANCH   9  30
TORSDOF 6
ENDMDL
MODEL 6
REMARK minimizedAffinity -7.90717268
REMARK  6 active torsions:
REMARK  status: ('A' for Active; 'I' for Inactive)
REMARK    1  A    between atoms: C2_2  and  C3_3 
REMARK    2  A    between atoms: C2_2  and  C9_10 
REMARK    3  A    between atoms: C3_3  and  C4_4 
REMARK    4  A    between atoms: C4_4  and  C5_5 
REMARK    5  A    between atoms: C17_18  and  C18_19 
REMARK    6  A    between atoms: C18_19  and  O2_22 
ROOT
HETATM    1  C9  UNL     1      -0.411   5.821  11.816  1.00  0.00    -0.002 C 
HETATM    2  C10 UNL     1       0.255   4.441  11.517  1.00  0.00     0.006 C 
HETATM    3  C11 UNL     1       1.769   4.698  11.320  1.00  0.00     0.011 C 
HETATM    4  C12 UNL     1       1.876   6.221  11.131  1.00  0.00    -0.032 C 
HETATM    5  C13 UNL     1       1.474   6.487   9.640  1.00  0.00     0.016 C 
HETATM    6  C14 UNL     1       3.262   6.852  11.461  1.00  0.00     0.003 C 
HETATM    7  C15 UNL     1       4.455   6.293  10.666  1.00  0.00     0.009 C 
HETATM    8  C16 UNL     1       5.672   7.221  10.657  1.00  0.00     0.042 C 
HETATM    9  C17 UNL     1       5.911   8.123  11.910  1.00  0.00     0.095 C 
HETATM   10  O3  UNL     1       6.855   9.094  11.403  1.00  0.00    -0.377 OA
HETATM   11  C21 UNL     1       7.188  10.219  12.201  1.00  0.00     0.169 C 
HETATM   12  C22 UNL     1       6.036  10.799  13.001  1.00  0.00     0.027 C 
HETATM   13  C23 UNL     1       4.699  10.386  12.427  1.00  0.00     0.010 C 
HETATM   14  C24 UNL     1       4.560   8.849  12.315  1.00  0.00     0.032 C 
HETATM   15  C25 UNL     1       3.260   8.422  11.489  1.00  0.00    -0.033 C 
HETATM   16  C26 UNL     1       3.266   9.034  10.055  1.00  0.00     0.016 C 
HETATM   17  C27 UNL     1       1.994   8.981  12.242  1.00  0.00     0.011 C 
HETATM   18  C28 UNL     1       0.658   8.245  12.007  1.00  0.00     0.011 C 
HETATM   19  C29 UNL     1       0.806   6.724  12.187  1.00  0.00    -0.032 C 
HETATM   20  C30 UNL     1       1.195   6.462  13.673  1.00  0.00     0.016 C 
ENDROOT
BRANCH   1  21
HETATM   21  C2  UNL     1      -1.708   5.725  12.681  1.00  0.00    -0.014 C 
HETATM   22  C1  UNL     1      -2.607   6.966  12.703  1.00  0.00     0.010 C 
BRANCH  21  23
HETATM   23  C3  UNL     1      -2.513   4.449  12.337  1.00  0.00     0.007 C 
BRANCH  23  24
HETATM   24  C4  UNL     1      -3.870   4.320  13.041  1.00  0.00     0.035 C 
BRANCH  24  25
HETATM   25  C5  UNL     1      -4.928   3.671  12.205  1.00  0.00     0.156 A 
HETATM   26  O1  UNL     1      -4.538   3.488  10.831  1.00  0.00    -0.370 OA
HETATM   27  C6  UNL     1      -4.796   2.290  11.571  1.00  0.00     0.080 A 
HETATM   28  C7  UNL     1      -3.583   1.438  11.780  1.00  0.00     0.048 C 
HETATM   29  C8  UNL     1      -6.046   1.578  11.154  1.00  0.00     0.048 C 
ENDBRANCH  24  25
ENDBRANCH  23  24
ENDBRANCH  21  23
ENDBRANCH   1  21
BRANCH   9  30
HETATM   30  C18 UNL     1       6.575   7.238  13.086  1.00  0.00     0.082 C 
HETATM   31  C19 UNL     1       8.108   7.412  13.155  1.00  0.00     0.049 C 
HETATM   32  C20 UNL     1       6.049   7.486  14.510  1.00  0.00     0.049 C 
BRANCH  30  33
HETATM   33  O2  UNL     1       6.304   5.841  12.870  1.00  0.00    -0.388 OA
HETATM   34  H35 UNL     1       7.011   5.478  12.308  1.00  0.00     0.210 HD
ENDBRANCH  30  33
ENDBRANCH   9  30
TORSDOF 6
ENDMDL
MODEL 7
REMARK minimizedAffinity -7.75531626
REMARK  6 active torsions:
REMARK  status: ('A' for Active; 'I' for Inactive)
REMARK    1  A    between atoms: C2_2  and  C3_3 
REMARK    2  A    between atoms: C2_2  and  C9_10 
REMARK    3  A    between atoms: C3_3  and  C4_4 
REMARK    4  A    between atoms: C4_4  and  C5_5 
REMARK    5  A    between atoms: C17_18  and  C18_19 
REMARK    6  A    between atoms: C18_19  and  O2_22 
ROOT
HETATM    1  C9  UNL     1      -1.128  10.618  16.984  1.00  0.00    -0.002 C 
HETATM    2  C10 UNL     1      -2.285  11.303  17.779  1.00  0.00     0.006 C 
HETATM    3  C11 UNL     1      -3.613  10.702  17.259  1.00  0.00     0.011 C 
HETATM    4  C12 UNL     1      -3.226   9.992  15.951  1.00  0.00    -0.032 C 
HETATM    5  C13 UNL     1      -3.132  11.126  14.872  1.00  0.00     0.016 C 
HETATM    6  C14 UNL     1      -4.181   8.852  15.486  1.00  0.00     0.003 C 
HETATM    7  C15 UNL     1      -5.649   9.260  15.269  1.00  0.00     0.009 C 
HETATM    8  C16 UNL     1      -6.431   8.283  14.386  1.00  0.00     0.042 C 
HETATM    9  C17 UNL     1      -6.028   6.774  14.435  1.00  0.00     0.095 C 
HETATM   10  O3  UNL     1      -6.668   6.257  13.247  1.00  0.00    -0.377 OA
HETATM   11  C21 UNL     1      -6.384   4.931  12.828  1.00  0.00     0.169 C 
HETATM   12  C22 UNL     1      -4.945   4.492  13.026  1.00  0.00     0.027 C 
HETATM   13  C23 UNL     1      -4.017   5.679  13.165  1.00  0.00     0.010 C 
HETATM   14  C24 UNL     1      -4.454   6.633  14.302  1.00  0.00     0.032 C 
HETATM   15  C25 UNL     1      -3.626   8.000  14.289  1.00  0.00    -0.033 C 
HETATM   16  C26 UNL     1      -3.767   8.743  12.926  1.00  0.00     0.016 C 
HETATM   17  C27 UNL     1      -2.103   7.654  14.490  1.00  0.00     0.011 C 
HETATM   18  C28 UNL     1      -1.206   8.759  15.088  1.00  0.00     0.011 C 
HETATM   19  C29 UNL     1      -1.826   9.371  16.357  1.00  0.00    -0.032 C 
HETATM   20  C30 UNL     1      -1.908   8.244  17.431  1.00  0.00     0.016 C 
ENDROOT
BRANCH   1  21
HETATM   21  C2  UNL     1       0.223  10.547  17.764  1.00  0.00    -0.014 C 
HETATM   22  C1  UNL     1       1.407  11.304  17.151  1.00  0.00     0.010 C 
BRANCH  21  23
HETATM   23  C3  UNL     1       0.025  10.918  19.254  1.00  0.00     0.007 C 
BRANCH  23  24
HETATM   24  C4  UNL     1       1.311  11.243  20.025  1.00  0.00     0.035 C 
BRANCH  24  25
HETATM   25  C5  UNL     1       1.915  10.064  20.721  1.00  0.00     0.156 A 
HETATM   26  O1  UNL     1       3.355  10.055  20.684  1.00  0.00    -0.370 OA
HETATM   27  C6  UNL     1       2.765  10.154  21.984  1.00  0.00     0.080 A 
HETATM   28  C7  UNL     1       3.028  11.459  22.667  1.00  0.00     0.048 C 
HETATM   29  C8  UNL     1       2.928   8.921  22.819  1.00  0.00     0.048 C 
ENDBRANCH  24  25
ENDBRANCH  23  24
ENDBRANCH  21  23
ENDBRANCH   1  21
BRANCH   9  30
HETATM   30  C18 UNL     1      -6.651   6.099  15.762  1.00  0.00     0.082 C 
HETATM   31  C19 UNL     1      -7.518   7.089  16.572  1.00  0.00     0.049 C 
HETATM   32  C20 UNL     1      -7.516   4.845  15.550  1.00  0.00     0.049 C 
BRANCH  30  33
HETATM   33  O2  UNL     1      -5.599   5.634  16.626  1.00  0.00    -0.388 OA
HETATM   34  H35 UNL     1      -5.344   6.365  17.216  1.00  0.00     0.210 HD
ENDBRANCH  30  33
ENDBRANCH   9  30
TORSDOF 6
ENDMDL
MODEL 8
REMARK minimizedAffinity -7.70853329
REMARK  6 active torsions:
REMARK  status: ('A' for Active; 'I' for Inactive)
REMARK    1  A    between atoms: C2_2  and  C3_3 
REMARK    2  A    between atoms: C2_2  and  C9_10 
REMARK    3  A    between atoms: C3_3  and  C4_4 
REMARK    4  A    between atoms: C4_4  and  C5_5 
REMARK    5  A    between atoms: C17_18  and  C18_19 
REMARK    6  A    between atoms: C18_19  and  O2_22 
ROOT
HETATM    1  C9  UNL     1      -6.804   6.744  14.714  1.00  0.00    -0.002 C 
HETATM    2  C10 UNL     1      -6.532   7.931  15.691  1.00  0.00     0.006 C 
HETATM    3  C11 UNL     1      -5.005   8.182  15.691  1.00  0.00     0.011 C 
HETATM    4  C12 UNL     1      -4.411   6.923  15.035  1.00  0.00    -0.032 C 
HETATM    5  C13 UNL     1      -4.393   5.833  16.161  1.00  0.00     0.016 C 
HETATM    6  C14 UNL     1      -3.001   7.091  14.393  1.00  0.00     0.003 C 
HETATM    7  C15 UNL     1      -1.891   7.577  15.341  1.00  0.00     0.009 C 
HETATM    8  C16 UNL     1      -0.478   7.282  14.829  1.00  0.00     0.042 C 
HETATM    9  C17 UNL     1      -0.250   7.271  13.283  1.00  0.00     0.095 C 
HETATM   10  O3  UNL     1       1.025   6.598  13.176  1.00  0.00    -0.377 OA
HETATM   11  C21 UNL     1       1.503   6.221  11.894  1.00  0.00     0.169 C 
HETATM   12  C22 UNL     1       0.436   5.736  10.930  1.00  0.00     0.027 C 
HETATM   13  C23 UNL     1      -0.812   5.294  11.662  1.00  0.00     0.010 C 
HETATM   14  C24 UNL     1      -1.376   6.404  12.580  1.00  0.00     0.032 C 
HETATM   15  C25 UNL     1      -2.541   5.862  13.531  1.00  0.00    -0.033 C 
HETATM   16  C26 UNL     1      -2.052   4.676  14.416  1.00  0.00     0.016 C 
HETATM   17  C27 UNL     1      -3.710   5.330  12.621  1.00  0.00     0.011 C 
HETATM   18  C28 UNL     1      -5.125   5.309  13.237  1.00  0.00     0.011 C 
HETATM   19  C29 UNL     1      -5.479   6.655  13.895  1.00  0.00    -0.032 C 
HETATM   20  C30 UNL     1      -5.507   7.734  12.771  1.00  0.00     0.016 C 
ENDROOT
BRANCH   1  21
HETATM   21  C2  UNL     1      -8.221   6.772  14.059  1.00  0.00    -0.014 C 
HETATM   22  C1  UNL     1      -8.602   5.560  13.202  1.00  0.00     0.010 C 
BRANCH  21  23
HETATM   23  C3  UNL     1      -9.313   7.088  15.110  1.00  0.00     0.007 C 
BRANCH  23  24
HETATM   24  C4  UNL     1     -10.756   7.030  14.593  1.00  0.00     0.035 C 
BRANCH  24  25
HETATM   25  C5  UNL     1     -11.147   8.205  13.752  1.00  0.00     0.156 A 
HETATM   26  O1  UNL     1     -11.258   7.892  12.350  1.00  0.00    -0.370 OA
HETATM   27  C6  UNL     1     -12.464   8.318  12.992  1.00  0.00     0.080 A 
HETATM   28  C7  UNL     1     -13.514   7.255  13.069  1.00  0.00     0.048 C 
HETATM   29  C8  UNL     1     -12.926   9.680  12.571  1.00  0.00     0.048 C 
ENDBRANCH  24  25
ENDBRANCH  23  24
ENDBRANCH  21  23
ENDBRANCH   1  21
BRANCH   9  30
HETATM   30  C18 UNL     1      -0.143   8.791  12.750  1.00  0.00     0.082 C 
HETATM   31  C19 UNL     1      -1.179   9.099  11.646  1.00  0.00     0.049 C 
HETATM   32  C20 UNL     1      -0.297   9.899  13.805  1.00  0.00     0.049 C 
BRANCH  30  33
HETATM   33  O2  UNL     1       1.164   9.034  12.201  1.00  0.00    -0.388 OA
HETATM   34  H35 UNL     1       1.149   8.791  11.259  1.00  0.00     0.210 HD
ENDBRANCH  30  33
ENDBRANCH   9  30
TORSDOF 6
ENDMDL
MODEL 9
REMARK minimizedAffinity -7.64967966
REMARK  6 active torsions:
REMARK  status: ('A' for Active; 'I' for Inactive)
REMARK    1  A    between atoms: C2_2  and  C3_3 
REMARK    2  A    between atoms: C2_2  and  C9_10 
REMARK    3  A    between atoms: C3_3  and  C4_4 
REMARK    4  A    between atoms: C4_4  and  C5_5 
REMARK    5  A    between atoms: C17_18  and  C18_19 
REMARK    6  A    between atoms: C18_19  and  O2_22 
ROOT
HETATM    1  C9  UNL     1      -1.640   6.133  12.219  1.00  0.00    -0.002 C 
HETATM    2  C10 UNL     1      -0.259   6.357  11.527  1.00  0.00     0.006 C 
HETATM    3  C11 UNL     1       0.434   7.530  12.262  1.00  0.00     0.011 C 
HETATM    4  C12 UNL     1      -0.691   8.185  13.081  1.00  0.00    -0.032 C 
HETATM    5  C13 UNL     1      -1.481   9.080  12.065  1.00  0.00     0.016 C 
HETATM    6  C14 UNL     1      -0.236   9.011  14.322  1.00  0.00     0.003 C 
HETATM    7  C15 UNL     1       0.737  10.167  14.033  1.00  0.00     0.009 C 
HETATM    8  C16 UNL     1       0.785  11.218  15.146  1.00  0.00     0.042 C 
HETATM    9  C17 UNL     1       0.540  10.739  16.613  1.00  0.00     0.095 C 
HETATM   10  O3  UNL     1       0.274  11.987  17.293  1.00  0.00    -0.377 OA
HETATM   11  C21 UNL     1      -0.186  11.959  18.635  1.00  0.00     0.169 C 
HETATM   12  C22 UNL     1      -1.149  10.832  18.959  1.00  0.00     0.027 C 
HETATM   13  C23 UNL     1      -1.793  10.276  17.708  1.00  0.00     0.010 C 
HETATM   14  C24 UNL     1      -0.746   9.812  16.667  1.00  0.00     0.032 C 
HETATM   15  C25 UNL     1      -1.415   9.457  15.260  1.00  0.00    -0.033 C 
HETATM   16  C26 UNL     1      -2.201  10.670  14.677  1.00  0.00     0.016 C 
HETATM   17  C27 UNL     1      -2.442   8.285  15.486  1.00  0.00     0.011 C 
HETATM   18  C28 UNL     1      -2.765   7.391  14.270  1.00  0.00     0.011 C 
HETATM   19  C29 UNL     1      -1.486   6.903  13.566  1.00  0.00    -0.032 C 
HETATM   20  C30 UNL     1      -0.708   6.006  14.575  1.00  0.00     0.016 C 
ENDROOT
BRANCH   1  21
HETATM   21  C2  UNL     1      -2.168   4.666  12.120  1.00  0.00    -0.014 C 
HETATM   22  C1  UNL     1      -1.108   3.564  12.014  1.00  0.00     0.010 C 
BRANCH  21  23
HETATM   23  C3  UNL     1      -3.187   4.365  13.246  1.00  0.00     0.007 C 
BRANCH  23  24
HETATM   24  C4  UNL     1      -4.423   3.565  12.815  1.00  0.00     0.035 C 
BRANCH  24  25
HETATM   25  C5  UNL     1      -5.556   4.414  12.332  1.00  0.00     0.156 A 
HETATM   26  O1  UNL     1      -6.514   3.690  11.536  1.00  0.00    -0.370 OA
HETATM   27  C6  UNL     1      -7.008   4.236  12.763  1.00  0.00     0.080 A 
HETATM   28  C7  UNL     1      -7.414   3.200  13.764  1.00  0.00     0.048 C 
HETATM   29  C8  UNL     1      -7.950   5.386  12.578  1.00  0.00     0.048 C 
ENDBRANCH  24  25
ENDBRANCH  23  24
ENDBRANCH  21  23
ENDBRANCH   1  21
BRANCH   9  30
HETATM   30  C18 UNL     1       1.886  10.052  17.181  1.00  0.00     0.082 C 
HETATM   31  C19 UNL     1       3.138  10.463  16.374  1.00  0.00     0.049 C 
HETATM   32  C20 UNL     1       2.220  10.319  18.658  1.00  0.00     0.049 C 
BRANCH  30  33
HETATM   33  O2  UNL     1       1.779   8.619  17.118  1.00  0.00    -0.388 OA
HETATM   34  H35 UNL     1       2.095   8.327  16.245  1.00  0.00     0.210 HD
ENDBRANCH  30  33
ENDBRANCH   9  30
TORSDOF 6
ENDMDL
