MODEL 1
REMARK minimizedAffinity -7.45223188
REMARK CNNscore 0.551128268
REMARK CNNaffinity 6.24062681
REMARK  8 active torsions:
REMARK  status: ('A' for Active; 'I' for Inactive)
REMARK    1  A    between atoms: C2_2  and  C3_3 
REMARK    2  A    between atoms: C2_2  and  C9_12 
REMARK    3  A    between atoms: C3_3  and  C4_4 
REMARK    4  A    between atoms: C4_4  and  C5_5 
REMARK    5  A    between atoms: C6_6  and  C7_7 
REMARK    6  A    between atoms: C6_6  and  C8_9 
REMARK    7  A    between atoms: C7_7  and  O1_8 
REMARK    8  A    between atoms: C8_9  and  O3_11 
ROOT
HETATM    1  C9  UNL     1       7.492   9.401  15.178  1.00  0.00    -0.002 C 
HETATM    2  C10 UNL     1       8.542   9.793  14.100  1.00  0.00     0.006 C 
HETATM    3  C11 UNL     1       7.839   9.699  12.725  1.00  0.00     0.011 C 
HETATM    4  C12 UNL     1       6.345   9.538  13.053  1.00  0.00    -0.032 C 
HETATM    5  C13 UNL     1       5.784  10.983  13.304  1.00  0.00     0.016 C 
HETATM    6  C14 UNL     1       5.474   8.824  11.982  1.00  0.00     0.004 C 
HETATM    7  C15 UNL     1       5.491   9.519  10.610  1.00  0.00     0.007 C 
HETATM    8  C16 UNL     1       4.465   8.990   9.598  1.00  0.00     0.007 C 
HETATM    9  C17 UNL     1       3.585   7.824  10.090  1.00  0.00     0.010 C 
HETATM   10  C18 UNL     1       2.475   7.370   9.069  1.00  0.00     0.018 C 
HETATM   11  C19 UNL     1       2.515   5.838   8.871  1.00  0.00     0.023 C 
HETATM   12  C20 UNL     1       2.631   7.983   7.660  1.00  0.00     0.023 C 
HETATM   13  C21 UNL     1       1.076   7.719   9.599  1.00  0.00     0.135 C 
HETATM   14  O4  UNL     1       0.215   8.244   8.885  1.00  0.00    -0.297 OA
HETATM   15  C22 UNL     1       0.716   7.313  11.011  1.00  0.00     0.080 C 
HETATM   16  C23 UNL     1       1.938   7.120  11.896  1.00  0.00     0.018 C 
HETATM   17  C24 UNL     1       3.026   8.092  11.504  1.00  0.00    -0.026 A 
HETATM   18  C25 UNL     1       2.906   9.489  12.081  1.00  0.00     0.021 A 
HETATM   19  C26 UNL     1       4.049   8.595  12.537  1.00  0.00    -0.027 A 
HETATM   20  C27 UNL     1       3.979   8.014  13.960  1.00  0.00     0.011 C 
HETATM   21  C28 UNL     1       5.010   8.577  14.956  1.00  0.00     0.011 C 
HETATM   22  C29 UNL     1       6.417   8.638  14.345  1.00  0.00    -0.032 C 
HETATM   23  C30 UNL     1       6.897   7.177  14.093  1.00  0.00     0.016 C 
ENDROOT
BRANCH   1  24
HETATM   24  C2  UNL     1       8.033   8.734  16.477  1.00  0.00    -0.014 C 
HETATM   25  C1  UNL     1       9.377   8.009  16.350  1.00  0.00     0.010 C 
BRANCH  24  26
HETATM   26  C3  UNL     1       8.104   9.738  17.662  1.00  0.00     0.008 C 
BRANCH  26  27
HETATM   27  C4  UNL     1       8.845  11.049  17.374  1.00  0.00     0.028 C 
BRANCH  27  28
HETATM   28  C5  UNL     1      10.250  11.102  17.918  1.00  0.00    -0.011 C 
HETATM   29  C6  UNL     1      10.677  11.625  19.091  1.00  0.00     0.035 C 
BRANCH  29  30
HETATM   30  C7  UNL     1       9.846  12.323  20.135  1.00  0.00     0.209 C 
BRANCH  30  31
HETATM   31  O1  UNL     1       9.682  11.527  21.308  1.00  0.00    -0.396 OA
HETATM   32  H12 UNL     1       9.428  10.634  21.008  1.00  0.00     0.209 HD
ENDBRANCH  30  31
ENDBRANCH  29  30
BRANCH  29  33
HETATM   33  C8  UNL     1      12.113  11.506  19.463  1.00  0.00     0.173 C 
HETATM   34  O2  UNL     1      12.627  11.941  20.481  1.00  0.00    -0.646 OA
BRANCH  33  35
HETATM   35  O3  UNL     1      12.862  10.890  18.528  1.00  0.00    -0.773 OA
HETATM   36  H13 UNL     1      13.762  10.892  18.914  1.00  0.00     0.167 HD
ENDBRANCH  33  35
ENDBRANCH  29  33
ENDBRANCH  27  28
ENDBRANCH  26  27
ENDBRANCH  24  26
ENDBRANCH   1  24
TORSDOF 8
ENDMDL
MODEL 2
REMARK minimizedAffinity -8.4190855
REMARK CNNscore 0.467183113
REMARK CNNaffinity 6.99194527
REMARK  8 active torsions:
REMARK  status: ('A' for Active; 'I' for Inactive)
REMARK    1  A    between atoms: C2_2  and  C3_3 
REMARK    2  A    between atoms: C2_2  and  C9_12 
REMARK    3  A    between atoms: C3_3  and  C4_4 
REMARK    4  A    between atoms: C4_4  and  C5_5 
REMARK    5  A    between atoms: C6_6  and  C7_7 
REMARK    6  A    between atoms: C6_6  and  C8_9 
REMARK    7  A    between atoms: C7_7  and  O1_8 
REMARK    8  A    between atoms: C8_9  and  O3_11 
ROOT
HETATM    1  C9  UNL     1       0.446   7.702  13.416  1.00  0.00    -0.002 C 
HETATM    2  C10 UNL     1      -0.034   8.660  14.544  1.00  0.00     0.006 C 
HETATM    3  C11 UNL     1      -1.482   8.250  14.902  1.00  0.00     0.011 C 
HETATM    4  C12 UNL     1      -1.702   6.905  14.190  1.00  0.00    -0.032 C 
HETATM    5  C13 UNL     1      -1.097   5.799  15.126  1.00  0.00     0.016 C 
HETATM    6  C14 UNL     1      -3.171   6.540  13.840  1.00  0.00     0.004 C 
HETATM    7  C15 UNL     1      -4.101   6.480  15.065  1.00  0.00     0.007 C 
HETATM    8  C16 UNL     1      -5.494   5.892  14.797  1.00  0.00     0.007 C 
HETATM    9  C17 UNL     1      -5.772   5.473  13.341  1.00  0.00     0.010 C 
HETATM   10  C18 UNL     1      -7.170   4.781  13.117  1.00  0.00     0.018 C 
HETATM   11  C19 UNL     1      -7.916   5.439  11.935  1.00  0.00     0.023 C 
HETATM   12  C20 UNL     1      -8.121   4.885  14.330  1.00  0.00     0.023 C 
HETATM   13  C21 UNL     1      -6.989   3.296  12.766  1.00  0.00     0.135 C 
HETATM   14  O4  UNL     1      -7.670   2.410  13.293  1.00  0.00    -0.297 OA
HETATM   15  C22 UNL     1      -6.017   2.926  11.668  1.00  0.00     0.080 C 
HETATM   16  C23 UNL     1      -4.952   3.990  11.443  1.00  0.00     0.018 C 
HETATM   17  C24 UNL     1      -4.599   4.660  12.750  1.00  0.00    -0.026 A 
HETATM   18  C25 UNL     1      -3.596   3.928  13.621  1.00  0.00     0.021 A 
HETATM   19  C26 UNL     1      -3.198   5.251  12.985  1.00  0.00    -0.027 A 
HETATM   20  C27 UNL     1      -2.197   5.211  11.817  1.00  0.00     0.011 C 
HETATM   21  C28 UNL     1      -0.803   5.791  12.121  1.00  0.00     0.011 C 
HETATM   22  C29 UNL     1      -0.895   7.136  12.857  1.00  0.00    -0.032 C 
HETATM   23  C30 UNL     1      -1.530   8.175  11.884  1.00  0.00     0.016 C 
ENDROOT
BRANCH   1  24
HETATM   24  C2  UNL     1       1.488   8.270  12.408  1.00  0.00    -0.014 C 
HETATM   25  C1  UNL     1       2.291   9.486  12.883  1.00  0.00     0.010 C 
BRANCH  24  26
HETATM   26  C3  UNL     1       2.471   7.173  11.906  1.00  0.00     0.008 C 
BRANCH  26  27
HETATM   27  C4  UNL     1       3.093   7.425  10.527  1.00  0.00     0.028 C 
BRANCH  27  28
HETATM   28  C5  UNL     1       4.229   8.416  10.528  1.00  0.00    -0.011 C 
HETATM   29  C6  UNL     1       5.523   8.209  10.866  1.00  0.00     0.035 C 
BRANCH  29  30
HETATM   30  C7  UNL     1       6.143   6.929  11.364  1.00  0.00     0.209 C 
BRANCH  30  31
HETATM   31  O1  UNL     1       7.202   6.484  10.518  1.00  0.00    -0.396 OA
HETATM   32  H12 UNL     1       6.870   6.533   9.603  1.00  0.00     0.209 HD
ENDBRANCH  30  31
ENDBRANCH  29  30
BRANCH  29  33
HETATM   33  C8  UNL     1       6.501   9.322  10.727  1.00  0.00     0.173 C 
HETATM   34  O2  UNL     1       6.384  10.289   9.991  1.00  0.00    -0.646 OA
BRANCH  33  35
HETATM   35  O3  UNL     1       7.609   9.162  11.476  1.00  0.00    -0.773 OA
HETATM   36  H13 UNL     1       8.141   9.960  11.276  1.00  0.00     0.167 HD
ENDBRANCH  33  35
ENDBRANCH  29  33
ENDBRANCH  27  28
ENDBRANCH  26  27
ENDBRANCH  24  26
ENDBRANCH   1  24
TORSDOF 8
ENDMDL
MODEL 3
REMARK minimizedAffinity -8.47881508
REMARK CNNscore 0.418367922
REMARK CNNaffinity 6.50021219
REMARK  8 active torsions:
REMARK  status: ('A' for Active; 'I' for Inactive)
REMARK    1  A    between atoms: C2_2  and  C3_3 
REMARK    2  A    between atoms: C2_2  and  C9_12 
REMARK    3  A    between atoms: C3_3  and  C4_4 
REMARK    4  A    between atoms: C4_4  and  C5_5 
REMARK    5  A    between atoms: C6_6  and  C7_7 
REMARK    6  A    between atoms: C6_6  and  C8_9 
REMARK    7  A    between atoms: C7_7  and  O1_8 
REMARK    8  A    between atoms: C8_9  and  O3_11 
ROOT
HETATM    1  C9  UNL     1       0.079   9.674  16.313  1.00  0.00    -0.002 C 
HETATM    2  C10 UNL     1      -1.137  10.422  15.695  1.00  0.00     0.006 C 
HETATM    3  C11 UNL     1      -1.154  10.093  14.183  1.00  0.00     0.011 C 
HETATM    4  C12 UNL     1      -0.137   8.952  14.014  1.00  0.00    -0.032 C 
HETATM    5  C13 UNL     1      -0.894   7.623  14.369  1.00  0.00     0.016 C 
HETATM    6  C14 UNL     1       0.521   8.814  12.613  1.00  0.00     0.004 C 
HETATM    7  C15 UNL     1      -0.491   8.597  11.475  1.00  0.00     0.007 C 
HETATM    8  C16 UNL     1       0.124   8.218  10.120  1.00  0.00     0.007 C 
HETATM    9  C17 UNL     1       1.662   8.137  10.086  1.00  0.00     0.010 C 
HETATM   10  C18 UNL     1       2.259   7.648   8.712  1.00  0.00     0.018 C 
HETATM   11  C19 UNL     1       3.375   8.606   8.235  1.00  0.00     0.023 C 
HETATM   12  C20 UNL     1       1.227   7.595   7.565  1.00  0.00     0.023 C 
HETATM   13  C21 UNL     1       2.893   6.257   8.861  1.00  0.00     0.135 C 
HETATM   14  O4  UNL     1       2.694   5.354   8.043  1.00  0.00    -0.297 OA
HETATM   15  C22 UNL     1       3.871   6.026   9.992  1.00  0.00     0.080 C 
HETATM   16  C23 UNL     1       3.679   7.001  11.144  1.00  0.00     0.018 C 
HETATM   17  C24 UNL     1       2.216   7.350  11.294  1.00  0.00    -0.026 A 
HETATM   18  C25 UNL     1       1.375   6.359  12.075  1.00  0.00     0.021 A 
HETATM   19  C26 UNL     1       1.631   7.738  12.663  1.00  0.00    -0.027 A 
HETATM   20  C27 UNL     1       2.598   7.839  13.855  1.00  0.00     0.011 C 
HETATM   21  C28 UNL     1       1.949   8.204  15.203  1.00  0.00     0.011 C 
HETATM   22  C29 UNL     1       0.961   9.371  15.063  1.00  0.00    -0.032 C 
HETATM   23  C30 UNL     1       1.773  10.646  14.681  1.00  0.00     0.016 C 
ENDROOT
BRANCH   1  24
HETATM   24  C2  UNL     1       0.752  10.330  17.553  1.00  0.00    -0.014 C 
HETATM   25  C1  UNL     1       1.995  11.181  17.273  1.00  0.00     0.010 C 
BRANCH  24  26
HETATM   26  C3  UNL     1      -0.259  11.164  18.392  1.00  0.00     0.008 C 
BRANCH  26  27
HETATM   27  C4  UNL     1       0.190  11.504  19.819  1.00  0.00     0.028 C 
BRANCH  27  28
HETATM   28  C5  UNL     1       0.884  10.376  20.539  1.00  0.00    -0.011 C 
HETATM   29  C6  UNL     1       2.038  10.414  21.243  1.00  0.00     0.035 C 
BRANCH  29  30
HETATM   30  C7  UNL     1       2.942  11.601  21.452  1.00  0.00     0.209 C 
BRANCH  30  31
HETATM   31  O1  UNL     1       2.429  12.778  20.830  1.00  0.00    -0.396 OA
HETATM   32  H12 UNL     1       2.165  12.526  19.926  1.00  0.00     0.209 HD
ENDBRANCH  30  31
ENDBRANCH  29  30
BRANCH  29  33
HETATM   33  C8  UNL     1       2.510   9.185  21.937  1.00  0.00     0.173 C 
HETATM   34  O2  UNL     1       1.835   8.198  22.183  1.00  0.00    -0.646 OA
BRANCH  33  35
HETATM   35  O3  UNL     1       3.795   9.253  22.338  1.00  0.00    -0.773 OA
HETATM   36  H13 UNL     1       3.949   8.386  22.769  1.00  0.00     0.167 HD
ENDBRANCH  33  35
ENDBRANCH  29  33
ENDBRANCH  27  28
ENDBRANCH  26  27
ENDBRANCH  24  26
ENDBRANCH   1  24
TORSDOF 8
ENDMDL
MODEL 4
REMARK minimizedAffinity -7.36360598
REMARK CNNscore 0.408598155
REMARK CNNaffinity 6.6665597
REMARK  8 active torsions:
REMARK  status: ('A' for Active; 'I' for Inactive)
REMARK    1  A    between atoms: C2_2  and  C3_3 
REMARK    2  A    between atoms: C2_2  and  C9_12 
REMARK    3  A    between atoms: C3_3  and  C4_4 
REMARK    4  A    between atoms: C4_4  and  C5_5 
REMARK    5  A    between atoms: C6_6  and  C7_7 
REMARK    6  A    between atoms: C6_6  and  C8_9 
REMARK    7  A    between atoms: C7_7  and  O1_8 
REMARK    8  A    between atoms: C8_9  and  O3_11 
ROOT
HETATM    1  C9  UNL     1      -1.511   9.129  15.680  1.00  0.00    -0.002 C 
HETATM    2  C10 UNL     1      -2.474  10.009  14.832  1.00  0.00     0.006 C 
HETATM    3  C11 UNL     1      -2.090   9.804  13.348  1.00  0.00     0.011 C 
HETATM    4  C12 UNL     1      -1.120   8.611  13.349  1.00  0.00    -0.032 C 
HETATM    5  C13 UNL     1      -2.006   7.315  13.357  1.00  0.00     0.016 C 
HETATM    6  C14 UNL     1      -0.108   8.539  12.172  1.00  0.00     0.004 C 
HETATM    7  C15 UNL     1      -0.778   8.486  10.787  1.00  0.00     0.007 C 
HETATM    8  C16 UNL     1       0.168   8.175   9.619  1.00  0.00     0.007 C 
HETATM    9  C17 UNL     1       1.651   7.987   9.993  1.00  0.00     0.010 C 
HETATM   10  C18 UNL     1       2.579   7.569   8.791  1.00  0.00     0.018 C 
HETATM   11  C19 UNL     1       3.826   8.480   8.727  1.00  0.00     0.023 C 
HETATM   12  C20 UNL     1       1.901   7.682   7.408  1.00  0.00     0.023 C 
HETATM   13  C21 UNL     1       3.083   6.128   8.970  1.00  0.00     0.135 C 
HETATM   14  O4  UNL     1       3.074   5.310   8.045  1.00  0.00    -0.297 OA
HETATM   15  C22 UNL     1       3.699   5.738  10.295  1.00  0.00     0.080 C 
HETATM   16  C23 UNL     1       3.243   6.630  11.441  1.00  0.00     0.018 C 
HETATM   17  C24 UNL     1       1.814   7.069  11.224  1.00  0.00    -0.026 A 
HETATM   18  C25 UNL     1       0.745   6.081  11.649  1.00  0.00     0.021 A 
HETATM   19  C26 UNL     1       0.893   7.386  12.415  1.00  0.00    -0.027 A 
HETATM   20  C27 UNL     1       1.498   7.322  13.828  1.00  0.00     0.011 C 
HETATM   21  C28 UNL     1       0.521   7.623  14.980  1.00  0.00     0.011 C 
HETATM   22  C29 UNL     1      -0.334   8.865  14.692  1.00  0.00    -0.032 C 
HETATM   23  C30 UNL     1       0.610  10.105  14.667  1.00  0.00     0.016 C 
ENDROOT
BRANCH   1  24
HETATM   24  C2  UNL     1      -1.176   9.634  17.114  1.00  0.00    -0.014 C 
HETATM   25  C1  UNL     1      -0.516  11.014  17.203  1.00  0.00     0.010 C 
BRANCH  24  26
HETATM   26  C3  UNL     1      -2.418   9.600  18.049  1.00  0.00     0.008 C 
BRANCH  26  27
HETATM   27  C4  UNL     1      -2.846  10.955  18.627  1.00  0.00     0.028 C 
BRANCH  27  28
HETATM   28  C5  UNL     1      -3.869  11.689  17.798  1.00  0.00    -0.011 C 
HETATM   29  C6  UNL     1      -3.959  13.018  17.560  1.00  0.00     0.035 C 
BRANCH  29  30
HETATM   30  C7  UNL     1      -3.069  14.105  18.103  1.00  0.00     0.209 C 
BRANCH  30  31
HETATM   31  O1  UNL     1      -2.103  13.595  19.021  1.00  0.00    -0.396 OA
HETATM   32  H12 UNL     1      -2.582  13.012  19.638  1.00  0.00     0.209 HD
ENDBRANCH  30  31
ENDBRANCH  29  30
BRANCH  29  33
HETATM   33  C8  UNL     1      -5.019  13.525  16.647  1.00  0.00     0.173 C 
HETATM   34  O2  UNL     1      -4.877  13.793  15.465  1.00  0.00    -0.646 OA
BRANCH  33  35
HETATM   35  O3  UNL     1      -6.205  13.724  17.257  1.00  0.00    -0.773 OA
HETATM   36  H13 UNL     1      -6.783  14.052  16.537  1.00  0.00     0.167 HD
ENDBRANCH  33  35
ENDBRANCH  29  33
ENDBRANCH  27  28
ENDBRANCH  26  27
ENDBRANCH  24  26
ENDBRANCH   1  24
TORSDOF 8
ENDMDL
MODEL 5
REMARK minimizedAffinity -7.05704975
REMARK CNNscore 0.402817935
REMARK CNNaffinity 6.47717905
REMARK  8 active torsions:
REMARK  status: ('A' for Active; 'I' for Inactive)
REMARK    1  A    between atoms: C2_2  and  C3_3 
REMARK    2  A    between atoms: C2_2  and  C9_12 
REMARK    3  A    between atoms: C3_3  and  C4_4 
REMARK    4  A    between atoms: C4_4  and  C5_5 
REMARK    5  A    between atoms: C6_6  and  C7_7 
REMARK    6  A    between atoms: C6_6  and  C8_9 
REMARK    7  A    between atoms: C7_7  and  O1_8 
REMARK    8  A    between atoms: C8_9  and  O3_11 
ROOT
HETATM    1  C9  UNL     1     -13.412 -12.840  27.669  1.00  0.00    -0.002 C 
HETATM    2  C10 UNL     1     -14.888 -13.254  27.928  1.00  0.00     0.006 C 
HETATM    3  C11 UNL     1     -15.617 -12.011  28.494  1.00  0.00     0.011 C 
HETATM    4  C12 UNL     1     -14.636 -10.846  28.284  1.00  0.00    -0.032 C 
HETATM    5  C13 UNL     1     -14.833 -10.357  26.804  1.00  0.00     0.016 C 
HETATM    6  C14 UNL     1     -14.778  -9.638  29.251  1.00  0.00     0.004 C 
HETATM    7  C15 UNL     1     -16.169  -8.980  29.214  1.00  0.00     0.007 C 
HETATM    8  C16 UNL     1     -16.278  -7.647  29.968  1.00  0.00     0.007 C 
HETATM    9  C17 UNL     1     -14.993  -7.174  30.676  1.00  0.00     0.010 C 
HETATM   10  C18 UNL     1     -15.107  -5.757  31.355  1.00  0.00     0.018 C 
HETATM   11  C19 UNL     1     -14.602  -5.814  32.815  1.00  0.00     0.023 C 
HETATM   12  C20 UNL     1     -16.550  -5.211  31.427  1.00  0.00     0.023 C 
HETATM   13  C21 UNL     1     -14.235  -4.730  30.616  1.00  0.00     0.135 C 
HETATM   14  O4  UNL     1     -14.650  -3.604  30.326  1.00  0.00    -0.297 OA
HETATM   15  C22 UNL     1     -12.792  -5.082  30.328  1.00  0.00     0.080 C 
HETATM   16  C23 UNL     1     -12.547  -6.583  30.302  1.00  0.00     0.018 C 
HETATM   17  C24 UNL     1     -13.760  -7.301  29.756  1.00  0.00    -0.026 A 
HETATM   18  C25 UNL     1     -13.873  -7.355  28.245  1.00  0.00     0.021 A 
HETATM   19  C26 UNL     1     -13.619  -8.642  29.014  1.00  0.00    -0.027 A 
HETATM   20  C27 UNL     1     -12.218  -9.268  28.920  1.00  0.00     0.011 C 
HETATM   21  C28 UNL     1     -12.137 -10.595  28.143  1.00  0.00     0.011 C 
HETATM   22  C29 UNL     1     -13.257 -11.562  28.550  1.00  0.00    -0.032 C 
HETATM   23  C30 UNL     1     -13.018 -11.980  30.032  1.00  0.00     0.016 C 
ENDROOT
BRANCH   1  24
HETATM   24  C2  UNL     1     -12.336 -13.958  27.792  1.00  0.00    -0.014 C 
HETATM   25  C1  UNL     1     -12.865 -15.378  28.018  1.00  0.00     0.010 C 
BRANCH  24  26
HETATM   26  C3  UNL     1     -11.359 -13.963  26.582  1.00  0.00     0.008 C 
BRANCH  26  27
HETATM   27  C4  UNL     1      -9.905 -13.596  26.905  1.00  0.00     0.028 C 
BRANCH  27  28
HETATM   28  C5  UNL     1      -9.263 -12.665  25.908  1.00  0.00    -0.011 C 
HETATM   29  C6  UNL     1      -8.544 -12.980  24.806  1.00  0.00     0.035 C 
BRANCH  29  30
HETATM   30  C7  UNL     1      -8.176 -14.358  24.321  1.00  0.00     0.209 C 
BRANCH  30  31
HETATM   31  O1  UNL     1      -6.762 -14.551  24.283  1.00  0.00    -0.396 OA
HETATM   32  H12 UNL     1      -6.384 -13.768  23.843  1.00  0.00     0.209 HD
ENDBRANCH  30  31
ENDBRANCH  29  30
BRANCH  29  33
HETATM   33  C8  UNL     1      -8.057 -11.892  23.916  1.00  0.00     0.173 C 
HETATM   34  O2  UNL     1      -6.951 -11.828  23.403  1.00  0.00    -0.646 OA
BRANCH  33  35
HETATM   35  O3  UNL     1      -8.951 -10.900  23.740  1.00  0.00    -0.773 OA
HETATM   36  H13 UNL     1      -8.489 -10.275  23.144  1.00  0.00     0.167 HD
ENDBRANCH  33  35
ENDBRANCH  29  33
ENDBRANCH  27  28
ENDBRANCH  26  27
ENDBRANCH  24  26
ENDBRANCH   1  24
TORSDOF 8
ENDMDL
MODEL 6
REMARK minimizedAffinity -8.91700077
REMARK CNNscore 0.387186706
REMARK CNNaffinity 7.19051504
REMARK  8 active torsions:
REMARK  status: ('A' for Active; 'I' for Inactive)
REMARK    1  A    between atoms: C2_2  and  C3_3 
REMARK    2  A    between atoms: C2_2  and  C9_12 
REMARK    3  A    between atoms: C3_3  and  C4_4 
REMARK    4  A    between atoms: C4_4  and  C5_5 
REMARK    5  A    between atoms: C6_6  and  C7_7 
REMARK    6  A    between atoms: C6_6  and  C8_9 
REMARK    7  A    between atoms: C7_7  and  O1_8 
REMARK    8  A    between atoms: C8_9  and  O3_11 
ROOT
HETATM    1  C9  UNL     1      -4.706   5.657  14.027  1.00  0.00    -0.002 C 
HETATM    2  C10 UNL     1      -4.269   6.385  15.330  1.00  0.00     0.006 C 
HETATM    3  C11 UNL     1      -5.527   7.072  15.912  1.00  0.00     0.011 C 
HETATM    4  C12 UNL     1      -6.703   6.499  15.102  1.00  0.00    -0.032 C 
HETATM    5  C13 UNL     1      -7.076   5.126  15.768  1.00  0.00     0.016 C 
HETATM    6  C14 UNL     1      -7.973   7.388  15.002  1.00  0.00     0.004 C 
HETATM    7  C15 UNL     1      -8.586   7.743  16.368  1.00  0.00     0.007 C 
HETATM    8  C16 UNL     1      -9.966   8.413  16.308  1.00  0.00     0.007 C 
HETATM    9  C17 UNL     1     -10.527   8.658  14.894  1.00  0.00     0.010 C 
HETATM   10  C18 UNL     1     -11.986   9.253  14.865  1.00  0.00     0.018 C 
HETATM   11  C19 UNL     1     -12.050  10.485  13.935  1.00  0.00     0.023 C 
HETATM   12  C20 UNL     1     -12.493   9.734  16.242  1.00  0.00     0.023 C 
HETATM   13  C21 UNL     1     -12.981   8.220  14.314  1.00  0.00     0.135 C 
HETATM   14  O4  UNL     1     -14.070   8.005  14.855  1.00  0.00    -0.297 OA
HETATM   15  C22 UNL     1     -12.652   7.522  13.013  1.00  0.00     0.080 C 
HETATM   16  C23 UNL     1     -11.160   7.511  12.713  1.00  0.00     0.018 C 
HETATM   17  C24 UNL     1     -10.370   7.411  13.997  1.00  0.00    -0.026 A 
HETATM   18  C25 UNL     1     -10.202   6.015  14.565  1.00  0.00     0.021 A 
HETATM   19  C26 UNL     1      -8.983   6.745  14.023  1.00  0.00    -0.027 A 
HETATM   20  C27 UNL     1      -8.393   6.260  12.688  1.00  0.00     0.011 C 
HETATM   21  C28 UNL     1      -7.016   5.577  12.783  1.00  0.00     0.011 C 
HETATM   22  C29 UNL     1      -6.048   6.368  13.674  1.00  0.00    -0.032 C 
HETATM   23  C30 UNL     1      -5.747   7.727  12.971  1.00  0.00     0.016 C 
ENDROOT
BRANCH   1  24
HETATM   24  C2  UNL     1      -3.631   5.509  12.910  1.00  0.00    -0.014 C 
HETATM   25  C1  UNL     1      -2.177   5.417  13.384  1.00  0.00     0.010 C 
BRANCH  24  26
HETATM   26  C3  UNL     1      -3.936   4.313  11.962  1.00  0.00     0.008 C 
BRANCH  26  27
HETATM   27  C4  UNL     1      -3.766   2.920  12.581  1.00  0.00     0.028 C 
BRANCH  27  28
HETATM   28  C5  UNL     1      -2.921   1.976  11.764  1.00  0.00    -0.011 C 
HETATM   29  C6  UNL     1      -1.707   2.201  11.210  1.00  0.00     0.035 C 
BRANCH  29  30
HETATM   30  C7  UNL     1      -0.911   3.479  11.244  1.00  0.00     0.209 C 
BRANCH  30  31
HETATM   31  O1  UNL     1       0.491   3.232  11.344  1.00  0.00    -0.396 OA
HETATM   32  H12 UNL     1       0.611   2.571  12.050  1.00  0.00     0.209 HD
ENDBRANCH  30  31
ENDBRANCH  29  30
BRANCH  29  33
HETATM   33  C8  UNL     1      -1.016   1.094  10.495  1.00  0.00     0.173 C 
HETATM   34  O2  UNL     1      -0.343   0.217  11.014  1.00  0.00    -0.646 OA
BRANCH  33  35
HETATM   35  O3  UNL     1      -1.150   1.152   9.156  1.00  0.00    -0.773 OA
HETATM   36  H13 UNL     1      -0.648   0.372   8.839  1.00  0.00     0.167 HD
ENDBRANCH  33  35
ENDBRANCH  29  33
ENDBRANCH  27  28
ENDBRANCH  26  27
ENDBRANCH  24  26
ENDBRANCH   1  24
TORSDOF 8
ENDMDL
MODEL 7
REMARK minimizedAffinity -7.37003183
REMARK CNNscore 0.38662976
REMARK CNNaffinity 6.0230732
REMARK  8 active torsions:
REMARK  status: ('A' for Active; 'I' for Inactive)
REMARK    1  A    between atoms: C2_2  and  C3_3 
REMARK    2  A    between atoms: C2_2  and  C9_12 
REMARK    3  A    between atoms: C3_3  and  C4_4 
REMARK    4  A    between atoms: C4_4  and  C5_5 
REMARK    5  A    between atoms: C6_6  and  C7_7 
REMARK    6  A    between atoms: C6_6  and  C8_9 
REMARK    7  A    between atoms: C7_7  and  O1_8 
REMARK    8  A    between atoms: C8_9  and  O3_11 
ROOT
HETATM    1  C9  UNL     1       8.371  11.289  12.788  1.00  0.00    -0.002 C 
HETATM    2  C10 UNL     1       7.917  11.370  14.274  1.00  0.00     0.006 C 
HETATM    3  C11 UNL     1       6.634  10.515  14.404  1.00  0.00     0.011 C 
HETATM    4  C12 UNL     1       6.536   9.739  13.080  1.00  0.00    -0.032 C 
HETATM    5  C13 UNL     1       7.460   8.478  13.233  1.00  0.00     0.016 C 
HETATM    6  C14 UNL     1       5.114   9.290  12.644  1.00  0.00     0.004 C 
HETATM    7  C15 UNL     1       4.412   8.384  13.671  1.00  0.00     0.007 C 
HETATM    8  C16 UNL     1       3.115   7.727  13.179  1.00  0.00     0.007 C 
HETATM    9  C17 UNL     1       2.687   8.087  11.744  1.00  0.00     0.010 C 
HETATM   10  C18 UNL     1       1.410   7.321  11.231  1.00  0.00     0.018 C 
HETATM   11  C19 UNL     1       0.386   8.312  10.633  1.00  0.00     0.023 C 
HETATM   12  C20 UNL     1       0.656   6.551  12.338  1.00  0.00     0.023 C 
HETATM   13  C21 UNL     1       1.782   6.331  10.117  1.00  0.00     0.135 C 
HETATM   14  O4  UNL     1       1.353   5.173  10.097  1.00  0.00    -0.297 OA
HETATM   15  C22 UNL     1       2.619   6.828   8.959  1.00  0.00     0.080 C 
HETATM   16  C23 UNL     1       3.440   8.059   9.313  1.00  0.00     0.018 C 
HETATM   17  C24 UNL     1       3.874   8.000  10.759  1.00  0.00    -0.026 A 
HETATM   18  C25 UNL     1       5.110   7.170  11.046  1.00  0.00     0.021 A 
HETATM   19  C26 UNL     1       5.174   8.679  11.224  1.00  0.00    -0.027 A 
HETATM   20  C27 UNL     1       5.972   9.489  10.188  1.00  0.00     0.011 C 
HETATM   21  C28 UNL     1       7.276  10.122  10.707  1.00  0.00     0.011 C 
HETATM   22  C29 UNL     1       7.075  10.815  12.062  1.00  0.00    -0.032 C 
HETATM   23  C30 UNL     1       6.127  12.034  11.844  1.00  0.00     0.016 C 
ENDROOT
BRANCH   1  24
HETATM   24  C2  UNL     1       9.130  12.522  12.217  1.00  0.00    -0.014 C 
HETATM   25  C1  UNL     1       9.348  13.687  13.188  1.00  0.00     0.010 C 
BRANCH  24  26
HETATM   26  C3  UNL     1      10.494  12.124  11.582  1.00  0.00     0.008 C 
BRANCH  26  27
HETATM   27  C4  UNL     1      10.736  12.641  10.159  1.00  0.00     0.028 C 
BRANCH  27  28
HETATM   28  C5  UNL     1      10.369  11.664   9.071  1.00  0.00    -0.011 C 
HETATM   29  C6  UNL     1      11.083  11.323   7.973  1.00  0.00     0.035 C 
BRANCH  29  30
HETATM   30  C7  UNL     1      12.419  11.872   7.546  1.00  0.00     0.209 C 
BRANCH  30  31
HETATM   31  O1  UNL     1      13.490  11.330   8.317  1.00  0.00    -0.396 OA
HETATM   32  H12 UNL     1      13.222  11.389   9.252  1.00  0.00     0.209 HD
ENDBRANCH  30  31
ENDBRANCH  29  30
BRANCH  29  33
HETATM   33  C8  UNL     1      10.557  10.274   7.058  1.00  0.00     0.173 C 
HETATM   34  O2  UNL     1      10.156   9.170   7.390  1.00  0.00    -0.646 OA
BRANCH  33  35
HETATM   35  O3  UNL     1      10.596  10.626   5.758  1.00  0.00    -0.773 OA
HETATM   36  H13 UNL     1      10.225   9.846   5.296  1.00  0.00     0.167 HD
ENDBRANCH  33  35
ENDBRANCH  29  33
ENDBRANCH  27  28
ENDBRANCH  26  27
ENDBRANCH  24  26
ENDBRANCH   1  24
TORSDOF 8
ENDMDL
MODEL 8
REMARK minimizedAffinity -8.11258984
REMARK CNNscore 0.339737326
REMARK CNNaffinity 7.19060373
REMARK  8 active torsions:
REMARK  status: ('A' for Active; 'I' for Inactive)
REMARK    1  A    between atoms: C2_2  and  C3_3 
REMARK    2  A    between atoms: C2_2  and  C9_12 
REMARK    3  A    between atoms: C3_3  and  C4_4 
REMARK    4  A    between atoms: C4_4  and  C5_5 
REMARK    5  A    between atoms: C6_6  and  C7_7 
REMARK    6  A    between atoms: C6_6  and  C8_9 
REMARK    7  A    between atoms: C7_7  and  O1_8 
REMARK    8  A    between atoms: C8_9  and  O3_11 
ROOT
HETATM    1  C9  UNL     1      -4.871   5.513  14.336  1.00  0.00    -0.002 C 
HETATM    2  C10 UNL     1      -4.444   6.352  15.574  1.00  0.00     0.006 C 
HETATM    3  C11 UNL     1      -5.691   7.139  16.043  1.00  0.00     0.011 C 
HETATM    4  C12 UNL     1      -6.864   6.529  15.257  1.00  0.00    -0.032 C 
HETATM    5  C13 UNL     1      -7.309   5.245  16.043  1.00  0.00     0.016 C 
HETATM    6  C14 UNL     1      -8.095   7.449  15.027  1.00  0.00     0.004 C 
HETATM    7  C15 UNL     1      -8.733   7.961  16.330  1.00  0.00     0.007 C 
HETATM    8  C16 UNL     1     -10.084   8.670  16.158  1.00  0.00     0.007 C 
HETATM    9  C17 UNL     1     -10.594   8.791  14.709  1.00  0.00     0.010 C 
HETATM   10  C18 UNL     1     -12.027   9.431  14.573  1.00  0.00     0.018 C 
HETATM   11  C19 UNL     1     -12.017  10.564  13.523  1.00  0.00     0.023 C 
HETATM   12  C20 UNL     1     -12.555  10.067  15.878  1.00  0.00     0.023 C 
HETATM   13  C21 UNL     1     -13.045   8.384  14.096  1.00  0.00     0.135 C 
HETATM   14  O4  UNL     1     -14.157   8.263  14.619  1.00  0.00    -0.297 OA
HETATM   15  C22 UNL     1     -12.706   7.547  12.882  1.00  0.00     0.080 C 
HETATM   16  C23 UNL     1     -11.208   7.453  12.634  1.00  0.00     0.018 C 
HETATM   17  C24 UNL     1     -10.459   7.455  13.946  1.00  0.00    -0.026 A 
HETATM   18  C25 UNL     1     -10.362   6.119  14.657  1.00  0.00     0.021 A 
HETATM   19  C26 UNL     1      -9.101   6.746  14.085  1.00  0.00    -0.027 A 
HETATM   20  C27 UNL     1      -8.492   6.108  12.824  1.00  0.00     0.011 C 
HETATM   21  C28 UNL     1      -7.145   5.390  13.032  1.00  0.00     0.011 C 
HETATM   22  C29 UNL     1      -6.173   6.232  13.871  1.00  0.00    -0.032 C 
HETATM   23  C30 UNL     1      -5.799   7.501  13.046  1.00  0.00     0.016 C 
ENDROOT
BRANCH   1  24
HETATM   24  C2  UNL     1      -3.771   5.215  13.276  1.00  0.00    -0.014 C 
HETATM   25  C1  UNL     1      -4.219   4.416  12.047  1.00  0.00     0.010 C 
BRANCH  24  26
HETATM   26  C3  UNL     1      -3.047   6.510  12.807  1.00  0.00     0.008 C 
BRANCH  26  27
HETATM   27  C4  UNL     1      -1.569   6.620  13.202  1.00  0.00     0.028 C 
BRANCH  27  28
HETATM   28  C5  UNL     1      -0.606   6.140  12.147  1.00  0.00    -0.011 C 
HETATM   29  C6  UNL     1       0.088   6.873  11.246  1.00  0.00     0.035 C 
BRANCH  29  30
HETATM   30  C7  UNL     1       0.037   8.366  11.052  1.00  0.00     0.209 C 
BRANCH  30  31
HETATM   31  O1  UNL     1       0.801   9.059  12.038  1.00  0.00    -0.396 OA
HETATM   32  H12 UNL     1       0.558   8.678  12.902  1.00  0.00     0.209 HD
ENDBRANCH  30  31
ENDBRANCH  29  30
BRANCH  29  33
HETATM   33  C8  UNL     1       1.046   6.193  10.333  1.00  0.00     0.173 C 
HETATM   34  O2  UNL     1       1.527   6.668   9.317  1.00  0.00    -0.646 OA
BRANCH  33  35
HETATM   35  O3  UNL     1       1.330   4.927  10.698  1.00  0.00    -0.773 OA
HETATM   36  H13 UNL     1       1.959   4.624  10.010  1.00  0.00     0.167 HD
ENDBRANCH  33  35
ENDBRANCH  29  33
ENDBRANCH  27  28
ENDBRANCH  26  27
ENDBRANCH  24  26
ENDBRANCH   1  24
TORSDOF 8
ENDMDL
MODEL 9
REMARK minimizedAffinity -8.57755756
REMARK CNNscore 0.308604777
REMARK CNNaffinity 6.86135101
REMARK  8 active torsions:
REMARK  status: ('A' for Active; 'I' for Inactive)
REMARK    1  A    between atoms: C2_2  and  C3_3 
REMARK    2  A    between atoms: C2_2  and  C9_12 
REMARK    3  A    between atoms: C3_3  and  C4_4 
REMARK    4  A    between atoms: C4_4  and  C5_5 
REMARK    5  A    between atoms: C6_6  and  C7_7 
REMARK    6  A    between atoms: C6_6  and  C8_9 
REMARK    7  A    between atoms: C7_7  and  O1_8 
REMARK    8  A    between atoms: C8_9  and  O3_11 
ROOT
HETATM    1  C9  UNL     1      -0.587   9.127  14.496  1.00  0.00    -0.002 C 
HETATM    2  C10 UNL     1      -1.385  10.350  15.031  1.00  0.00     0.006 C 
HETATM    3  C11 UNL     1      -2.879   9.949  15.042  1.00  0.00     0.011 C 
HETATM    4  C12 UNL     1      -2.885   8.432  14.791  1.00  0.00    -0.032 C 
HETATM    5  C13 UNL     1      -2.633   7.748  16.182  1.00  0.00     0.016 C 
HETATM    6  C14 UNL     1      -4.171   7.842  14.150  1.00  0.00     0.004 C 
HETATM    7  C15 UNL     1      -5.445   8.098  14.975  1.00  0.00     0.007 C 
HETATM    8  C16 UNL     1      -6.690   7.332  14.505  1.00  0.00     0.007 C 
HETATM    9  C17 UNL     1      -6.495   6.441  13.263  1.00  0.00     0.010 C 
HETATM   10  C18 UNL     1      -7.760   5.590  12.866  1.00  0.00     0.018 C 
HETATM   11  C19 UNL     1      -8.077   5.759  11.363  1.00  0.00     0.023 C 
HETATM   12  C20 UNL     1      -9.048   5.994  13.618  1.00  0.00     0.023 C 
HETATM   13  C21 UNL     1      -7.505   4.094  13.107  1.00  0.00     0.135 C 
HETATM   14  O4  UNL     1      -8.335   3.368  13.664  1.00  0.00    -0.297 OA
HETATM   15  C22 UNL     1      -6.240   3.478  12.553  1.00  0.00     0.080 C 
HETATM   16  C23 UNL     1      -5.139   4.503  12.324  1.00  0.00     0.018 C 
HETATM   17  C24 UNL     1      -5.211   5.590  13.371  1.00  0.00    -0.026 A 
HETATM   18  C25 UNL     1      -4.553   5.273  14.700  1.00  0.00     0.021 A 
HETATM   19  C26 UNL     1      -3.947   6.349  13.813  1.00  0.00    -0.027 A 
HETATM   20  C27 UNL     1      -2.626   6.024  13.095  1.00  0.00     0.011 C 
HETATM   21  C28 UNL     1      -1.392   6.795  13.599  1.00  0.00     0.011 C 
HETATM   22  C29 UNL     1      -1.689   8.292  13.775  1.00  0.00    -0.032 C 
HETATM   23  C30 UNL     1      -1.960   8.898  12.365  1.00  0.00     0.016 C 
ENDROOT
BRANCH   1  24
HETATM   24  C2  UNL     1       0.733   9.430  13.728  1.00  0.00    -0.014 C 
HETATM   25  C1  UNL     1       1.614  10.537  14.316  1.00  0.00     0.010 C 
BRANCH  24  26
HETATM   26  C3  UNL     1       1.593   8.150  13.519  1.00  0.00     0.008 C 
BRANCH  26  27
HETATM   27  C4  UNL     1       2.120   7.934  12.095  1.00  0.00     0.028 C 
BRANCH  27  28
HETATM   28  C5  UNL     1       3.588   7.598  12.019  1.00  0.00    -0.011 C 
HETATM   29  C6  UNL     1       4.201   6.687  11.229  1.00  0.00     0.035 C 
BRANCH  29  30
HETATM   30  C7  UNL     1       3.553   5.748  10.246  1.00  0.00     0.209 C 
BRANCH  30  31
HETATM   31  O1  UNL     1       4.468   4.766   9.762  1.00  0.00    -0.396 OA
HETATM   32  H12 UNL     1       5.281   5.241   9.510  1.00  0.00     0.209 HD
ENDBRANCH  30  31
ENDBRANCH  29  30
BRANCH  29  33
HETATM   33  C8  UNL     1       5.684   6.568  11.268  1.00  0.00     0.173 C 
HETATM   34  O2  UNL     1       6.460   7.014  10.438  1.00  0.00    -0.646 OA
BRANCH  33  35
HETATM   35  O3  UNL     1       6.138   5.855  12.318  1.00  0.00    -0.773 OA
HETATM   36  H13 UNL     1       7.111   5.868  12.202  1.00  0.00     0.167 HD
ENDBRANCH  33  35
ENDBRANCH  29  33
ENDBRANCH  27  28
ENDBRANCH  26  27
ENDBRANCH  24  26
ENDBRANCH   1  24
TORSDOF 8
ENDMDL
