MODEL 1
REMARK minimizedAffinity -6.2379365
REMARK CNNscore 0.401751578
REMARK CNNaffinity 6.3391757
REMARK  0 active torsions:
REMARK  status: ('A' for Active; 'I' for Inactive)
ROOT
HETATM    1  C1  UNL     1      -1.046  14.474   4.250  1.00  0.00     0.023 C 
HETATM    2  C2  UNL     1      -0.885  14.046   2.782  1.00  0.00     0.017 C 
HETATM    3  C3  UNL     1      -1.038  12.503   2.735  1.00  0.00     0.023 C 
HETATM    4  C4  UNL     1      -2.055  14.646   1.982  1.00  0.00     0.135 C 
HETATM    5  O1  UNL     1      -3.110  14.033   1.803  1.00  0.00    -0.297 OA
HETATM    6  C5  UNL     1      -1.939  16.078   1.520  1.00  0.00     0.080 C 
HETATM    7  C6  UNL     1      -0.591  16.339   0.861  1.00  0.00     0.017 C 
HETATM    8  C7  UNL     1       0.647  15.965   1.732  1.00  0.00    -0.035 C 
HETATM    9  C8  UNL     1       0.639  16.917   2.961  1.00  0.00     0.016 C 
HETATM   10  C9  UNL     1       0.481  14.453   2.117  1.00  0.00     0.009 C 
HETATM   11  C10 UNL     1       1.717  13.945   2.882  1.00  0.00     0.007 C 
HETATM   12  C11 UNL     1       2.959  14.025   2.002  1.00  0.00     0.011 C 
HETATM   13  C12 UNL     1       3.328  15.447   1.504  1.00  0.00    -0.032 C 
HETATM   14  C13 UNL     1       3.810  16.258   2.741  1.00  0.00     0.016 C 
HETATM   15  C14 UNL     1       2.031  16.194   0.923  1.00  0.00     0.003 C 
HETATM   16  C15 UNL     1       1.903  15.957  -0.593  1.00  0.00     0.006 C 
HETATM   17  C16 UNL     1       3.111  16.445  -1.397  1.00  0.00     0.006 C 
HETATM   18  C17 UNL     1       4.407  16.581  -0.591  1.00  0.00    -0.000 C 
HETATM   19  C18 UNL     1       5.650  16.768  -1.503  1.00  0.00     0.009 C 
HETATM   20  C19 UNL     1       5.726  17.955  -2.489  1.00  0.00     0.067 A 
HETATM   21  C20 UNL     1       7.260  18.183  -2.668  1.00  0.00     0.140 A 
HETATM   22  C21 UNL     1       7.970  17.190  -1.741  1.00  0.00     0.042 C 
HETATM   23  C22 UNL     1       6.931  16.931  -0.648  1.00  0.00    -0.037 C 
HETATM   24  C23 UNL     1       6.919  18.148   0.314  1.00  0.00     0.015 C 
HETATM   25  C24 UNL     1       7.159  15.635   0.136  1.00  0.00     0.010 C 
HETATM   26  C25 UNL     1       5.977  15.358   1.080  1.00  0.00     0.011 C 
HETATM   27  C26 UNL     1       4.555  15.363   0.400  1.00  0.00    -0.032 C 
HETATM   28  C27 UNL     1       4.520  14.026  -0.416  1.00  0.00     0.016 C 
HETATM   29  O2  UNL     1       7.639  17.922  -4.026  1.00  0.00    -0.313 OA
HETATM   30  C28 UNL     1       6.534  17.655  -4.775  1.00  0.00     0.297 A 
HETATM   31  O3  UNL     1       6.525  17.440  -5.975  1.00  0.00    -0.262 OA
HETATM   32  C29 UNL     1       5.347  17.719  -3.910  1.00  0.00     0.175 A 
HETATM   33  C30 UNL     1       4.017  18.176  -4.461  1.00  0.00     0.218 A 
HETATM   34  O4  UNL     1       4.290  16.797  -4.174  1.00  0.00    -0.364 OA
ENDROOT
TORSDOF 0
ENDMDL
MODEL 2
REMARK minimizedAffinity -6.5935297
REMARK CNNscore 0.352572858
REMARK CNNaffinity 5.55779505
REMARK  0 active torsions:
REMARK  status: ('A' for Active; 'I' for Inactive)
ROOT
HETATM    1  C1  UNL     1     -16.457  -7.950   9.356  1.00  0.00     0.023 C 
HETATM    2  C2  UNL     1     -15.558  -8.635   8.313  1.00  0.00     0.017 C 
HETATM    3  C3  UNL     1     -16.308  -9.900   7.821  1.00  0.00     0.023 C 
HETATM    4  C4  UNL     1     -15.423  -7.686   7.108  1.00  0.00     0.135 C 
HETATM    5  O1  UNL     1     -16.188  -7.738   6.142  1.00  0.00    -0.297 OA
HETATM    6  C5  UNL     1     -14.399  -6.581   7.185  1.00  0.00     0.080 C 
HETATM    7  C6  UNL     1     -13.051  -7.108   7.663  1.00  0.00     0.017 C 
HETATM    8  C7  UNL     1     -13.094  -7.883   9.016  1.00  0.00    -0.035 C 
HETATM    9  C8  UNL     1     -13.507  -6.857  10.110  1.00  0.00     0.016 C 
HETATM   10  C9  UNL     1     -14.131  -9.045   8.832  1.00  0.00     0.009 C 
HETATM   11  C10 UNL     1     -14.163  -9.951  10.076  1.00  0.00     0.007 C 
HETATM   12  C11 UNL     1     -12.809 -10.620  10.284  1.00  0.00     0.011 C 
HETATM   13  C12 UNL     1     -11.617  -9.650  10.500  1.00  0.00    -0.032 C 
HETATM   14  C13 UNL     1     -11.815  -8.980  11.891  1.00  0.00     0.016 C 
HETATM   15  C14 UNL     1     -11.638  -8.478   9.403  1.00  0.00     0.003 C 
HETATM   16  C15 UNL     1     -10.789  -8.867   8.179  1.00  0.00     0.006 C 
HETATM   17  C16 UNL     1      -9.323  -9.155   8.514  1.00  0.00     0.006 C 
HETATM   18  C17 UNL     1      -9.058  -9.527   9.976  1.00  0.00    -0.000 C 
HETATM   19  C18 UNL     1      -7.634 -10.109  10.187  1.00  0.00     0.009 C 
HETATM   20  C19 UNL     1      -6.386  -9.280   9.807  1.00  0.00     0.067 A 
HETATM   21  C20 UNL     1      -5.273  -9.847  10.743  1.00  0.00     0.140 A 
HETATM   22  C21 UNL     1      -5.938 -10.894  11.644  1.00  0.00     0.042 C 
HETATM   23  C22 UNL     1      -7.399 -10.443  11.681  1.00  0.00    -0.037 C 
HETATM   24  C23 UNL     1      -7.513  -9.231  12.643  1.00  0.00     0.015 C 
HETATM   25  C24 UNL     1      -8.382 -11.544  12.091  1.00  0.00     0.010 C 
HETATM   26  C25 UNL     1      -9.834 -11.064  11.924  1.00  0.00     0.011 C 
HETATM   27  C26 UNL     1     -10.193 -10.489  10.500  1.00  0.00    -0.032 C 
HETATM   28  C27 UNL     1     -10.260 -11.758   9.584  1.00  0.00     0.016 C 
HETATM   29  O2  UNL     1      -4.247 -10.474   9.960  1.00  0.00    -0.313 OA
HETATM   30  C28 UNL     1      -4.499 -10.297   8.634  1.00  0.00     0.297 A 
HETATM   31  O3  UNL     1      -3.784 -10.672   7.720  1.00  0.00    -0.262 OA
HETATM   32  C29 UNL     1      -5.746  -9.532   8.485  1.00  0.00     0.175 A 
HETATM   33  C30 UNL     1      -5.938  -8.591   7.320  1.00  0.00     0.218 A 
HETATM   34  O4  UNL     1      -6.593  -9.865   7.386  1.00  0.00    -0.364 OA
ENDROOT
TORSDOF 0
ENDMDL
MODEL 3
REMARK minimizedAffinity -7.90939951
REMARK CNNscore 0.306251287
REMARK CNNaffinity 6.62047625
REMARK  0 active torsions:
REMARK  status: ('A' for Active; 'I' for Inactive)
ROOT
HETATM    1  C1  UNL     1       4.305   7.347  10.402  1.00  0.00     0.023 C 
HETATM    2  C2  UNL     1       2.974   7.024   9.703  1.00  0.00     0.017 C 
HETATM    3  C3  UNL     1       2.912   7.888   8.415  1.00  0.00     0.023 C 
HETATM    4  C4  UNL     1       3.016   5.550   9.262  1.00  0.00     0.135 C 
HETATM    5  O1  UNL     1       3.418   5.209   8.147  1.00  0.00    -0.297 OA
HETATM    6  C5  UNL     1       2.672   4.494  10.283  1.00  0.00     0.080 C 
HETATM    7  C6  UNL     1       1.389   4.841  11.028  1.00  0.00     0.017 C 
HETATM    8  C7  UNL     1       1.385   6.248  11.702  1.00  0.00    -0.035 C 
HETATM    9  C8  UNL     1       2.470   6.218  12.816  1.00  0.00     0.016 C 
HETATM   10  C9  UNL     1       1.688   7.287  10.568  1.00  0.00     0.009 C 
HETATM   11  C10 UNL     1       1.588   8.727  11.104  1.00  0.00     0.007 C 
HETATM   12  C11 UNL     1       0.170   9.021  11.581  1.00  0.00     0.011 C 
HETATM   13  C12 UNL     1      -0.347   8.109  12.725  1.00  0.00    -0.032 C 
HETATM   14  C13 UNL     1       0.460   8.473  14.005  1.00  0.00     0.016 C 
HETATM   15  C14 UNL     1      -0.044   6.567  12.396  1.00  0.00     0.003 C 
HETATM   16  C15 UNL     1      -1.237   5.924  11.668  1.00  0.00     0.006 C 
HETATM   17  C16 UNL     1      -2.544   5.974  12.464  1.00  0.00     0.006 C 
HETATM   18  C17 UNL     1      -2.599   7.060  13.543  1.00  0.00    -0.000 C 
HETATM   19  C18 UNL     1      -4.035   7.272  14.093  1.00  0.00     0.009 C 
HETATM   20  C19 UNL     1      -4.806   6.099  14.740  1.00  0.00     0.067 A 
HETATM   21  C20 UNL     1      -5.800   6.808  15.713  1.00  0.00     0.140 A 
HETATM   22  C21 UNL     1      -5.505   8.311  15.634  1.00  0.00     0.042 C 
HETATM   23  C22 UNL     1      -4.040   8.356  15.199  1.00  0.00    -0.037 C 
HETATM   24  C23 UNL     1      -3.153   8.030  16.430  1.00  0.00     0.015 C 
HETATM   25  C24 UNL     1      -3.614   9.688  14.574  1.00  0.00     0.010 C 
HETATM   26  C25 UNL     1      -2.191   9.586  13.999  1.00  0.00     0.011 C 
HETATM   27  C26 UNL     1      -1.953   8.392  12.998  1.00  0.00    -0.032 C 
HETATM   28  C27 UNL     1      -2.700   8.834  11.694  1.00  0.00     0.016 C 
HETATM   29  O2  UNL     1      -7.151   6.564  15.298  1.00  0.00    -0.313 OA
HETATM   30  C28 UNL     1      -7.165   5.705  14.242  1.00  0.00     0.297 A 
HETATM   31  O3  UNL     1      -8.165   5.269  13.696  1.00  0.00    -0.262 OA
HETATM   32  C29 UNL     1      -5.781   5.346  13.902  1.00  0.00     0.175 A 
HETATM   33  C30 UNL     1      -5.455   3.983  13.340  1.00  0.00     0.218 A 
HETATM   34  O4  UNL     1      -5.470   5.160  12.521  1.00  0.00    -0.364 OA
ENDROOT
TORSDOF 0
ENDMDL
MODEL 4
REMARK minimizedAffinity -6.40949488
REMARK CNNscore 0.302170634
REMARK CNNaffinity 5.94551802
REMARK  0 active torsions:
REMARK  status: ('A' for Active; 'I' for Inactive)
ROOT
HETATM    1  C1  UNL     1      -7.615 -11.805  -2.850  1.00  0.00     0.023 C 
HETATM    2  C2  UNL     1      -6.547 -12.354  -1.891  1.00  0.00     0.017 C 
HETATM    3  C3  UNL     1      -6.451 -13.883  -2.140  1.00  0.00     0.023 C 
HETATM    4  C4  UNL     1      -5.193 -11.740  -2.288  1.00  0.00     0.135 C 
HETATM    5  O1  UNL     1      -4.430 -12.292  -3.084  1.00  0.00    -0.297 OA
HETATM    6  C5  UNL     1      -4.862 -10.360  -1.777  1.00  0.00     0.080 C 
HETATM    7  C6  UNL     1      -5.138 -10.242  -0.284  1.00  0.00     0.017 C 
HETATM    8  C7  UNL     1      -6.585 -10.630   0.147  1.00  0.00    -0.035 C 
HETATM    9  C8  UNL     1      -7.543  -9.587  -0.496  1.00  0.00     0.016 C 
HETATM   10  C9  UNL     1      -6.826 -12.093  -0.365  1.00  0.00     0.009 C 
HETATM   11  C10 UNL     1      -8.190 -12.623   0.113  1.00  0.00     0.007 C 
HETATM   12  C11 UNL     1      -8.230 -12.695   1.635  1.00  0.00     0.011 C 
HETATM   13  C12 UNL     1      -8.022 -11.344   2.369  1.00  0.00    -0.032 C 
HETATM   14  C13 UNL     1      -9.284 -10.474   2.097  1.00  0.00     0.016 C 
HETATM   15  C14 UNL     1      -6.764 -10.558   1.756  1.00  0.00     0.003 C 
HETATM   16  C15 UNL     1      -5.480 -10.902   2.532  1.00  0.00     0.006 C 
HETATM   17  C16 UNL     1      -5.551 -10.560   4.023  1.00  0.00     0.006 C 
HETATM   18  C17 UNL     1      -6.970 -10.450   4.590  1.00  0.00    -0.000 C 
HETATM   19  C18 UNL     1      -6.983 -10.418   6.142  1.00  0.00     0.009 C 
HETATM   20  C19 UNL     1      -6.214  -9.318   6.908  1.00  0.00     0.067 A 
HETATM   21  C20 UNL     1      -6.987  -9.209   8.261  1.00  0.00     0.140 A 
HETATM   22  C21 UNL     1      -8.175 -10.173   8.175  1.00  0.00     0.042 C 
HETATM   23  C22 UNL     1      -8.431 -10.277   6.671  1.00  0.00    -0.037 C 
HETATM   24  C23 UNL     1      -9.168  -8.991   6.211  1.00  0.00     0.015 C 
HETATM   25  C24 UNL     1      -9.223 -11.521   6.256  1.00  0.00     0.010 C 
HETATM   26  C25 UNL     1      -9.275 -11.644   4.724  1.00  0.00     0.011 C 
HETATM   27  C26 UNL     1      -7.877 -11.595   3.996  1.00  0.00    -0.032 C 
HETATM   28  C27 UNL     1      -7.233 -12.986   4.320  1.00  0.00     0.016 C 
HETATM   29  O2  UNL     1      -6.133  -9.599   9.346  1.00  0.00    -0.313 OA
HETATM   30  C28 UNL     1      -4.877  -9.848   8.884  1.00  0.00     0.297 A 
HETATM   31  O3  UNL     1      -3.916 -10.154   9.570  1.00  0.00    -0.262 OA
HETATM   32  C29 UNL     1      -4.855  -9.637   7.428  1.00  0.00     0.175 A 
HETATM   33  C30 UNL     1      -3.607  -9.136   6.742  1.00  0.00     0.218 A 
HETATM   34  O4  UNL     1      -4.029 -10.504   6.651  1.00  0.00    -0.364 OA
ENDROOT
TORSDOF 0
ENDMDL
MODEL 5
REMARK minimizedAffinity -6.31996012
REMARK CNNscore 0.256061494
REMARK CNNaffinity 5.55262375
REMARK  0 active torsions:
REMARK  status: ('A' for Active; 'I' for Inactive)
ROOT
HETATM    1  C1  UNL     1      -2.672 -12.345   2.319  1.00  0.00     0.023 C 
HETATM    2  C2  UNL     1      -3.841 -11.346   2.312  1.00  0.00     0.017 C 
HETATM    3  C3  UNL     1      -3.328 -10.045   1.640  1.00  0.00     0.023 C 
HETATM    4  C4  UNL     1      -4.949 -11.920   1.412  1.00  0.00     0.135 C 
HETATM    5  O1  UNL     1      -5.020 -11.656   0.209  1.00  0.00    -0.297 OA
HETATM    6  C5  UNL     1      -5.893 -12.935   2.007  1.00  0.00     0.080 C 
HETATM    7  C6  UNL     1      -6.424 -12.472   3.357  1.00  0.00     0.017 C 
HETATM    8  C7  UNL     1      -5.325 -12.100   4.400  1.00  0.00    -0.035 C 
HETATM    9  C8  UNL     1      -4.552 -13.409   4.728  1.00  0.00     0.016 C 
HETATM   10  C9  UNL     1      -4.429 -11.001   3.730  1.00  0.00     0.009 C 
HETATM   11  C10 UNL     1      -3.378 -10.472   4.723  1.00  0.00     0.007 C 
HETATM   12  C11 UNL     1      -4.057  -9.799   5.910  1.00  0.00     0.011 C 
HETATM   13  C12 UNL     1      -4.999 -10.712   6.739  1.00  0.00    -0.032 C 
HETATM   14  C13 UNL     1      -4.102 -11.746   7.480  1.00  0.00     0.016 C 
HETATM   15  C14 UNL     1      -5.977 -11.539   5.772  1.00  0.00     0.003 C 
HETATM   16  C15 UNL     1      -7.298 -10.777   5.559  1.00  0.00     0.006 C 
HETATM   17  C16 UNL     1      -8.064 -10.497   6.854  1.00  0.00     0.006 C 
HETATM   18  C17 UNL     1      -7.208 -10.521   8.125  1.00  0.00    -0.000 C 
HETATM   19  C18 UNL     1      -7.956  -9.928   9.350  1.00  0.00     0.009 C 
HETATM   20  C19 UNL     1      -9.296 -10.539   9.819  1.00  0.00     0.067 A 
HETATM   21  C20 UNL     1      -9.349 -10.178  11.337  1.00  0.00     0.140 A 
HETATM   22  C21 UNL     1      -8.036  -9.461  11.672  1.00  0.00     0.042 C 
HETATM   23  C22 UNL     1      -7.068  -9.998  10.616  1.00  0.00    -0.037 C 
HETATM   24  C23 UNL     1      -6.639 -11.431  11.029  1.00  0.00     0.015 C 
HETATM   25  C24 UNL     1      -5.835  -9.117  10.392  1.00  0.00     0.010 C 
HETATM   26  C25 UNL     1      -5.015  -9.627   9.195  1.00  0.00     0.011 C 
HETATM   27  C26 UNL     1      -5.825  -9.814   7.855  1.00  0.00    -0.032 C 
HETATM   28  C27 UNL     1      -6.080  -8.350   7.358  1.00  0.00     0.016 C 
HETATM   29  O2  UNL     1     -10.452  -9.297  11.593  1.00  0.00    -0.313 OA
HETATM   30  C28 UNL     1     -11.181  -9.122  10.457  1.00  0.00     0.297 A 
HETATM   31  O3  UNL     1     -12.205  -8.466  10.366  1.00  0.00    -0.262 OA
HETATM   32  C29 UNL     1     -10.562  -9.896   9.371  1.00  0.00     0.175 A 
HETATM   33  C30 UNL     1     -11.409 -10.494   8.273  1.00  0.00     0.218 A 
HETATM   34  O4  UNL     1     -10.597  -9.332   8.060  1.00  0.00    -0.364 OA
ENDROOT
TORSDOF 0
ENDMDL
MODEL 6
REMARK minimizedAffinity -6.27169752
REMARK CNNscore 0.235337675
REMARK CNNaffinity 6.29784966
REMARK  0 active torsions:
REMARK  status: ('A' for Active; 'I' for Inactive)
ROOT
HETATM    1  C1  UNL     1     -20.816  -9.057  21.834  1.00  0.00     0.023 C 
HETATM    2  C2  UNL     1     -19.801  -7.908  21.941  1.00  0.00     0.017 C 
HETATM    3  C3  UNL     1     -19.185  -7.707  20.531  1.00  0.00     0.023 C 
HETATM    4  C4  UNL     1     -20.575  -6.623  22.288  1.00  0.00     0.135 C 
HETATM    5  O1  UNL     1     -21.000  -5.858  21.420  1.00  0.00    -0.297 OA
HETATM    6  C5  UNL     1     -20.926  -6.375  23.734  1.00  0.00     0.080 C 
HETATM    7  C6  UNL     1     -19.722  -6.589  24.641  1.00  0.00     0.017 C 
HETATM    8  C7  UNL     1     -19.035  -7.982  24.498  1.00  0.00    -0.035 C 
HETATM    9  C8  UNL     1     -20.063  -9.045  24.980  1.00  0.00     0.016 C 
HETATM   10  C9  UNL     1     -18.647  -8.135  22.986  1.00  0.00     0.009 C 
HETATM   11  C10 UNL     1     -17.850  -9.432  22.753  1.00  0.00     0.007 C 
HETATM   12  C11 UNL     1     -16.537  -9.395  23.525  1.00  0.00     0.011 C 
HETATM   13  C12 UNL     1     -16.676  -9.257  25.065  1.00  0.00    -0.032 C 
HETATM   14  C13 UNL     1     -17.275 -10.592  25.594  1.00  0.00     0.016 C 
HETATM   15  C14 UNL     1     -17.717  -8.091  25.433  1.00  0.00     0.003 C 
HETATM   16  C15 UNL     1     -16.984  -6.750  25.620  1.00  0.00     0.006 C 
HETATM   17  C16 UNL     1     -15.919  -6.779  26.720  1.00  0.00     0.006 C 
HETATM   18  C17 UNL     1     -15.392  -8.174  27.069  1.00  0.00    -0.000 C 
HETATM   19  C18 UNL     1     -14.112  -8.118  27.946  1.00  0.00     0.009 C 
HETATM   20  C19 UNL     1     -14.132  -7.400  29.314  1.00  0.00     0.067 A 
HETATM   21  C20 UNL     1     -13.001  -8.116  30.118  1.00  0.00     0.140 A 
HETATM   22  C21 UNL     1     -12.452  -9.230  29.220  1.00  0.00     0.042 C 
HETATM   23  C22 UNL     1     -13.632  -9.547  28.299  1.00  0.00    -0.037 C 
HETATM   24  C23 UNL     1     -14.657 -10.399  29.093  1.00  0.00     0.015 C 
HETATM   25  C24 UNL     1     -13.238 -10.260  27.002  1.00  0.00     0.010 C 
HETATM   26  C25 UNL     1     -14.446 -10.374  26.058  1.00  0.00     0.011 C 
HETATM   27  C26 UNL     1     -15.192  -9.019  25.752  1.00  0.00    -0.032 C 
HETATM   28  C27 UNL     1     -14.216  -8.256  24.792  1.00  0.00     0.016 C 
HETATM   29  O2  UNL     1     -11.951  -7.186  30.419  1.00  0.00    -0.313 OA
HETATM   30  C28 UNL     1     -12.301  -5.937  30.006  1.00  0.00     0.297 A 
HETATM   31  O3  UNL     1     -11.639  -4.926  30.163  1.00  0.00    -0.262 OA
HETATM   32  C29 UNL     1     -13.633  -5.999  29.385  1.00  0.00     0.175 A 
HETATM   33  C30 UNL     1     -14.579  -4.825  29.475  1.00  0.00     0.218 A 
HETATM   34  O4  UNL     1     -13.877  -5.146  28.266  1.00  0.00    -0.364 OA
ENDROOT
TORSDOF 0
ENDMDL
MODEL 7
REMARK minimizedAffinity -8.57985497
REMARK CNNscore 0.221882105
REMARK CNNaffinity 5.51788855
REMARK  0 active torsions:
REMARK  status: ('A' for Active; 'I' for Inactive)
ROOT
HETATM    1  C1  UNL     1      -2.097  12.182  17.625  1.00  0.00     0.023 C 
HETATM    2  C2  UNL     1      -0.958  11.204  17.292  1.00  0.00     0.017 C 
HETATM    3  C3  UNL     1      -1.533   9.769  17.425  1.00  0.00     0.023 C 
HETATM    4  C4  UNL     1      -0.575  11.409  15.816  1.00  0.00     0.135 C 
HETATM    5  O1  UNL     1      -1.091  10.754  14.907  1.00  0.00    -0.297 OA
HETATM    6  C5  UNL     1       0.368  12.536  15.477  1.00  0.00     0.080 C 
HETATM    7  C6  UNL     1       1.582  12.539  16.397  1.00  0.00     0.017 C 
HETATM    8  C7  UNL     1       1.247  12.571  17.920  1.00  0.00    -0.035 C 
HETATM    9  C8  UNL     1       0.559  13.937  18.203  1.00  0.00     0.016 C 
HETATM   10  C9  UNL     1       0.319  11.339  18.200  1.00  0.00     0.009 C 
HETATM   11  C10 UNL     1       0.025  11.206  19.705  1.00  0.00     0.007 C 
HETATM   12  C11 UNL     1       1.312  10.951  20.480  1.00  0.00     0.011 C 
HETATM   13  C12 UNL     1       2.390  12.061  20.358  1.00  0.00    -0.032 C 
HETATM   14  C13 UNL     1       1.851  13.310  21.114  1.00  0.00     0.016 C 
HETATM   15  C14 UNL     1       2.590  12.485  18.823  1.00  0.00     0.003 C 
HETATM   16  C15 UNL     1       3.714  11.657  18.174  1.00  0.00     0.006 C 
HETATM   17  C16 UNL     1       5.069  11.806  18.871  1.00  0.00     0.006 C 
HETATM   18  C17 UNL     1       4.996  12.281  20.326  1.00  0.00    -0.000 C 
HETATM   19  C18 UNL     1       6.348  12.112  21.070  1.00  0.00     0.009 C 
HETATM   20  C19 UNL     1       7.624  12.805  20.540  1.00  0.00     0.067 A 
HETATM   21  C20 UNL     1       8.504  12.974  21.819  1.00  0.00     0.140 A 
HETATM   22  C21 UNL     1       7.679  12.451  23.000  1.00  0.00     0.042 C 
HETATM   23  C22 UNL     1       6.237  12.630  22.524  1.00  0.00    -0.037 C 
HETATM   24  C23 UNL     1       5.863  14.131  22.652  1.00  0.00     0.015 C 
HETATM   25  C24 UNL     1       5.219  11.763  23.272  1.00  0.00     0.010 C 
HETATM   26  C25 UNL     1       3.833  11.864  22.613  1.00  0.00     0.011 C 
HETATM   27  C26 UNL     1       3.800  11.566  21.065  1.00  0.00    -0.032 C 
HETATM   28  C27 UNL     1       3.989  10.014  20.973  1.00  0.00     0.016 C 
HETATM   29  O2  UNL     1       9.704  12.197  21.693  1.00  0.00    -0.313 OA
HETATM   30  C28 UNL     1       9.764  11.629  20.458  1.00  0.00     0.297 A 
HETATM   31  O3  UNL     1      10.684  10.950  20.033  1.00  0.00    -0.262 OA
HETATM   32  C29 UNL     1       8.563  12.011  19.700  1.00  0.00     0.175 A 
HETATM   33  C30 UNL     1       8.621  12.180  18.201  1.00  0.00     0.218 A 
HETATM   34  O4  UNL     1       8.008  11.038  18.815  1.00  0.00    -0.364 OA
ENDROOT
TORSDOF 0
ENDMDL
MODEL 8
REMARK minimizedAffinity -7.00940418
REMARK CNNscore 0.21952197
REMARK CNNaffinity 6.1854825
REMARK  0 active torsions:
REMARK  status: ('A' for Active; 'I' for Inactive)
ROOT
HETATM    1  C1  UNL     1     -14.838  -4.926  32.299  1.00  0.00     0.023 C 
HETATM    2  C2  UNL     1     -15.064  -5.389  30.851  1.00  0.00     0.017 C 
HETATM    3  C3  UNL     1     -16.546  -5.091  30.500  1.00  0.00     0.023 C 
HETATM    4  C4  UNL     1     -14.192  -4.515  29.932  1.00  0.00     0.135 C 
HETATM    5  O1  UNL     1     -14.614  -3.475  29.420  1.00  0.00    -0.297 OA
HETATM    6  C5  UNL     1     -12.739  -4.888  29.766  1.00  0.00     0.080 C 
HETATM    7  C6  UNL     1     -12.579  -6.374  29.476  1.00  0.00     0.017 C 
HETATM    8  C7  UNL     1     -13.251  -7.321  30.518  1.00  0.00    -0.035 C 
HETATM    9  C8  UNL     1     -12.498  -7.117  31.864  1.00  0.00     0.016 C 
HETATM   10  C9  UNL     1     -14.763  -6.910  30.585  1.00  0.00     0.009 C 
HETATM   11  C10 UNL     1     -15.550  -7.865  31.501  1.00  0.00     0.007 C 
HETATM   12  C11 UNL     1     -15.520  -9.283  30.943  1.00  0.00     0.011 C 
HETATM   13  C12 UNL     1     -14.107  -9.908  30.797  1.00  0.00    -0.032 C 
HETATM   14  C13 UNL     1     -13.565 -10.161  32.233  1.00  0.00     0.016 C 
HETATM   15  C14 UNL     1     -13.105  -8.875  30.086  1.00  0.00     0.003 C 
HETATM   16  C15 UNL     1     -13.096  -9.091  28.562  1.00  0.00     0.006 C 
HETATM   17  C16 UNL     1     -12.673 -10.501  28.142  1.00  0.00     0.006 C 
HETATM   18  C17 UNL     1     -12.843 -11.573  29.224  1.00  0.00    -0.000 C 
HETATM   19  C18 UNL     1     -12.704 -13.011  28.656  1.00  0.00     0.009 C 
HETATM   20  C19 UNL     1     -11.408 -13.445  27.936  1.00  0.00     0.067 A 
HETATM   21  C20 UNL     1     -11.378 -14.993  28.141  1.00  0.00     0.140 A 
HETATM   22  C21 UNL     1     -12.588 -15.351  29.012  1.00  0.00     0.042 C 
HETATM   23  C22 UNL     1     -12.854 -14.058  29.786  1.00  0.00    -0.037 C 
HETATM   24  C23 UNL     1     -11.802 -13.944  30.921  1.00  0.00     0.015 C 
HETATM   25  C24 UNL     1     -14.270 -13.954  30.360  1.00  0.00     0.010 C 
HETATM   26  C25 UNL     1     -14.511 -12.557  30.957  1.00  0.00     0.011 C 
HETATM   27  C26 UNL     1     -14.203 -11.350  29.993  1.00  0.00    -0.032 C 
HETATM   28  C27 UNL     1     -15.387 -11.371  28.966  1.00  0.00     0.016 C 
HETATM   29  O2  UNL     1     -11.488 -15.657  26.875  1.00  0.00    -0.313 OA
HETATM   30  C28 UNL     1     -11.481 -14.743  25.867  1.00  0.00     0.297 A 
HETATM   31  O3  UNL     1     -11.514 -15.000  24.675  1.00  0.00    -0.262 OA
HETATM   32  C29 UNL     1     -11.376 -13.396  26.447  1.00  0.00     0.175 A 
HETATM   33  C30 UNL     1     -10.658 -12.293  25.707  1.00  0.00     0.218 A 
HETATM   34  O4  UNL     1     -12.088 -12.343  25.798  1.00  0.00    -0.364 OA
ENDROOT
TORSDOF 0
ENDMDL
MODEL 9
REMARK minimizedAffinity -6.88271999
REMARK CNNscore 0.193456516
REMARK CNNaffinity 6.00445509
REMARK  0 active torsions:
REMARK  status: ('A' for Active; 'I' for Inactive)
ROOT
HETATM    1  C1  UNL     1      -1.526 -12.594   2.983  1.00  0.00     0.023 C 
HETATM    2  C2  UNL     1      -2.930 -12.758   3.589  1.00  0.00     0.017 C 
HETATM    3  C3  UNL     1      -3.150 -14.274   3.833  1.00  0.00     0.023 C 
HETATM    4  C4  UNL     1      -2.935 -12.068   4.965  1.00  0.00     0.135 C 
HETATM    5  O1  UNL     1      -2.669 -12.675   6.005  1.00  0.00    -0.297 OA
HETATM    6  C5  UNL     1      -3.150 -10.576   5.010  1.00  0.00     0.080 C 
HETATM    7  C6  UNL     1      -4.336 -10.161   4.148  1.00  0.00     0.017 C 
HETATM    8  C7  UNL     1      -4.265 -10.638   2.665  1.00  0.00    -0.035 C 
HETATM    9  C8  UNL     1      -3.054  -9.912   2.014  1.00  0.00     0.016 C 
HETATM   10  C9  UNL     1      -4.105 -12.198   2.706  1.00  0.00     0.009 C 
HETATM   11  C10 UNL     1      -4.145 -12.789   1.285  1.00  0.00     0.007 C 
HETATM   12  C11 UNL     1      -5.497 -12.519   0.633  1.00  0.00     0.011 C 
HETATM   13  C12 UNL     1      -5.869 -11.020   0.477  1.00  0.00    -0.032 C 
HETATM   14  C13 UNL     1      -4.916 -10.419  -0.596  1.00  0.00     0.016 C 
HETATM   15  C14 UNL     1      -5.601 -10.228   1.847  1.00  0.00     0.003 C 
HETATM   16  C15 UNL     1      -6.871 -10.205   2.717  1.00  0.00     0.006 C 
HETATM   17  C16 UNL     1      -8.074  -9.547   2.034  1.00  0.00     0.006 C 
HETATM   18  C17 UNL     1      -8.003  -9.508   0.504  1.00  0.00    -0.000 C 
HETATM   19  C18 UNL     1      -9.364  -9.127  -0.139  1.00  0.00     0.009 C 
HETATM   20  C19 UNL     1     -10.046  -7.786   0.213  1.00  0.00     0.067 A 
HETATM   21  C20 UNL     1     -10.919  -7.480  -1.045  1.00  0.00     0.140 A 
HETATM   22  C21 UNL     1     -10.642  -8.594  -2.061  1.00  0.00     0.042 C 
HETATM   23  C22 UNL     1      -9.240  -9.071  -1.681  1.00  0.00    -0.037 C 
HETATM   24  C23 UNL     1      -8.211  -8.038  -2.213  1.00  0.00     0.015 C 
HETATM   25  C24 UNL     1      -8.897 -10.475  -2.191  1.00  0.00     0.010 C 
HETATM   26  C25 UNL     1      -7.553 -10.948  -1.612  1.00  0.00     0.011 C 
HETATM   27  C26 UNL     1      -7.432 -10.873  -0.042  1.00  0.00    -0.032 C 
HETATM   28  C27 UNL     1      -8.332 -12.051   0.465  1.00  0.00     0.016 C 
HETATM   29  O2  UNL     1     -12.309  -7.491  -0.692  1.00  0.00    -0.313 OA
HETATM   30  C28 UNL     1     -12.447  -7.662   0.651  1.00  0.00     0.297 A 
HETATM   31  O3  UNL     1     -13.503  -7.668   1.261  1.00  0.00    -0.262 OA
HETATM   32  C29 UNL     1     -11.112  -7.787   1.254  1.00  0.00     0.175 A 
HETATM   33  C30 UNL     1     -10.850  -7.287   2.655  1.00  0.00     0.218 A 
HETATM   34  O4  UNL     1     -10.968  -8.684   2.355  1.00  0.00    -0.364 OA
ENDROOT
TORSDOF 0
ENDMDL
