MODEL 1
REMARK minimizedAffinity -8.7483778
REMARK  5 active torsions:
REMARK  status: ('A' for Active; 'I' for Inactive)
REMARK    1  A    between atoms: C2_2  and  C4_4 
REMARK    2  A    between atoms: C7_7  and  C8_8 
REMARK    3  A    between atoms: C8_8  and  O2_10 
REMARK    4  A    between atoms: C21_24  and  C23_26 
REMARK    5  A    between atoms: C23_26  and  O4_27 
ROOT
HETATM    1  C4  UNL     1       1.143   8.276  10.234  1.00  0.00     0.019 C 
HETATM    2  C5  UNL     1       2.697   8.243  10.217  1.00  0.00     0.011 C 
HETATM    3  C6  UNL     1       3.154   7.547  11.522  1.00  0.00     0.021 C 
HETATM    4  C7  UNL     1       1.886   7.459  12.394  1.00  0.00     0.050 C 
HETATM    5  C9  UNL     1       1.865   6.269  13.365  1.00  0.00     0.022 C 
HETATM    6  C10 UNL     1       0.438   5.973  13.897  1.00  0.00     0.011 C 
HETATM    7  C11 UNL     1      -0.688   5.780  12.806  1.00  0.00    -0.032 C 
HETATM    8  C12 UNL     1      -0.302   4.465  12.052  1.00  0.00     0.016 C 
HETATM    9  C13 UNL     1      -0.617   7.013  11.817  1.00  0.00     0.000 C 
HETATM   10  C14 UNL     1      -1.227   8.325  12.356  1.00  0.00     0.006 C 
HETATM   11  C15 UNL     1      -2.190   8.158  13.523  1.00  0.00     0.006 C 
HETATM   12  C16 UNL     1      -3.054   6.926  13.285  1.00  0.00     0.003 C 
HETATM   13  C17 UNL     1      -4.460   6.949  14.001  1.00  0.00    -0.031 C 
HETATM   14  C18 UNL     1      -4.337   7.399  15.482  1.00  0.00     0.016 C 
HETATM   15  C19 UNL     1      -5.369   7.979  13.279  1.00  0.00     0.036 C 
HETATM   16  C20 UNL     1      -6.787   8.033  13.843  1.00  0.00     0.169 C 
HETATM   17  O3  UNL     1      -7.176   6.842  14.515  1.00  0.00    -0.378 OA
HETATM   18  C21 UNL     1      -6.745   5.619  13.891  1.00  0.00     0.082 C 
HETATM   19  C22 UNL     1      -7.288   4.505  14.810  1.00  0.00     0.049 C 
HETATM   20  C24 UNL     1      -5.163   5.545  13.906  1.00  0.00     0.030 C 
HETATM   21  C25 UNL     1      -4.596   4.690  12.758  1.00  0.00     0.009 C 
HETATM   22  C26 UNL     1      -3.065   4.531  12.690  1.00  0.00     0.011 C 
HETATM   23  C27 UNL     1      -2.210   5.608  13.437  1.00  0.00    -0.032 C 
HETATM   24  C28 UNL     1      -2.067   5.110  14.898  1.00  0.00     0.016 C 
HETATM   25  C29 UNL     1       0.824   7.213  11.298  1.00  0.00     0.017 C 
ENDROOT
BRANCH   4  26
HETATM   26  C8  UNL     1       1.799   8.749  13.239  1.00  0.00     0.149 C 
HETATM   27  O1  UNL     1       1.393   8.848  14.385  1.00  0.00    -0.649 OA
BRANCH  26  28
HETATM   28  O2  UNL     1       2.230   9.864  12.621  1.00  0.00    -0.776 OA
HETATM   29  H11 UNL     1       2.109  10.563  13.297  1.00  0.00     0.167 HD
ENDBRANCH  26  28
ENDBRANCH   4  26
BRANCH   1  30
HETATM   30  C2  UNL     1       0.562   8.129   8.837  1.00  0.00    -0.088 C 
HETATM   31  C1  UNL     1      -0.712   8.384   8.496  1.00  0.00     0.014 C 
HETATM   32  C3  UNL     1       1.542   7.655   7.793  1.00  0.00     0.043 C 
ENDBRANCH   1  30
BRANCH  18  33
HETATM   33  C23 UNL     1      -7.445   5.490  12.505  1.00  0.00     0.202 C 
BRANCH  33  34
HETATM   34  O4  UNL     1      -8.859   5.647  12.542  1.00  0.00    -0.398 OA
HETATM   35  H37 UNL     1      -9.044   6.594  12.669  1.00  0.00     0.209 HD
ENDBRANCH  33  34
ENDBRANCH  18  33
TORSDOF 5
ENDMDL
MODEL 2
REMARK minimizedAffinity -8.64132404
REMARK  5 active torsions:
REMARK  status: ('A' for Active; 'I' for Inactive)
REMARK    1  A    between atoms: C2_2  and  C4_4 
REMARK    2  A    between atoms: C7_7  and  C8_8 
REMARK    3  A    between atoms: C8_8  and  O2_10 
REMARK    4  A    between atoms: C21_24  and  C23_26 
REMARK    5  A    between atoms: C23_26  and  O4_27 
ROOT
HETATM    1  C4  UNL     1      -6.021   4.099  13.046  1.00  0.00     0.019 C 
HETATM    2  C5  UNL     1      -7.550   3.855  12.911  1.00  0.00     0.011 C 
HETATM    3  C6  UNL     1      -8.266   5.095  13.499  1.00  0.00     0.021 C 
HETATM    4  C7  UNL     1      -7.161   5.889  14.224  1.00  0.00     0.050 C 
HETATM    5  C9  UNL     1      -7.402   7.404  14.281  1.00  0.00     0.022 C 
HETATM    6  C10 UNL     1      -6.108   8.191  14.618  1.00  0.00     0.011 C 
HETATM    7  C11 UNL     1      -4.852   7.893  13.709  1.00  0.00    -0.032 C 
HETATM    8  C12 UNL     1      -5.241   8.428  12.291  1.00  0.00     0.016 C 
HETATM    9  C13 UNL     1      -4.652   6.325  13.660  1.00  0.00     0.000 C 
HETATM   10  C14 UNL     1      -4.010   5.703  14.919  1.00  0.00     0.006 C 
HETATM   11  C15 UNL     1      -3.258   6.682  15.809  1.00  0.00     0.006 C 
HETATM   12  C16 UNL     1      -2.489   7.664  14.935  1.00  0.00     0.003 C 
HETATM   13  C17 UNL     1      -1.213   8.302  15.611  1.00  0.00    -0.031 C 
HETATM   14  C18 UNL     1      -1.518   8.793  17.052  1.00  0.00     0.016 C 
HETATM   15  C19 UNL     1      -0.110   7.216  15.716  1.00  0.00     0.036 C 
HETATM   16  C20 UNL     1       1.202   7.741  16.290  1.00  0.00     0.169 C 
HETATM   17  O3  UNL     1       1.369   9.145  16.133  1.00  0.00    -0.378 OA
HETATM   18  C21 UNL     1       0.924   9.675  14.872  1.00  0.00     0.082 C 
HETATM   19  C22 UNL     1       1.211  11.189  14.967  1.00  0.00     0.049 C 
HETATM   20  C24 UNL     1      -0.641   9.477  14.735  1.00  0.00     0.030 C 
HETATM   21  C25 UNL     1      -1.104   9.386  13.270  1.00  0.00     0.009 C 
HETATM   22  C26 UNL     1      -2.615   9.215  13.020  1.00  0.00     0.011 C 
HETATM   23  C27 UNL     1      -3.468   8.656  14.206  1.00  0.00    -0.032 C 
HETATM   24  C28 UNL     1      -3.880   9.883  15.059  1.00  0.00     0.016 C 
HETATM   25  C29 UNL     1      -5.972   5.620  13.273  1.00  0.00     0.017 C 
ENDROOT
BRANCH   4  26
HETATM   26  C8  UNL     1      -7.082   5.376  15.678  1.00  0.00     0.149 C 
HETATM   27  O1  UNL     1      -6.438   5.865  16.593  1.00  0.00    -0.649 OA
BRANCH  26  28
HETATM   28  O2  UNL     1      -7.814   4.278  15.935  1.00  0.00    -0.776 OA
HETATM   29  H11 UNL     1      -7.649   4.108  16.887  1.00  0.00     0.167 HD
ENDBRANCH  26  28
ENDBRANCH   4  26
BRANCH   1  30
HETATM   30  C2  UNL     1      -5.249   3.495  11.884  1.00  0.00    -0.088 C 
HETATM   31  C1  UNL     1      -5.737   2.598  11.011  1.00  0.00     0.014 C 
HETATM   32  C3  UNL     1      -3.827   3.980  11.751  1.00  0.00     0.043 C 
ENDBRANCH   1  30
BRANCH  18  33
HETATM   33  C23 UNL     1       1.813   9.083  13.737  1.00  0.00     0.202 C 
BRANCH  33  34
HETATM   34  O4  UNL     1       2.381  10.054  12.865  1.00  0.00    -0.398 OA
HETATM   35  H37 UNL     1       3.101  10.493  13.349  1.00  0.00     0.209 HD
ENDBRANCH  33  34
ENDBRANCH  18  33
TORSDOF 5
ENDMDL
MODEL 3
REMARK minimizedAffinity -7.93241167
REMARK  5 active torsions:
REMARK  status: ('A' for Active; 'I' for Inactive)
REMARK    1  A    between atoms: C2_2  and  C4_4 
REMARK    2  A    between atoms: C7_7  and  C8_8 
REMARK    3  A    between atoms: C8_8  and  O2_10 
REMARK    4  A    between atoms: C21_24  and  C23_26 
REMARK    5  A    between atoms: C23_26  and  O4_27 
ROOT
HETATM    1  C4  UNL     1      -2.674  11.786  15.386  1.00  0.00     0.019 C 
HETATM    2  C5  UNL     1      -3.431  11.889  16.739  1.00  0.00     0.011 C 
HETATM    3  C6  UNL     1      -3.358  10.498  17.413  1.00  0.00     0.021 C 
HETATM    4  C7  UNL     1      -2.825   9.551  16.320  1.00  0.00     0.050 C 
HETATM    5  C9  UNL     1      -2.026   8.352  16.852  1.00  0.00     0.022 C 
HETATM    6  C10 UNL     1      -1.166   7.684  15.747  1.00  0.00     0.011 C 
HETATM    7  C11 UNL     1      -0.203   8.640  14.938  1.00  0.00    -0.032 C 
HETATM    8  C12 UNL     1       0.859   9.123  15.980  1.00  0.00     0.016 C 
HETATM    9  C13 UNL     1      -1.059   9.868  14.427  1.00  0.00     0.000 C 
HETATM   10  C14 UNL     1      -1.960   9.581  13.206  1.00  0.00     0.006 C 
HETATM   11  C15 UNL     1      -1.577   8.348  12.399  1.00  0.00     0.006 C 
HETATM   12  C16 UNL     1      -0.059   8.269  12.296  1.00  0.00     0.003 C 
HETATM   13  C17 UNL     1       0.484   7.489  11.036  1.00  0.00    -0.031 C 
HETATM   14  C18 UNL     1      -0.267   6.147  10.829  1.00  0.00     0.016 C 
HETATM   15  C19 UNL     1       0.238   8.355   9.771  1.00  0.00     0.036 C 
HETATM   16  C20 UNL     1       0.794   7.731   8.494  1.00  0.00     0.169 C 
HETATM   17  O3  UNL     1       1.844   6.800   8.727  1.00  0.00    -0.378 OA
HETATM   18  C21 UNL     1       2.778   7.179   9.755  1.00  0.00     0.082 C 
HETATM   19  C22 UNL     1       3.790   6.015   9.803  1.00  0.00     0.049 C 
HETATM   20  C24 UNL     1       2.033   7.245  11.151  1.00  0.00     0.030 C 
HETATM   21  C25 UNL     1       2.702   8.220  12.137  1.00  0.00     0.009 C 
HETATM   22  C26 UNL     1       2.072   8.346  13.537  1.00  0.00     0.011 C 
HETATM   23  C27 UNL     1       0.581   7.896  13.682  1.00  0.00    -0.032 C 
HETATM   24  C28 UNL     1       0.615   6.374  13.977  1.00  0.00     0.016 C 
HETATM   25  C29 UNL     1      -1.849  10.504  15.594  1.00  0.00     0.017 C 
ENDROOT
BRANCH   4  26
HETATM   26  C8  UNL     1      -4.037   8.992  15.542  1.00  0.00     0.149 C 
HETATM   27  O1  UNL     1      -4.609   9.519  14.601  1.00  0.00    -0.649 OA
BRANCH  26  28
HETATM   28  O2  UNL     1      -4.483   7.795  15.964  1.00  0.00    -0.776 OA
HETATM   29  H11 UNL     1      -5.232   7.603  15.362  1.00  0.00     0.167 HD
ENDBRANCH  26  28
ENDBRANCH   4  26
BRANCH   1  30
HETATM   30  C2  UNL     1      -1.960  13.083  15.039  1.00  0.00    -0.088 C 
HETATM   31  C1  UNL     1      -2.416  14.015  14.186  1.00  0.00     0.014 C 
HETATM   32  C3  UNL     1      -0.640  13.283  15.741  1.00  0.00     0.043 C 
ENDBRANCH   1  30
BRANCH  18  33
HETATM   33  C23 UNL     1       3.534   8.462   9.296  1.00  0.00     0.202 C 
BRANCH  33  34
HETATM   34  O4  UNL     1       3.432   8.740   7.904  1.00  0.00    -0.398 OA
HETATM   35  H37 UNL     1       2.534   9.079   7.740  1.00  0.00     0.209 HD
ENDBRANCH  33  34
ENDBRANCH  18  33
TORSDOF 5
ENDMDL
MODEL 4
REMARK minimizedAffinity -7.53878975
REMARK  5 active torsions:
REMARK  status: ('A' for Active; 'I' for Inactive)
REMARK    1  A    between atoms: C2_2  and  C4_4 
REMARK    2  A    between atoms: C7_7  and  C8_8 
REMARK    3  A    between atoms: C8_8  and  O2_10 
REMARK    4  A    between atoms: C21_24  and  C23_26 
REMARK    5  A    between atoms: C23_26  and  O4_27 
ROOT
HETATM    1  C4  UNL     1       1.229   7.561   9.491  1.00  0.00     0.019 C 
HETATM    2  C5  UNL     1       2.499   6.861   8.931  1.00  0.00     0.011 C 
HETATM    3  C6  UNL     1       2.835   5.690   9.887  1.00  0.00     0.021 C 
HETATM    4  C7  UNL     1       1.943   5.914  11.124  1.00  0.00     0.050 C 
HETATM    5  C9  UNL     1       1.555   4.628  11.867  1.00  0.00     0.022 C 
HETATM    6  C10 UNL     1       0.344   4.843  12.815  1.00  0.00     0.011 C 
HETATM    7  C11 UNL     1      -0.944   5.485  12.167  1.00  0.00    -0.032 C 
HETATM    8  C12 UNL     1      -1.465   4.415  11.152  1.00  0.00     0.016 C 
HETATM    9  C13 UNL     1      -0.497   6.791  11.396  1.00  0.00     0.000 C 
HETATM   10  C14 UNL     1      -0.214   8.019  12.289  1.00  0.00     0.006 C 
HETATM   11  C15 UNL     1      -0.824   7.957  13.682  1.00  0.00     0.006 C 
HETATM   12  C16 UNL     1      -2.220   7.353  13.591  1.00  0.00     0.003 C 
HETATM   13  C17 UNL     1      -3.207   7.776  14.747  1.00  0.00    -0.031 C 
HETATM   14  C18 UNL     1      -2.529   7.678  16.140  1.00  0.00     0.016 C 
HETATM   15  C19 UNL     1      -3.613   9.259  14.535  1.00  0.00     0.036 C 
HETATM   16  C20 UNL     1      -4.630   9.759  15.556  1.00  0.00     0.169 C 
HETATM   17  O3  UNL     1      -5.396   8.718  16.151  1.00  0.00    -0.378 OA
HETATM   18  C21 UNL     1      -5.802   7.670  15.253  1.00  0.00     0.082 C 
HETATM   19  C22 UNL     1      -6.598   6.690  16.140  1.00  0.00     0.049 C 
HETATM   20  C24 UNL     1      -4.521   6.914  14.708  1.00  0.00     0.030 C 
HETATM   21  C25 UNL     1      -4.752   6.271  13.328  1.00  0.00     0.009 C 
HETATM   22  C26 UNL     1      -3.577   5.489  12.712  1.00  0.00     0.011 C 
HETATM   23  C27 UNL     1      -2.148   5.818  13.257  1.00  0.00    -0.032 C 
HETATM   24  C28 UNL     1      -1.936   4.907  14.494  1.00  0.00     0.016 C 
HETATM   25  C29 UNL     1       0.679   6.485  10.442  1.00  0.00     0.017 C 
ENDROOT
BRANCH   4  26
HETATM   26  C8  UNL     1       2.721   6.807  12.116  1.00  0.00     0.149 C 
HETATM   27  O1  UNL     1       3.478   7.723  11.838  1.00  0.00    -0.649 OA
BRANCH  26  28
HETATM   28  O2  UNL     1       2.517   6.526  13.416  1.00  0.00    -0.776 OA
HETATM   29  H11 UNL     1       3.074   7.184  13.884  1.00  0.00     0.167 HD
ENDBRANCH  26  28
ENDBRANCH   4  26
BRANCH   1  30
HETATM   30  C2  UNL     1       0.343   8.094   8.376  1.00  0.00    -0.088 C 
HETATM   31  C1  UNL     1      -0.736   8.874   8.549  1.00  0.00     0.014 C 
HETATM   32  C3  UNL     1       0.760   7.679   6.987  1.00  0.00     0.043 C 
ENDBRANCH   1  30
BRANCH  18  33
HETATM   33  C23 UNL     1      -6.775   8.266  14.193  1.00  0.00     0.202 C 
BRANCH  33  34
HETATM   34  O4  UNL     1      -8.149   8.219  14.561  1.00  0.00    -0.398 OA
HETATM   35  H37 UNL     1      -8.293   8.904  15.237  1.00  0.00     0.209 HD
ENDBRANCH  33  34
ENDBRANCH  18  33
TORSDOF 5
ENDMDL
MODEL 5
REMARK minimizedAffinity -7.50440693
REMARK  5 active torsions:
REMARK  status: ('A' for Active; 'I' for Inactive)
REMARK    1  A    between atoms: C2_2  and  C4_4 
REMARK    2  A    between atoms: C7_7  and  C8_8 
REMARK    3  A    between atoms: C8_8  and  O2_10 
REMARK    4  A    between atoms: C21_24  and  C23_26 
REMARK    5  A    between atoms: C23_26  and  O4_27 
ROOT
HETATM    1  C4  UNL     1       5.354  10.107  12.439  1.00  0.00     0.019 C 
HETATM    2  C5  UNL     1       6.692   9.908  11.674  1.00  0.00     0.011 C 
HETATM    3  C6  UNL     1       6.587   8.565  10.911  1.00  0.00     0.021 C 
HETATM    4  C7  UNL     1       5.327   7.880  11.476  1.00  0.00     0.050 C 
HETATM    5  C9  UNL     1       4.616   6.944  10.489  1.00  0.00     0.022 C 
HETATM    6  C10 UNL     1       3.163   6.622  10.929  1.00  0.00     0.011 C 
HETATM    7  C11 UNL     1       2.236   7.863  11.237  1.00  0.00    -0.032 C 
HETATM    8  C12 UNL     1       2.046   8.580   9.861  1.00  0.00     0.016 C 
HETATM    9  C13 UNL     1       3.013   8.809  12.239  1.00  0.00     0.000 C 
HETATM   10  C14 UNL     1       3.036   8.336  13.709  1.00  0.00     0.006 C 
HETATM   11  C15 UNL     1       1.964   7.318  14.075  1.00  0.00     0.006 C 
HETATM   12  C16 UNL     1       0.659   7.698  13.388  1.00  0.00     0.003 C 
HETATM   13  C17 UNL     1      -0.648   7.184  14.109  1.00  0.00    -0.031 C 
HETATM   14  C18 UNL     1      -0.522   5.692  14.521  1.00  0.00     0.016 C 
HETATM   15  C19 UNL     1      -0.854   8.006  15.409  1.00  0.00     0.036 C 
HETATM   16  C20 UNL     1      -2.136   7.645  16.155  1.00  0.00     0.169 C 
HETATM   17  O3  UNL     1      -3.130   7.056  15.325  1.00  0.00    -0.378 OA
HETATM   18  C21 UNL     1      -3.253   7.637  14.014  1.00  0.00     0.082 C 
HETATM   19  C22 UNL     1      -4.376   6.824  13.337  1.00  0.00     0.049 C 
HETATM   20  C24 UNL     1      -1.914   7.403  13.202  1.00  0.00     0.030 C 
HETATM   21  C25 UNL     1      -1.676   8.476  12.124  1.00  0.00     0.009 C 
HETATM   22  C26 UNL     1      -0.411   8.333  11.257  1.00  0.00     0.011 C 
HETATM   23  C27 UNL     1       0.747   7.454  11.837  1.00  0.00    -0.032 C 
HETATM   24  C28 UNL     1       0.442   5.997  11.404  1.00  0.00     0.016 C 
HETATM   25  C29 UNL     1       4.431   9.118  11.707  1.00  0.00     0.017 C 
ENDROOT
BRANCH   4  26
HETATM   26  C8  UNL     1       5.753   7.032  12.695  1.00  0.00     0.149 C 
HETATM   27  O1  UNL     1       5.782   7.389  13.862  1.00  0.00    -0.649 OA
BRANCH  26  28
HETATM   28  O2  UNL     1       6.121   5.769  12.410  1.00  0.00    -0.776 OA
HETATM   29  H11 UNL     1       6.345   5.391  13.286  1.00  0.00     0.167 HD
ENDBRANCH  26  28
ENDBRANCH   4  26
BRANCH   1  30
HETATM   30  C2  UNL     1       4.962  11.574  12.514  1.00  0.00    -0.088 C 
HETATM   31  C1  UNL     1       3.819  12.046  13.040  1.00  0.00     0.014 C 
HETATM   32  C3  UNL     1       5.977  12.529  11.937  1.00  0.00     0.043 C 
ENDBRANCH   1  30
BRANCH  18  33
HETATM   33  C23 UNL     1      -3.741   9.109  14.163  1.00  0.00     0.202 C 
BRANCH  33  34
HETATM   34  O4  UNL     1      -2.695  10.074  14.217  1.00  0.00    -0.398 OA
HETATM   35  H37 UNL     1      -2.339  10.169  13.317  1.00  0.00     0.209 HD
ENDBRANCH  33  34
ENDBRANCH  18  33
TORSDOF 5
ENDMDL
MODEL 6
REMARK minimizedAffinity -7.41957712
REMARK  5 active torsions:
REMARK  status: ('A' for Active; 'I' for Inactive)
REMARK    1  A    between atoms: C2_2  and  C4_4 
REMARK    2  A    between atoms: C7_7  and  C8_8 
REMARK    3  A    between atoms: C8_8  and  O2_10 
REMARK    4  A    between atoms: C21_24  and  C23_26 
REMARK    5  A    between atoms: C23_26  and  O4_27 
ROOT
HETATM    1  C4  UNL     1      -1.591   5.663  12.122  1.00  0.00     0.019 C 
HETATM    2  C5  UNL     1      -0.668   4.813  11.205  1.00  0.00     0.011 C 
HETATM    3  C6  UNL     1       0.693   5.546  11.119  1.00  0.00     0.021 C 
HETATM    4  C7  UNL     1       0.439   6.936  11.737  1.00  0.00     0.050 C 
HETATM    5  C9  UNL     1       1.670   7.571  12.398  1.00  0.00     0.022 C 
HETATM    6  C10 UNL     1       1.288   8.731  13.356  1.00  0.00     0.011 C 
HETATM    7  C11 UNL     1       0.212   8.396  14.462  1.00  0.00    -0.032 C 
HETATM    8  C12 UNL     1       0.907   7.362  15.406  1.00  0.00     0.016 C 
HETATM    9  C13 UNL     1      -1.028   7.726  13.743  1.00  0.00     0.000 C 
HETATM   10  C14 UNL     1      -1.959   8.701  12.991  1.00  0.00     0.006 C 
HETATM   11  C15 UNL     1      -1.838  10.160  13.408  1.00  0.00     0.006 C 
HETATM   12  C16 UNL     1      -1.672  10.236  14.921  1.00  0.00     0.003 C 
HETATM   13  C17 UNL     1      -2.155  11.586  15.578  1.00  0.00    -0.031 C 
HETATM   14  C18 UNL     1      -1.639  12.820  14.790  1.00  0.00     0.016 C 
HETATM   15  C19 UNL     1      -3.706  11.631  15.541  1.00  0.00     0.036 C 
HETATM   16  C20 UNL     1      -4.292  12.865  16.220  1.00  0.00     0.169 C 
HETATM   17  O3  UNL     1      -3.423  13.450  17.183  1.00  0.00    -0.378 OA
HETATM   18  C21 UNL     1      -2.695  12.512  17.997  1.00  0.00     0.082 C 
HETATM   19  C22 UNL     1      -1.843  13.395  18.933  1.00  0.00     0.049 C 
HETATM   20  C24 UNL     1      -1.714  11.667  17.085  1.00  0.00     0.030 C 
HETATM   21  C25 UNL     1      -1.402  10.279  17.674  1.00  0.00     0.009 C 
HETATM   22  C26 UNL     1      -0.437   9.380  16.878  1.00  0.00     0.011 C 
HETATM   23  C27 UNL     1      -0.257   9.708  15.359  1.00  0.00    -0.032 C 
HETATM   24  C28 UNL     1       0.870  10.770  15.276  1.00  0.00     0.016 C 
HETATM   25  C29 UNL     1      -0.568   6.555  12.846  1.00  0.00     0.017 C 
ENDROOT
BRANCH   4  26
HETATM   26  C8  UNL     1      -0.021   7.882  10.606  1.00  0.00     0.149 C 
HETATM   27  O1  UNL     1      -0.755   8.851  10.715  1.00  0.00    -0.649 OA
BRANCH  26  28
HETATM   28  O2  UNL     1       0.458   7.585   9.384  1.00  0.00    -0.776 OA
HETATM   29  H11 UNL     1       0.074   8.281   8.811  1.00  0.00     0.167 HD
ENDBRANCH  26  28
ENDBRANCH   4  26
BRANCH   1  30
HETATM   30  C2  UNL     1      -2.529   4.790  12.940  1.00  0.00    -0.088 C 
HETATM   31  C1  UNL     1      -2.923   5.043  14.199  1.00  0.00     0.014 C 
HETATM   32  C3  UNL     1      -3.025   3.556  12.228  1.00  0.00     0.043 C 
ENDBRANCH   1  30
BRANCH  18  33
HETATM   33  C23 UNL     1      -3.709  11.715  18.871  1.00  0.00     0.202 C 
BRANCH  33  34
HETATM   34  O4  UNL     1      -3.701  10.309  18.650  1.00  0.00    -0.398 OA
HETATM   35  H37 UNL     1      -2.896   9.953  19.066  1.00  0.00     0.209 HD
ENDBRANCH  33  34
ENDBRANCH  18  33
TORSDOF 5
ENDMDL
MODEL 7
REMARK minimizedAffinity -7.29267693
REMARK  5 active torsions:
REMARK  status: ('A' for Active; 'I' for Inactive)
REMARK    1  A    between atoms: C2_2  and  C4_4 
REMARK    2  A    between atoms: C7_7  and  C8_8 
REMARK    3  A    between atoms: C8_8  and  O2_10 
REMARK    4  A    between atoms: C21_24  and  C23_26 
REMARK    5  A    between atoms: C23_26  and  O4_27 
ROOT
HETATM    1  C4  UNL     1       3.973  10.352  22.212  1.00  0.00     0.019 C 
HETATM    2  C5  UNL     1       5.193  10.962  22.957  1.00  0.00     0.011 C 
HETATM    3  C6  UNL     1       5.554  12.285  22.239  1.00  0.00     0.021 C 
HETATM    4  C7  UNL     1       4.737  12.267  20.931  1.00  0.00     0.050 C 
HETATM    5  C9  UNL     1       4.360  13.656  20.399  1.00  0.00     0.022 C 
HETATM    6  C10 UNL     1       3.210  13.593  19.359  1.00  0.00     0.011 C 
HETATM    7  C11 UNL     1       1.902  12.831  19.810  1.00  0.00    -0.032 C 
HETATM    8  C12 UNL     1       1.301  13.701  20.962  1.00  0.00     0.016 C 
HETATM    9  C13 UNL     1       2.337  11.417  20.370  1.00  0.00     0.000 C 
HETATM   10  C14 UNL     1       2.697  10.366  19.297  1.00  0.00     0.006 C 
HETATM   11  C15 UNL     1       2.164  10.660  17.902  1.00  0.00     0.006 C 
HETATM   12  C16 UNL     1       0.752  11.221  18.014  1.00  0.00     0.003 C 
HETATM   13  C17 UNL     1      -0.159  10.990  16.747  1.00  0.00    -0.031 C 
HETATM   14  C18 UNL     1       0.592  11.338  15.433  1.00  0.00     0.016 C 
HETATM   15  C19 UNL     1      -0.541   9.487  16.676  1.00  0.00     0.036 C 
HETATM   16  C20 UNL     1      -1.488   9.158  15.525  1.00  0.00     0.169 C 
HETATM   17  O3  UNL     1      -2.245  10.276  15.075  1.00  0.00    -0.378 OA
HETATM   18  C21 UNL     1      -2.724  11.148  16.115  1.00  0.00     0.082 C 
HETATM   19  C22 UNL     1      -3.492  12.256  15.364  1.00  0.00     0.049 C 
HETATM   20  C24 UNL     1      -1.493  11.815  16.856  1.00  0.00     0.030 C 
HETATM   21  C25 UNL     1      -1.816  12.206  18.310  1.00  0.00     0.009 C 
HETATM   22  C26 UNL     1      -0.695  12.885  19.119  1.00  0.00     0.011 C 
HETATM   23  C27 UNL     1       0.770  12.675  18.611  1.00  0.00    -0.032 C 
HETATM   24  C28 UNL     1       1.028  13.789  17.564  1.00  0.00     0.016 C 
HETATM   25  C29 UNL     1       3.451  11.569  21.430  1.00  0.00     0.017 C 
ENDROOT
BRANCH   4  26
HETATM   26  C8  UNL     1       5.589  11.570  19.848  1.00  0.00     0.149 C 
HETATM   27  O1  UNL     1       5.181  10.900  18.913  1.00  0.00    -0.649 OA
BRANCH  26  28
HETATM   28  O2  UNL     1       6.918  11.742  19.970  1.00  0.00    -0.776 OA
HETATM   29  H11 UNL     1       7.286  11.246  19.209  1.00  0.00     0.167 HD
ENDBRANCH  26  28
ENDBRANCH   4  26
BRANCH   1  30
HETATM   30  C2  UNL     1       3.039   9.623  23.164  1.00  0.00    -0.088 C 
HETATM   31  C1  UNL     1       2.774   9.994  24.428  1.00  0.00     0.014 C 
HETATM   32  C3  UNL     1       2.386   8.391  22.588  1.00  0.00     0.043 C 
ENDBRANCH   1  30
BRANCH  18  33
HETATM   33  C23 UNL     1      -3.740  10.363  16.997  1.00  0.00     0.202 C 
BRANCH  33  34
HETATM   34  O4  UNL     1      -3.215   9.915  18.243  1.00  0.00    -0.398 OA
HETATM   35  H37 UNL     1      -3.143  10.691  18.825  1.00  0.00     0.209 HD
ENDBRANCH  33  34
ENDBRANCH  18  33
TORSDOF 5
ENDMDL
MODEL 8
REMARK minimizedAffinity -6.87375689
REMARK  5 active torsions:
REMARK  status: ('A' for Active; 'I' for Inactive)
REMARK    1  A    between atoms: C2_2  and  C4_4 
REMARK    2  A    between atoms: C7_7  and  C8_8 
REMARK    3  A    between atoms: C8_8  and  O2_10 
REMARK    4  A    between atoms: C21_24  and  C23_26 
REMARK    5  A    between atoms: C23_26  and  O4_27 
ROOT
HETATM    1  C4  UNL     1     -12.667   8.476  22.275  1.00  0.00     0.019 C 
HETATM    2  C5  UNL     1     -13.255   9.434  21.201  1.00  0.00     0.011 C 
HETATM    3  C6  UNL     1     -14.778   9.167  21.134  1.00  0.00     0.021 C 
HETATM    4  C7  UNL     1     -14.994   7.872  21.942  1.00  0.00     0.050 C 
HETATM    5  C9  UNL     1     -16.373   7.761  22.608  1.00  0.00     0.022 C 
HETATM    6  C10 UNL     1     -16.397   6.690  23.731  1.00  0.00     0.011 C 
HETATM    7  C11 UNL     1     -15.285   6.821  24.844  1.00  0.00    -0.032 C 
HETATM    8  C12 UNL     1     -15.622   8.146  25.602  1.00  0.00     0.016 C 
HETATM    9  C13 UNL     1     -13.886   6.953  24.117  1.00  0.00     0.000 C 
HETATM   10  C14 UNL     1     -13.309   5.636  23.556  1.00  0.00     0.006 C 
HETATM   11  C15 UNL     1     -13.899   4.366  24.153  1.00  0.00     0.006 C 
HETATM   12  C16 UNL     1     -14.100   4.565  25.650  1.00  0.00     0.003 C 
HETATM   13  C17 UNL     1     -14.086   3.239  26.507  1.00  0.00    -0.031 C 
HETATM   14  C18 UNL     1     -14.962   2.133  25.859  1.00  0.00     0.016 C 
HETATM   15  C19 UNL     1     -12.632   2.701  26.566  1.00  0.00     0.036 C 
HETATM   16  C20 UNL     1     -12.484   1.455  27.435  1.00  0.00     0.169 C 
HETATM   17  O3  UNL     1     -13.508   1.320  28.414  1.00  0.00    -0.378 OA
HETATM   18  C21 UNL     1     -13.905   2.547  29.054  1.00  0.00     0.082 C 
HETATM   19  C22 UNL     1     -15.008   2.123  30.046  1.00  0.00     0.049 C 
HETATM   20  C24 UNL     1     -14.550   3.519  27.983  1.00  0.00     0.030 C 
HETATM   21  C25 UNL     1     -14.406   5.004  28.365  1.00  0.00     0.009 C 
HETATM   22  C26 UNL     1     -15.019   6.039  27.403  1.00  0.00     0.011 C 
HETATM   23  C27 UNL     1     -15.275   5.571  25.932  1.00  0.00    -0.032 C 
HETATM   24  C28 UNL     1     -16.683   4.921  25.924  1.00  0.00     0.016 C 
HETATM   25  C29 UNL     1     -13.932   8.068  23.049  1.00  0.00     0.017 C 
ENDROOT
BRANCH   4  26
HETATM   26  C8  UNL     1     -14.848   6.677  20.975  1.00  0.00     0.149 C 
HETATM   27  O1  UNL     1     -15.551   5.680  20.930  1.00  0.00    -0.649 OA
BRANCH  26  28
HETATM   28  O2  UNL     1     -13.835   6.777  20.095  1.00  0.00    -0.776 OA
HETATM   29  H11 UNL     1     -13.902   5.950  19.572  1.00  0.00     0.167 HD
ENDBRANCH  26  28
ENDBRANCH   4  26
BRANCH   1  30
HETATM   30  C2  UNL     1     -11.508   9.114  23.024  1.00  0.00    -0.088 C 
HETATM   31  C1  UNL     1     -10.812  10.186  22.610  1.00  0.00     0.014 C 
HETATM   32  C3  UNL     1     -11.159   8.446  24.331  1.00  0.00     0.043 C 
ENDBRANCH   1  30
BRANCH  18  33
HETATM   33  C23 UNL     1     -12.700   3.097  29.873  1.00  0.00     0.202 C 
BRANCH  33  34
HETATM   34  O4  UNL     1     -12.205   2.206  30.867  1.00  0.00    -0.398 OA
HETATM   35  H37 UNL     1     -11.713   1.503  30.408  1.00  0.00     0.209 HD
ENDBRANCH  33  34
ENDBRANCH  18  33
TORSDOF 5
ENDMDL
MODEL 9
REMARK minimizedAffinity -6.82739639
REMARK  5 active torsions:
REMARK  status: ('A' for Active; 'I' for Inactive)
REMARK    1  A    between atoms: C2_2  and  C4_4 
REMARK    2  A    between atoms: C7_7  and  C8_8 
REMARK    3  A    between atoms: C8_8  and  O2_10 
REMARK    4  A    between atoms: C21_24  and  C23_26 
REMARK    5  A    between atoms: C23_26  and  O4_27 
ROOT
HETATM    1  C4  UNL     1     -11.563  -8.445  -6.834  1.00  0.00     0.019 C 
HETATM    2  C5  UNL     1     -12.778  -9.375  -6.562  1.00  0.00     0.011 C 
HETATM    3  C6  UNL     1     -13.933  -8.482  -6.049  1.00  0.00     0.021 C 
HETATM    4  C7  UNL     1     -13.282  -7.115  -5.754  1.00  0.00     0.050 C 
HETATM    5  C9  UNL     1     -14.228  -5.916  -5.908  1.00  0.00     0.022 C 
HETATM    6  C10 UNL     1     -13.458  -4.574  -6.026  1.00  0.00     0.011 C 
HETATM    7  C11 UNL     1     -12.339  -4.507  -7.139  1.00  0.00    -0.032 C 
HETATM    8  C12 UNL     1     -13.109  -4.602  -8.496  1.00  0.00     0.016 C 
HETATM    9  C13 UNL     1     -11.402  -5.768  -6.958  1.00  0.00     0.000 C 
HETATM   10  C14 UNL     1     -10.390  -5.676  -5.795  1.00  0.00     0.006 C 
HETATM   11  C15 UNL     1     -10.113  -4.266  -5.292  1.00  0.00     0.006 C 
HETATM   12  C16 UNL     1     -10.039  -3.316  -6.481  1.00  0.00     0.003 C 
HETATM   13  C17 UNL     1      -9.171  -2.019  -6.245  1.00  0.00    -0.031 C 
HETATM   14  C18 UNL     1      -9.499  -1.354  -4.881  1.00  0.00     0.016 C 
HETATM   15  C19 UNL     1      -7.673  -2.424  -6.213  1.00  0.00     0.036 C 
HETATM   16  C20 UNL     1      -6.729  -1.233  -6.064  1.00  0.00     0.169 C 
HETATM   17  O3  UNL     1      -7.294  -0.002  -6.499  1.00  0.00    -0.378 OA
HETATM   18  C21 UNL     1      -8.092  -0.086  -7.693  1.00  0.00     0.082 C 
HETATM   19  C22 UNL     1      -8.577   1.360  -7.934  1.00  0.00     0.049 C 
HETATM   20  C24 UNL     1      -9.361  -0.994  -7.422  1.00  0.00     0.030 C 
HETATM   21  C25 UNL     1      -9.894  -1.669  -8.699  1.00  0.00     0.009 C 
HETATM   22  C26 UNL     1     -11.143  -2.559  -8.554  1.00  0.00     0.011 C 
HETATM   23  C27 UNL     1     -11.459  -3.103  -7.121  1.00  0.00    -0.032 C 
HETATM   24  C28 UNL     1     -12.314  -2.014  -6.424  1.00  0.00     0.016 C 
HETATM   25  C29 UNL     1     -12.240  -7.065  -6.895  1.00  0.00     0.017 C 
ENDROOT
BRANCH   4  26
HETATM   26  C8  UNL     1     -12.785  -7.130  -4.292  1.00  0.00     0.149 C 
HETATM   27  O1  UNL     1     -11.638  -7.300  -3.910  1.00  0.00    -0.649 OA
BRANCH  26  28
HETATM   28  O2  UNL     1     -13.738  -6.926  -3.364  1.00  0.00    -0.776 OA
HETATM   29  H11 UNL     1     -13.246  -6.962  -2.517  1.00  0.00     0.167 HD
ENDBRANCH  26  28
ENDBRANCH   4  26
BRANCH   1  30
HETATM   30  C2  UNL     1     -10.742  -8.923  -8.021  1.00  0.00    -0.088 C 
HETATM   31  C1  UNL     1     -11.142  -8.897  -9.303  1.00  0.00     0.014 C 
HETATM   32  C3  UNL     1      -9.377  -9.460  -7.667  1.00  0.00     0.043 C 
ENDBRANCH   1  30
BRANCH  18  33
HETATM   33  C23 UNL     1      -7.172  -0.495  -8.883  1.00  0.00     0.202 C 
BRANCH  33  34
HETATM   34  O4  UNL     1      -5.920   0.182  -8.919  1.00  0.00    -0.398 OA
HETATM   35  H37 UNL     1      -5.364  -0.197  -8.217  1.00  0.00     0.209 HD
ENDBRANCH  33  34
ENDBRANCH  18  33
TORSDOF 5
ENDMDL
