MODEL 1
REMARK minimizedAffinity -10.0307798
REMARK  6 active torsions:
REMARK  status: ('A' for Active; 'I' for Inactive)
REMARK    1  A    between atoms: C2_2  and  C30_32 
REMARK    2  A    between atoms: C3_3  and  C4_4 
REMARK    3  A    between atoms: C4_4  and  C5_5 
REMARK    4  A    between atoms: C5_5  and  C6_6 
REMARK    5  A    between atoms: C6_6  and  C8_8 
REMARK    6  A    between atoms: C30_32  and  O4_34 
ROOT
HETATM    1  C8  UNL     1      -1.965   6.243  12.730  1.00  0.00    -0.002 C 
HETATM    2  C9  UNL     1      -1.961   7.197  13.958  1.00  0.00     0.007 C 
HETATM    3  C10 UNL     1      -0.661   8.020  13.900  1.00  0.00     0.015 C 
HETATM    4  C11 UNL     1      -0.102   7.788  12.484  1.00  0.00    -0.005 C 
HETATM    5  C12 UNL     1      -0.846   8.778  11.532  1.00  0.00     0.021 C 
HETATM    6  C13 UNL     1       1.377   8.012  12.192  1.00  0.00    -0.000 C 
HETATM    7  C14 UNL     1       2.033   7.281  11.253  1.00  0.00    -0.060 C 
HETATM    8  C15 UNL     1       1.295   6.182  10.467  1.00  0.00     0.036 C 
HETATM    9  C16 UNL     1      -0.181   5.912  10.826  1.00  0.00     0.015 C 
HETATM   10  C17 UNL     1      -0.471   6.264  12.290  1.00  0.00    -0.028 C 
HETATM   11  C18 UNL     1       0.353   5.307  13.210  1.00  0.00     0.016 C 
HETATM   12  C19 UNL     1       3.533   7.487  10.900  1.00  0.00    -0.014 C 
HETATM   13  C20 UNL     1       3.580   8.221   9.538  1.00  0.00     0.020 C 
HETATM   14  C21 UNL     1       4.256   6.112  10.770  1.00  0.00     0.021 C 
HETATM   15  C22 UNL     1       5.768   6.119  10.974  1.00  0.00     0.080 C 
HETATM   16  C23 UNL     1       6.375   7.495  10.879  1.00  0.00     0.135 C 
HETATM   17  O1  UNL     1       7.358   7.693  10.166  1.00  0.00    -0.297 OA
HETATM   18  C24 UNL     1       5.774   8.584  11.775  1.00  0.00     0.018 C 
HETATM   19  C25 UNL     1       6.550   8.539  13.108  1.00  0.00     0.023 C 
HETATM   20  C26 UNL     1       6.033   9.964  11.136  1.00  0.00     0.023 C 
HETATM   21  C27 UNL     1       4.257   8.279  12.039  1.00  0.00     0.020 C 
HETATM   22  C28 UNL     1       3.460   9.517  12.441  1.00  0.00     0.090 C 
HETATM   23  C29 UNL     1       2.068   9.150  12.879  1.00  0.00     0.157 C 
HETATM   24  O2  UNL     1       1.497   9.825  13.734  1.00  0.00    -0.293 OA
ENDROOT
BRANCH   1  25
HETATM   25  C6  UNL     1      -2.665   4.891  13.045  1.00  0.00    -0.014 C 
HETATM   26  C7  UNL     1      -2.742   3.960  11.832  1.00  0.00     0.010 C 
BRANCH  25  27
HETATM   27  C5  UNL     1      -4.068   5.069  13.695  1.00  0.00     0.008 C 
BRANCH  27  28
HETATM   28  C4  UNL     1      -5.305   4.863  12.806  1.00  0.00     0.028 C 
BRANCH  28  29
HETATM   29  C3  UNL     1      -5.301   3.569  12.041  1.00  0.00    -0.013 C 
HETATM   30  C2  UNL     1      -6.209   2.574  12.082  1.00  0.00     0.008 C 
HETATM   31  C1  UNL     1      -6.121   1.368  11.197  1.00  0.00     0.055 C 
BRANCH  30  32
HETATM   32  C30 UNL     1      -7.397   2.589  12.960  1.00  0.00     0.171 C 
HETATM   33  O3  UNL     1      -7.529   3.269  13.962  1.00  0.00    -0.646 OA
BRANCH  32  34
HETATM   34  O4  UNL     1      -8.395   1.833  12.481  1.00  0.00    -0.773 OA
HETATM   35  H44 UNL     1      -9.125   1.973  13.118  1.00  0.00     0.167 HD
ENDBRANCH  32  34
ENDBRANCH  30  32
ENDBRANCH  28  29
ENDBRANCH  27  28
ENDBRANCH  25  27
ENDBRANCH   1  25
TORSDOF 6
ENDMDL
MODEL 2
REMARK minimizedAffinity -9.70271301
REMARK  6 active torsions:
REMARK  status: ('A' for Active; 'I' for Inactive)
REMARK    1  A    between atoms: C2_2  and  C30_32 
REMARK    2  A    between atoms: C3_3  and  C4_4 
REMARK    3  A    between atoms: C4_4  and  C5_5 
REMARK    4  A    between atoms: C5_5  and  C6_6 
REMARK    5  A    between atoms: C6_6  and  C8_8 
REMARK    6  A    between atoms: C30_32  and  O4_34 
ROOT
HETATM    1  C8  UNL     1      -2.092   6.313  12.629  1.00  0.00    -0.002 C 
HETATM    2  C9  UNL     1      -2.079   7.252  13.869  1.00  0.00     0.007 C 
HETATM    3  C10 UNL     1      -0.753   8.035  13.842  1.00  0.00     0.015 C 
HETATM    4  C11 UNL     1      -0.178   7.802  12.432  1.00  0.00    -0.005 C 
HETATM    5  C12 UNL     1      -0.875   8.826  11.481  1.00  0.00     0.021 C 
HETATM    6  C13 UNL     1       1.312   7.983  12.167  1.00  0.00    -0.000 C 
HETATM    7  C14 UNL     1       1.961   7.243  11.230  1.00  0.00    -0.060 C 
HETATM    8  C15 UNL     1       1.202   6.178  10.418  1.00  0.00     0.036 C 
HETATM    9  C16 UNL     1      -0.287   5.950  10.750  1.00  0.00     0.015 C 
HETATM   10  C17 UNL     1      -0.590   6.293  12.213  1.00  0.00    -0.028 C 
HETATM   11  C18 UNL     1       0.188   5.299  13.135  1.00  0.00     0.016 C 
HETATM   12  C19 UNL     1       3.472   7.408  10.904  1.00  0.00    -0.014 C 
HETATM   13  C20 UNL     1       3.564   8.156   9.553  1.00  0.00     0.020 C 
HETATM   14  C21 UNL     1       4.154   6.012  10.769  1.00  0.00     0.021 C 
HETATM   15  C22 UNL     1       5.662   5.970  10.997  1.00  0.00     0.080 C 
HETATM   16  C23 UNL     1       6.312   7.327  10.929  1.00  0.00     0.135 C 
HETATM   17  O1  UNL     1       7.313   7.504  10.235  1.00  0.00    -0.297 OA
HETATM   18  C24 UNL     1       5.731   8.424  11.829  1.00  0.00     0.018 C 
HETATM   19  C25 UNL     1       6.482   8.338  13.174  1.00  0.00     0.023 C 
HETATM   20  C26 UNL     1       6.043   9.803  11.212  1.00  0.00     0.023 C 
HETATM   21  C27 UNL     1       4.201   8.162  12.065  1.00  0.00     0.020 C 
HETATM   22  C28 UNL     1       3.436   9.420  12.469  1.00  0.00     0.090 C 
HETATM   23  C29 UNL     1       2.026   9.091  12.880  1.00  0.00     0.157 C 
HETATM   24  O2  UNL     1       1.462   9.773  13.734  1.00  0.00    -0.293 OA
ENDROOT
BRANCH   1  25
HETATM   25  C6  UNL     1      -2.839   4.980  12.915  1.00  0.00    -0.014 C 
HETATM   26  C7  UNL     1      -3.027   4.118  11.663  1.00  0.00     0.010 C 
BRANCH  25  27
HETATM   27  C5  UNL     1      -4.193   5.186  13.652  1.00  0.00     0.008 C 
BRANCH  27  28
HETATM   28  C4  UNL     1      -5.376   4.291  13.250  1.00  0.00     0.028 C 
BRANCH  28  29
HETATM   29  C3  UNL     1      -6.673   5.032  13.075  1.00  0.00    -0.013 C 
HETATM   30  C2  UNL     1      -7.512   5.478  14.031  1.00  0.00     0.008 C 
HETATM   31  C1  UNL     1      -8.738   6.280  13.714  1.00  0.00     0.055 C 
BRANCH  30  32
HETATM   32  C30 UNL     1      -7.291   5.266  15.476  1.00  0.00     0.171 C 
HETATM   33  O3  UNL     1      -6.658   6.004  16.211  1.00  0.00    -0.646 OA
BRANCH  32  34
HETATM   34  O4  UNL     1      -7.959   4.203  15.945  1.00  0.00    -0.773 OA
HETATM   35  H44 UNL     1      -7.772   4.210  16.906  1.00  0.00     0.167 HD
ENDBRANCH  32  34
ENDBRANCH  30  32
ENDBRANCH  28  29
ENDBRANCH  27  28
ENDBRANCH  25  27
ENDBRANCH   1  25
TORSDOF 6
ENDMDL
MODEL 3
REMARK minimizedAffinity -9.16964722
REMARK  6 active torsions:
REMARK  status: ('A' for Active; 'I' for Inactive)
REMARK    1  A    between atoms: C2_2  and  C30_32 
REMARK    2  A    between atoms: C3_3  and  C4_4 
REMARK    3  A    between atoms: C4_4  and  C5_5 
REMARK    4  A    between atoms: C5_5  and  C6_6 
REMARK    5  A    between atoms: C6_6  and  C8_8 
REMARK    6  A    between atoms: C30_32  and  O4_34 
ROOT
HETATM    1  C8  UNL     1       0.009   7.376  13.551  1.00  0.00    -0.002 C 
HETATM    2  C9  UNL     1      -0.386   8.755  12.949  1.00  0.00     0.007 C 
HETATM    3  C10 UNL     1      -1.924   8.819  12.910  1.00  0.00     0.015 C 
HETATM    4  C11 UNL     1      -2.397   7.647  13.790  1.00  0.00    -0.005 C 
HETATM    5  C12 UNL     1      -2.352   8.143  15.271  1.00  0.00     0.021 C 
HETATM    6  C13 UNL     1      -3.799   7.071  13.621  1.00  0.00    -0.000 C 
HETATM    7  C14 UNL     1      -4.058   5.758  13.853  1.00  0.00    -0.060 C 
HETATM    8  C15 UNL     1      -2.926   4.805  14.279  1.00  0.00     0.036 C 
HETATM    9  C16 UNL     1      -1.499   5.382  14.371  1.00  0.00     0.015 C 
HETATM   10  C17 UNL     1      -1.314   6.563  13.411  1.00  0.00    -0.028 C 
HETATM   11  C18 UNL     1      -1.447   6.043  11.943  1.00  0.00     0.016 C 
HETATM   12  C19 UNL     1      -5.473   5.128  13.719  1.00  0.00    -0.014 C 
HETATM   13  C20 UNL     1      -6.003   4.898  15.155  1.00  0.00     0.020 C 
HETATM   14  C21 UNL     1      -5.391   3.760  12.975  1.00  0.00     0.021 C 
HETATM   15  C22 UNL     1      -6.668   3.285  12.287  1.00  0.00     0.080 C 
HETATM   16  C23 UNL     1      -7.902   4.008  12.760  1.00  0.00     0.135 C 
HETATM   17  O1  UNL     1      -8.902   3.375  13.100  1.00  0.00    -0.297 OA
HETATM   18  C24 UNL     1      -7.878   5.539  12.701  1.00  0.00     0.018 C 
HETATM   19  C25 UNL     1      -8.407   5.938  11.307  1.00  0.00     0.023 C 
HETATM   20  C26 UNL     1      -8.863   6.101  13.747  1.00  0.00     0.023 C 
HETATM   21  C27 UNL     1      -6.405   6.055  12.871  1.00  0.00     0.020 C 
HETATM   22  C28 UNL     1      -6.331   7.501  13.356  1.00  0.00     0.090 C 
HETATM   23  C29 UNL     1      -4.918   8.018  13.311  1.00  0.00     0.157 C 
HETATM   24  O2  UNL     1      -4.709   9.210  13.094  1.00  0.00    -0.293 OA
ENDROOT
BRANCH   1  25
HETATM   25  C6  UNL     1       1.328   6.829  12.939  1.00  0.00    -0.014 C 
HETATM   26  C7  UNL     1       2.561   7.640  13.350  1.00  0.00     0.010 C 
BRANCH  25  27
HETATM   27  C5  UNL     1       1.262   6.668  11.393  1.00  0.00     0.008 C 
BRANCH  27  28
HETATM   28  C4  UNL     1       2.567   6.827  10.596  1.00  0.00     0.028 C 
BRANCH  28  29
HETATM   29  C3  UNL     1       2.506   6.265   9.203  1.00  0.00    -0.013 C 
HETATM   30  C2  UNL     1       2.414   6.936   8.037  1.00  0.00     0.008 C 
HETATM   31  C1  UNL     1       2.445   6.245   6.707  1.00  0.00     0.055 C 
BRANCH  30  32
HETATM   32  C30 UNL     1       2.322   8.408   7.947  1.00  0.00     0.171 C 
HETATM   33  O3  UNL     1       3.197   9.148   7.533  1.00  0.00    -0.646 OA
BRANCH  32  34
HETATM   34  O4  UNL     1       1.107   8.865   8.279  1.00  0.00    -0.773 OA
HETATM   35  H44 UNL     1       1.166   9.830   8.126  1.00  0.00     0.167 HD
ENDBRANCH  32  34
ENDBRANCH  30  32
ENDBRANCH  28  29
ENDBRANCH  27  28
ENDBRANCH  25  27
ENDBRANCH   1  25
TORSDOF 6
ENDMDL
MODEL 4
REMARK minimizedAffinity -8.84745979
REMARK  6 active torsions:
REMARK  status: ('A' for Active; 'I' for Inactive)
REMARK    1  A    between atoms: C2_2  and  C30_32 
REMARK    2  A    between atoms: C3_3  and  C4_4 
REMARK    3  A    between atoms: C4_4  and  C5_5 
REMARK    4  A    between atoms: C5_5  and  C6_6 
REMARK    5  A    between atoms: C6_6  and  C8_8 
REMARK    6  A    between atoms: C30_32  and  O4_34 
ROOT
HETATM    1  C8  UNL     1      -1.738   6.680  13.723  1.00  0.00    -0.002 C 
HETATM    2  C9  UNL     1      -1.644   6.617  15.274  1.00  0.00     0.007 C 
HETATM    3  C10 UNL     1      -0.257   7.151  15.676  1.00  0.00     0.015 C 
HETATM    4  C11 UNL     1       0.295   7.827  14.408  1.00  0.00    -0.005 C 
HETATM    5  C12 UNL     1      -0.313   9.266  14.357  1.00  0.00     0.021 C 
HETATM    6  C13 UNL     1       1.795   8.039  14.237  1.00  0.00    -0.000 C 
HETATM    7  C14 UNL     1       2.378   8.020  13.009  1.00  0.00    -0.060 C 
HETATM    8  C15 UNL     1       1.532   7.763  11.750  1.00  0.00     0.036 C 
HETATM    9  C16 UNL     1       0.029   7.474  11.942  1.00  0.00     0.015 C 
HETATM   10  C17 UNL     1      -0.243   6.831  13.307  1.00  0.00    -0.028 C 
HETATM   11  C18 UNL     1       0.449   5.430  13.350  1.00  0.00     0.016 C 
HETATM   12  C19 UNL     1       3.898   8.255  12.780  1.00  0.00    -0.014 C 
HETATM   13  C20 UNL     1       4.052   9.682  12.202  1.00  0.00     0.020 C 
HETATM   14  C21 UNL     1       4.460   7.221  11.757  1.00  0.00     0.021 C 
HETATM   15  C22 UNL     1       5.959   6.945  11.825  1.00  0.00     0.080 C 
HETATM   16  C23 UNL     1       6.721   7.992  12.595  1.00  0.00     0.135 C 
HETATM   17  O1  UNL     1       7.733   8.503  12.115  1.00  0.00    -0.297 OA
HETATM   18  C24 UNL     1       6.235   8.304  14.015  1.00  0.00     0.018 C 
HETATM   19  C25 UNL     1       6.978   7.336  14.960  1.00  0.00     0.023 C 
HETATM   20  C26 UNL     1       6.663   9.738  14.391  1.00  0.00     0.023 C 
HETATM   21  C27 UNL     1       4.689   8.053  14.114  1.00  0.00     0.020 C 
HETATM   22  C28 UNL     1       4.033   8.816  15.263  1.00  0.00     0.090 C 
HETATM   23  C29 UNL     1       2.600   8.394  15.449  1.00  0.00     0.157 C 
HETATM   24  O2  UNL     1       2.097   8.414  16.571  1.00  0.00    -0.293 OA
ENDROOT
BRANCH   1  25
HETATM   25  C6  UNL     1      -2.594   5.520  13.142  1.00  0.00    -0.014 C 
HETATM   26  C7  UNL     1      -2.011   4.931  11.854  1.00  0.00     0.010 C 
BRANCH  25  27
HETATM   27  C5  UNL     1      -4.089   5.906  12.946  1.00  0.00     0.008 C 
BRANCH  27  28
HETATM   28  C4  UNL     1      -5.154   4.844  13.261  1.00  0.00     0.028 C 
BRANCH  28  29
HETATM   29  C3  UNL     1      -5.085   3.627  12.381  1.00  0.00    -0.013 C 
HETATM   30  C2  UNL     1      -6.079   2.778  12.054  1.00  0.00     0.008 C 
HETATM   31  C1  UNL     1      -5.886   1.644  11.093  1.00  0.00     0.055 C 
BRANCH  30  32
HETATM   32  C30 UNL     1      -7.460   2.902  12.566  1.00  0.00     0.171 C 
HETATM   33  O3  UNL     1      -8.097   3.937  12.642  1.00  0.00    -0.646 OA
BRANCH  32  34
HETATM   34  O4  UNL     1      -8.006   1.712  12.855  1.00  0.00    -0.773 OA
HETATM   35  H44 UNL     1      -8.921   1.930  13.126  1.00  0.00     0.167 HD
ENDBRANCH  32  34
ENDBRANCH  30  32
ENDBRANCH  28  29
ENDBRANCH  27  28
ENDBRANCH  25  27
ENDBRANCH   1  25
TORSDOF 6
ENDMDL
MODEL 5
REMARK minimizedAffinity -8.83054733
REMARK  6 active torsions:
REMARK  status: ('A' for Active; 'I' for Inactive)
REMARK    1  A    between atoms: C2_2  and  C30_32 
REMARK    2  A    between atoms: C3_3  and  C4_4 
REMARK    3  A    between atoms: C4_4  and  C5_5 
REMARK    4  A    between atoms: C5_5  and  C6_6 
REMARK    5  A    between atoms: C6_6  and  C8_8 
REMARK    6  A    between atoms: C30_32  and  O4_34 
ROOT
HETATM    1  C8  UNL     1      -8.532   6.140  14.264  1.00  0.00    -0.002 C 
HETATM    2  C9  UNL     1      -8.808   5.512  12.868  1.00  0.00     0.007 C 
HETATM    3  C10 UNL     1      -7.462   5.015  12.310  1.00  0.00     0.015 C 
HETATM    4  C11 UNL     1      -6.495   5.046  13.507  1.00  0.00    -0.005 C 
HETATM    5  C12 UNL     1      -6.722   3.724  14.309  1.00  0.00     0.021 C 
HETATM    6  C13 UNL     1      -4.989   5.104  13.282  1.00  0.00    -0.000 C 
HETATM    7  C14 UNL     1      -4.165   5.737  14.159  1.00  0.00    -0.060 C 
HETATM    8  C15 UNL     1      -4.742   6.433  15.405  1.00  0.00     0.036 C 
HETATM    9  C16 UNL     1      -6.274   6.433  15.581  1.00  0.00     0.015 C 
HETATM   10  C17 UNL     1      -6.990   6.362  14.227  1.00  0.00    -0.028 C 
HETATM   11  C18 UNL     1      -6.674   7.663  13.421  1.00  0.00     0.016 C 
HETATM   12  C19 UNL     1      -2.621   5.803  13.987  1.00  0.00    -0.014 C 
HETATM   13  C20 UNL     1      -2.010   4.814  15.008  1.00  0.00     0.020 C 
HETATM   14  C21 UNL     1      -2.102   7.242  14.290  1.00  0.00     0.021 C 
HETATM   15  C22 UNL     1      -0.764   7.625  13.664  1.00  0.00     0.080 C 
HETATM   16  C23 UNL     1       0.029   6.439  13.182  1.00  0.00     0.135 C 
HETATM   17  O1  UNL     1       1.213   6.314  13.492  1.00  0.00    -0.297 OA
HETATM   18  C24 UNL     1      -0.678   5.471  12.226  1.00  0.00     0.018 C 
HETATM   19  C25 UNL     1      -0.416   5.989  10.796  1.00  0.00     0.023 C 
HETATM   20  C26 UNL     1      -0.022   4.079  12.340  1.00  0.00     0.023 C 
HETATM   21  C27 UNL     1      -2.221   5.474  12.511  1.00  0.00     0.020 C 
HETATM   22  C28 UNL     1      -2.922   4.208  12.021  1.00  0.00     0.090 C 
HETATM   23  C29 UNL     1      -4.417   4.338  12.129  1.00  0.00     0.157 C 
HETATM   24  O2  UNL     1      -5.141   3.760  11.320  1.00  0.00    -0.293 OA
ENDROOT
BRANCH   1  25
HETATM   25  C6  UNL     1      -9.483   7.332  14.565  1.00  0.00    -0.014 C 
HETATM   26  C7  UNL     1      -9.310   7.893  15.980  1.00  0.00     0.010 C 
BRANCH  25  27
HETATM   27  C5  UNL     1     -10.978   7.006  14.279  1.00  0.00     0.008 C 
BRANCH  27  28
HETATM   28  C4  UNL     1     -11.581   7.502  12.954  1.00  0.00     0.028 C 
BRANCH  28  29
HETATM   29  C3  UNL     1     -13.078   7.642  12.978  1.00  0.00    -0.013 C 
HETATM   30  C2  UNL     1     -13.811   8.763  12.827  1.00  0.00     0.008 C 
HETATM   31  C1  UNL     1     -15.310   8.744  12.790  1.00  0.00     0.055 C 
BRANCH  30  32
HETATM   32  C30 UNL     1     -13.223  10.105  12.636  1.00  0.00     0.171 C 
HETATM   33  O3  UNL     1     -13.184  10.986  13.476  1.00  0.00    -0.646 OA
BRANCH  32  34
HETATM   34  O4  UNL     1     -12.625  10.235  11.444  1.00  0.00    -0.773 OA
HETATM   35  H44 UNL     1     -12.238  11.134  11.470  1.00  0.00     0.167 HD
ENDBRANCH  32  34
ENDBRANCH  30  32
ENDBRANCH  28  29
ENDBRANCH  27  28
ENDBRANCH  25  27
ENDBRANCH   1  25
TORSDOF 6
ENDMDL
MODEL 6
REMARK minimizedAffinity -8.7227211
REMARK  6 active torsions:
REMARK  status: ('A' for Active; 'I' for Inactive)
REMARK    1  A    between atoms: C2_2  and  C30_32 
REMARK    2  A    between atoms: C3_3  and  C4_4 
REMARK    3  A    between atoms: C4_4  and  C5_5 
REMARK    4  A    between atoms: C5_5  and  C6_6 
REMARK    5  A    between atoms: C6_6  and  C8_8 
REMARK    6  A    between atoms: C30_32  and  O4_34 
ROOT
HETATM    1  C8  UNL     1      -2.372   4.690  13.015  1.00  0.00    -0.002 C 
HETATM    2  C9  UNL     1      -1.460   5.168  11.849  1.00  0.00     0.007 C 
HETATM    3  C10 UNL     1      -0.980   6.591  12.192  1.00  0.00     0.015 C 
HETATM    4  C11 UNL     1      -1.327   6.784  13.679  1.00  0.00    -0.005 C 
HETATM    5  C12 UNL     1      -0.174   6.127  14.506  1.00  0.00     0.021 C 
HETATM    6  C13 UNL     1      -1.468   8.185  14.264  1.00  0.00    -0.000 C 
HETATM    7  C14 UNL     1      -2.328   8.445  15.284  1.00  0.00    -0.060 C 
HETATM    8  C15 UNL     1      -3.204   7.322  15.867  1.00  0.00     0.036 C 
HETATM    9  C16 UNL     1      -3.109   5.926  15.217  1.00  0.00     0.015 C 
HETATM   10  C17 UNL     1      -2.712   6.027  13.740  1.00  0.00    -0.028 C 
HETATM   11  C18 UNL     1      -3.851   6.761  12.961  1.00  0.00     0.016 C 
HETATM   12  C19 UNL     1      -2.491   9.849  15.930  1.00  0.00    -0.014 C 
HETATM   13  C20 UNL     1      -1.777   9.800  17.302  1.00  0.00     0.020 C 
HETATM   14  C21 UNL     1      -4.000  10.178  16.145  1.00  0.00     0.021 C 
HETATM   15  C22 UNL     1      -4.365  11.656  16.241  1.00  0.00     0.080 C 
HETATM   16  C23 UNL     1      -3.178  12.546  16.505  1.00  0.00     0.135 C 
HETATM   17  O1  UNL     1      -3.219  13.386  17.404  1.00  0.00    -0.297 OA
HETATM   18  C24 UNL     1      -1.985  12.417  15.552  1.00  0.00     0.018 C 
HETATM   19  C25 UNL     1      -2.232  13.407  14.395  1.00  0.00     0.023 C 
HETATM   20  C26 UNL     1      -0.703  12.869  16.282  1.00  0.00     0.023 C 
HETATM   21  C27 UNL     1      -1.912  10.954  14.985  1.00  0.00     0.020 C 
HETATM   22  C28 UNL     1      -0.521  10.577  14.484  1.00  0.00     0.090 C 
HETATM   23  C29 UNL     1      -0.541   9.252  13.769  1.00  0.00     0.157 C 
HETATM   24  O2  UNL     1       0.244   9.044  12.845  1.00  0.00    -0.293 OA
ENDROOT
BRANCH   1  25
HETATM   25  C6  UNL     1      -3.514   3.760  12.518  1.00  0.00    -0.014 C 
HETATM   26  C7  UNL     1      -3.168   3.028  11.219  1.00  0.00     0.010 C 
BRANCH  25  27
HETATM   27  C5  UNL     1      -4.883   4.491  12.393  1.00  0.00     0.008 C 
BRANCH  27  28
HETATM   28  C4  UNL     1      -6.147   3.731  12.826  1.00  0.00     0.028 C 
BRANCH  28  29
HETATM   29  C3  UNL     1      -7.410   4.542  12.736  1.00  0.00    -0.013 C 
HETATM   30  C2  UNL     1      -7.980   5.302  13.692  1.00  0.00     0.008 C 
HETATM   31  C1  UNL     1      -9.205   6.129  13.437  1.00  0.00     0.055 C 
BRANCH  30  32
HETATM   32  C30 UNL     1      -7.439   5.437  15.060  1.00  0.00     0.171 C 
HETATM   33  O3  UNL     1      -6.580   6.227  15.407  1.00  0.00    -0.646 OA
BRANCH  32  34
HETATM   34  O4  UNL     1      -8.075   4.651  15.940  1.00  0.00    -0.773 OA
HETATM   35  H44 UNL     1      -7.663   4.875  16.799  1.00  0.00     0.167 HD
ENDBRANCH  32  34
ENDBRANCH  30  32
ENDBRANCH  28  29
ENDBRANCH  27  28
ENDBRANCH  25  27
ENDBRANCH   1  25
TORSDOF 6
ENDMDL
MODEL 7
REMARK minimizedAffinity -8.6665163
REMARK  6 active torsions:
REMARK  status: ('A' for Active; 'I' for Inactive)
REMARK    1  A    between atoms: C2_2  and  C30_32 
REMARK    2  A    between atoms: C3_3  and  C4_4 
REMARK    3  A    between atoms: C4_4  and  C5_5 
REMARK    4  A    between atoms: C5_5  and  C6_6 
REMARK    5  A    between atoms: C6_6  and  C8_8 
REMARK    6  A    between atoms: C30_32  and  O4_34 
ROOT
HETATM    1  C8  UNL     1      -2.700   6.140  13.219  1.00  0.00    -0.002 C 
HETATM    2  C9  UNL     1      -2.549   5.317  11.907  1.00  0.00     0.007 C 
HETATM    3  C10 UNL     1      -1.070   5.388  11.484  1.00  0.00     0.015 C 
HETATM    4  C11 UNL     1      -0.328   5.948  12.712  1.00  0.00    -0.005 C 
HETATM    5  C12 UNL     1      -0.061   4.744  13.671  1.00  0.00     0.021 C 
HETATM    6  C13 UNL     1       1.031   6.620  12.552  1.00  0.00    -0.000 C 
HETATM    7  C14 UNL     1       1.425   7.627  13.375  1.00  0.00    -0.060 C 
HETATM    8  C15 UNL     1       0.489   8.133  14.488  1.00  0.00     0.036 C 
HETATM    9  C16 UNL     1      -0.913   7.498  14.590  1.00  0.00     0.015 C 
HETATM   10  C17 UNL     1      -1.395   6.992  13.226  1.00  0.00    -0.028 C 
HETATM   11  C18 UNL     1      -1.572   8.216  12.270  1.00  0.00     0.016 C 
HETATM   12  C19 UNL     1       2.809   8.328  13.269  1.00  0.00    -0.014 C 
HETATM   13  C20 UNL     1       3.672   7.801  14.441  1.00  0.00     0.020 C 
HETATM   14  C21 UNL     1       2.647   9.873  13.402  1.00  0.00     0.021 C 
HETATM   15  C22 UNL     1       3.758  10.725  12.794  1.00  0.00     0.080 C 
HETATM   16  C23 UNL     1       5.017   9.947  12.512  1.00  0.00     0.135 C 
HETATM   17  O1  UNL     1       6.109  10.372  12.892  1.00  0.00    -0.297 OA
HETATM   18  C24 UNL     1       4.878   8.680  11.662  1.00  0.00     0.018 C 
HETATM   19  C25 UNL     1       5.040   9.114  10.189  1.00  0.00     0.023 C 
HETATM   20  C26 UNL     1       6.039   7.719  11.991  1.00  0.00     0.023 C 
HETATM   21  C27 UNL     1       3.454   8.053  11.871  1.00  0.00     0.020 C 
HETATM   22  C28 UNL     1       3.397   6.568  11.521  1.00  0.00     0.090 C 
HETATM   23  C29 UNL     1       1.981   6.058  11.540  1.00  0.00     0.157 C 
HETATM   24  O2  UNL     1       1.648   5.149  10.782  1.00  0.00    -0.293 OA
ENDROOT
BRANCH   1  25
HETATM   25  C6  UNL     1      -4.086   6.837  13.314  1.00  0.00    -0.014 C 
HETATM   26  C7  UNL     1      -4.022   8.339  13.026  1.00  0.00     0.010 C 
BRANCH  25  27
HETATM   27  C5  UNL     1      -4.814   6.562  14.661  1.00  0.00     0.008 C 
BRANCH  27  28
HETATM   28  C4  UNL     1      -6.086   5.699  14.630  1.00  0.00     0.028 C 
BRANCH  28  29
HETATM   29  C3  UNL     1      -7.067   6.093  13.562  1.00  0.00    -0.013 C 
HETATM   30  C2  UNL     1      -7.726   5.293  12.700  1.00  0.00     0.008 C 
HETATM   31  C1  UNL     1      -8.746   5.817  11.735  1.00  0.00     0.055 C 
BRANCH  30  32
HETATM   32  C30 UNL     1      -7.550   3.827  12.649  1.00  0.00     0.171 C 
HETATM   33  O3  UNL     1      -6.592   3.245  12.172  1.00  0.00    -0.646 OA
BRANCH  32  34
HETATM   34  O4  UNL     1      -8.529   3.172  13.289  1.00  0.00    -0.773 OA
HETATM   35  H44 UNL     1      -8.266   2.231  13.227  1.00  0.00     0.167 HD
ENDBRANCH  32  34
ENDBRANCH  30  32
ENDBRANCH  28  29
ENDBRANCH  27  28
ENDBRANCH  25  27
ENDBRANCH   1  25
TORSDOF 6
ENDMDL
MODEL 8
REMARK minimizedAffinity -8.65330315
REMARK  6 active torsions:
REMARK  status: ('A' for Active; 'I' for Inactive)
REMARK    1  A    between atoms: C2_2  and  C30_32 
REMARK    2  A    between atoms: C3_3  and  C4_4 
REMARK    3  A    between atoms: C4_4  and  C5_5 
REMARK    4  A    between atoms: C5_5  and  C6_6 
REMARK    5  A    between atoms: C6_6  and  C8_8 
REMARK    6  A    between atoms: C30_32  and  O4_34 
ROOT
HETATM    1  C8  UNL     1      -0.180   7.743  13.999  1.00  0.00    -0.002 C 
HETATM    2  C9  UNL     1      -0.649   9.143  13.512  1.00  0.00     0.007 C 
HETATM    3  C10 UNL     1      -2.187   9.112  13.427  1.00  0.00     0.015 C 
HETATM    4  C11 UNL     1      -2.604   7.835  14.179  1.00  0.00    -0.005 C 
HETATM    5  C12 UNL     1      -2.633   8.192  15.700  1.00  0.00     0.021 C 
HETATM    6  C13 UNL     1      -3.958   7.188  13.910  1.00  0.00    -0.000 C 
HETATM    7  C14 UNL     1      -4.135   5.845  14.012  1.00  0.00    -0.060 C 
HETATM    8  C15 UNL     1      -2.954   4.931  14.387  1.00  0.00     0.036 C 
HETATM    9  C16 UNL     1      -1.572   5.588  14.581  1.00  0.00     0.015 C 
HETATM   10  C17 UNL     1      -1.440   6.863  13.739  1.00  0.00    -0.028 C 
HETATM   11  C18 UNL     1      -1.497   6.476  12.226  1.00  0.00     0.016 C 
HETATM   12  C19 UNL     1      -5.500   5.140  13.773  1.00  0.00    -0.014 C 
HETATM   13  C20 UNL     1      -6.053   4.743  15.162  1.00  0.00     0.020 C 
HETATM   14  C21 UNL     1      -5.306   3.857  12.909  1.00  0.00     0.021 C 
HETATM   15  C22 UNL     1      -6.528   3.367  12.138  1.00  0.00     0.080 C 
HETATM   16  C23 UNL     1      -7.821   3.961  12.633  1.00  0.00     0.135 C 
HETATM   17  O1  UNL     1      -8.785   3.237  12.879  1.00  0.00    -0.297 OA
HETATM   18  C24 UNL     1      -7.898   5.490  12.715  1.00  0.00     0.018 C 
HETATM   19  C25 UNL     1      -8.413   5.983  11.346  1.00  0.00     0.023 C 
HETATM   20  C26 UNL     1      -8.947   5.887  13.774  1.00  0.00     0.023 C 
HETATM   21  C27 UNL     1      -6.468   6.081  12.982  1.00  0.00     0.020 C 
HETATM   22  C28 UNL     1      -6.505   7.477  13.599  1.00  0.00     0.090 C 
HETATM   23  C29 UNL     1      -5.130   8.086  13.651  1.00  0.00     0.157 C 
HETATM   24  O2  UNL     1      -4.995   9.304  13.551  1.00  0.00    -0.293 OA
ENDROOT
BRANCH   1  25
HETATM   25  C6  UNL     1       1.190   7.341  13.384  1.00  0.00    -0.014 C 
HETATM   26  C7  UNL     1       2.337   8.253  13.831  1.00  0.00     0.010 C 
BRANCH  25  27
HETATM   27  C5  UNL     1       1.151   7.222  11.833  1.00  0.00     0.008 C 
BRANCH  27  28
HETATM   28  C4  UNL     1       2.376   7.708  11.042  1.00  0.00     0.028 C 
BRANCH  28  29
HETATM   29  C3  UNL     1       2.228   7.592   9.551  1.00  0.00    -0.013 C 
HETATM   30  C2  UNL     1       2.653   6.598   8.747  1.00  0.00     0.008 C 
HETATM   31  C1  UNL     1       2.362   6.573   7.276  1.00  0.00     0.055 C 
BRANCH  30  32
HETATM   32  C30 UNL     1       3.401   5.419   9.230  1.00  0.00     0.171 C 
HETATM   33  O3  UNL     1       3.481   4.347   8.657  1.00  0.00    -0.646 OA
BRANCH  32  34
HETATM   34  O4  UNL     1       4.093   5.676  10.349  1.00  0.00    -0.773 OA
HETATM   35  H44 UNL     1       4.576   4.844  10.526  1.00  0.00     0.167 HD
ENDBRANCH  32  34
ENDBRANCH  30  32
ENDBRANCH  28  29
ENDBRANCH  27  28
ENDBRANCH  25  27
ENDBRANCH   1  25
TORSDOF 6
ENDMDL
MODEL 9
REMARK minimizedAffinity -8.5205822
REMARK  6 active torsions:
REMARK  status: ('A' for Active; 'I' for Inactive)
REMARK    1  A    between atoms: C2_2  and  C30_32 
REMARK    2  A    between atoms: C3_3  and  C4_4 
REMARK    3  A    between atoms: C4_4  and  C5_5 
REMARK    4  A    between atoms: C5_5  and  C6_6 
REMARK    5  A    between atoms: C6_6  and  C8_8 
REMARK    6  A    between atoms: C30_32  and  O4_34 
ROOT
HETATM    1  C8  UNL     1       3.938   7.650  11.079  1.00  0.00    -0.002 C 
HETATM    2  C9  UNL     1       3.924   6.142  10.697  1.00  0.00     0.007 C 
HETATM    3  C10 UNL     1       2.496   5.618  10.936  1.00  0.00     0.015 C 
HETATM    4  C11 UNL     1       1.631   6.879  11.119  1.00  0.00    -0.005 C 
HETATM    5  C12 UNL     1       1.270   7.395   9.689  1.00  0.00     0.021 C 
HETATM    6  C13 UNL     1       0.294   6.799  11.848  1.00  0.00    -0.000 C 
HETATM    7  C14 UNL     1      -0.184   7.846  12.570  1.00  0.00    -0.060 C 
HETATM    8  C15 UNL     1       0.632   9.147  12.686  1.00  0.00     0.036 C 
HETATM    9  C16 UNL     1       2.017   9.188  12.009  1.00  0.00     0.015 C 
HETATM   10  C17 UNL     1       2.638   7.789  11.927  1.00  0.00    -0.028 C 
HETATM   11  C18 UNL     1       2.910   7.272  13.377  1.00  0.00     0.016 C 
HETATM   12  C19 UNL     1      -1.551   7.824  13.309  1.00  0.00    -0.014 C 
HETATM   13  C20 UNL     1      -2.528   8.688  12.478  1.00  0.00     0.020 C 
HETATM   14  C21 UNL     1      -1.407   8.435  14.736  1.00  0.00     0.021 C 
HETATM   15  C22 UNL     1      -2.452   8.010  15.764  1.00  0.00     0.080 C 
HETATM   16  C23 UNL     1      -3.674   7.383  15.146  1.00  0.00     0.135 C 
HETATM   17  O1  UNL     1      -4.799   7.765  15.467  1.00  0.00    -0.297 OA
HETATM   18  C24 UNL     1      -3.445   6.205  14.192  1.00  0.00     0.018 C 
HETATM   19  C25 UNL     1      -3.457   4.926  15.057  1.00  0.00     0.023 C 
HETATM   20  C26 UNL     1      -4.632   6.110  13.212  1.00  0.00     0.023 C 
HETATM   21  C27 UNL     1      -2.049   6.352  13.491  1.00  0.00     0.020 C 
HETATM   22  C28 UNL     1      -1.954   5.573  12.180  1.00  0.00     0.090 C 
HETATM   23  C29 UNL     1      -0.547   5.575  11.647  1.00  0.00     0.157 C 
HETATM   24  O2  UNL     1      -0.136   4.613  11.001  1.00  0.00    -0.293 OA
ENDROOT
BRANCH   1  25
HETATM   25  C6  UNL     1       5.306   8.088  11.673  1.00  0.00    -0.014 C 
HETATM   26  C7  UNL     1       6.157   8.894  10.687  1.00  0.00     0.010 C 
BRANCH  25  27
HETATM   27  C5  UNL     1       6.121   6.902  12.266  1.00  0.00     0.008 C 
BRANCH  27  28
HETATM   28  C4  UNL     1       6.716   7.070  13.673  1.00  0.00     0.028 C 
BRANCH  28  29
HETATM   29  C3  UNL     1       8.066   7.731  13.692  1.00  0.00    -0.013 C 
HETATM   30  C2  UNL     1       8.764   8.169  14.758  1.00  0.00     0.008 C 
HETATM   31  C1  UNL     1      10.145   8.738  14.637  1.00  0.00     0.055 C 
BRANCH  30  32
HETATM   32  C30 UNL     1       8.267   8.092  16.148  1.00  0.00     0.171 C 
HETATM   33  O3  UNL     1       7.222   8.569  16.553  1.00  0.00    -0.646 OA
BRANCH  32  34
HETATM   34  O4  UNL     1       9.050   7.336  16.929  1.00  0.00    -0.773 OA
HETATM   35  H44 UNL     1       8.586   7.325  17.791  1.00  0.00     0.167 HD
ENDBRANCH  32  34
ENDBRANCH  30  32
ENDBRANCH  28  29
ENDBRANCH  27  28
ENDBRANCH  25  27
ENDBRANCH   1  25
TORSDOF 6
ENDMDL
