MODEL 1
REMARK minimizedAffinity -9.97594357
REMARK  6 active torsions:
REMARK  status: ('A' for Active; 'I' for Inactive)
REMARK    1  A    between atoms: C2_2  and  C30_31 
REMARK    2  A    between atoms: C3_3  and  C4_4 
REMARK    3  A    between atoms: C4_4  and  C5_5 
REMARK    4  A    between atoms: C5_5  and  C6_6 
REMARK    5  A    between atoms: C6_6  and  C8_8 
REMARK    6  A    between atoms: C30_31  and  O3_33 
ROOT
HETATM    1  C8  UNL     1      -0.890  51.856 -21.399  1.00  0.00    -0.002 C 
HETATM    2  C9  UNL     1      -0.168  50.697 -20.668  1.00  0.00     0.007 C 
HETATM    3  C10 UNL     1      -1.174  49.528 -20.592  1.00  0.00     0.015 C 
HETATM    4  C11 UNL     1      -2.540  50.143 -20.981  1.00  0.00    -0.013 C 
HETATM    5  C12 UNL     1      -3.117  50.767 -19.674  1.00  0.00     0.021 C 
HETATM    6  C13 UNL     1      -3.619  49.236 -21.539  1.00  0.00    -0.070 C 
HETATM    7  C14 UNL     1      -3.612  47.901 -21.427  1.00  0.00    -0.022 C 
HETATM    8  C15 UNL     1      -4.691  47.078 -22.050  1.00  0.00     0.034 C 
HETATM    9  C16 UNL     1      -6.093  47.681 -21.782  1.00  0.00     0.013 C 
HETATM   10  C17 UNL     1      -7.244  46.813 -22.417  1.00  0.00     0.018 C 
HETATM   11  C18 UNL     1      -8.602  47.074 -21.736  1.00  0.00     0.023 C 
HETATM   12  C19 UNL     1      -6.974  45.299 -22.266  1.00  0.00     0.023 C 
HETATM   13  C20 UNL     1      -7.393  47.124 -23.911  1.00  0.00     0.135 C 
HETATM   14  O1  UNL     1      -7.873  46.309 -24.702  1.00  0.00    -0.297 OA
HETATM   15  C21 UNL     1      -6.925  48.469 -24.412  1.00  0.00     0.080 C 
HETATM   16  C22 UNL     1      -7.068  49.527 -23.332  1.00  0.00     0.017 C 
HETATM   17  C23 UNL     1      -6.157  49.248 -22.102  1.00  0.00    -0.031 C 
HETATM   18  C24 UNL     1      -6.794  49.949 -20.873  1.00  0.00     0.016 C 
HETATM   19  C25 UNL     1      -4.714  49.873 -22.390  1.00  0.00     0.024 C 
HETATM   20  C26 UNL     1      -4.665  51.432 -22.417  1.00  0.00     0.010 C 
HETATM   21  C27 UNL     1      -3.271  52.104 -22.430  1.00  0.00     0.011 C 
HETATM   22  C28 UNL     1      -2.104  51.161 -22.091  1.00  0.00    -0.029 C 
HETATM   23  C29 UNL     1      -1.655  50.479 -23.416  1.00  0.00     0.016 C 
ENDROOT
BRANCH   1  24
HETATM   24  C6  UNL     1       0.004  52.818 -22.240  1.00  0.00    -0.014 C 
HETATM   25  C7  UNL     1       1.121  53.357 -21.326  1.00  0.00     0.010 C 
BRANCH  24  26
HETATM   26  C5  UNL     1       0.624  52.191 -23.515  1.00  0.00     0.008 C 
BRANCH  26  27
HETATM   27  C4  UNL     1       0.898  53.176 -24.663  1.00  0.00     0.028 C 
BRANCH  27  28
HETATM   28  C3  UNL     1       0.421  52.731 -26.017  1.00  0.00    -0.013 C 
HETATM   29  C2  UNL     1       1.081  52.005 -26.943  1.00  0.00     0.008 C 
HETATM   30  C1  UNL     1       0.439  51.669 -28.262  1.00  0.00     0.055 C 
BRANCH  29  31
HETATM   31  C30 UNL     1       2.472  51.523 -26.728  1.00  0.00     0.171 C 
HETATM   32  O2  UNL     1       2.849  50.649 -25.967  1.00  0.00    -0.646 OA
BRANCH  31  33
HETATM   33  O3  UNL     1       3.358  52.181 -27.497  1.00  0.00    -0.773 OA
HETATM   34  H46 UNL     1       4.214  51.775 -27.250  1.00  0.00     0.167 HD
ENDBRANCH  31  33
ENDBRANCH  29  31
ENDBRANCH  27  28
ENDBRANCH  26  27
ENDBRANCH  24  26
ENDBRANCH   1  24
TORSDOF 6
ENDMDL
MODEL 2
REMARK minimizedAffinity -8.98418617
REMARK  6 active torsions:
REMARK  status: ('A' for Active; 'I' for Inactive)
REMARK    1  A    between atoms: C2_2  and  C30_31 
REMARK    2  A    between atoms: C3_3  and  C4_4 
REMARK    3  A    between atoms: C4_4  and  C5_5 
REMARK    4  A    between atoms: C5_5  and  C6_6 
REMARK    5  A    between atoms: C6_6  and  C8_8 
REMARK    6  A    between atoms: C30_31  and  O3_33 
ROOT
HETATM    1  C8  UNL     1      -2.159  49.831 -17.873  1.00  0.00    -0.002 C 
HETATM    2  C9  UNL     1      -2.995  48.537 -18.038  1.00  0.00     0.007 C 
HETATM    3  C10 UNL     1      -3.307  48.402 -19.544  1.00  0.00     0.015 C 
HETATM    4  C11 UNL     1      -2.930  49.771 -20.161  1.00  0.00    -0.013 C 
HETATM    5  C12 UNL     1      -4.172  50.691 -19.954  1.00  0.00     0.021 C 
HETATM    6  C13 UNL     1      -2.583  49.841 -21.635  1.00  0.00    -0.070 C 
HETATM    7  C14 UNL     1      -2.883  48.884 -22.525  1.00  0.00    -0.022 C 
HETATM    8  C15 UNL     1      -2.460  49.010 -23.951  1.00  0.00     0.034 C 
HETATM    9  C16 UNL     1      -2.736  50.430 -24.503  1.00  0.00     0.013 C 
HETATM   10  C17 UNL     1      -2.313  50.574 -26.014  1.00  0.00     0.018 C 
HETATM   11  C18 UNL     1      -3.043  51.741 -26.707  1.00  0.00     0.023 C 
HETATM   12  C19 UNL     1      -2.658  49.307 -26.831  1.00  0.00     0.023 C 
HETATM   13  C20 UNL     1      -0.804  50.818 -26.130  1.00  0.00     0.135 C 
HETATM   14  O1  UNL     1      -0.172  50.524 -27.148  1.00  0.00    -0.297 OA
HETATM   15  C21 UNL     1      -0.086  51.431 -24.952  1.00  0.00     0.080 C 
HETATM   16  C22 UNL     1      -1.012  52.348 -24.172  1.00  0.00     0.017 C 
HETATM   17  C23 UNL     1      -2.202  51.581 -23.528  1.00  0.00    -0.031 C 
HETATM   18  C24 UNL     1      -3.360  52.593 -23.323  1.00  0.00     0.016 C 
HETATM   19  C25 UNL     1      -1.729  51.012 -22.111  1.00  0.00     0.024 C 
HETATM   20  C26 UNL     1      -1.477  52.094 -21.016  1.00  0.00     0.010 C 
HETATM   21  C27 UNL     1      -1.272  51.607 -19.562  1.00  0.00     0.011 C 
HETATM   22  C28 UNL     1      -1.660  50.138 -19.320  1.00  0.00    -0.029 C 
HETATM   23  C29 UNL     1      -0.417  49.265 -19.660  1.00  0.00     0.016 C 
ENDROOT
BRANCH   1  24
HETATM   24  C6  UNL     1      -1.129  49.854 -16.702  1.00  0.00    -0.014 C 
HETATM   25  C7  UNL     1      -1.020  48.427 -16.131  1.00  0.00     0.010 C 
BRANCH  24  26
HETATM   26  C5  UNL     1       0.279  50.381 -17.078  1.00  0.00     0.008 C 
BRANCH  26  27
HETATM   27  C4  UNL     1       0.609  51.792 -16.565  1.00  0.00     0.028 C 
BRANCH  27  28
HETATM   28  C3  UNL     1       2.049  52.202 -16.699  1.00  0.00    -0.013 C 
HETATM   29  C2  UNL     1       3.046  52.074 -15.799  1.00  0.00     0.008 C 
HETATM   30  C1  UNL     1       4.434  52.565 -16.110  1.00  0.00     0.055 C 
BRANCH  29  31
HETATM   31  C30 UNL     1       2.828  51.472 -14.456  1.00  0.00     0.171 C 
HETATM   32  O2  UNL     1       2.597  50.306 -14.190  1.00  0.00    -0.646 OA
BRANCH  31  33
HETATM   33  O3  UNL     1       2.910  52.388 -13.474  1.00  0.00    -0.773 OA
HETATM   34  H46 UNL     1       2.741  51.864 -12.664  1.00  0.00     0.167 HD
ENDBRANCH  31  33
ENDBRANCH  29  31
ENDBRANCH  27  28
ENDBRANCH  26  27
ENDBRANCH  24  26
ENDBRANCH   1  24
TORSDOF 6
ENDMDL
MODEL 3
REMARK minimizedAffinity -8.97249126
REMARK  6 active torsions:
REMARK  status: ('A' for Active; 'I' for Inactive)
REMARK    1  A    between atoms: C2_2  and  C30_31 
REMARK    2  A    between atoms: C3_3  and  C4_4 
REMARK    3  A    between atoms: C4_4  and  C5_5 
REMARK    4  A    between atoms: C5_5  and  C6_6 
REMARK    5  A    between atoms: C6_6  and  C8_8 
REMARK    6  A    between atoms: C30_31  and  O3_33 
ROOT
HETATM    1  C8  UNL     1      -1.986  49.104 -19.449  1.00  0.00    -0.002 C 
HETATM    2  C9  UNL     1      -0.891  48.955 -20.535  1.00  0.00     0.007 C 
HETATM    3  C10 UNL     1      -1.612  48.530 -21.833  1.00  0.00     0.015 C 
HETATM    4  C11 UNL     1      -3.040  48.131 -21.391  1.00  0.00    -0.013 C 
HETATM    5  C12 UNL     1      -2.945  46.648 -20.922  1.00  0.00     0.021 C 
HETATM    6  C13 UNL     1      -4.165  48.190 -22.407  1.00  0.00    -0.070 C 
HETATM    7  C14 UNL     1      -3.979  48.248 -23.733  1.00  0.00    -0.022 C 
HETATM    8  C15 UNL     1      -5.143  48.354 -24.662  1.00  0.00     0.034 C 
HETATM    9  C16 UNL     1      -6.274  47.369 -24.271  1.00  0.00     0.013 C 
HETATM   10  C17 UNL     1      -7.502  47.456 -25.254  1.00  0.00     0.018 C 
HETATM   11  C18 UNL     1      -8.357  46.173 -25.218  1.00  0.00     0.023 C 
HETATM   12  C19 UNL     1      -7.052  47.629 -26.723  1.00  0.00     0.023 C 
HETATM   13  C20 UNL     1      -8.403  48.640 -24.889  1.00  0.00     0.135 C 
HETATM   14  O1  UNL     1      -9.136  49.183 -25.720  1.00  0.00    -0.297 OA
HETATM   15  C21 UNL     1      -8.375  49.149 -23.468  1.00  0.00     0.080 C 
HETATM   16  C22 UNL     1      -8.058  48.025 -22.497  1.00  0.00     0.017 C 
HETATM   17  C23 UNL     1      -6.634  47.437 -22.714  1.00  0.00    -0.031 C 
HETATM   18  C24 UNL     1      -6.635  45.983 -22.172  1.00  0.00     0.016 C 
HETATM   19  C25 UNL     1      -5.592  48.319 -21.882  1.00  0.00     0.024 C 
HETATM   20  C26 UNL     1      -5.708  48.190 -20.332  1.00  0.00     0.010 C 
HETATM   21  C27 UNL     1      -4.575  48.805 -19.476  1.00  0.00     0.011 C 
HETATM   22  C28 UNL     1      -3.313  49.188 -20.267  1.00  0.00    -0.029 C 
HETATM   23  C29 UNL     1      -3.522  50.632 -20.810  1.00  0.00     0.016 C 
ENDROOT
BRANCH   1  24
HETATM   24  C6  UNL     1      -1.724  50.159 -18.331  1.00  0.00    -0.014 C 
HETATM   25  C7  UNL     1      -0.373  49.828 -17.666  1.00  0.00     0.010 C 
BRANCH  24  26
HETATM   26  C5  UNL     1      -1.730  51.634 -18.806  1.00  0.00     0.008 C 
BRANCH  26  27
HETATM   27  C4  UNL     1      -0.386  52.155 -19.341  1.00  0.00     0.028 C 
BRANCH  27  28
HETATM   28  C3  UNL     1      -0.240  52.134 -20.837  1.00  0.00    -0.013 C 
HETATM   29  C2  UNL     1       0.477  52.965 -21.622  1.00  0.00     0.008 C 
HETATM   30  C1  UNL     1       0.487  52.795 -23.117  1.00  0.00     0.055 C 
BRANCH  29  31
HETATM   31  C30 UNL     1       1.267  54.095 -21.066  1.00  0.00     0.171 C 
HETATM   32  O2  UNL     1       2.215  54.665 -21.576  1.00  0.00    -0.646 OA
BRANCH  31  33
HETATM   33  O3  UNL     1       0.821  54.473 -19.853  1.00  0.00    -0.773 OA
HETATM   34  H46 UNL     1       1.426  55.204 -19.610  1.00  0.00     0.167 HD
ENDBRANCH  31  33
ENDBRANCH  29  31
ENDBRANCH  27  28
ENDBRANCH  26  27
ENDBRANCH  24  26
ENDBRANCH   1  24
TORSDOF 6
ENDMDL
MODEL 4
REMARK minimizedAffinity -8.93315983
REMARK  6 active torsions:
REMARK  status: ('A' for Active; 'I' for Inactive)
REMARK    1  A    between atoms: C2_2  and  C30_31 
REMARK    2  A    between atoms: C3_3  and  C4_4 
REMARK    3  A    between atoms: C4_4  and  C5_5 
REMARK    4  A    between atoms: C5_5  and  C6_6 
REMARK    5  A    between atoms: C6_6  and  C8_8 
REMARK    6  A    between atoms: C30_31  and  O3_33 
ROOT
HETATM    1  C8  UNL     1      -2.886  49.465 -21.757  1.00  0.00    -0.002 C 
HETATM    2  C9  UNL     1      -2.185  50.725 -22.325  1.00  0.00     0.007 C 
HETATM    3  C10 UNL     1      -1.393  51.353 -21.159  1.00  0.00     0.015 C 
HETATM    4  C11 UNL     1      -1.911  50.640 -19.887  1.00  0.00    -0.013 C 
HETATM    5  C12 UNL     1      -3.201  51.403 -19.462  1.00  0.00     0.021 C 
HETATM    6  C13 UNL     1      -1.018  50.587 -18.662  1.00  0.00    -0.070 C 
HETATM    7  C14 UNL     1       0.047  51.378 -18.472  1.00  0.00    -0.022 C 
HETATM    8  C15 UNL     1       0.902  51.227 -17.257  1.00  0.00     0.034 C 
HETATM    9  C16 UNL     1       0.047  51.079 -15.974  1.00  0.00     0.013 C 
HETATM   10  C17 UNL     1       0.936  50.937 -14.681  1.00  0.00     0.018 C 
HETATM   11  C18 UNL     1       0.159  51.322 -13.406  1.00  0.00     0.023 C 
HETATM   12  C19 UNL     1       2.170  51.867 -14.727  1.00  0.00     0.023 C 
HETATM   13  C20 UNL     1       1.431  49.495 -14.522  1.00  0.00     0.135 C 
HETATM   14  O1  UNL     1       2.457  49.223 -13.894  1.00  0.00    -0.297 OA
HETATM   15  C21 UNL     1       0.631  48.389 -15.166  1.00  0.00     0.080 C 
HETATM   16  C22 UNL     1      -0.843  48.753 -15.227  1.00  0.00     0.017 C 
HETATM   17  C23 UNL     1      -1.112  49.987 -16.134  1.00  0.00    -0.031 C 
HETATM   18  C24 UNL     1      -2.437  50.642 -15.659  1.00  0.00     0.016 C 
HETATM   19  C25 UNL     1      -1.274  49.481 -17.642  1.00  0.00     0.024 C 
HETATM   20  C26 UNL     1      -2.562  48.649 -17.924  1.00  0.00     0.010 C 
HETATM   21  C27 UNL     1      -2.913  48.351 -19.401  1.00  0.00     0.011 C 
HETATM   22  C28 UNL     1      -2.123  49.183 -20.426  1.00  0.00    -0.029 C 
HETATM   23  C29 UNL     1      -0.792  48.429 -20.714  1.00  0.00     0.016 C 
ENDROOT
BRANCH   1  24
HETATM   24  C6  UNL     1      -3.124  48.287 -22.751  1.00  0.00    -0.014 C 
HETATM   25  C7  UNL     1      -4.534  47.721 -22.496  1.00  0.00     0.010 C 
BRANCH  24  26
HETATM   26  C5  UNL     1      -2.966  48.652 -24.249  1.00  0.00     0.008 C 
BRANCH  26  27
HETATM   27  C4  UNL     1      -4.255  49.109 -24.952  1.00  0.00     0.028 C 
BRANCH  27  28
HETATM   28  C3  UNL     1      -4.557  48.416 -26.251  1.00  0.00    -0.013 C 
HETATM   29  C2  UNL     1      -4.232  48.802 -27.502  1.00  0.00     0.008 C 
HETATM   30  C1  UNL     1      -4.641  47.978 -28.693  1.00  0.00     0.055 C 
BRANCH  29  31
HETATM   31  C30 UNL     1      -3.484  50.058 -27.776  1.00  0.00     0.171 C 
HETATM   32  O2  UNL     1      -2.868  50.746 -26.982  1.00  0.00    -0.646 OA
BRANCH  31  33
HETATM   33  O3  UNL     1      -3.546  50.410 -29.073  1.00  0.00    -0.773 OA
HETATM   34  H46 UNL     1      -3.029  51.240 -29.105  1.00  0.00     0.167 HD
ENDBRANCH  31  33
ENDBRANCH  29  31
ENDBRANCH  27  28
ENDBRANCH  26  27
ENDBRANCH  24  26
ENDBRANCH   1  24
TORSDOF 6
ENDMDL
MODEL 5
REMARK minimizedAffinity -8.93151379
REMARK  6 active torsions:
REMARK  status: ('A' for Active; 'I' for Inactive)
REMARK    1  A    between atoms: C2_2  and  C30_31 
REMARK    2  A    between atoms: C3_3  and  C4_4 
REMARK    3  A    between atoms: C4_4  and  C5_5 
REMARK    4  A    between atoms: C5_5  and  C6_6 
REMARK    5  A    between atoms: C6_6  and  C8_8 
REMARK    6  A    between atoms: C30_31  and  O3_33 
ROOT
HETATM    1  C8  UNL     1      -1.627  50.776 -22.887  1.00  0.00    -0.002 C 
HETATM    2  C9  UNL     1      -1.839  50.170 -24.297  1.00  0.00     0.007 C 
HETATM    3  C10 UNL     1      -3.044  49.211 -24.188  1.00  0.00     0.015 C 
HETATM    4  C11 UNL     1      -3.288  49.037 -22.669  1.00  0.00    -0.013 C 
HETATM    5  C12 UNL     1      -2.312  47.915 -22.204  1.00  0.00     0.021 C 
HETATM    6  C13 UNL     1      -4.669  48.633 -22.190  1.00  0.00    -0.070 C 
HETATM    7  C14 UNL     1      -5.613  48.101 -22.979  1.00  0.00    -0.022 C 
HETATM    8  C15 UNL     1      -6.965  47.776 -22.436  1.00  0.00     0.034 C 
HETATM    9  C16 UNL     1      -6.871  47.058 -21.067  1.00  0.00     0.013 C 
HETATM   10  C17 UNL     1      -8.291  46.692 -20.489  1.00  0.00     0.018 C 
HETATM   11  C18 UNL     1      -8.214  45.552 -19.455  1.00  0.00     0.023 C 
HETATM   12  C19 UNL     1      -9.253  46.201 -21.596  1.00  0.00     0.023 C 
HETATM   13  C20 UNL     1      -8.928  47.910 -19.810  1.00  0.00     0.135 C 
HETATM   14  O1  UNL     1     -10.150  48.025 -19.689  1.00  0.00    -0.297 OA
HETATM   15  C21 UNL     1      -8.017  48.995 -19.288  1.00  0.00     0.080 C 
HETATM   16  C22 UNL     1      -6.679  48.417 -18.859  1.00  0.00     0.017 C 
HETATM   17  C23 UNL     1      -5.888  47.805 -20.049  1.00  0.00    -0.031 C 
HETATM   18  C24 UNL     1      -4.917  46.740 -19.473  1.00  0.00     0.016 C 
HETATM   19  C25 UNL     1      -5.050  48.971 -20.752  1.00  0.00     0.024 C 
HETATM   20  C26 UNL     1      -3.871  49.539 -19.904  1.00  0.00     0.010 C 
HETATM   21  C27 UNL     1      -2.866  50.477 -20.613  1.00  0.00     0.011 C 
HETATM   22  C28 UNL     1      -2.969  50.481 -22.148  1.00  0.00    -0.029 C 
HETATM   23  C29 UNL     1      -4.046  51.534 -22.542  1.00  0.00     0.016 C 
ENDROOT
BRANCH   1  24
HETATM   24  C6  UNL     1      -1.036  52.218 -22.826  1.00  0.00    -0.014 C 
HETATM   25  C7  UNL     1       0.370  52.135 -22.202  1.00  0.00     0.010 C 
BRANCH  24  26
HETATM   26  C5  UNL     1      -0.966  52.955 -24.187  1.00  0.00     0.008 C 
BRANCH  26  27
HETATM   27  C4  UNL     1       0.448  53.122 -24.770  1.00  0.00     0.028 C 
BRANCH  27  28
HETATM   28  C3  UNL     1       0.695  52.403 -26.067  1.00  0.00    -0.013 C 
HETATM   29  C2  UNL     1       0.307  52.758 -27.309  1.00  0.00     0.008 C 
HETATM   30  C1  UNL     1       0.636  51.893 -28.496  1.00  0.00     0.055 C 
BRANCH  29  31
HETATM   31  C30 UNL     1      -0.480  53.992 -27.572  1.00  0.00     0.171 C 
HETATM   32  O2  UNL     1      -0.150  55.146 -27.361  1.00  0.00    -0.646 OA
BRANCH  31  33
HETATM   33  O3  UNL     1      -1.686  53.719 -28.102  1.00  0.00    -0.773 OA
HETATM   34  H46 UNL     1      -2.088  54.605 -28.212  1.00  0.00     0.167 HD
ENDBRANCH  31  33
ENDBRANCH  29  31
ENDBRANCH  27  28
ENDBRANCH  26  27
ENDBRANCH  24  26
ENDBRANCH   1  24
TORSDOF 6
ENDMDL
MODEL 6
REMARK minimizedAffinity -8.91183281
REMARK  6 active torsions:
REMARK  status: ('A' for Active; 'I' for Inactive)
REMARK    1  A    between atoms: C2_2  and  C30_31 
REMARK    2  A    between atoms: C3_3  and  C4_4 
REMARK    3  A    between atoms: C4_4  and  C5_5 
REMARK    4  A    between atoms: C5_5  and  C6_6 
REMARK    5  A    between atoms: C6_6  and  C8_8 
REMARK    6  A    between atoms: C30_31  and  O3_33 
ROOT
HETATM    1  C8  UNL     1      -4.706  48.237 -21.728  1.00  0.00    -0.002 C 
HETATM    2  C9  UNL     1      -5.365  47.583 -22.968  1.00  0.00     0.007 C 
HETATM    3  C10 UNL     1      -4.713  48.233 -24.208  1.00  0.00     0.015 C 
HETATM    4  C11 UNL     1      -3.943  49.461 -23.664  1.00  0.00    -0.013 C 
HETATM    5  C12 UNL     1      -4.987  50.614 -23.569  1.00  0.00     0.021 C 
HETATM    6  C13 UNL     1      -2.773  50.003 -24.462  1.00  0.00    -0.070 C 
HETATM    7  C14 UNL     1      -2.544  49.718 -25.751  1.00  0.00    -0.022 C 
HETATM    8  C15 UNL     1      -1.339  50.257 -26.448  1.00  0.00     0.034 C 
HETATM    9  C16 UNL     1      -1.122  51.758 -26.133  1.00  0.00     0.013 C 
HETATM   10  C17 UNL     1       0.136  52.346 -26.877  1.00  0.00     0.018 C 
HETATM   11  C18 UNL     1       0.059  53.879 -27.012  1.00  0.00     0.023 C 
HETATM   12  C19 UNL     1       0.262  51.796 -28.316  1.00  0.00     0.023 C 
HETATM   13  C20 UNL     1       1.422  51.998 -26.119  1.00  0.00     0.135 C 
HETATM   14  O1  UNL     1       2.517  51.938 -26.685  1.00  0.00    -0.297 OA
HETATM   15  C21 UNL     1       1.327  51.715 -24.640  1.00  0.00     0.080 C 
HETATM   16  C22 UNL     1       0.187  52.499 -24.012  1.00  0.00     0.017 C 
HETATM   17  C23 UNL     1      -1.203  52.072 -24.566  1.00  0.00    -0.031 C 
HETATM   18  C24 UNL     1      -2.173  53.269 -24.380  1.00  0.00     0.016 C 
HETATM   19  C25 UNL     1      -1.722  50.822 -23.716  1.00  0.00     0.024 C 
HETATM   20  C26 UNL     1      -2.104  51.141 -22.238  1.00  0.00     0.010 C 
HETATM   21  C27 UNL     1      -2.854  50.048 -21.440  1.00  0.00     0.011 C 
HETATM   22  C28 UNL     1      -3.415  48.901 -22.299  1.00  0.00    -0.029 C 
HETATM   23  C29 UNL     1      -2.286  47.842 -22.458  1.00  0.00     0.016 C 
ENDROOT
BRANCH   1  24
HETATM   24  C6  UNL     1      -4.593  47.353 -20.447  1.00  0.00    -0.014 C 
HETATM   25  C7  UNL     1      -4.997  45.914 -20.821  1.00  0.00     0.010 C 
BRANCH  24  26
HETATM   26  C5  UNL     1      -3.197  47.350 -19.774  1.00  0.00     0.008 C 
BRANCH  26  27
HETATM   27  C4  UNL     1      -3.092  48.176 -18.481  1.00  0.00     0.028 C 
BRANCH  27  28
HETATM   28  C3  UNL     1      -1.735  48.758 -18.201  1.00  0.00    -0.013 C 
HETATM   29  C2  UNL     1      -1.420  50.023 -17.852  1.00  0.00     0.008 C 
HETATM   30  C1  UNL     1       0.012  50.427 -17.629  1.00  0.00     0.055 C 
BRANCH  29  31
HETATM   31  C30 UNL     1      -2.453  51.082 -17.696  1.00  0.00     0.171 C 
HETATM   32  O2  UNL     1      -2.853  51.863 -18.540  1.00  0.00    -0.646 OA
BRANCH  31  33
HETATM   33  O3  UNL     1      -2.953  51.119 -16.447  1.00  0.00    -0.773 OA
HETATM   34  H46 UNL     1      -3.600  51.852 -16.487  1.00  0.00     0.167 HD
ENDBRANCH  31  33
ENDBRANCH  29  31
ENDBRANCH  27  28
ENDBRANCH  26  27
ENDBRANCH  24  26
ENDBRANCH   1  24
TORSDOF 6
ENDMDL
MODEL 7
REMARK minimizedAffinity -8.85325432
REMARK  6 active torsions:
REMARK  status: ('A' for Active; 'I' for Inactive)
REMARK    1  A    between atoms: C2_2  and  C30_31 
REMARK    2  A    between atoms: C3_3  and  C4_4 
REMARK    3  A    between atoms: C4_4  and  C5_5 
REMARK    4  A    between atoms: C5_5  and  C6_6 
REMARK    5  A    between atoms: C6_6  and  C8_8 
REMARK    6  A    between atoms: C30_31  and  O3_33 
ROOT
HETATM    1  C8  UNL     1      -2.474  51.332 -24.280  1.00  0.00    -0.002 C 
HETATM    2  C9  UNL     1      -2.758  52.597 -23.433  1.00  0.00     0.007 C 
HETATM    3  C10 UNL     1      -3.882  52.222 -22.444  1.00  0.00     0.015 C 
HETATM    4  C11 UNL     1      -4.439  50.872 -22.955  1.00  0.00    -0.013 C 
HETATM    5  C12 UNL     1      -5.484  51.229 -24.056  1.00  0.00     0.021 C 
HETATM    6  C13 UNL     1      -5.141  49.951 -21.977  1.00  0.00    -0.070 C 
HETATM    7  C14 UNL     1      -5.608  50.338 -20.781  1.00  0.00    -0.022 C 
HETATM    8  C15 UNL     1      -6.244  49.353 -19.856  1.00  0.00     0.034 C 
HETATM    9  C16 UNL     1      -7.241  48.433 -20.604  1.00  0.00     0.013 C 
HETATM   10  C17 UNL     1      -7.935  47.400 -19.637  1.00  0.00     0.018 C 
HETATM   11  C18 UNL     1      -9.261  46.872 -20.219  1.00  0.00     0.023 C 
HETATM   12  C19 UNL     1      -8.290  48.037 -18.274  1.00  0.00     0.023 C 
HETATM   13  C20 UNL     1      -7.016  46.201 -19.379  1.00  0.00     0.135 C 
HETATM   14  O1  UNL     1      -7.113  45.513 -18.360  1.00  0.00    -0.297 OA
HETATM   15  C21 UNL     1      -5.962  45.872 -20.408  1.00  0.00     0.080 C 
HETATM   16  C22 UNL     1      -6.421  46.274 -21.799  1.00  0.00     0.017 C 
HETATM   17  C23 UNL     1      -6.616  47.811 -21.939  1.00  0.00    -0.031 C 
HETATM   18  C24 UNL     1      -7.632  48.055 -23.087  1.00  0.00     0.016 C 
HETATM   19  C25 UNL     1      -5.208  48.465 -22.320  1.00  0.00     0.024 C 
HETATM   20  C26 UNL     1      -4.687  48.125 -23.750  1.00  0.00     0.010 C 
HETATM   21  C27 UNL     1      -3.473  48.924 -24.278  1.00  0.00     0.011 C 
HETATM   22  C28 UNL     1      -3.126  50.178 -23.457  1.00  0.00    -0.029 C 
HETATM   23  C29 UNL     1      -2.180  49.734 -22.304  1.00  0.00     0.016 C 
ENDROOT
BRANCH   1  24
HETATM   24  C6  UNL     1      -1.015  51.151 -24.801  1.00  0.00    -0.014 C 
HETATM   25  C7  UNL     1      -1.083  50.577 -26.230  1.00  0.00     0.010 C 
BRANCH  24  26
HETATM   26  C5  UNL     1      -0.151  52.438 -24.791  1.00  0.00     0.008 C 
BRANCH  26  27
HETATM   27  C4  UNL     1       0.904  52.510 -23.675  1.00  0.00     0.028 C 
BRANCH  27  28
HETATM   28  C3  UNL     1       0.440  52.044 -22.323  1.00  0.00    -0.013 C 
HETATM   29  C2  UNL     1       0.592  52.653 -21.129  1.00  0.00     0.008 C 
HETATM   30  C1  UNL     1       0.069  52.018 -19.868  1.00  0.00     0.055 C 
BRANCH  29  31
HETATM   31  C30 UNL     1       1.296  53.954 -20.986  1.00  0.00     0.171 C 
HETATM   32  O2  UNL     1       1.615  54.731 -21.869  1.00  0.00    -0.646 OA
BRANCH  31  33
HETATM   33  O3  UNL     1       1.584  54.235 -19.702  1.00  0.00    -0.773 OA
HETATM   34  H46 UNL     1       2.044  55.097 -19.758  1.00  0.00     0.167 HD
ENDBRANCH  31  33
ENDBRANCH  29  31
ENDBRANCH  27  28
ENDBRANCH  26  27
ENDBRANCH  24  26
ENDBRANCH   1  24
TORSDOF 6
ENDMDL
MODEL 8
REMARK minimizedAffinity -8.79688931
REMARK  6 active torsions:
REMARK  status: ('A' for Active; 'I' for Inactive)
REMARK    1  A    between atoms: C2_2  and  C30_31 
REMARK    2  A    between atoms: C3_3  and  C4_4 
REMARK    3  A    between atoms: C4_4  and  C5_5 
REMARK    4  A    between atoms: C5_5  and  C6_6 
REMARK    5  A    between atoms: C6_6  and  C8_8 
REMARK    6  A    between atoms: C30_31  and  O3_33 
ROOT
HETATM    1  C8  UNL     1      -2.269  50.791 -22.656  1.00  0.00    -0.002 C 
HETATM    2  C9  UNL     1      -1.446  50.008 -21.603  1.00  0.00     0.007 C 
HETATM    3  C10 UNL     1      -2.334  48.836 -21.132  1.00  0.00     0.015 C 
HETATM    4  C11 UNL     1      -3.748  49.156 -21.672  1.00  0.00    -0.013 C 
HETATM    5  C12 UNL     1      -4.400  50.111 -20.627  1.00  0.00     0.021 C 
HETATM    6  C13 UNL     1      -4.727  48.017 -21.885  1.00  0.00    -0.070 C 
HETATM    7  C14 UNL     1      -4.590  46.797 -21.346  1.00  0.00    -0.022 C 
HETATM    8  C15 UNL     1      -5.576  45.717 -21.647  1.00  0.00     0.034 C 
HETATM    9  C16 UNL     1      -7.033  46.236 -21.560  1.00  0.00     0.013 C 
HETATM   10  C17 UNL     1      -8.086  45.102 -21.857  1.00  0.00     0.018 C 
HETATM   11  C18 UNL     1      -9.471  45.437 -21.269  1.00  0.00     0.023 C 
HETATM   12  C19 UNL     1      -7.670  43.752 -21.228  1.00  0.00     0.023 C 
HETATM   13  C20 UNL     1      -8.246  44.895 -23.367  1.00  0.00     0.135 C 
HETATM   14  O1  UNL     1      -8.634  43.825 -23.842  1.00  0.00    -0.297 OA
HETATM   15  C21 UNL     1      -7.906  46.043 -24.286  1.00  0.00     0.080 C 
HETATM   16  C22 UNL     1      -8.165  47.376 -23.605  1.00  0.00     0.017 C 
HETATM   17  C23 UNL     1      -7.246  47.600 -22.370  1.00  0.00    -0.031 C 
HETATM   18  C24 UNL     1      -7.964  48.597 -21.422  1.00  0.00     0.016 C 
HETATM   19  C25 UNL     1      -5.868  48.235 -22.874  1.00  0.00     0.024 C 
HETATM   20  C26 UNL     1      -5.972  49.697 -23.406  1.00  0.00     0.010 C 
HETATM   21  C27 UNL     1      -4.651  50.460 -23.663  1.00  0.00     0.011 C 
HETATM   22  C28 UNL     1      -3.401  49.795 -23.060  1.00  0.00    -0.029 C 
HETATM   23  C29 UNL     1      -2.870  48.767 -24.102  1.00  0.00     0.016 C 
ENDROOT
BRANCH   1  24
HETATM   24  C6  UNL     1      -1.464  51.510 -23.782  1.00  0.00    -0.014 C 
HETATM   25  C7  UNL     1      -2.275  52.736 -24.244  1.00  0.00     0.010 C 
BRANCH  24  26
HETATM   26  C5  UNL     1      -0.030  51.946 -23.385  1.00  0.00     0.008 C 
BRANCH  26  27
HETATM   27  C4  UNL     1       0.711  52.792 -24.434  1.00  0.00     0.028 C 
BRANCH  27  28
HETATM   28  C3  UNL     1       0.982  52.100 -25.740  1.00  0.00    -0.013 C 
HETATM   29  C2  UNL     1       0.628  52.487 -26.983  1.00  0.00     0.008 C 
HETATM   30  C1  UNL     1       0.977  51.645 -28.181  1.00  0.00     0.055 C 
BRANCH  29  31
HETATM   31  C30 UNL     1      -0.137  53.736 -27.237  1.00  0.00     0.171 C 
HETATM   32  O2  UNL     1       0.075  54.846 -26.781  1.00  0.00    -0.646 OA
BRANCH  31  33
HETATM   33  O3  UNL     1      -1.170  53.534 -28.075  1.00  0.00    -0.773 OA
HETATM   34  H46 UNL     1      -1.580  54.420 -28.143  1.00  0.00     0.167 HD
ENDBRANCH  31  33
ENDBRANCH  29  31
ENDBRANCH  27  28
ENDBRANCH  26  27
ENDBRANCH  24  26
ENDBRANCH   1  24
TORSDOF 6
ENDMDL
MODEL 9
REMARK minimizedAffinity -8.78512478
REMARK  6 active torsions:
REMARK  status: ('A' for Active; 'I' for Inactive)
REMARK    1  A    between atoms: C2_2  and  C30_31 
REMARK    2  A    between atoms: C3_3  and  C4_4 
REMARK    3  A    between atoms: C4_4  and  C5_5 
REMARK    4  A    between atoms: C5_5  and  C6_6 
REMARK    5  A    between atoms: C6_6  and  C8_8 
REMARK    6  A    between atoms: C30_31  and  O3_33 
ROOT
HETATM    1  C8  UNL     1      -2.056  49.621 -17.455  1.00  0.00    -0.002 C 
HETATM    2  C9  UNL     1      -0.534  49.910 -17.407  1.00  0.00     0.007 C 
HETATM    3  C10 UNL     1      -0.089  50.172 -18.861  1.00  0.00     0.015 C 
HETATM    4  C11 UNL     1      -1.277  49.712 -19.739  1.00  0.00    -0.013 C 
HETATM    5  C12 UNL     1      -1.100  48.175 -19.929  1.00  0.00     0.021 C 
HETATM    6  C13 UNL     1      -1.435  50.302 -21.127  1.00  0.00    -0.070 C 
HETATM    7  C14 UNL     1      -0.462  50.945 -21.786  1.00  0.00    -0.022 C 
HETATM    8  C15 UNL     1      -0.717  51.540 -23.132  1.00  0.00     0.034 C 
HETATM    9  C16 UNL     1      -1.498  50.564 -24.047  1.00  0.00     0.013 C 
HETATM   10  C17 UNL     1      -1.759  51.170 -25.477  1.00  0.00     0.018 C 
HETATM   11  C18 UNL     1      -2.032  50.073 -26.525  1.00  0.00     0.023 C 
HETATM   12  C19 UNL     1      -0.538  51.963 -25.997  1.00  0.00     0.023 C 
HETATM   13  C20 UNL     1      -2.965  52.116 -25.451  1.00  0.00     0.135 C 
HETATM   14  O1  UNL     1      -3.099  53.025 -26.274  1.00  0.00    -0.297 OA
HETATM   15  C21 UNL     1      -4.005  51.918 -24.375  1.00  0.00     0.080 C 
HETATM   16  C22 UNL     1      -4.095  50.457 -23.972  1.00  0.00     0.017 C 
HETATM   17  C23 UNL     1      -2.780  49.939 -23.321  1.00  0.00    -0.031 C 
HETATM   18  C24 UNL     1      -2.727  48.401 -23.524  1.00  0.00     0.016 C 
HETATM   19  C25 UNL     1      -2.824  50.273 -21.759  1.00  0.00     0.024 C 
HETATM   20  C26 UNL     1      -3.873  49.460 -20.939  1.00  0.00     0.010 C 
HETATM   21  C27 UNL     1      -3.794  49.540 -19.396  1.00  0.00     0.011 C 
HETATM   22  C28 UNL     1      -2.492  50.156 -18.854  1.00  0.00    -0.029 C 
HETATM   23  C29 UNL     1      -2.691  51.699 -18.804  1.00  0.00     0.016 C 
ENDROOT
BRANCH   1  24
HETATM   24  C6  UNL     1      -2.887  50.030 -16.201  1.00  0.00    -0.014 C 
HETATM   25  C7  UNL     1      -3.289  48.745 -15.451  1.00  0.00     0.010 C 
BRANCH  24  26
HETATM   26  C5  UNL     1      -2.172  51.003 -15.230  1.00  0.00     0.008 C 
BRANCH  26  27
HETATM   27  C4  UNL     1      -2.540  50.838 -13.746  1.00  0.00     0.028 C 
BRANCH  27  28
HETATM   28  C3  UNL     1      -1.769  51.708 -12.793  1.00  0.00    -0.013 C 
HETATM   29  C2  UNL     1      -2.243  52.620 -11.919  1.00  0.00     0.008 C 
HETATM   30  C1  UNL     1      -1.305  53.415 -11.051  1.00  0.00     0.055 C 
BRANCH  29  31
HETATM   31  C30 UNL     1      -3.695  52.906 -11.781  1.00  0.00     0.171 C 
HETATM   32  O2  UNL     1      -4.460  52.492 -10.928  1.00  0.00    -0.646 OA
BRANCH  31  33
HETATM   33  O3  UNL     1      -4.143  53.722 -12.753  1.00  0.00    -0.773 OA
HETATM   34  H46 UNL     1      -5.095  53.815 -12.547  1.00  0.00     0.167 HD
ENDBRANCH  31  33
ENDBRANCH  29  31
ENDBRANCH  27  28
ENDBRANCH  26  27
ENDBRANCH  24  26
ENDBRANCH   1  24
TORSDOF 6
ENDMDL
