MODEL 1
REMARK minimizedAffinity -8.00132465
REMARK  14 active torsions:
REMARK  status: ('A' for Active; 'I' for Inactive)
REMARK    1  A    between atoms: O1_2  and  C2_3 
REMARK    2  A    between atoms: C2_3  and  C3_4 
REMARK    3  A    between atoms: C2_3  and  C24_30 
REMARK    4  A    between atoms: C3_4  and  C5_6 
REMARK    5  A    between atoms: C6_8  and  C8_10 
REMARK    6  A    between atoms: C8_10  and  C9_11 
REMARK    7  A    between atoms: C9_11  and  O3_13 
REMARK    8  A    between atoms: C9_11  and  C11_14 
REMARK    9  A    between atoms: C12_15  and  C13_16 
REMARK   10  A    between atoms: C14_17  and  C16_19 
REMARK   11  A    between atoms: C17_21  and  C18_22 
REMARK   12  A    between atoms: C18_22  and  C19_23 
REMARK   13  A    between atoms: C19_23  and  O6_25 
REMARK   14  A    between atoms: C24_30  and  O7_32 
ROOT
HETATM    1  C9  UNL     1      -4.307  48.971 -24.357  1.00  0.00     0.075 C 
HETATM    2  C10 UNL     1      -4.989  48.182 -23.234  1.00  0.00     0.050 C 
ENDROOT
BRANCH   1   3
HETATM    3  C8  UNL     1      -2.831  49.316 -24.039  1.00  0.00     0.082 C 
BRANCH   3   4
HETATM    4  C6  UNL     1      -2.330  50.627 -24.614  1.00  0.00     0.087 A 
HETATM    5  C5  UNL     1      -1.481  50.590 -25.882  1.00  0.00     0.163 A 
HETATM    6  O2  UNL     1      -0.892  50.733 -24.586  1.00  0.00    -0.369 OA
HETATM    7  C7  UNL     1      -2.988  51.893 -24.141  1.00  0.00     0.049 C 
BRANCH   5   8
HETATM    8  C3  UNL     1      -1.306  51.775 -26.792  1.00  0.00     0.045 C 
HETATM    9  C4  UNL     1      -2.485  51.825 -27.776  1.00  0.00     0.015 C 
BRANCH   8  10
HETATM   10  C2  UNL     1       0.046  51.727 -27.555  1.00  0.00     0.155 C 
BRANCH  10  11
HETATM   11  O1  UNL     1       0.148  52.943 -28.321  1.00  0.00    -0.388 OA
HETATM   12  C1  UNL     1      -0.320  54.088 -27.621  1.00  0.00     0.202 C 
ENDBRANCH  10  11
BRANCH  10  13
HETATM   13  C24 UNL     1       1.280  51.589 -26.614  1.00  0.00     0.143 C 
HETATM   14  C25 UNL     1       2.610  51.677 -27.357  1.00  0.00     0.042 C 
BRANCH  13  15
HETATM   15  O7  UNL     1       1.302  52.589 -25.593  1.00  0.00    -0.393 OA
HETATM   16  H42 UNL     1       0.572  52.377 -24.981  1.00  0.00     0.210 HD
ENDBRANCH  13  15
ENDBRANCH  10  13
ENDBRANCH   8  10
ENDBRANCH   5   8
ENDBRANCH   3   4
ENDBRANCH   1   3
BRANCH   1  17
HETATM   17  O3  UNL     1      -5.042  50.191 -24.527  1.00  0.00    -0.386 OA
HETATM   18  H18 UNL     1      -5.943  49.942 -24.804  1.00  0.00     0.211 HD
ENDBRANCH   1  17
BRANCH   1  19
HETATM   19  C11 UNL     1      -4.350  48.288 -25.711  1.00  0.00     0.010 C 
HETATM   20  C12 UNL     1      -4.562  48.852 -26.912  1.00  0.00    -0.001 C 
BRANCH  20  21
HETATM   21  C13 UNL     1      -4.610  48.076 -28.135  1.00  0.00     0.005 C 
HETATM   22  C14 UNL     1      -5.710  47.662 -28.798  1.00  0.00    -0.055 C 
HETATM   23  C15 UNL     1      -7.118  48.049 -28.398  1.00  0.00     0.046 C 
BRANCH  22  24
HETATM   24  C16 UNL     1      -5.658  46.805 -30.068  1.00  0.00     0.154 C 
HETATM   25  O4  UNL     1      -6.008  47.647 -31.179  1.00  0.00    -0.375 OA
HETATM   26  C17 UNL     1      -5.742  47.112 -32.481  1.00  0.00     0.132 C 
HETATM   27  C20 UNL     1      -6.422  45.750 -32.667  1.00  0.00     0.033 C 
HETATM   28  C21 UNL     1      -6.202  44.816 -31.480  1.00  0.00     0.009 C 
HETATM   29  C22 UNL     1      -6.505  45.512 -30.141  1.00  0.00     0.015 C 
HETATM   30  C23 UNL     1      -8.018  45.763 -30.015  1.00  0.00     0.012 C 
BRANCH  26  31
HETATM   31  C18 UNL     1      -4.246  47.064 -32.803  1.00  0.00     0.141 C 
BRANCH  31  32
HETATM   32  C19 UNL     1      -3.907  48.069 -33.867  1.00  0.00     0.141 C 
HETATM   33  O5  UNL     1      -4.659  48.523 -34.712  1.00  0.00    -0.650 OA
BRANCH  32  34
HETATM   34  O6  UNL     1      -2.607  48.425 -33.848  1.00  0.00    -0.776 OA
HETATM   35  H29 UNL     1      -2.535  49.077 -34.579  1.00  0.00     0.167 HD
ENDBRANCH  32  34
ENDBRANCH  31  32
ENDBRANCH  26  31
ENDBRANCH  22  24
ENDBRANCH  20  21
ENDBRANCH   1  19
TORSDOF 14
ENDMDL
MODEL 2
REMARK minimizedAffinity -7.84039545
REMARK  14 active torsions:
REMARK  status: ('A' for Active; 'I' for Inactive)
REMARK    1  A    between atoms: O1_2  and  C2_3 
REMARK    2  A    between atoms: C2_3  and  C3_4 
REMARK    3  A    between atoms: C2_3  and  C24_30 
REMARK    4  A    between atoms: C3_4  and  C5_6 
REMARK    5  A    between atoms: C6_8  and  C8_10 
REMARK    6  A    between atoms: C8_10  and  C9_11 
REMARK    7  A    between atoms: C9_11  and  O3_13 
REMARK    8  A    between atoms: C9_11  and  C11_14 
REMARK    9  A    between atoms: C12_15  and  C13_16 
REMARK   10  A    between atoms: C14_17  and  C16_19 
REMARK   11  A    between atoms: C17_21  and  C18_22 
REMARK   12  A    between atoms: C18_22  and  C19_23 
REMARK   13  A    between atoms: C19_23  and  O6_25 
REMARK   14  A    between atoms: C24_30  and  O7_32 
ROOT
HETATM    1  C9  UNL     1      -5.023  50.599 -23.025  1.00  0.00     0.075 C 
HETATM    2  C10 UNL     1      -5.520  50.053 -21.682  1.00  0.00     0.050 C 
ENDROOT
BRANCH   1   3
HETATM    3  C8  UNL     1      -3.479  50.718 -23.090  1.00  0.00     0.082 C 
BRANCH   3   4
HETATM    4  C6  UNL     1      -2.939  51.554 -24.235  1.00  0.00     0.087 A 
HETATM    5  C5  UNL     1      -1.438  51.534 -24.507  1.00  0.00     0.163 A 
HETATM    6  O2  UNL     1      -2.057  52.604 -23.788  1.00  0.00    -0.369 OA
HETATM    7  C7  UNL     1      -3.921  52.052 -25.258  1.00  0.00     0.049 C 
BRANCH   5   8
HETATM    8  C3  UNL     1      -0.835  51.924 -25.829  1.00  0.00     0.045 C 
HETATM    9  C4  UNL     1      -0.480  50.650 -26.610  1.00  0.00     0.015 C 
BRANCH   8  10
HETATM   10  C2  UNL     1       0.417  52.827 -25.652  1.00  0.00     0.155 C 
BRANCH  10  11
HETATM   11  O1  UNL     1       0.794  53.296 -26.962  1.00  0.00    -0.388 OA
HETATM   12  C1  UNL     1      -0.319  53.612 -27.787  1.00  0.00     0.202 C 
ENDBRANCH  10  11
BRANCH  10  13
HETATM   13  C24 UNL     1       0.173  54.041 -24.706  1.00  0.00     0.143 C 
HETATM   14  C25 UNL     1       1.133  54.079 -23.522  1.00  0.00     0.042 C 
BRANCH  13  15
HETATM   15  O7  UNL     1       0.291  55.294 -25.385  1.00  0.00    -0.393 OA
HETATM   16  H42 UNL     1      -0.478  55.361 -25.982  1.00  0.00     0.210 HD
ENDBRANCH  13  15
ENDBRANCH  10  13
ENDBRANCH   8  10
ENDBRANCH   5   8
ENDBRANCH   3   4
ENDBRANCH   1   3
BRANCH   1  17
HETATM   17  O3  UNL     1      -5.597  51.901 -23.194  1.00  0.00    -0.386 OA
HETATM   18  H18 UNL     1      -6.563  51.783 -23.228  1.00  0.00     0.211 HD
ENDBRANCH   1  17
BRANCH   1  19
HETATM   19  C11 UNL     1      -5.485  49.800 -24.229  1.00  0.00     0.010 C 
HETATM   20  C12 UNL     1      -4.913  48.707 -24.762  1.00  0.00    -0.001 C 
BRANCH  20  21
HETATM   21  C13 UNL     1      -5.442  48.051 -25.941  1.00  0.00     0.005 C 
HETATM   22  C14 UNL     1      -5.026  48.204 -27.216  1.00  0.00    -0.055 C 
HETATM   23  C15 UNL     1      -3.828  49.041 -27.606  1.00  0.00     0.046 C 
BRANCH  22  24
HETATM   24  C16 UNL     1      -5.681  47.494 -28.407  1.00  0.00     0.154 C 
HETATM   25  O4  UNL     1      -5.771  48.441 -29.485  1.00  0.00    -0.375 OA
HETATM   26  C17 UNL     1      -6.089  47.898 -30.772  1.00  0.00     0.132 C 
HETATM   27  C20 UNL     1      -7.391  47.090 -30.723  1.00  0.00     0.033 C 
HETATM   28  C21 UNL     1      -7.442  46.129 -29.538  1.00  0.00     0.009 C 
HETATM   29  C22 UNL     1      -7.065  46.827 -28.220  1.00  0.00     0.015 C 
HETATM   30  C23 UNL     1      -8.173  47.815 -27.817  1.00  0.00     0.012 C 
BRANCH  26  31
HETATM   31  C18 UNL     1      -4.931  47.100 -31.377  1.00  0.00     0.141 C 
BRANCH  31  32
HETATM   32  C19 UNL     1      -4.652  47.563 -32.779  1.00  0.00     0.141 C 
HETATM   33  O5  UNL     1      -5.442  47.605 -33.708  1.00  0.00    -0.650 OA
BRANCH  32  34
HETATM   34  O6  UNL     1      -3.364  47.910 -32.963  1.00  0.00    -0.776 OA
HETATM   35  H29 UNL     1      -3.331  48.191 -33.904  1.00  0.00     0.167 HD
ENDBRANCH  32  34
ENDBRANCH  31  32
ENDBRANCH  26  31
ENDBRANCH  22  24
ENDBRANCH  20  21
ENDBRANCH   1  19
TORSDOF 14
ENDMDL
MODEL 3
REMARK minimizedAffinity -7.79080534
REMARK  14 active torsions:
REMARK  status: ('A' for Active; 'I' for Inactive)
REMARK    1  A    between atoms: O1_2  and  C2_3 
REMARK    2  A    between atoms: C2_3  and  C3_4 
REMARK    3  A    between atoms: C2_3  and  C24_30 
REMARK    4  A    between atoms: C3_4  and  C5_6 
REMARK    5  A    between atoms: C6_8  and  C8_10 
REMARK    6  A    between atoms: C8_10  and  C9_11 
REMARK    7  A    between atoms: C9_11  and  O3_13 
REMARK    8  A    between atoms: C9_11  and  C11_14 
REMARK    9  A    between atoms: C12_15  and  C13_16 
REMARK   10  A    between atoms: C14_17  and  C16_19 
REMARK   11  A    between atoms: C17_21  and  C18_22 
REMARK   12  A    between atoms: C18_22  and  C19_23 
REMARK   13  A    between atoms: C19_23  and  O6_25 
REMARK   14  A    between atoms: C24_30  and  O7_32 
ROOT
HETATM    1  C9  UNL     1      -4.545  48.921 -24.919  1.00  0.00     0.075 C 
HETATM    2  C10 UNL     1      -4.974  48.164 -23.658  1.00  0.00     0.050 C 
ENDROOT
BRANCH   1   3
HETATM    3  C8  UNL     1      -3.026  48.806 -25.201  1.00  0.00     0.082 C 
BRANCH   3   4
HETATM    4  C6  UNL     1      -2.423  49.947 -25.998  1.00  0.00     0.087 A 
HETATM    5  C5  UNL     1      -1.118  50.568 -25.509  1.00  0.00     0.163 A 
HETATM    6  O2  UNL     1      -2.385  51.183 -25.255  1.00  0.00    -0.369 OA
HETATM    7  C7  UNL     1      -2.921  50.157 -27.400  1.00  0.00     0.049 C 
BRANCH   5   8
HETATM    8  C3  UNL     1      -0.197  51.358 -26.399  1.00  0.00     0.045 C 
HETATM    9  C4  UNL     1       1.250  50.908 -26.142  1.00  0.00     0.015 C 
BRANCH   8  10
HETATM   10  C2  UNL     1      -0.346  52.888 -26.176  1.00  0.00     0.155 C 
BRANCH  10  11
HETATM   11  O1  UNL     1       0.870  53.349 -25.553  1.00  0.00    -0.388 OA
HETATM   12  C1  UNL     1       0.685  53.785 -24.213  1.00  0.00     0.202 C 
ENDBRANCH  10  11
BRANCH  10  13
HETATM   13  C24 UNL     1      -0.599  53.682 -27.492  1.00  0.00     0.143 C 
HETATM   14  C25 UNL     1       0.258  53.196 -28.656  1.00  0.00     0.042 C 
BRANCH  13  15
HETATM   15  O7  UNL     1      -1.963  53.614 -27.916  1.00  0.00    -0.393 OA
HETATM   16  H42 UNL     1      -2.480  54.139 -27.276  1.00  0.00     0.210 HD
ENDBRANCH  13  15
ENDBRANCH  10  13
ENDBRANCH   8  10
ENDBRANCH   5   8
ENDBRANCH   3   4
ENDBRANCH   1   3
BRANCH   1  17
HETATM   17  O3  UNL     1      -4.876  50.302 -24.719  1.00  0.00    -0.386 OA
HETATM   18  H18 UNL     1      -5.845  50.350 -24.624  1.00  0.00     0.211 HD
ENDBRANCH   1  17
BRANCH   1  19
HETATM   19  C11 UNL     1      -5.291  48.510 -26.175  1.00  0.00     0.010 C 
HETATM   20  C12 UNL     1      -6.347  47.686 -26.272  1.00  0.00    -0.001 C 
BRANCH  20  21
HETATM   21  C13 UNL     1      -6.952  47.349 -27.545  1.00  0.00     0.005 C 
HETATM   22  C14 UNL     1      -6.431  47.545 -28.775  1.00  0.00    -0.055 C 
HETATM   23  C15 UNL     1      -5.034  48.076 -29.012  1.00  0.00     0.046 C 
BRANCH  22  24
HETATM   24  C16 UNL     1      -7.170  47.191 -30.070  1.00  0.00     0.154 C 
HETATM   25  O4  UNL     1      -7.016  48.295 -30.978  1.00  0.00    -0.375 OA
HETATM   26  C17 UNL     1      -7.388  48.046 -32.339  1.00  0.00     0.132 C 
HETATM   27  C20 UNL     1      -8.831  47.535 -32.432  1.00  0.00     0.033 C 
HETATM   28  C21 UNL     1      -9.129  46.430 -31.423  1.00  0.00     0.009 C 
HETATM   29  C22 UNL     1      -8.669  46.811 -30.005  1.00  0.00     0.015 C 
HETATM   30  C23 UNL     1      -9.562  47.934 -29.450  1.00  0.00     0.012 C 
BRANCH  26  31
HETATM   31  C18 UNL     1      -6.398  47.128 -33.061  1.00  0.00     0.141 C 
BRANCH  31  32
HETATM   32  C19 UNL     1      -5.189  47.903 -33.500  1.00  0.00     0.141 C 
HETATM   33  O5  UNL     1      -4.892  48.214 -34.641  1.00  0.00    -0.650 OA
BRANCH  32  34
HETATM   34  O6  UNL     1      -4.373  48.216 -32.474  1.00  0.00    -0.776 OA
HETATM   35  H29 UNL     1      -3.644  48.716 -32.901  1.00  0.00     0.167 HD
ENDBRANCH  32  34
ENDBRANCH  31  32
ENDBRANCH  26  31
ENDBRANCH  22  24
ENDBRANCH  20  21
ENDBRANCH   1  19
TORSDOF 14
ENDMDL
MODEL 4
REMARK minimizedAffinity -7.72972631
REMARK  14 active torsions:
REMARK  status: ('A' for Active; 'I' for Inactive)
REMARK    1  A    between atoms: O1_2  and  C2_3 
REMARK    2  A    between atoms: C2_3  and  C3_4 
REMARK    3  A    between atoms: C2_3  and  C24_30 
REMARK    4  A    between atoms: C3_4  and  C5_6 
REMARK    5  A    between atoms: C6_8  and  C8_10 
REMARK    6  A    between atoms: C8_10  and  C9_11 
REMARK    7  A    between atoms: C9_11  and  O3_13 
REMARK    8  A    between atoms: C9_11  and  C11_14 
REMARK    9  A    between atoms: C12_15  and  C13_16 
REMARK   10  A    between atoms: C14_17  and  C16_19 
REMARK   11  A    between atoms: C17_21  and  C18_22 
REMARK   12  A    between atoms: C18_22  and  C19_23 
REMARK   13  A    between atoms: C19_23  and  O6_25 
REMARK   14  A    between atoms: C24_30  and  O7_32 
ROOT
HETATM    1  C9  UNL     1       0.812  52.014 -26.714  1.00  0.00     0.075 C 
HETATM    2  C10 UNL     1       2.269  51.711 -27.079  1.00  0.00     0.050 C 
ENDROOT
BRANCH   1   3
HETATM    3  C8  UNL     1      -0.196  51.440 -27.741  1.00  0.00     0.082 C 
BRANCH   3   4
HETATM    4  C6  UNL     1      -1.620  51.291 -27.241  1.00  0.00     0.087 A 
HETATM    5  C5  UNL     1      -2.172  49.885 -27.020  1.00  0.00     0.163 A 
HETATM    6  O2  UNL     1      -2.479  50.638 -28.198  1.00  0.00    -0.369 OA
HETATM    7  C7  UNL     1      -2.278  52.501 -26.640  1.00  0.00     0.049 C 
BRANCH   5   8
HETATM    8  C3  UNL     1      -3.349  49.593 -26.130  1.00  0.00     0.045 C 
HETATM    9  C4  UNL     1      -2.867  49.525 -24.673  1.00  0.00     0.015 C 
BRANCH   8  10
HETATM   10  C2  UNL     1      -4.068  48.275 -26.533  1.00  0.00     0.155 C 
BRANCH  10  11
HETATM   11  O1  UNL     1      -5.245  48.162 -25.708  1.00  0.00    -0.388 OA
HETATM   12  C1  UNL     1      -5.085  48.740 -24.420  1.00  0.00     0.202 C 
ENDBRANCH  10  11
BRANCH  10  13
HETATM   13  C24 UNL     1      -4.471  48.228 -28.037  1.00  0.00     0.143 C 
HETATM   14  C25 UNL     1      -5.760  47.453 -28.286  1.00  0.00     0.042 C 
BRANCH  13  15
HETATM   15  O7  UNL     1      -4.650  49.532 -28.595  1.00  0.00    -0.393 OA
HETATM   16  H42 UNL     1      -3.762  49.936 -28.649  1.00  0.00     0.210 HD
ENDBRANCH  13  15
ENDBRANCH  10  13
ENDBRANCH   8  10
ENDBRANCH   5   8
ENDBRANCH   3   4
ENDBRANCH   1   3
BRANCH   1  17
HETATM   17  O3  UNL     1       0.672  53.440 -26.674  1.00  0.00    -0.386 OA
HETATM   18  H18 UNL     1       1.259  53.763 -25.966  1.00  0.00     0.211 HD
ENDBRANCH   1  17
BRANCH   1  19
HETATM   19  C11 UNL     1       0.405  51.534 -25.334  1.00  0.00     0.010 C 
HETATM   20  C12 UNL     1       0.419  52.227 -24.183  1.00  0.00    -0.001 C 
BRANCH  20  21
HETATM   21  C13 UNL     1       0.031  51.637 -22.918  1.00  0.00     0.005 C 
HETATM   22  C14 UNL     1      -1.165  51.741 -22.301  1.00  0.00    -0.055 C 
HETATM   23  C15 UNL     1      -2.361  52.435 -22.916  1.00  0.00     0.046 C 
BRANCH  22  24
HETATM   24  C16 UNL     1      -1.468  51.112 -20.936  1.00  0.00     0.154 C 
HETATM   25  O4  UNL     1      -2.635  51.761 -20.404  1.00  0.00    -0.375 OA
HETATM   26  C17 UNL     1      -3.246  51.126 -19.274  1.00  0.00     0.132 C 
HETATM   27  C20 UNL     1      -2.235  50.933 -18.137  1.00  0.00     0.033 C 
HETATM   28  C21 UNL     1      -0.910  50.350 -18.622  1.00  0.00     0.009 C 
HETATM   29  C22 UNL     1      -0.367  51.106 -19.847  1.00  0.00     0.015 C 
HETATM   30  C23 UNL     1       0.090  52.515 -19.430  1.00  0.00     0.012 C 
BRANCH  26  31
HETATM   31  C18 UNL     1      -3.961  49.824 -19.645  1.00  0.00     0.141 C 
BRANCH  31  32
HETATM   32  C19 UNL     1      -5.298  50.118 -20.263  1.00  0.00     0.141 C 
HETATM   33  O5  UNL     1      -6.371  49.627 -19.955  1.00  0.00    -0.650 OA
BRANCH  32  34
HETATM   34  O6  UNL     1      -5.215  50.992 -21.285  1.00  0.00    -0.776 OA
HETATM   35  H29 UNL     1      -6.146  51.091 -21.582  1.00  0.00     0.167 HD
ENDBRANCH  32  34
ENDBRANCH  31  32
ENDBRANCH  26  31
ENDBRANCH  22  24
ENDBRANCH  20  21
ENDBRANCH   1  19
TORSDOF 14
ENDMDL
MODEL 5
REMARK minimizedAffinity -7.71648359
REMARK  14 active torsions:
REMARK  status: ('A' for Active; 'I' for Inactive)
REMARK    1  A    between atoms: O1_2  and  C2_3 
REMARK    2  A    between atoms: C2_3  and  C3_4 
REMARK    3  A    between atoms: C2_3  and  C24_30 
REMARK    4  A    between atoms: C3_4  and  C5_6 
REMARK    5  A    between atoms: C6_8  and  C8_10 
REMARK    6  A    between atoms: C8_10  and  C9_11 
REMARK    7  A    between atoms: C9_11  and  O3_13 
REMARK    8  A    between atoms: C9_11  and  C11_14 
REMARK    9  A    between atoms: C12_15  and  C13_16 
REMARK   10  A    between atoms: C14_17  and  C16_19 
REMARK   11  A    between atoms: C17_21  and  C18_22 
REMARK   12  A    between atoms: C18_22  and  C19_23 
REMARK   13  A    between atoms: C19_23  and  O6_25 
REMARK   14  A    between atoms: C24_30  and  O7_32 
ROOT
HETATM    1  C9  UNL     1      -3.962  49.562 -24.731  1.00  0.00     0.075 C 
HETATM    2  C10 UNL     1      -2.618  48.882 -24.454  1.00  0.00     0.050 C 
ENDROOT
BRANCH   1   3
HETATM    3  C8  UNL     1      -3.876  51.108 -24.673  1.00  0.00     0.082 C 
BRANCH   3   4
HETATM    4  C6  UNL     1      -2.645  51.715 -25.321  1.00  0.00     0.087 A 
HETATM    5  C5  UNL     1      -1.505  52.183 -24.421  1.00  0.00     0.163 A 
HETATM    6  O2  UNL     1      -2.458  53.101 -24.966  1.00  0.00    -0.369 OA
HETATM    7  C7  UNL     1      -2.448  51.488 -26.793  1.00  0.00     0.049 C 
BRANCH   5   8
HETATM    8  C3  UNL     1      -0.094  52.370 -24.910  1.00  0.00     0.045 C 
HETATM    9  C4  UNL     1       0.681  53.211 -23.884  1.00  0.00     0.015 C 
BRANCH   8  10
HETATM   10  C2  UNL     1      -0.049  53.035 -26.313  1.00  0.00     0.155 C 
BRANCH  10  11
HETATM   11  O1  UNL     1       0.214  54.438 -26.113  1.00  0.00    -0.388 OA
HETATM   12  C1  UNL     1      -0.129  55.240 -27.235  1.00  0.00     0.202 C 
ENDBRANCH  10  11
BRANCH  10  13
HETATM   13  C24 UNL     1       1.033  52.423 -27.252  1.00  0.00     0.143 C 
HETATM   14  C25 UNL     1       1.952  51.436 -26.539  1.00  0.00     0.042 C 
BRANCH  13  15
HETATM   15  O7  UNL     1       0.462  51.736 -28.368  1.00  0.00    -0.393 OA
HETATM   16  H42 UNL     1       0.074  52.420 -28.947  1.00  0.00     0.210 HD
ENDBRANCH  13  15
ENDBRANCH  10  13
ENDBRANCH   8  10
ENDBRANCH   5   8
ENDBRANCH   3   4
ENDBRANCH   1   3
BRANCH   1  17
HETATM   17  O3  UNL     1      -4.882  49.112 -23.728  1.00  0.00    -0.386 OA
HETATM   18  H18 UNL     1      -4.976  48.148 -23.841  1.00  0.00     0.211 HD
ENDBRANCH   1  17
BRANCH   1  19
HETATM   19  C11 UNL     1      -4.594  49.175 -26.055  1.00  0.00     0.010 C 
HETATM   20  C12 UNL     1      -4.167  48.252 -26.932  1.00  0.00    -0.001 C 
BRANCH  20  21
HETATM   21  C13 UNL     1      -4.850  47.997 -28.184  1.00  0.00     0.005 C 
HETATM   22  C14 UNL     1      -6.077  47.459 -28.351  1.00  0.00    -0.055 C 
HETATM   23  C15 UNL     1      -7.001  47.121 -27.201  1.00  0.00     0.046 C 
BRANCH  22  24
HETATM   24  C16 UNL     1      -6.700  47.189 -29.725  1.00  0.00     0.154 C 
HETATM   25  O4  UNL     1      -8.115  47.417 -29.617  1.00  0.00    -0.375 OA
HETATM   26  C17 UNL     1      -8.835  47.496 -30.853  1.00  0.00     0.132 C 
HETATM   27  C20 UNL     1      -8.607  46.241 -31.705  1.00  0.00     0.033 C 
HETATM   28  C21 UNL     1      -7.134  45.848 -31.789  1.00  0.00     0.009 C 
HETATM   29  C22 UNL     1      -6.472  45.815 -30.401  1.00  0.00     0.015 C 
HETATM   30  C23 UNL     1      -7.024  44.632 -29.586  1.00  0.00     0.012 C 
BRANCH  26  31
HETATM   31  C18 UNL     1      -8.541  48.785 -31.625  1.00  0.00     0.141 C 
BRANCH  31  32
HETATM   32  C19 UNL     1      -8.808  49.984 -30.762  1.00  0.00     0.141 C 
HETATM   33  O5  UNL     1      -8.853  51.150 -31.120  1.00  0.00    -0.650 OA
BRANCH  32  34
HETATM   34  O6  UNL     1      -8.962  49.664 -29.462  1.00  0.00    -0.776 OA
HETATM   35  H29 UNL     1      -9.133  50.529 -29.029  1.00  0.00     0.167 HD
ENDBRANCH  32  34
ENDBRANCH  31  32
ENDBRANCH  26  31
ENDBRANCH  22  24
ENDBRANCH  20  21
ENDBRANCH   1  19
TORSDOF 14
ENDMDL
MODEL 6
REMARK minimizedAffinity -7.71634436
REMARK  14 active torsions:
REMARK  status: ('A' for Active; 'I' for Inactive)
REMARK    1  A    between atoms: O1_2  and  C2_3 
REMARK    2  A    between atoms: C2_3  and  C3_4 
REMARK    3  A    between atoms: C2_3  and  C24_30 
REMARK    4  A    between atoms: C3_4  and  C5_6 
REMARK    5  A    between atoms: C6_8  and  C8_10 
REMARK    6  A    between atoms: C8_10  and  C9_11 
REMARK    7  A    between atoms: C9_11  and  O3_13 
REMARK    8  A    between atoms: C9_11  and  C11_14 
REMARK    9  A    between atoms: C12_15  and  C13_16 
REMARK   10  A    between atoms: C14_17  and  C16_19 
REMARK   11  A    between atoms: C17_21  and  C18_22 
REMARK   12  A    between atoms: C18_22  and  C19_23 
REMARK   13  A    between atoms: C19_23  and  O6_25 
REMARK   14  A    between atoms: C24_30  and  O7_32 
ROOT
HETATM    1  C9  UNL     1      -3.990  49.022 -25.133  1.00  0.00     0.075 C 
HETATM    2  C10 UNL     1      -3.827  48.452 -23.720  1.00  0.00     0.050 C 
ENDROOT
BRANCH   1   3
HETATM    3  C8  UNL     1      -2.719  48.843 -26.002  1.00  0.00     0.082 C 
BRANCH   3   4
HETATM    4  C6  UNL     1      -2.083  50.129 -26.496  1.00  0.00     0.087 A 
HETATM    5  C5  UNL     1      -0.690  50.493 -25.989  1.00  0.00     0.163 A 
HETATM    6  O2  UNL     1      -1.870  51.085 -25.437  1.00  0.00    -0.369 OA
HETATM    7  C7  UNL     1      -2.673  50.775 -27.717  1.00  0.00     0.049 C 
BRANCH   5   8
HETATM    8  C3  UNL     1       0.223  51.450 -26.706  1.00  0.00     0.045 C 
HETATM    9  C4  UNL     1       1.679  51.106 -26.357  1.00  0.00     0.015 C 
BRANCH   8  10
HETATM   10  C2  UNL     1      -0.093  52.930 -26.351  1.00  0.00     0.155 C 
BRANCH  10  11
HETATM   11  O1  UNL     1       1.007  53.423 -25.561  1.00  0.00    -0.388 OA
HETATM   12  C1  UNL     1       0.646  53.719 -24.219  1.00  0.00     0.202 C 
ENDBRANCH  10  11
BRANCH  10  13
HETATM   13  C24 UNL     1      -0.293  53.835 -27.604  1.00  0.00     0.143 C 
HETATM   14  C25 UNL     1       0.288  53.230 -28.877  1.00  0.00     0.042 C 
BRANCH  13  15
HETATM   15  O7  UNL     1      -1.671  54.114 -27.861  1.00  0.00    -0.393 OA
HETATM   16  H42 UNL     1      -1.972  54.708 -27.147  1.00  0.00     0.210 HD
ENDBRANCH  13  15
ENDBRANCH  10  13
ENDBRANCH   8  10
ENDBRANCH   5   8
ENDBRANCH   3   4
ENDBRANCH   1   3
BRANCH   1  17
HETATM   17  O3  UNL     1      -4.266  50.422 -24.998  1.00  0.00    -0.386 OA
HETATM   18  H18 UNL     1      -5.110  50.499 -24.518  1.00  0.00     0.211 HD
ENDBRANCH   1  17
BRANCH   1  19
HETATM   19  C11 UNL     1      -5.169  48.454 -25.901  1.00  0.00     0.010 C 
HETATM   20  C12 UNL     1      -5.202  48.053 -27.182  1.00  0.00    -0.001 C 
BRANCH  20  21
HETATM   21  C13 UNL     1      -6.410  47.555 -27.808  1.00  0.00     0.005 C 
HETATM   22  C14 UNL     1      -7.498  47.045 -27.193  1.00  0.00    -0.055 C 
HETATM   23  C15 UNL     1      -7.665  47.011 -25.690  1.00  0.00     0.046 C 
BRANCH  22  24
HETATM   24  C16 UNL     1      -8.716  46.501 -27.948  1.00  0.00     0.154 C 
HETATM   25  O4  UNL     1      -9.623  45.950 -26.978  1.00  0.00    -0.375 OA
HETATM   26  C17 UNL     1     -10.942  45.651 -27.450  1.00  0.00     0.132 C 
HETATM   27  C20 UNL     1     -10.895  44.713 -28.662  1.00  0.00     0.033 C 
HETATM   28  C21 UNL     1      -9.873  45.153 -29.706  1.00  0.00     0.009 C 
HETATM   29  C22 UNL     1      -8.504  45.459 -29.073  1.00  0.00     0.015 C 
HETATM   30  C23 UNL     1      -7.851  44.154 -28.585  1.00  0.00     0.012 C 
BRANCH  26  31
HETATM   31  C18 UNL     1     -11.770  46.910 -27.721  1.00  0.00     0.141 C 
BRANCH  31  32
HETATM   32  C19 UNL     1     -11.865  47.752 -26.481  1.00  0.00     0.141 C 
HETATM   33  O5  UNL     1     -12.394  47.444 -25.426  1.00  0.00    -0.650 OA
BRANCH  32  34
HETATM   34  O6  UNL     1     -11.325  48.976 -26.642  1.00  0.00    -0.776 OA
HETATM   35  H29 UNL     1     -11.452  49.402 -25.767  1.00  0.00     0.167 HD
ENDBRANCH  32  34
ENDBRANCH  31  32
ENDBRANCH  26  31
ENDBRANCH  22  24
ENDBRANCH  20  21
ENDBRANCH   1  19
TORSDOF 14
ENDMDL
MODEL 7
REMARK minimizedAffinity -7.71250391
REMARK  14 active torsions:
REMARK  status: ('A' for Active; 'I' for Inactive)
REMARK    1  A    between atoms: O1_2  and  C2_3 
REMARK    2  A    between atoms: C2_3  and  C3_4 
REMARK    3  A    between atoms: C2_3  and  C24_30 
REMARK    4  A    between atoms: C3_4  and  C5_6 
REMARK    5  A    between atoms: C6_8  and  C8_10 
REMARK    6  A    between atoms: C8_10  and  C9_11 
REMARK    7  A    between atoms: C9_11  and  O3_13 
REMARK    8  A    between atoms: C9_11  and  C11_14 
REMARK    9  A    between atoms: C12_15  and  C13_16 
REMARK   10  A    between atoms: C14_17  and  C16_19 
REMARK   11  A    between atoms: C17_21  and  C18_22 
REMARK   12  A    between atoms: C18_22  and  C19_23 
REMARK   13  A    between atoms: C19_23  and  O6_25 
REMARK   14  A    between atoms: C24_30  and  O7_32 
ROOT
HETATM    1  C9  UNL     1      -5.008  50.452 -22.849  1.00  0.00     0.075 C 
HETATM    2  C10 UNL     1      -4.286  49.535 -21.855  1.00  0.00     0.050 C 
ENDROOT
BRANCH   1   3
HETATM    3  C8  UNL     1      -4.127  51.635 -23.323  1.00  0.00     0.082 C 
BRANCH   3   4
HETATM    4  C6  UNL     1      -2.762  51.254 -23.864  1.00  0.00     0.087 A 
HETATM    5  C5  UNL     1      -1.980  52.292 -24.664  1.00  0.00     0.163 A 
HETATM    6  O2  UNL     1      -2.718  51.248 -25.306  1.00  0.00    -0.369 OA
HETATM    7  C7  UNL     1      -2.096  50.038 -23.283  1.00  0.00     0.049 C 
BRANCH   5   8
HETATM    8  C3  UNL     1      -0.489  52.228 -24.862  1.00  0.00     0.045 C 
HETATM    9  C4  UNL     1       0.204  52.597 -23.542  1.00  0.00     0.015 C 
BRANCH   8  10
HETATM   10  C2  UNL     1      -0.016  53.159 -26.012  1.00  0.00     0.155 C 
BRANCH  10  11
HETATM   11  O1  UNL     1       1.414  53.018 -26.114  1.00  0.00    -0.388 OA
HETATM   12  C1  UNL     1       1.848  51.664 -26.096  1.00  0.00     0.202 C 
ENDBRANCH  10  11
BRANCH  10  13
HETATM   13  C24 UNL     1      -0.680  52.832 -27.383  1.00  0.00     0.143 C 
HETATM   14  C25 UNL     1      -0.676  51.342 -27.708  1.00  0.00     0.042 C 
BRANCH  13  15
HETATM   15  O7  UNL     1      -2.038  53.275 -27.451  1.00  0.00    -0.393 OA
HETATM   16  H42 UNL     1      -2.011  54.250 -27.481  1.00  0.00     0.210 HD
ENDBRANCH  13  15
ENDBRANCH  10  13
ENDBRANCH   8  10
ENDBRANCH   5   8
ENDBRANCH   3   4
ENDBRANCH   1   3
BRANCH   1  17
HETATM   17  O3  UNL     1      -6.166  50.973 -22.183  1.00  0.00    -0.386 OA
HETATM   18  H18 UNL     1      -6.736  50.212 -21.969  1.00  0.00     0.211 HD
ENDBRANCH   1  17
BRANCH   1  19
HETATM   19  C11 UNL     1      -5.541  49.739 -24.078  1.00  0.00     0.010 C 
HETATM   20  C12 UNL     1      -5.066  48.621 -24.652  1.00  0.00    -0.001 C 
BRANCH  20  21
HETATM   21  C13 UNL     1      -5.653  48.056 -25.850  1.00  0.00     0.005 C 
HETATM   22  C14 UNL     1      -5.124  48.046 -27.092  1.00  0.00    -0.055 C 
HETATM   23  C15 UNL     1      -3.735  48.555 -27.410  1.00  0.00     0.046 C 
BRANCH  22  24
HETATM   24  C16 UNL     1      -5.845  47.457 -28.311  1.00  0.00     0.154 C 
HETATM   25  O4  UNL     1      -5.618  48.341 -29.422  1.00  0.00    -0.375 OA
HETATM   26  C17 UNL     1      -5.966  47.827 -30.714  1.00  0.00     0.132 C 
HETATM   27  C20 UNL     1      -7.427  47.365 -30.748  1.00  0.00     0.033 C 
HETATM   28  C21 UNL     1      -7.801  46.507 -29.542  1.00  0.00     0.009 C 
HETATM   29  C22 UNL     1      -7.361  47.159 -28.219  1.00  0.00     0.015 C 
HETATM   30  C23 UNL     1      -8.217  48.408 -27.942  1.00  0.00     0.012 C 
BRANCH  26  31
HETATM   31  C18 UNL     1      -5.000  46.740 -31.194  1.00  0.00     0.141 C 
BRANCH  31  32
HETATM   32  C19 UNL     1      -4.554  47.021 -32.601  1.00  0.00     0.141 C 
HETATM   33  O5  UNL     1      -3.475  47.470 -32.951  1.00  0.00    -0.650 OA
BRANCH  32  34
HETATM   34  O6  UNL     1      -5.515  46.765 -33.510  1.00  0.00    -0.776 OA
HETATM   35  H29 UNL     1      -5.088  46.985 -34.367  1.00  0.00     0.167 HD
ENDBRANCH  32  34
ENDBRANCH  31  32
ENDBRANCH  26  31
ENDBRANCH  22  24
ENDBRANCH  20  21
ENDBRANCH   1  19
TORSDOF 14
ENDMDL
MODEL 8
REMARK minimizedAffinity -7.69341898
REMARK  14 active torsions:
REMARK  status: ('A' for Active; 'I' for Inactive)
REMARK    1  A    between atoms: O1_2  and  C2_3 
REMARK    2  A    between atoms: C2_3  and  C3_4 
REMARK    3  A    between atoms: C2_3  and  C24_30 
REMARK    4  A    between atoms: C3_4  and  C5_6 
REMARK    5  A    between atoms: C6_8  and  C8_10 
REMARK    6  A    between atoms: C8_10  and  C9_11 
REMARK    7  A    between atoms: C9_11  and  O3_13 
REMARK    8  A    between atoms: C9_11  and  C11_14 
REMARK    9  A    between atoms: C12_15  and  C13_16 
REMARK   10  A    between atoms: C14_17  and  C16_19 
REMARK   11  A    between atoms: C17_21  and  C18_22 
REMARK   12  A    between atoms: C18_22  and  C19_23 
REMARK   13  A    between atoms: C19_23  and  O6_25 
REMARK   14  A    between atoms: C24_30  and  O7_32 
ROOT
HETATM    1  C9  UNL     1      -4.162  48.984 -25.368  1.00  0.00     0.075 C 
HETATM    2  C10 UNL     1      -4.247  48.423 -23.945  1.00  0.00     0.050 C 
ENDROOT
BRANCH   1   3
HETATM    3  C8  UNL     1      -2.757  48.814 -25.998  1.00  0.00     0.082 C 
BRANCH   3   4
HETATM    4  C6  UNL     1      -2.105  50.092 -26.489  1.00  0.00     0.087 A 
HETATM    5  C5  UNL     1      -0.729  50.465 -25.943  1.00  0.00     0.163 A 
HETATM    6  O2  UNL     1      -1.926  51.064 -25.438  1.00  0.00    -0.369 OA
HETATM    7  C7  UNL     1      -2.655  50.721 -27.738  1.00  0.00     0.049 C 
BRANCH   5   8
HETATM    8  C3  UNL     1       0.207  51.412 -26.644  1.00  0.00     0.045 C 
HETATM    9  C4  UNL     1       1.651  51.065 -26.252  1.00  0.00     0.015 C 
BRANCH   8  10
HETATM   10  C2  UNL     1      -0.113  52.896 -26.311  1.00  0.00     0.155 C 
BRANCH  10  11
HETATM   11  O1  UNL     1       0.982  53.401 -25.522  1.00  0.00    -0.388 OA
HETATM   12  C1  UNL     1       0.573  53.939 -24.272  1.00  0.00     0.202 C 
ENDBRANCH  10  11
BRANCH  10  13
HETATM   13  C24 UNL     1      -0.307  53.784 -27.576  1.00  0.00     0.143 C 
HETATM   14  C25 UNL     1       0.262  53.151 -28.842  1.00  0.00     0.042 C 
BRANCH  13  15
HETATM   15  O7  UNL     1      -1.683  54.075 -27.832  1.00  0.00    -0.393 OA
HETATM   16  H42 UNL     1      -1.974  54.684 -27.127  1.00  0.00     0.210 HD
ENDBRANCH  13  15
ENDBRANCH  10  13
ENDBRANCH   8  10
ENDBRANCH   5   8
ENDBRANCH   3   4
ENDBRANCH   1   3
BRANCH   1  17
HETATM   17  O3  UNL     1      -4.471  50.383 -25.293  1.00  0.00    -0.386 OA
HETATM   18  H18 UNL     1      -5.387  50.454 -24.969  1.00  0.00     0.211 HD
ENDBRANCH   1  17
BRANCH   1  19
HETATM   19  C11 UNL     1      -5.183  48.402 -26.328  1.00  0.00     0.010 C 
HETATM   20  C12 UNL     1      -5.007  48.077 -27.620  1.00  0.00    -0.001 C 
BRANCH  20  21
HETATM   21  C13 UNL     1      -6.080  47.553 -28.440  1.00  0.00     0.005 C 
HETATM   22  C14 UNL     1      -6.279  47.764 -29.758  1.00  0.00    -0.055 C 
HETATM   23  C15 UNL     1      -5.310  48.530 -30.634  1.00  0.00     0.046 C 
BRANCH  22  24
HETATM   24  C16 UNL     1      -7.474  47.198 -30.533  1.00  0.00     0.154 C 
HETATM   25  O4  UNL     1      -7.155  47.255 -31.934  1.00  0.00    -0.375 OA
HETATM   26  C17 UNL     1      -8.018  46.514 -32.805  1.00  0.00     0.132 C 
HETATM   27  C20 UNL     1      -9.481  46.935 -32.621  1.00  0.00     0.033 C 
HETATM   28  C21 UNL     1      -9.889  47.015 -31.152  1.00  0.00     0.009 C 
HETATM   29  C22 UNL     1      -8.875  47.821 -30.320  1.00  0.00     0.015 C 
HETATM   30  C23 UNL     1      -8.949  49.309 -30.706  1.00  0.00     0.012 C 
BRANCH  26  31
HETATM   31  C18 UNL     1      -7.827  45.000 -32.675  1.00  0.00     0.141 C 
BRANCH  31  32
HETATM   32  C19 UNL     1      -8.711  44.276 -33.651  1.00  0.00     0.141 C 
HETATM   33  O5  UNL     1      -9.657  43.553 -33.385  1.00  0.00    -0.650 OA
BRANCH  32  34
HETATM   34  O6  UNL     1      -8.328  44.457 -34.930  1.00  0.00    -0.776 OA
HETATM   35  H29 UNL     1      -8.986  43.941 -35.444  1.00  0.00     0.167 HD
ENDBRANCH  32  34
ENDBRANCH  31  32
ENDBRANCH  26  31
ENDBRANCH  22  24
ENDBRANCH  20  21
ENDBRANCH   1  19
TORSDOF 14
ENDMDL
MODEL 9
REMARK minimizedAffinity -7.66538811
REMARK  14 active torsions:
REMARK  status: ('A' for Active; 'I' for Inactive)
REMARK    1  A    between atoms: O1_2  and  C2_3 
REMARK    2  A    between atoms: C2_3  and  C3_4 
REMARK    3  A    between atoms: C2_3  and  C24_30 
REMARK    4  A    between atoms: C3_4  and  C5_6 
REMARK    5  A    between atoms: C6_8  and  C8_10 
REMARK    6  A    between atoms: C8_10  and  C9_11 
REMARK    7  A    between atoms: C9_11  and  O3_13 
REMARK    8  A    between atoms: C9_11  and  C11_14 
REMARK    9  A    between atoms: C12_15  and  C13_16 
REMARK   10  A    between atoms: C14_17  and  C16_19 
REMARK   11  A    between atoms: C17_21  and  C18_22 
REMARK   12  A    between atoms: C18_22  and  C19_23 
REMARK   13  A    between atoms: C19_23  and  O6_25 
REMARK   14  A    between atoms: C24_30  and  O7_32 
ROOT
HETATM    1  C9  UNL     1       0.798  51.939 -26.413  1.00  0.00     0.075 C 
HETATM    2  C10 UNL     1       2.264  51.500 -26.498  1.00  0.00     0.050 C 
ENDROOT
BRANCH   1   3
HETATM    3  C8  UNL     1      -0.085  51.297 -27.512  1.00  0.00     0.082 C 
BRANCH   3   4
HETATM    4  C6  UNL     1      -1.572  51.263 -27.214  1.00  0.00     0.087 A 
HETATM    5  C5  UNL     1      -2.186  49.958 -26.713  1.00  0.00     0.163 A 
HETATM    6  O2  UNL     1      -2.292  50.363 -28.082  1.00  0.00    -0.369 OA
HETATM    7  C7  UNL     1      -2.283  52.579 -27.065  1.00  0.00     0.049 C 
BRANCH   5   8
HETATM    8  C3  UNL     1      -3.491  49.895 -25.968  1.00  0.00     0.045 C 
HETATM    9  C4  UNL     1      -3.260  50.350 -24.519  1.00  0.00     0.015 C 
BRANCH   8  10
HETATM   10  C2  UNL     1      -4.111  48.470 -26.004  1.00  0.00     0.155 C 
BRANCH  10  11
HETATM   11  O1  UNL     1      -5.067  48.393 -24.929  1.00  0.00    -0.388 OA
HETATM   12  C1  UNL     1      -6.312  47.830 -25.323  1.00  0.00     0.202 C 
ENDBRANCH  10  11
BRANCH  10  13
HETATM   13  C24 UNL     1      -4.808  48.135 -27.357  1.00  0.00     0.143 C 
HETATM   14  C25 UNL     1      -6.275  47.751 -27.193  1.00  0.00     0.042 C 
BRANCH  13  15
HETATM   15  O7  UNL     1      -4.759  49.226 -28.280  1.00  0.00    -0.393 OA
HETATM   16  H42 UNL     1      -3.828  49.310 -28.562  1.00  0.00     0.210 HD
ENDBRANCH  13  15
ENDBRANCH  10  13
ENDBRANCH   8  10
ENDBRANCH   5   8
ENDBRANCH   3   4
ENDBRANCH   1   3
BRANCH   1  17
HETATM   17  O3  UNL     1       0.771  53.364 -26.569  1.00  0.00    -0.386 OA
HETATM   18  H18 UNL     1       1.268  53.740 -25.820  1.00  0.00     0.211 HD
ENDBRANCH   1  17
BRANCH   1  19
HETATM   19  C11 UNL     1       0.147  51.672 -25.069  1.00  0.00     0.010 C 
HETATM   20  C12 UNL     1       0.348  52.325 -23.912  1.00  0.00    -0.001 C 
BRANCH  20  21
HETATM   21  C13 UNL     1      -0.319  51.948 -22.683  1.00  0.00     0.005 C 
HETATM   22  C14 UNL     1       0.096  52.188 -21.421  1.00  0.00    -0.055 C 
HETATM   23  C15 UNL     1       1.322  53.011 -21.090  1.00  0.00     0.046 C 
BRANCH  22  24
HETATM   24  C16 UNL     1      -0.663  51.709 -20.178  1.00  0.00     0.154 C 
HETATM   25  O4  UNL     1       0.256  50.958 -19.366  1.00  0.00    -0.375 OA
HETATM   26  C17 UNL     1      -0.178  50.668 -18.031  1.00  0.00     0.132 C 
HETATM   27  C20 UNL     1      -1.529  49.944 -18.036  1.00  0.00     0.033 C 
HETATM   28  C21 UNL     1      -2.547  50.604 -18.962  1.00  0.00     0.009 C 
HETATM   29  C22 UNL     1      -1.957  50.877 -20.357  1.00  0.00     0.015 C 
HETATM   30  C23 UNL     1      -1.733  49.548 -21.099  1.00  0.00     0.012 C 
BRANCH  26  31
HETATM   31  C18 UNL     1      -0.185  51.907 -17.132  1.00  0.00     0.141 C 
BRANCH  31  32
HETATM   32  C19 UNL     1       1.218  52.383 -16.886  1.00  0.00     0.141 C 
HETATM   33  O5  UNL     1       2.216  52.087 -17.524  1.00  0.00    -0.650 OA
BRANCH  32  34
HETATM   34  O6  UNL     1       1.313  53.182 -15.805  1.00  0.00    -0.776 OA
HETATM   35  H29 UNL     1       2.266  53.416 -15.771  1.00  0.00     0.167 HD
ENDBRANCH  32  34
ENDBRANCH  31  32
ENDBRANCH  26  31
ENDBRANCH  22  24
ENDBRANCH  20  21
ENDBRANCH   1  19
TORSDOF 14
ENDMDL
