MODEL 1
REMARK minimizedAffinity -6.57103491
REMARK CNNscore 0.558387816
REMARK CNNaffinity 6.28059912
REMARK  10 active torsions:
REMARK  status: ('A' for Active; 'I' for Inactive)
REMARK    1  A    between atoms: C14_14  and  C15_15 
REMARK    2  A    between atoms: C15_15  and  C17_17 
REMARK    3  A    between atoms: C17_17  and  C18_18 
REMARK    4  A    between atoms: C18_18  and  C19_19 
REMARK    5  A    between atoms: C20_20  and  C22_22 
REMARK    6  A    between atoms: C22_22  and  O2_24 
REMARK    7  A    between atoms: C27_29  and  C28_30 
REMARK    8  A    between atoms: C28_30  and  C29_31 
REMARK    9  A    between atoms: C29_31  and  C30_32 
REMARK   10  A    between atoms: C30_32  and  O3_33 
ROOT
HETATM    1  C1  UNL     1     -11.622  44.202 -26.981  1.00  0.00     0.043 C 
HETATM    2  C2  UNL     1     -11.385  45.586 -27.546  1.00  0.00    -0.085 C 
HETATM    3  C3  UNL     1     -12.542  46.515 -27.257  1.00  0.00     0.043 C 
HETATM    4  C4  UNL     1     -10.257  45.941 -28.221  1.00  0.00    -0.073 C 
HETATM    5  C5  UNL     1      -9.151  44.941 -28.474  1.00  0.00     0.035 C 
HETATM    6  C6  UNL     1      -8.131  45.306 -29.550  1.00  0.00     0.010 C 
HETATM    7  C7  UNL     1      -8.637  46.142 -30.742  1.00  0.00     0.003 C 
HETATM    8  C8  UNL     1      -9.639  47.318 -30.341  1.00  0.00    -0.032 C 
HETATM    9  C9  UNL     1      -9.050  48.713 -30.696  1.00  0.00     0.016 C 
HETATM   10  C10 UNL     1     -10.986  47.225 -31.153  1.00  0.00     0.011 C 
HETATM   11  C11 UNL     1     -10.922  46.903 -32.661  1.00  0.00     0.011 C 
HETATM   12  C12 UNL     1      -9.655  46.167 -33.118  1.00  0.00    -0.032 C 
HETATM   13  C13 UNL     1      -8.589  47.194 -33.607  1.00  0.00     0.016 C 
HETATM   14  C14 UNL     1      -9.876  45.116 -34.253  1.00  0.00    -0.002 C 
HETATM   15  C23 UNL     1      -8.659  44.166 -34.100  1.00  0.00     0.006 C 
HETATM   16  C24 UNL     1      -8.046  44.455 -32.705  1.00  0.00     0.011 C 
HETATM   17  C25 UNL     1      -9.136  45.254 -31.946  1.00  0.00    -0.032 C 
HETATM   18  C26 UNL     1     -10.153  44.180 -31.434  1.00  0.00     0.016 C 
HETATM   19  C27 UNL     1     -10.019  47.334 -28.796  1.00  0.00     0.023 C 
ENDROOT
BRANCH  14  20
HETATM   20  C15 UNL     1     -10.324  45.523 -35.688  1.00  0.00    -0.014 C 
HETATM   21  C16 UNL     1      -9.178  46.279 -36.387  1.00  0.00     0.010 C 
BRANCH  20  22
HETATM   22  C17 UNL     1     -11.661  46.249 -35.950  1.00  0.00     0.008 C 
BRANCH  22  23
HETATM   23  C18 UNL     1     -12.477  45.828 -37.177  1.00  0.00     0.028 C 
BRANCH  23  24
HETATM   24  C19 UNL     1     -12.761  47.020 -38.052  1.00  0.00    -0.013 C 
HETATM   25  C20 UNL     1     -13.781  47.897 -37.955  1.00  0.00     0.008 C 
HETATM   26  C21 UNL     1     -14.888  47.859 -36.946  1.00  0.00     0.055 C 
BRANCH  25  27
HETATM   27  C22 UNL     1     -13.803  48.994 -38.957  1.00  0.00     0.171 C 
HETATM   28  O1  UNL     1     -13.328  50.108 -38.829  1.00  0.00    -0.646 OA
BRANCH  27  29
HETATM   29  O2  UNL     1     -14.432  48.641 -40.091  1.00  0.00    -0.773 OA
HETATM   30  H35 UNL     1     -14.364  49.446 -40.646  1.00  0.00     0.167 HD
ENDBRANCH  27  29
ENDBRANCH  25  27
ENDBRANCH  23  24
ENDBRANCH  22  23
ENDBRANCH  20  22
ENDBRANCH  14  20
BRANCH  19  31
HETATM   31  C28 UNL     1      -9.210  48.230 -27.806  1.00  0.00     0.012 C 
BRANCH  31  32
HETATM   32  C29 UNL     1      -9.068  47.785 -26.350  1.00  0.00     0.027 C 
BRANCH  32  33
HETATM   33  C30 UNL     1      -9.298  48.927 -25.364  1.00  0.00     0.164 C 
BRANCH  33  34
HETATM   34  O3  UNL     1      -9.583  50.143 -26.042  1.00  0.00    -0.401 OA
HETATM   35  H50 UNL     1      -8.745  50.475 -26.409  1.00  0.00     0.209 HD
ENDBRANCH  33  34
ENDBRANCH  32  33
ENDBRANCH  31  32
ENDBRANCH  19  31
TORSDOF 10
ENDMDL
MODEL 2
REMARK minimizedAffinity -6.33828497
REMARK CNNscore 0.450676113
REMARK CNNaffinity 6.38936758
REMARK  10 active torsions:
REMARK  status: ('A' for Active; 'I' for Inactive)
REMARK    1  A    between atoms: C14_14  and  C15_15 
REMARK    2  A    between atoms: C15_15  and  C17_17 
REMARK    3  A    between atoms: C17_17  and  C18_18 
REMARK    4  A    between atoms: C18_18  and  C19_19 
REMARK    5  A    between atoms: C20_20  and  C22_22 
REMARK    6  A    between atoms: C22_22  and  O2_24 
REMARK    7  A    between atoms: C27_29  and  C28_30 
REMARK    8  A    between atoms: C28_30  and  C29_31 
REMARK    9  A    between atoms: C29_31  and  C30_32 
REMARK   10  A    between atoms: C30_32  and  O3_33 
ROOT
HETATM    1  C1  UNL     1       5.788  55.241 -10.102  1.00  0.00     0.043 C 
HETATM    2  C2  UNL     1       5.167  54.282  -9.109  1.00  0.00    -0.085 C 
HETATM    3  C3  UNL     1       5.910  52.966  -9.061  1.00  0.00     0.043 C 
HETATM    4  C4  UNL     1       4.080  54.585  -8.348  1.00  0.00    -0.073 C 
HETATM    5  C5  UNL     1       3.392  55.927  -8.469  1.00  0.00     0.035 C 
HETATM    6  C6  UNL     1       1.985  56.029  -7.884  1.00  0.00     0.010 C 
HETATM    7  C7  UNL     1       1.111  54.761  -7.931  1.00  0.00     0.003 C 
HETATM    8  C8  UNL     1       1.889  53.413  -7.576  1.00  0.00    -0.032 C 
HETATM    9  C9  UNL     1       1.311  52.745  -6.295  1.00  0.00     0.016 C 
HETATM   10  C10 UNL     1       1.717  52.335  -8.711  1.00  0.00     0.011 C 
HETATM   11  C11 UNL     1       0.323  52.140  -9.344  1.00  0.00     0.011 C 
HETATM   12  C12 UNL     1      -0.619  53.347  -9.232  1.00  0.00    -0.032 C 
HETATM   13  C13 UNL     1      -1.516  53.206  -7.965  1.00  0.00     0.016 C 
HETATM   14  C14 UNL     1      -1.551  53.573 -10.466  1.00  0.00    -0.002 C 
HETATM   15  C23 UNL     1      -1.917  55.077 -10.363  1.00  0.00     0.006 C 
HETATM   16  C24 UNL     1      -0.909  55.711  -9.369  1.00  0.00     0.011 C 
HETATM   17  C25 UNL     1       0.232  54.670  -9.238  1.00  0.00    -0.032 C 
HETATM   18  C26 UNL     1       1.130  54.882 -10.503  1.00  0.00     0.016 C 
HETATM   19  C27 UNL     1       3.451  53.619  -7.350  1.00  0.00     0.023 C 
ENDROOT
BRANCH  14  20
HETATM   20  C15 UNL     1      -2.667  52.563 -10.861  1.00  0.00    -0.014 C 
HETATM   21  C16 UNL     1      -3.782  53.303 -11.626  1.00  0.00     0.010 C 
BRANCH  20  22
HETATM   22  C17 UNL     1      -3.296  51.598  -9.832  1.00  0.00     0.008 C 
BRANCH  22  23
HETATM   23  C18 UNL     1      -3.917  50.298 -10.355  1.00  0.00     0.028 C 
BRANCH  23  24
HETATM   24  C19 UNL     1      -5.411  50.320 -10.175  1.00  0.00    -0.013 C 
HETATM   25  C20 UNL     1      -6.304  49.374 -10.531  1.00  0.00     0.008 C 
HETATM   26  C21 UNL     1      -5.996  48.079 -11.218  1.00  0.00     0.055 C 
BRANCH  25  27
HETATM   27  C22 UNL     1      -7.728  49.662 -10.214  1.00  0.00     0.171 C 
HETATM   28  O1  UNL     1      -8.675  49.575 -10.975  1.00  0.00    -0.646 OA
BRANCH  27  29
HETATM   29  O2  UNL     1      -7.901  50.057  -8.941  1.00  0.00    -0.773 OA
HETATM   30  H35 UNL     1      -8.868  50.203  -8.881  1.00  0.00     0.167 HD
ENDBRANCH  27  29
ENDBRANCH  25  27
ENDBRANCH  23  24
ENDBRANCH  22  23
ENDBRANCH  20  22
ENDBRANCH  14  20
BRANCH  19  31
HETATM   31  C28 UNL     1       4.005  53.845  -5.908  1.00  0.00     0.012 C 
BRANCH  31  32
HETATM   32  C29 UNL     1       5.215  53.035  -5.444  1.00  0.00     0.027 C 
BRANCH  32  33
HETATM   33  C30 UNL     1       6.296  53.908  -4.810  1.00  0.00     0.164 C 
BRANCH  33  34
HETATM   34  O3  UNL     1       6.356  55.185  -5.431  1.00  0.00    -0.401 OA
HETATM   35  H50 UNL     1       6.792  55.069  -6.294  1.00  0.00     0.209 HD
ENDBRANCH  33  34
ENDBRANCH  32  33
ENDBRANCH  31  32
ENDBRANCH  19  31
TORSDOF 10
ENDMDL
MODEL 3
REMARK minimizedAffinity -6.74005079
REMARK CNNscore 0.413288713
REMARK CNNaffinity 6.08019304
REMARK  10 active torsions:
REMARK  status: ('A' for Active; 'I' for Inactive)
REMARK    1  A    between atoms: C14_14  and  C15_15 
REMARK    2  A    between atoms: C15_15  and  C17_17 
REMARK    3  A    between atoms: C17_17  and  C18_18 
REMARK    4  A    between atoms: C18_18  and  C19_19 
REMARK    5  A    between atoms: C20_20  and  C22_22 
REMARK    6  A    between atoms: C22_22  and  O2_24 
REMARK    7  A    between atoms: C27_29  and  C28_30 
REMARK    8  A    between atoms: C28_30  and  C29_31 
REMARK    9  A    between atoms: C29_31  and  C30_32 
REMARK   10  A    between atoms: C30_32  and  O3_33 
ROOT
HETATM    1  C1  UNL     1      -1.273  53.340  -4.901  1.00  0.00     0.043 C 
HETATM    2  C2  UNL     1      -0.993  53.205  -6.383  1.00  0.00    -0.085 C 
HETATM    3  C3  UNL     1      -1.172  51.781  -6.859  1.00  0.00     0.043 C 
HETATM    4  C4  UNL     1      -0.636  54.248  -7.180  1.00  0.00    -0.073 C 
HETATM    5  C5  UNL     1      -0.471  55.642  -6.616  1.00  0.00     0.035 C 
HETATM    6  C6  UNL     1       0.295  56.644  -7.478  1.00  0.00     0.010 C 
HETATM    7  C7  UNL     1       1.422  56.085  -8.370  1.00  0.00     0.003 C 
HETATM    8  C8  UNL     1       1.064  54.709  -9.096  1.00  0.00    -0.032 C 
HETATM    9  C9  UNL     1       1.065  54.867 -10.643  1.00  0.00     0.016 C 
HETATM   10  C10 UNL     1       2.147  53.605  -8.798  1.00  0.00     0.011 C 
HETATM   11  C11 UNL     1       3.639  53.999  -8.838  1.00  0.00     0.011 C 
HETATM   12  C12 UNL     1       3.926  55.490  -8.609  1.00  0.00    -0.032 C 
HETATM   13  C13 UNL     1       4.012  56.232  -9.977  1.00  0.00     0.016 C 
HETATM   14  C14 UNL     1       5.232  55.794  -7.807  1.00  0.00    -0.002 C 
HETATM   15  C23 UNL     1       4.974  57.213  -7.234  1.00  0.00     0.006 C 
HETATM   16  C24 UNL     1       3.453  57.479  -7.381  1.00  0.00     0.011 C 
HETATM   17  C25 UNL     1       2.827  56.088  -7.654  1.00  0.00    -0.032 C 
HETATM   18  C26 UNL     1       2.716  55.403  -6.251  1.00  0.00     0.016 C 
HETATM   19  C27 UNL     1      -0.349  54.113  -8.672  1.00  0.00     0.023 C 
ENDROOT
BRANCH  14  20
HETATM   20  C15 UNL     1       6.647  55.465  -8.365  1.00  0.00    -0.014 C 
HETATM   21  C16 UNL     1       6.545  54.300  -9.368  1.00  0.00     0.010 C 
BRANCH  20  22
HETATM   22  C17 UNL     1       7.860  55.244  -7.435  1.00  0.00     0.008 C 
BRANCH  22  23
HETATM   23  C18 UNL     1       7.722  55.659  -5.966  1.00  0.00     0.028 C 
BRANCH  23  24
HETATM   24  C19 UNL     1       8.821  56.615  -5.585  1.00  0.00    -0.013 C 
HETATM   25  C20 UNL     1       8.701  57.842  -5.038  1.00  0.00     0.008 C 
HETATM   26  C21 UNL     1       7.419  58.542  -4.705  1.00  0.00     0.055 C 
BRANCH  25  27
HETATM   27  C22 UNL     1       9.970  58.561  -4.752  1.00  0.00     0.171 C 
HETATM   28  O1  UNL     1      10.089  59.635  -4.192  1.00  0.00    -0.646 OA
BRANCH  27  29
HETATM   29  O2  UNL     1      11.050  57.892  -5.194  1.00  0.00    -0.773 OA
HETATM   30  H35 UNL     1      11.795  58.473  -4.937  1.00  0.00     0.167 HD
ENDBRANCH  27  29
ENDBRANCH  25  27
ENDBRANCH  23  24
ENDBRANCH  22  23
ENDBRANCH  20  22
ENDBRANCH  14  20
BRANCH  19  31
HETATM   31  C28 UNL     1      -1.615  54.429  -9.529  1.00  0.00     0.012 C 
BRANCH  31  32
HETATM   32  C29 UNL     1      -2.448  53.271 -10.077  1.00  0.00     0.027 C 
BRANCH  32  33
HETATM   33  C30 UNL     1      -3.766  53.737 -10.691  1.00  0.00     0.164 C 
BRANCH  33  34
HETATM   34  O3  UNL     1      -4.641  52.642 -10.924  1.00  0.00    -0.401 OA
HETATM   35  H50 UNL     1      -4.311  52.166 -11.707  1.00  0.00     0.209 HD
ENDBRANCH  33  34
ENDBRANCH  32  33
ENDBRANCH  31  32
ENDBRANCH  19  31
TORSDOF 10
ENDMDL
MODEL 4
REMARK minimizedAffinity -6.5514555
REMARK CNNscore 0.33209008
REMARK CNNaffinity 6.59002686
REMARK  10 active torsions:
REMARK  status: ('A' for Active; 'I' for Inactive)
REMARK    1  A    between atoms: C14_14  and  C15_15 
REMARK    2  A    between atoms: C15_15  and  C17_17 
REMARK    3  A    between atoms: C17_17  and  C18_18 
REMARK    4  A    between atoms: C18_18  and  C19_19 
REMARK    5  A    between atoms: C20_20  and  C22_22 
REMARK    6  A    between atoms: C22_22  and  O2_24 
REMARK    7  A    between atoms: C27_29  and  C28_30 
REMARK    8  A    between atoms: C28_30  and  C29_31 
REMARK    9  A    between atoms: C29_31  and  C30_32 
REMARK   10  A    between atoms: C30_32  and  O3_33 
ROOT
HETATM    1  C1  UNL     1      -2.176  50.693 -14.477  1.00  0.00     0.043 C 
HETATM    2  C2  UNL     1      -2.497  51.521 -13.250  1.00  0.00    -0.085 C 
HETATM    3  C3  UNL     1      -3.519  52.593 -13.550  1.00  0.00     0.043 C 
HETATM    4  C4  UNL     1      -1.935  51.306 -12.029  1.00  0.00    -0.073 C 
HETATM    5  C5  UNL     1      -0.910  50.213 -11.822  1.00  0.00     0.035 C 
HETATM    6  C6  UNL     1      -0.064  50.300 -10.553  1.00  0.00     0.010 C 
HETATM    7  C7  UNL     1       0.263  51.710 -10.023  1.00  0.00     0.003 C 
HETATM    8  C8  UNL     1      -0.957  52.737 -10.087  1.00  0.00    -0.032 C 
HETATM    9  C9  UNL     1      -1.372  53.215  -8.666  1.00  0.00     0.016 C 
HETATM   10  C10 UNL     1      -0.562  54.050 -10.861  1.00  0.00     0.011 C 
HETATM   11  C11 UNL     1       0.816  54.687 -10.585  1.00  0.00     0.011 C 
HETATM   12  C12 UNL     1       1.880  53.727 -10.034  1.00  0.00    -0.032 C 
HETATM   13  C13 UNL     1       1.889  53.779  -8.476  1.00  0.00     0.016 C 
HETATM   14  C14 UNL     1       3.335  53.995 -10.539  1.00  0.00    -0.002 C 
HETATM   15  C23 UNL     1       4.037  52.625 -10.338  1.00  0.00     0.006 C 
HETATM   16  C24 UNL     1       2.913  51.579 -10.125  1.00  0.00     0.011 C 
HETATM   17  C25 UNL     1       1.616  52.282 -10.599  1.00  0.00    -0.032 C 
HETATM   18  C26 UNL     1       1.627  52.162 -12.159  1.00  0.00     0.016 C 
HETATM   19  C27 UNL     1      -2.254  52.143 -10.794  1.00  0.00     0.023 C 
ENDROOT
BRANCH  14  20
HETATM   20  C15 UNL     1       4.117  55.290 -10.175  1.00  0.00    -0.014 C 
HETATM   21  C16 UNL     1       3.592  56.462 -11.027  1.00  0.00     0.010 C 
BRANCH  20  22
HETATM   22  C17 UNL     1       5.660  55.328 -10.135  1.00  0.00     0.008 C 
BRANCH  22  23
HETATM   23  C18 UNL     1       6.363  54.650  -8.953  1.00  0.00     0.028 C 
BRANCH  23  24
HETATM   24  C19 UNL     1       6.708  55.665  -7.896  1.00  0.00    -0.013 C 
HETATM   25  C20 UNL     1       5.956  56.061  -6.848  1.00  0.00     0.008 C 
HETATM   26  C21 UNL     1       4.576  55.580  -6.517  1.00  0.00     0.055 C 
BRANCH  25  27
HETATM   27  C22 UNL     1       6.563  57.078  -5.951  1.00  0.00     0.171 C 
HETATM   28  O1  UNL     1       6.021  58.075  -5.508  1.00  0.00    -0.646 OA
BRANCH  27  29
HETATM   29  O2  UNL     1       7.843  56.798  -5.649  1.00  0.00    -0.773 OA
HETATM   30  H35 UNL     1       8.102  57.538  -5.061  1.00  0.00     0.167 HD
ENDBRANCH  27  29
ENDBRANCH  25  27
ENDBRANCH  23  24
ENDBRANCH  22  23
ENDBRANCH  20  22
ENDBRANCH  14  20
BRANCH  19  31
HETATM   31  C28 UNL     1      -3.376  51.484  -9.932  1.00  0.00     0.012 C 
BRANCH  31  32
HETATM   32  C29 UNL     1      -4.804  51.448 -10.477  1.00  0.00     0.027 C 
BRANCH  32  33
HETATM   33  C30 UNL     1      -5.433  50.060 -10.380  1.00  0.00     0.164 C 
BRANCH  33  34
HETATM   34  O3  UNL     1      -6.847  50.142 -10.272  1.00  0.00    -0.401 OA
HETATM   35  H50 UNL     1      -7.055  50.426  -9.365  1.00  0.00     0.209 HD
ENDBRANCH  33  34
ENDBRANCH  32  33
ENDBRANCH  31  32
ENDBRANCH  19  31
TORSDOF 10
ENDMDL
MODEL 5
REMARK minimizedAffinity -6.66961193
REMARK CNNscore 0.29399243
REMARK CNNaffinity 6.42776632
REMARK  10 active torsions:
REMARK  status: ('A' for Active; 'I' for Inactive)
REMARK    1  A    between atoms: C14_14  and  C15_15 
REMARK    2  A    between atoms: C15_15  and  C17_17 
REMARK    3  A    between atoms: C17_17  and  C18_18 
REMARK    4  A    between atoms: C18_18  and  C19_19 
REMARK    5  A    between atoms: C20_20  and  C22_22 
REMARK    6  A    between atoms: C22_22  and  O2_24 
REMARK    7  A    between atoms: C27_29  and  C28_30 
REMARK    8  A    between atoms: C28_30  and  C29_31 
REMARK    9  A    between atoms: C29_31  and  C30_32 
REMARK   10  A    between atoms: C30_32  and  O3_33 
ROOT
HETATM    1  C1  UNL     1       2.314  55.487  -4.364  1.00  0.00     0.043 C 
HETATM    2  C2  UNL     1       2.403  56.084  -5.752  1.00  0.00    -0.085 C 
HETATM    3  C3  UNL     1       2.099  57.565  -5.745  1.00  0.00     0.043 C 
HETATM    4  C4  UNL     1       2.730  55.366  -6.861  1.00  0.00    -0.073 C 
HETATM    5  C5  UNL     1       3.010  53.882  -6.776  1.00  0.00     0.035 C 
HETATM    6  C6  UNL     1       2.979  53.103  -8.090  1.00  0.00     0.010 C 
HETATM    7  C7  UNL     1       2.000  53.594  -9.174  1.00  0.00     0.003 C 
HETATM    8  C8  UNL     1       1.938  55.181  -9.333  1.00  0.00    -0.032 C 
HETATM    9  C9  UNL     1       2.408  55.629 -10.747  1.00  0.00     0.016 C 
HETATM   10  C10 UNL     1       0.460  55.712  -9.207  1.00  0.00     0.011 C 
HETATM   11  C11 UNL     1      -0.670  54.937  -9.918  1.00  0.00     0.011 C 
HETATM   12  C12 UNL     1      -0.368  53.459 -10.203  1.00  0.00    -0.032 C 
HETATM   13  C13 UNL     1       0.221  53.303 -11.637  1.00  0.00     0.016 C 
HETATM   14  C14 UNL     1      -1.594  52.499 -10.071  1.00  0.00    -0.002 C 
HETATM   15  C23 UNL     1      -0.936  51.116  -9.822  1.00  0.00     0.006 C 
HETATM   16  C24 UNL     1       0.540  51.392  -9.433  1.00  0.00     0.011 C 
HETATM   17  C25 UNL     1       0.586  52.901  -9.082  1.00  0.00    -0.032 C 
HETATM   18  C26 UNL     1       0.034  53.002  -7.622  1.00  0.00     0.016 C 
HETATM   19  C27 UNL     1       2.815  55.965  -8.261  1.00  0.00     0.023 C 
ENDROOT
BRANCH  14  20
HETATM   20  C15 UNL     1      -2.818  52.577 -11.029  1.00  0.00    -0.014 C 
HETATM   21  C16 UNL     1      -3.781  53.677 -10.543  1.00  0.00     0.010 C 
BRANCH  20  22
HETATM   22  C17 UNL     1      -3.624  51.320 -11.427  1.00  0.00     0.008 C 
BRANCH  22  23
HETATM   23  C18 UNL     1      -4.082  50.379 -10.308  1.00  0.00     0.028 C 
BRANCH  23  24
HETATM   24  C19 UNL     1      -5.586  50.308 -10.265  1.00  0.00    -0.013 C 
HETATM   25  C20 UNL     1      -6.385  49.338 -10.752  1.00  0.00     0.008 C 
HETATM   26  C21 UNL     1      -5.940  48.105 -11.478  1.00  0.00     0.055 C 
BRANCH  25  27
HETATM   27  C22 UNL     1      -7.845  49.528 -10.553  1.00  0.00     0.171 C 
HETATM   28  O1  UNL     1      -8.742  49.013 -11.198  1.00  0.00    -0.646 OA
BRANCH  27  29
HETATM   29  O2  UNL     1      -8.121  50.371  -9.543  1.00  0.00    -0.773 OA
HETATM   30  H35 UNL     1      -9.100  50.393  -9.529  1.00  0.00     0.167 HD
ENDBRANCH  27  29
ENDBRANCH  25  27
ENDBRANCH  23  24
ENDBRANCH  22  23
ENDBRANCH  20  22
ENDBRANCH  14  20
BRANCH  19  31
HETATM   31  C28 UNL     1       4.275  56.390  -8.613  1.00  0.00     0.012 C 
BRANCH  31  32
HETATM   32  C29 UNL     1       5.394  56.096  -7.614  1.00  0.00     0.027 C 
BRANCH  32  33
HETATM   33  C30 UNL     1       6.500  55.229  -8.211  1.00  0.00     0.164 C 
BRANCH  33  34
HETATM   34  O3  UNL     1       6.529  55.335  -9.628  1.00  0.00    -0.401 OA
HETATM   35  H50 UNL     1       5.779  54.820  -9.974  1.00  0.00     0.209 HD
ENDBRANCH  33  34
ENDBRANCH  32  33
ENDBRANCH  31  32
ENDBRANCH  19  31
TORSDOF 10
ENDMDL
MODEL 6
REMARK minimizedAffinity -8.12337303
REMARK CNNscore 0.270249724
REMARK CNNaffinity 5.95671463
REMARK  10 active torsions:
REMARK  status: ('A' for Active; 'I' for Inactive)
REMARK    1  A    between atoms: C14_14  and  C15_15 
REMARK    2  A    between atoms: C15_15  and  C17_17 
REMARK    3  A    between atoms: C17_17  and  C18_18 
REMARK    4  A    between atoms: C18_18  and  C19_19 
REMARK    5  A    between atoms: C20_20  and  C22_22 
REMARK    6  A    between atoms: C22_22  and  O2_24 
REMARK    7  A    between atoms: C27_29  and  C28_30 
REMARK    8  A    between atoms: C28_30  and  C29_31 
REMARK    9  A    between atoms: C29_31  and  C30_32 
REMARK   10  A    between atoms: C30_32  and  O3_33 
ROOT
HETATM    1  C1  UNL     1      -1.019  51.825 -22.489  1.00  0.00     0.043 C 
HETATM    2  C2  UNL     1      -2.103  51.317 -23.415  1.00  0.00    -0.085 C 
HETATM    3  C3  UNL     1      -2.583  52.394 -24.360  1.00  0.00     0.043 C 
HETATM    4  C4  UNL     1      -2.571  50.039 -23.396  1.00  0.00    -0.073 C 
HETATM    5  C5  UNL     1      -2.039  49.026 -22.406  1.00  0.00     0.035 C 
HETATM    6  C6  UNL     1      -2.878  47.766 -22.197  1.00  0.00     0.010 C 
HETATM    7  C7  UNL     1      -4.406  47.910 -22.335  1.00  0.00     0.003 C 
HETATM    8  C8  UNL     1      -4.873  48.833 -23.550  1.00  0.00    -0.032 C 
HETATM    9  C9  UNL     1      -5.700  48.026 -24.592  1.00  0.00     0.016 C 
HETATM   10  C10 UNL     1      -5.837  49.979 -23.063  1.00  0.00     0.011 C 
HETATM   11  C11 UNL     1      -6.940  49.636 -22.040  1.00  0.00     0.011 C 
HETATM   12  C12 UNL     1      -6.668  48.393 -21.180  1.00  0.00    -0.032 C 
HETATM   13  C13 UNL     1      -7.317  47.138 -21.837  1.00  0.00     0.016 C 
HETATM   14  C14 UNL     1      -7.175  48.489 -19.705  1.00  0.00    -0.002 C 
HETATM   15  C23 UNL     1      -6.297  47.449 -18.960  1.00  0.00     0.006 C 
HETATM   16  C24 UNL     1      -5.111  47.116 -19.902  1.00  0.00     0.011 C 
HETATM   17  C25 UNL     1      -5.116  48.242 -20.966  1.00  0.00    -0.032 C 
HETATM   18  C26 UNL     1      -4.414  49.461 -20.280  1.00  0.00     0.016 C 
HETATM   19  C27 UNL     1      -3.667  49.526 -24.325  1.00  0.00     0.023 C 
ENDROOT
BRANCH  14  20
HETATM   20  C15 UNL     1      -8.688  48.574 -19.349  1.00  0.00    -0.014 C 
HETATM   21  C16 UNL     1      -8.881  49.525 -18.152  1.00  0.00     0.010 C 
BRANCH  20  22
HETATM   22  C17 UNL     1      -9.552  47.309 -19.152  1.00  0.00     0.008 C 
BRANCH  22  23
HETATM   23  C18 UNL     1     -10.956  47.298 -19.766  1.00  0.00     0.028 C 
BRANCH  23  24
HETATM   24  C19 UNL     1     -12.002  47.321 -18.683  1.00  0.00    -0.013 C 
HETATM   25  C20 UNL     1     -13.172  47.992 -18.673  1.00  0.00     0.008 C 
HETATM   26  C21 UNL     1     -13.683  48.896 -19.753  1.00  0.00     0.055 C 
BRANCH  25  27
HETATM   27  C22 UNL     1     -14.020  47.817 -17.466  1.00  0.00     0.171 C 
HETATM   28  O1  UNL     1     -13.745  47.172 -16.469  1.00  0.00    -0.646 OA
BRANCH  27  29
HETATM   29  O2  UNL     1     -15.194  48.464 -17.565  1.00  0.00    -0.773 OA
HETATM   30  H35 UNL     1     -15.634  48.263 -16.712  1.00  0.00     0.167 HD
ENDBRANCH  27  29
ENDBRANCH  25  27
ENDBRANCH  23  24
ENDBRANCH  22  23
ENDBRANCH  20  22
ENDBRANCH  14  20
BRANCH  19  31
HETATM   31  C28 UNL     1      -3.067  48.847 -25.596  1.00  0.00     0.012 C 
BRANCH  31  32
HETATM   32  C29 UNL     1      -3.657  49.186 -26.965  1.00  0.00     0.027 C 
BRANCH  32  33
HETATM   33  C30 UNL     1      -2.947  50.361 -27.633  1.00  0.00     0.164 C 
BRANCH  33  34
HETATM   34  O3  UNL     1      -3.472  50.610 -28.930  1.00  0.00    -0.401 OA
HETATM   35  H50 UNL     1      -3.129  49.917 -29.521  1.00  0.00     0.209 HD
ENDBRANCH  33  34
ENDBRANCH  32  33
ENDBRANCH  31  32
ENDBRANCH  19  31
TORSDOF 10
ENDMDL
MODEL 7
REMARK minimizedAffinity -6.3139534
REMARK CNNscore 0.211116433
REMARK CNNaffinity 5.59457445
REMARK  10 active torsions:
REMARK  status: ('A' for Active; 'I' for Inactive)
REMARK    1  A    between atoms: C14_14  and  C15_15 
REMARK    2  A    between atoms: C15_15  and  C17_17 
REMARK    3  A    between atoms: C17_17  and  C18_18 
REMARK    4  A    between atoms: C18_18  and  C19_19 
REMARK    5  A    between atoms: C20_20  and  C22_22 
REMARK    6  A    between atoms: C22_22  and  O2_24 
REMARK    7  A    between atoms: C27_29  and  C28_30 
REMARK    8  A    between atoms: C28_30  and  C29_31 
REMARK    9  A    between atoms: C29_31  and  C30_32 
REMARK   10  A    between atoms: C30_32  and  O3_33 
ROOT
HETATM    1  C1  UNL     1      -6.301  42.784 -31.900  1.00  0.00     0.043 C 
HETATM    2  C2  UNL     1      -6.366  44.296 -31.858  1.00  0.00    -0.085 C 
HETATM    3  C3  UNL     1      -5.097  44.926 -32.384  1.00  0.00     0.043 C 
HETATM    4  C4  UNL     1      -7.448  44.990 -31.411  1.00  0.00    -0.073 C 
HETATM    5  C5  UNL     1      -8.676  44.275 -30.892  1.00  0.00     0.035 C 
HETATM    6  C6  UNL     1      -9.654  45.107 -30.064  1.00  0.00     0.010 C 
HETATM    7  C7  UNL     1      -9.060  46.241 -29.206  1.00  0.00     0.003 C 
HETATM    8  C8  UNL     1      -7.911  47.080 -29.930  1.00  0.00    -0.032 C 
HETATM    9  C9  UNL     1      -8.322  48.570 -30.109  1.00  0.00     0.016 C 
HETATM   10  C10 UNL     1      -6.597  47.120 -29.062  1.00  0.00     0.011 C 
HETATM   11  C11 UNL     1      -6.720  47.353 -27.541  1.00  0.00     0.011 C 
HETATM   12  C12 UNL     1      -8.076  46.973 -26.930  1.00  0.00    -0.032 C 
HETATM   13  C13 UNL     1      -9.008  48.221 -26.884  1.00  0.00     0.016 C 
HETATM   14  C14 UNL     1      -8.004  46.365 -25.493  1.00  0.00    -0.002 C 
HETATM   15  C23 UNL     1      -9.331  45.568 -25.378  1.00  0.00     0.006 C 
HETATM   16  C24 UNL     1      -9.885  45.422 -26.820  1.00  0.00     0.011 C 
HETATM   17  C25 UNL     1      -8.693  45.776 -27.745  1.00  0.00    -0.032 C 
HETATM   18  C26 UNL     1      -7.815  44.481 -27.799  1.00  0.00     0.016 C 
HETATM   19  C27 UNL     1      -7.513  46.514 -31.363  1.00  0.00     0.023 C 
ENDROOT
BRANCH  14  20
HETATM   20  C15 UNL     1      -7.526  47.190 -24.263  1.00  0.00    -0.014 C 
HETATM   21  C16 UNL     1      -8.703  47.385 -23.287  1.00  0.00     0.010 C 
BRANCH  20  22
HETATM   22  C17 UNL     1      -6.758  48.521 -24.422  1.00  0.00     0.008 C 
BRANCH  22  23
HETATM   23  C18 UNL     1      -5.248  48.512 -24.166  1.00  0.00     0.028 C 
BRANCH  23  24
HETATM   24  C19 UNL     1      -4.943  47.850 -22.848  1.00  0.00    -0.013 C 
HETATM   25  C20 UNL     1      -3.771  47.826 -22.182  1.00  0.00     0.008 C 
HETATM   26  C21 UNL     1      -2.484  48.447 -22.633  1.00  0.00     0.055 C 
BRANCH  25  27
HETATM   27  C22 UNL     1      -3.766  47.101 -20.885  1.00  0.00     0.171 C 
HETATM   28  O1  UNL     1      -3.388  45.960 -20.689  1.00  0.00    -0.646 OA
BRANCH  27  29
HETATM   29  O2  UNL     1      -4.247  47.850 -19.877  1.00  0.00    -0.773 OA
HETATM   30  H35 UNL     1      -4.180  47.254 -19.103  1.00  0.00     0.167 HD
ENDBRANCH  27  29
ENDBRANCH  25  27
ENDBRANCH  23  24
ENDBRANCH  22  23
ENDBRANCH  20  22
ENDBRANCH  14  20
BRANCH  19  31
HETATM   31  C28 UNL     1      -8.189  47.096 -32.644  1.00  0.00     0.012 C 
BRANCH  31  32
HETATM   32  C29 UNL     1      -9.262  46.273 -33.356  1.00  0.00     0.027 C 
BRANCH  32  33
HETATM   33  C30 UNL     1      -8.868  45.907 -34.785  1.00  0.00     0.164 C 
BRANCH  33  34
HETATM   34  O3  UNL     1      -8.239  44.634 -34.835  1.00  0.00    -0.401 OA
HETATM   35  H50 UNL     1      -7.336  44.741 -34.490  1.00  0.00     0.209 HD
ENDBRANCH  33  34
ENDBRANCH  32  33
ENDBRANCH  31  32
ENDBRANCH  19  31
TORSDOF 10
ENDMDL
MODEL 8
REMARK minimizedAffinity -7.02865458
REMARK CNNscore 0.208528608
REMARK CNNaffinity 5.49916887
REMARK  10 active torsions:
REMARK  status: ('A' for Active; 'I' for Inactive)
REMARK    1  A    between atoms: C14_14  and  C15_15 
REMARK    2  A    between atoms: C15_15  and  C17_17 
REMARK    3  A    between atoms: C17_17  and  C18_18 
REMARK    4  A    between atoms: C18_18  and  C19_19 
REMARK    5  A    between atoms: C20_20  and  C22_22 
REMARK    6  A    between atoms: C22_22  and  O2_24 
REMARK    7  A    between atoms: C27_29  and  C28_30 
REMARK    8  A    between atoms: C28_30  and  C29_31 
REMARK    9  A    between atoms: C29_31  and  C30_32 
REMARK   10  A    between atoms: C30_32  and  O3_33 
ROOT
HETATM    1  C1  UNL     1       8.620  63.533 -34.220  1.00  0.00     0.043 C 
HETATM    2  C2  UNL     1       7.142  63.666 -34.517  1.00  0.00    -0.085 C 
HETATM    3  C3  UNL     1       6.540  62.352 -34.964  1.00  0.00     0.043 C 
HETATM    4  C4  UNL     1       6.448  64.829 -34.383  1.00  0.00    -0.073 C 
HETATM    5  C5  UNL     1       7.135  66.101 -33.938  1.00  0.00     0.035 C 
HETATM    6  C6  UNL     1       6.386  67.408 -34.191  1.00  0.00     0.010 C 
HETATM    7  C7  UNL     1       5.485  67.470 -35.440  1.00  0.00     0.003 C 
HETATM    8  C8  UNL     1       4.632  66.147 -35.702  1.00  0.00    -0.032 C 
HETATM    9  C9  UNL     1       3.105  66.429 -35.620  1.00  0.00     0.016 C 
HETATM   10  C10 UNL     1       4.868  65.592 -37.157  1.00  0.00     0.011 C 
HETATM   11  C11 UNL     1       4.907  66.589 -38.334  1.00  0.00     0.011 C 
HETATM   12  C12 UNL     1       5.272  68.032 -37.955  1.00  0.00    -0.032 C 
HETATM   13  C13 UNL     1       3.976  68.859 -37.701  1.00  0.00     0.016 C 
HETATM   14  C14 UNL     1       6.137  68.792 -39.011  1.00  0.00    -0.002 C 
HETATM   15  C23 UNL     1       6.821  69.905 -38.173  1.00  0.00     0.006 C 
HETATM   16  C24 UNL     1       6.651  69.505 -36.684  1.00  0.00     0.011 C 
HETATM   17  C25 UNL     1       6.241  68.011 -36.715  1.00  0.00    -0.032 C 
HETATM   18  C26 UNL     1       7.575  67.221 -36.922  1.00  0.00     0.016 C 
HETATM   19  C27 UNL     1       4.959  64.966 -34.687  1.00  0.00     0.023 C 
ENDROOT
BRANCH  14  20
HETATM   20  C15 UNL     1       5.596  69.155 -40.424  1.00  0.00    -0.014 C 
HETATM   21  C16 UNL     1       6.438  70.301 -41.017  1.00  0.00     0.010 C 
BRANCH  20  22
HETATM   22  C17 UNL     1       4.097  69.426 -40.679  1.00  0.00     0.008 C 
BRANCH  22  23
HETATM   23  C18 UNL     1       3.246  68.278 -41.233  1.00  0.00     0.028 C 
BRANCH  23  24
HETATM   24  C19 UNL     1       1.789  68.513 -40.933  1.00  0.00    -0.013 C 
HETATM   25  C20 UNL     1       0.996  67.828 -40.083  1.00  0.00     0.008 C 
HETATM   26  C21 UNL     1       1.398  66.647 -39.254  1.00  0.00     0.055 C 
BRANCH  25  27
HETATM   27  C22 UNL     1      -0.411  68.295 -39.977  1.00  0.00     0.171 C 
HETATM   28  O1  UNL     1      -1.227  68.361 -40.880  1.00  0.00    -0.646 OA
BRANCH  27  29
HETATM   29  O2  UNL     1      -0.735  68.669 -38.728  1.00  0.00    -0.773 OA
HETATM   30  H35 UNL     1      -1.672  68.942 -38.811  1.00  0.00     0.167 HD
ENDBRANCH  27  29
ENDBRANCH  25  27
ENDBRANCH  23  24
ENDBRANCH  22  23
ENDBRANCH  20  22
ENDBRANCH  14  20
BRANCH  19  31
HETATM   31  C28 UNL     1       4.095  64.785 -33.400  1.00  0.00     0.012 C 
BRANCH  31  32
HETATM   32  C29 UNL     1       4.457  63.675 -32.413  1.00  0.00     0.027 C 
BRANCH  32  33
HETATM   33  C30 UNL     1       3.784  62.347 -32.752  1.00  0.00     0.164 C 
BRANCH  33  34
HETATM   34  O3  UNL     1       2.607  62.155 -31.979  1.00  0.00    -0.401 OA
HETATM   35  H50 UNL     1       2.886  61.916 -31.078  1.00  0.00     0.209 HD
ENDBRANCH  33  34
ENDBRANCH  32  33
ENDBRANCH  31  32
ENDBRANCH  19  31
TORSDOF 10
ENDMDL
MODEL 9
REMARK minimizedAffinity -6.4344635
REMARK CNNscore 0.202395022
REMARK CNNaffinity 5.32451105
REMARK  10 active torsions:
REMARK  status: ('A' for Active; 'I' for Inactive)
REMARK    1  A    between atoms: C14_14  and  C15_15 
REMARK    2  A    between atoms: C15_15  and  C17_17 
REMARK    3  A    between atoms: C17_17  and  C18_18 
REMARK    4  A    between atoms: C18_18  and  C19_19 
REMARK    5  A    between atoms: C20_20  and  C22_22 
REMARK    6  A    between atoms: C22_22  and  O2_24 
REMARK    7  A    between atoms: C27_29  and  C28_30 
REMARK    8  A    between atoms: C28_30  and  C29_31 
REMARK    9  A    between atoms: C29_31  and  C30_32 
REMARK   10  A    between atoms: C30_32  and  O3_33 
ROOT
HETATM    1  C1  UNL     1      -7.345  43.439 -33.661  1.00  0.00     0.043 C 
HETATM    2  C2  UNL     1      -6.554  44.191 -32.612  1.00  0.00    -0.085 C 
HETATM    3  C3  UNL     1      -5.411  43.362 -32.072  1.00  0.00     0.043 C 
HETATM    4  C4  UNL     1      -6.840  45.463 -32.222  1.00  0.00    -0.073 C 
HETATM    5  C5  UNL     1      -8.012  46.216 -32.811  1.00  0.00     0.035 C 
HETATM    6  C6  UNL     1      -8.484  47.453 -32.049  1.00  0.00     0.010 C 
HETATM    7  C7  UNL     1      -8.334  47.432 -30.515  1.00  0.00     0.003 C 
HETATM    8  C8  UNL     1      -6.959  46.809 -29.998  1.00  0.00    -0.032 C 
HETATM    9  C9  UNL     1      -6.114  47.862 -29.224  1.00  0.00     0.016 C 
HETATM   10  C10 UNL     1      -7.209  45.646 -28.965  1.00  0.00     0.011 C 
HETATM   11  C11 UNL     1      -8.291  45.837 -27.881  1.00  0.00     0.011 C 
HETATM   12  C12 UNL     1      -9.386  46.857 -28.225  1.00  0.00    -0.032 C 
HETATM   13  C13 UNL     1      -9.008  48.257 -27.655  1.00  0.00     0.016 C 
HETATM   14  C14 UNL     1     -10.814  46.489 -27.708  1.00  0.00    -0.002 C 
HETATM   15  C23 UNL     1     -11.749  47.300 -28.645  1.00  0.00     0.006 C 
HETATM   16  C24 UNL     1     -10.885  47.748 -29.852  1.00  0.00     0.011 C 
HETATM   17  C25 UNL     1      -9.612  46.868 -29.782  1.00  0.00    -0.032 C 
HETATM   18  C26 UNL     1     -10.025  45.494 -30.408  1.00  0.00     0.016 C 
HETATM   19  C27 UNL     1      -6.047  46.220 -31.162  1.00  0.00     0.023 C 
ENDROOT
BRANCH  14  20
HETATM   20  C15 UNL     1     -11.159  46.423 -26.192  1.00  0.00    -0.014 C 
HETATM   21  C16 UNL     1     -10.028  45.694 -25.440  1.00  0.00     0.010 C 
BRANCH  20  22
HETATM   22  C17 UNL     1     -12.528  45.916 -25.687  1.00  0.00     0.008 C 
BRANCH  22  23
HETATM   23  C18 UNL     1     -13.672  46.930 -25.582  1.00  0.00     0.028 C 
BRANCH  23  24
HETATM   24  C19 UNL     1     -15.002  46.235 -25.700  1.00  0.00    -0.013 C 
HETATM   25  C20 UNL     1     -15.527  45.626 -26.782  1.00  0.00     0.008 C 
HETATM   26  C21 UNL     1     -14.894  45.527 -28.137  1.00  0.00     0.055 C 
BRANCH  25  27
HETATM   27  C22 UNL     1     -16.866  45.006 -26.603  1.00  0.00     0.171 C 
HETATM   28  O1  UNL     1     -17.664  44.730 -27.481  1.00  0.00    -0.646 OA
BRANCH  27  29
HETATM   29  O2  UNL     1     -17.150  44.761 -25.312  1.00  0.00    -0.773 OA
HETATM   30  H35 UNL     1     -18.042  44.358 -25.351  1.00  0.00     0.167 HD
ENDBRANCH  27  29
ENDBRANCH  25  27
ENDBRANCH  23  24
ENDBRANCH  22  23
ENDBRANCH  20  22
ENDBRANCH  14  20
BRANCH  19  31
HETATM   31  C28 UNL     1      -4.937  47.110 -31.805  1.00  0.00     0.012 C 
BRANCH  31  32
HETATM   32  C29 UNL     1      -4.499  46.825 -33.242  1.00  0.00     0.027 C 
BRANCH  32  33
HETATM   33  C30 UNL     1      -4.661  48.038 -34.155  1.00  0.00     0.164 C 
BRANCH  33  34
HETATM   34  O3  UNL     1      -5.859  47.955 -34.914  1.00  0.00    -0.401 OA
HETATM   35  H50 UNL     1      -5.713  47.299 -35.618  1.00  0.00     0.209 HD
ENDBRANCH  33  34
ENDBRANCH  32  33
ENDBRANCH  31  32
ENDBRANCH  19  31
TORSDOF 10
ENDMDL
