MODEL 1
REMARK minimizedAffinity -7.21819448
REMARK CNNscore 0.75887531
REMARK CNNaffinity 7.364573
REMARK  6 active torsions:
REMARK  status: ('A' for Active; 'I' for Inactive)
REMARK    1  A    between atoms: C2_2  and  C3_3 
REMARK    2  A    between atoms: C2_2  and  C9_10 
REMARK    3  A    between atoms: C3_3  and  C4_4 
REMARK    4  A    between atoms: C4_4  and  C5_5 
REMARK    5  A    between atoms: C17_18  and  C18_19 
REMARK    6  A    between atoms: C18_19  and  O2_22 
ROOT
HETATM    1  C9  UNL     1       3.418  55.250  -8.084  1.00  0.00    -0.002 C 
HETATM    2  C10 UNL     1       4.241  53.980  -8.477  1.00  0.00     0.006 C 
HETATM    3  C11 UNL     1       3.242  52.947  -9.046  1.00  0.00     0.011 C 
HETATM    4  C12 UNL     1       1.862  53.473  -8.617  1.00  0.00    -0.032 C 
HETATM    5  C13 UNL     1       1.699  53.046  -7.119  1.00  0.00     0.016 C 
HETATM    6  C14 UNL     1       0.654  52.989  -9.473  1.00  0.00     0.003 C 
HETATM    7  C15 UNL     1       0.470  51.464  -9.570  1.00  0.00     0.009 C 
HETATM    8  C16 UNL     1      -0.949  51.045  -9.964  1.00  0.00     0.042 C 
HETATM    9  C17 UNL     1      -1.730  51.985 -10.938  1.00  0.00     0.095 C 
HETATM   10  O3  UNL     1      -3.083  51.496 -10.803  1.00  0.00    -0.377 OA
HETATM   11  C21 UNL     1      -4.150  52.228 -11.382  1.00  0.00     0.169 C 
HETATM   12  C22 UNL     1      -3.995  53.737 -11.336  1.00  0.00     0.027 C 
HETATM   13  C23 UNL     1      -3.020  54.161 -10.260  1.00  0.00     0.010 C 
HETATM   14  C24 UNL     1      -1.639  53.482 -10.423  1.00  0.00     0.032 C 
HETATM   15  C25 UNL     1      -0.694  53.730  -9.157  1.00  0.00    -0.033 C 
HETATM   16  C26 UNL     1      -1.351  53.215  -7.841  1.00  0.00     0.016 C 
HETATM   17  C27 UNL     1      -0.471  55.281  -9.004  1.00  0.00     0.011 C 
HETATM   18  C28 UNL     1       0.811  55.735  -8.270  1.00  0.00     0.011 C 
HETATM   19  C29 UNL     1       2.063  55.032  -8.825  1.00  0.00    -0.032 C 
HETATM   20  C30 UNL     1       2.229  55.470 -10.312  1.00  0.00     0.016 C 
ENDROOT
BRANCH   1  21
HETATM   21  C2  UNL     1       4.239  56.574  -8.155  1.00  0.00    -0.014 C 
HETATM   22  C1  UNL     1       3.569  57.845  -7.618  1.00  0.00     0.010 C 
BRANCH  21  23
HETATM   23  C3  UNL     1       5.648  56.398  -7.547  1.00  0.00     0.007 C 
BRANCH  23  24
HETATM   24  C4  UNL     1       5.921  57.322  -6.352  1.00  0.00     0.035 C 
BRANCH  24  25
HETATM   25  C5  UNL     1       7.236  56.993  -5.710  1.00  0.00     0.156 A 
HETATM   26  O1  UNL     1       7.238  57.068  -4.277  1.00  0.00    -0.370 OA
HETATM   27  C6  UNL     1       8.083  58.007  -4.960  1.00  0.00     0.080 A 
HETATM   28  C7  UNL     1       9.546  57.731  -4.791  1.00  0.00     0.048 C 
HETATM   29  C8  UNL     1       7.654  59.433  -4.813  1.00  0.00     0.048 C 
ENDBRANCH  24  25
ENDBRANCH  23  24
ENDBRANCH  21  23
ENDBRANCH   1  21
BRANCH   9  30
HETATM   30  C18 UNL     1      -1.180  51.765 -12.438  1.00  0.00     0.082 C 
HETATM   31  C19 UNL     1      -0.252  50.535 -12.538  1.00  0.00     0.049 C 
HETATM   32  C20 UNL     1      -2.243  51.610 -13.539  1.00  0.00     0.049 C 
BRANCH  30  33
HETATM   33  O2  UNL     1      -0.409  52.911 -12.841  1.00  0.00    -0.388 OA
HETATM   34  H35 UNL     1       0.074  52.685 -13.656  1.00  0.00     0.210 HD
ENDBRANCH  30  33
ENDBRANCH   9  30
TORSDOF 6
ENDMDL
MODEL 2
REMARK minimizedAffinity -6.62894344
REMARK CNNscore 0.659372747
REMARK CNNaffinity 7.08776236
REMARK  6 active torsions:
REMARK  status: ('A' for Active; 'I' for Inactive)
REMARK    1  A    between atoms: C2_2  and  C3_3 
REMARK    2  A    between atoms: C2_2  and  C9_10 
REMARK    3  A    between atoms: C3_3  and  C4_4 
REMARK    4  A    between atoms: C4_4  and  C5_5 
REMARK    5  A    between atoms: C17_18  and  C18_19 
REMARK    6  A    between atoms: C18_19  and  O2_22 
ROOT
HETATM    1  C9  UNL     1      -2.755  52.682 -10.677  1.00  0.00    -0.002 C 
HETATM    2  C10 UNL     1      -2.963  54.228 -10.581  1.00  0.00     0.006 C 
HETATM    3  C11 UNL     1      -1.652  54.832 -10.028  1.00  0.00     0.011 C 
HETATM    4  C12 UNL     1      -0.884  53.625  -9.463  1.00  0.00    -0.032 C 
HETATM    5  C13 UNL     1      -1.530  53.335  -8.066  1.00  0.00     0.016 C 
HETATM    6  C14 UNL     1       0.659  53.798  -9.344  1.00  0.00     0.003 C 
HETATM    7  C15 UNL     1       1.136  54.988  -8.492  1.00  0.00     0.009 C 
HETATM    8  C16 UNL     1       2.574  54.839  -7.987  1.00  0.00     0.042 C 
HETATM    9  C17 UNL     1       3.586  54.094  -8.915  1.00  0.00     0.095 C 
HETATM   10  O3  UNL     1       4.683  53.833  -8.011  1.00  0.00    -0.377 OA
HETATM   11  C21 UNL     1       5.737  52.978  -8.422  1.00  0.00     0.169 C 
HETATM   12  C22 UNL     1       5.315  51.808  -9.291  1.00  0.00     0.027 C 
HETATM   13  C23 UNL     1       3.845  51.496  -9.124  1.00  0.00     0.010 C 
HETATM   14  C24 UNL     1       2.952  52.728  -9.409  1.00  0.00     0.032 C 
HETATM   15  C25 UNL     1       1.428  52.474  -8.995  1.00  0.00    -0.033 C 
HETATM   16  C26 UNL     1       1.299  52.101  -7.487  1.00  0.00     0.016 C 
HETATM   17  C27 UNL     1       0.883  51.259  -9.835  1.00  0.00     0.011 C 
HETATM   18  C28 UNL     1      -0.644  51.190 -10.056  1.00  0.00     0.011 C 
HETATM   19  C29 UNL     1      -1.206  52.530 -10.564  1.00  0.00    -0.032 C 
HETATM   20  C30 UNL     1      -0.572  52.809 -11.960  1.00  0.00     0.016 C 
ENDROOT
BRANCH   1  21
HETATM   21  C2  UNL     1      -3.611  52.004 -11.790  1.00  0.00    -0.014 C 
HETATM   22  C1  UNL     1      -3.186  52.240 -13.245  1.00  0.00     0.010 C 
BRANCH  21  23
HETATM   23  C3  UNL     1      -3.805  50.496 -11.514  1.00  0.00     0.007 C 
BRANCH  23  24
HETATM   24  C4  UNL     1      -4.584  50.203 -10.225  1.00  0.00     0.035 C 
BRANCH  24  25
HETATM   25  C5  UNL     1      -6.031  49.944 -10.522  1.00  0.00     0.156 A 
HETATM   26  O1  UNL     1      -6.803  49.504  -9.395  1.00  0.00    -0.370 OA
HETATM   27  C6  UNL     1      -6.665  48.563 -10.472  1.00  0.00     0.080 A 
HETATM   28  C7  UNL     1      -7.935  48.333 -11.234  1.00  0.00     0.048 C 
HETATM   29  C8  UNL     1      -5.869  47.346 -10.121  1.00  0.00     0.048 C 
ENDBRANCH  24  25
ENDBRANCH  23  24
ENDBRANCH  21  23
ENDBRANCH   1  21
BRANCH   9  30
HETATM   30  C18 UNL     1       4.039  55.084 -10.106  1.00  0.00     0.082 C 
HETATM   31  C19 UNL     1       3.376  56.473  -9.984  1.00  0.00     0.049 C 
HETATM   32  C20 UNL     1       5.550  55.324 -10.257  1.00  0.00     0.049 C 
BRANCH  30  33
HETATM   33  O2  UNL     1       3.634  54.531 -11.371  1.00  0.00    -0.388 OA
HETATM   34  H35 UNL     1       3.734  55.219 -12.053  1.00  0.00     0.210 HD
ENDBRANCH  30  33
ENDBRANCH   9  30
TORSDOF 6
ENDMDL
MODEL 3
REMARK minimizedAffinity -6.98451233
REMARK CNNscore 0.617870212
REMARK CNNaffinity 6.7676053
REMARK  6 active torsions:
REMARK  status: ('A' for Active; 'I' for Inactive)
REMARK    1  A    between atoms: C2_2  and  C3_3 
REMARK    2  A    between atoms: C2_2  and  C9_10 
REMARK    3  A    between atoms: C3_3  and  C4_4 
REMARK    4  A    between atoms: C4_4  and  C5_5 
REMARK    5  A    between atoms: C17_18  and  C18_19 
REMARK    6  A    between atoms: C18_19  and  O2_22 
ROOT
HETATM    1  C9  UNL     1       0.921  54.190 -10.352  1.00  0.00    -0.002 C 
HETATM    2  C10 UNL     1       1.948  53.287 -11.110  1.00  0.00     0.006 C 
HETATM    3  C11 UNL     1       3.342  53.575 -10.506  1.00  0.00     0.011 C 
HETATM    4  C12 UNL     1       3.153  54.879  -9.713  1.00  0.00    -0.032 C 
HETATM    5  C13 UNL     1       3.200  56.026 -10.778  1.00  0.00     0.016 C 
HETATM    6  C14 UNL     1       4.180  55.132  -8.569  1.00  0.00     0.003 C 
HETATM    7  C15 UNL     1       5.661  55.150  -8.989  1.00  0.00     0.009 C 
HETATM    8  C16 UNL     1       6.568  55.879  -7.995  1.00  0.00     0.042 C 
HETATM    9  C17 UNL     1       6.191  55.788  -6.482  1.00  0.00     0.095 C 
HETATM   10  O3  UNL     1       7.005  56.837  -5.909  1.00  0.00    -0.377 OA
HETATM   11  C21 UNL     1       6.800  57.221  -4.559  1.00  0.00     0.169 C 
HETATM   12  C22 UNL     1       5.356  57.187  -4.093  1.00  0.00     0.027 C 
HETATM   13  C23 UNL     1       4.396  57.252  -5.260  1.00  0.00     0.010 C 
HETATM   14  C24 UNL     1       4.655  56.128  -6.292  1.00  0.00     0.032 C 
HETATM   15  C25 UNL     1       3.815  56.341  -7.636  1.00  0.00    -0.033 C 
HETATM   16  C26 UNL     1       4.135  57.713  -8.301  1.00  0.00     0.016 C 
HETATM   17  C27 UNL     1       2.284  56.336  -7.268  1.00  0.00     0.011 C 
HETATM   18  C28 UNL     1       1.295  55.943  -8.388  1.00  0.00     0.011 C 
HETATM   19  C29 UNL     1       1.717  54.637  -9.086  1.00  0.00    -0.032 C 
HETATM   20  C30 UNL     1       1.657  53.495  -8.027  1.00  0.00     0.016 C 
ENDROOT
BRANCH   1  21
HETATM   21  C2  UNL     1      -0.518  53.593 -10.301  1.00  0.00    -0.014 C 
HETATM   22  C1  UNL     1      -0.736  52.359  -9.417  1.00  0.00     0.010 C 
BRANCH  21  23
HETATM   23  C3  UNL     1      -1.570  54.681  -9.993  1.00  0.00     0.007 C 
BRANCH  23  24
HETATM   24  C4  UNL     1      -2.998  54.284 -10.390  1.00  0.00     0.035 C 
BRANCH  24  25
HETATM   25  C5  UNL     1      -2.996  53.471 -11.650  1.00  0.00     0.156 A 
HETATM   26  O1  UNL     1      -4.285  53.310 -12.261  1.00  0.00    -0.370 OA
HETATM   27  C6  UNL     1      -3.662  52.110 -11.775  1.00  0.00     0.080 A 
HETATM   28  C7  UNL     1      -3.205  51.188 -12.863  1.00  0.00     0.048 C 
HETATM   29  C8  UNL     1      -4.375  51.477 -10.621  1.00  0.00     0.048 C 
ENDBRANCH  24  25
ENDBRANCH  23  24
ENDBRANCH  21  23
ENDBRANCH   1  21
BRANCH   9  30
HETATM   30  C18 UNL     1       6.625  54.342  -5.914  1.00  0.00     0.082 C 
HETATM   31  C19 UNL     1       5.612  53.799  -4.884  1.00  0.00     0.049 C 
HETATM   32  C20 UNL     1       6.833  53.233  -6.960  1.00  0.00     0.049 C 
BRANCH  30  33
HETATM   33  O2  UNL     1       7.894  54.448  -5.246  1.00  0.00    -0.388 OA
HETATM   34  H35 UNL     1       8.047  53.627  -4.744  1.00  0.00     0.210 HD
ENDBRANCH  30  33
ENDBRANCH   9  30
TORSDOF 6
ENDMDL
MODEL 4
REMARK minimizedAffinity -7.46452904
REMARK CNNscore 0.616302192
REMARK CNNaffinity 6.41820192
REMARK  6 active torsions:
REMARK  status: ('A' for Active; 'I' for Inactive)
REMARK    1  A    between atoms: C2_2  and  C3_3 
REMARK    2  A    between atoms: C2_2  and  C9_10 
REMARK    3  A    between atoms: C3_3  and  C4_4 
REMARK    4  A    between atoms: C4_4  and  C5_5 
REMARK    5  A    between atoms: C17_18  and  C18_19 
REMARK    6  A    between atoms: C18_19  and  O2_22 
ROOT
HETATM    1  C9  UNL     1     -13.525  45.727 -26.612  1.00  0.00    -0.002 C 
HETATM    2  C10 UNL     1     -12.931  46.770 -25.610  1.00  0.00     0.006 C 
HETATM    3  C11 UNL     1     -11.465  47.023 -26.029  1.00  0.00     0.011 C 
HETATM    4  C12 UNL     1     -11.136  45.866 -26.987  1.00  0.00    -0.032 C 
HETATM    5  C13 UNL     1     -10.831  44.636 -26.067  1.00  0.00     0.016 C 
HETATM    6  C14 UNL     1      -9.970  46.123 -27.987  1.00  0.00     0.003 C 
HETATM    7  C15 UNL     1      -8.616  46.495 -27.356  1.00  0.00     0.009 C 
HETATM    8  C16 UNL     1      -7.423  46.244 -28.282  1.00  0.00     0.042 C 
HETATM    9  C17 UNL     1      -7.649  46.452 -29.814  1.00  0.00     0.095 C 
HETATM   10  O3  UNL     1      -6.484  45.808 -30.377  1.00  0.00    -0.377 OA
HETATM   11  C21 UNL     1      -6.412  45.597 -31.778  1.00  0.00     0.169 C 
HETATM   12  C22 UNL     1      -7.732  45.259 -32.446  1.00  0.00     0.027 C 
HETATM   13  C23 UNL     1      -8.734  44.719 -31.450  1.00  0.00     0.010 C 
HETATM   14  C24 UNL     1      -8.963  45.692 -30.269  1.00  0.00     0.032 C 
HETATM   15  C25 UNL     1      -9.824  45.023 -29.098  1.00  0.00    -0.033 C 
HETATM   16  C26 UNL     1      -9.146  43.729 -28.556  1.00  0.00     0.016 C 
HETATM   17  C27 UNL     1     -11.226  44.616 -29.687  1.00  0.00     0.011 C 
HETATM   18  C28 UNL     1     -12.400  44.505 -28.687  1.00  0.00     0.011 C 
HETATM   19  C29 UNL     1     -12.500  45.751 -27.788  1.00  0.00    -0.032 C 
HETATM   20  C30 UNL     1     -12.817  46.970 -28.705  1.00  0.00     0.016 C 
ENDROOT
BRANCH   1  21
HETATM   21  C2  UNL     1     -15.066  45.854 -26.806  1.00  0.00    -0.014 C 
HETATM   22  C1  UNL     1     -15.684  45.127 -28.007  1.00  0.00     0.010 C 
BRANCH  21  23
HETATM   23  C3  UNL     1     -15.830  45.513 -25.507  1.00  0.00     0.007 C 
BRANCH  23  24
HETATM   24  C4  UNL     1     -16.744  46.644 -25.018  1.00  0.00     0.035 C 
BRANCH  24  25
HETATM   25  C5  UNL     1     -18.187  46.251 -25.129  1.00  0.00     0.156 A 
HETATM   26  O1  UNL     1     -19.118  47.281 -24.764  1.00  0.00    -0.370 OA
HETATM   27  C6  UNL     1     -19.115  46.108 -23.933  1.00  0.00     0.080 A 
HETATM   28  C7  UNL     1     -20.345  45.266 -24.080  1.00  0.00     0.048 C 
HETATM   29  C8  UNL     1     -18.637  46.351 -22.536  1.00  0.00     0.048 C 
ENDBRANCH  24  25
ENDBRANCH  23  24
ENDBRANCH  21  23
ENDBRANCH   1  21
BRANCH   9  30
HETATM   30  C18 UNL     1      -7.652  48.033 -30.139  1.00  0.00     0.082 C 
HETATM   31  C19 UNL     1      -6.439  48.446 -31.002  1.00  0.00     0.049 C 
HETATM   32  C20 UNL     1      -8.904  48.584 -30.841  1.00  0.00     0.049 C 
BRANCH  30  33
HETATM   33  O2  UNL     1      -7.571  48.776 -28.911  1.00  0.00    -0.388 OA
HETATM   34  H35 UNL     1      -7.376  49.706 -29.127  1.00  0.00     0.210 HD
ENDBRANCH  30  33
ENDBRANCH   9  30
TORSDOF 6
ENDMDL
MODEL 5
REMARK minimizedAffinity -6.80695152
REMARK CNNscore 0.539977193
REMARK CNNaffinity 6.26761484
REMARK  6 active torsions:
REMARK  status: ('A' for Active; 'I' for Inactive)
REMARK    1  A    between atoms: C2_2  and  C3_3 
REMARK    2  A    between atoms: C2_2  and  C9_10 
REMARK    3  A    between atoms: C3_3  and  C4_4 
REMARK    4  A    between atoms: C4_4  and  C5_5 
REMARK    5  A    between atoms: C17_18  and  C18_19 
REMARK    6  A    between atoms: C18_19  and  O2_22 
ROOT
HETATM    1  C9  UNL     1       5.743  56.799  -6.265  1.00  0.00    -0.002 C 
HETATM    2  C10 UNL     1       4.545  57.224  -5.355  1.00  0.00     0.006 C 
HETATM    3  C11 UNL     1       3.249  56.773  -6.066  1.00  0.00     0.011 C 
HETATM    4  C12 UNL     1       3.691  56.464  -7.506  1.00  0.00    -0.032 C 
HETATM    5  C13 UNL     1       3.792  57.854  -8.221  1.00  0.00     0.016 C 
HETATM    6  C14 UNL     1       2.775  55.487  -8.303  1.00  0.00     0.003 C 
HETATM    7  C15 UNL     1       1.301  55.911  -8.437  1.00  0.00     0.009 C 
HETATM    8  C16 UNL     1       0.577  55.235  -9.604  1.00  0.00     0.042 C 
HETATM    9  C17 UNL     1       1.000  53.774  -9.960  1.00  0.00     0.095 C 
HETATM   10  O3  UNL     1       0.402  53.600 -11.265  1.00  0.00    -0.377 OA
HETATM   11  C21 UNL     1       0.730  52.457 -12.036  1.00  0.00     0.169 C 
HETATM   12  C22 UNL     1       2.167  51.985 -11.909  1.00  0.00     0.027 C 
HETATM   13  C23 UNL     1       3.070  53.091 -11.411  1.00  0.00     0.010 C 
HETATM   14  C24 UNL     1       2.579  53.687 -10.070  1.00  0.00     0.032 C 
HETATM   15  C25 UNL     1       3.381  55.011  -9.671  1.00  0.00    -0.033 C 
HETATM   16  C26 UNL     1       3.268  56.105 -10.775  1.00  0.00     0.016 C 
HETATM   17  C27 UNL     1       4.904  54.640  -9.522  1.00  0.00     0.011 C 
HETATM   18  C28 UNL     1       5.760  55.548  -8.610  1.00  0.00     0.011 C 
HETATM   19  C29 UNL     1       5.092  55.770  -7.242  1.00  0.00    -0.032 C 
HETATM   20  C30 UNL     1       5.006  54.388  -6.528  1.00  0.00     0.016 C 
ENDROOT
BRANCH   1  21
HETATM   21  C2  UNL     1       7.061  56.528  -5.478  1.00  0.00    -0.014 C 
HETATM   22  C1  UNL     1       8.197  55.826  -6.231  1.00  0.00     0.010 C 
BRANCH  21  23
HETATM   23  C3  UNL     1       7.576  57.807  -4.780  1.00  0.00     0.007 C 
BRANCH  23  24
HETATM   24  C4  UNL     1       9.090  58.012  -4.913  1.00  0.00     0.035 C 
BRANCH  24  25
HETATM   25  C5  UNL     1       9.463  59.440  -4.645  1.00  0.00     0.156 A 
HETATM   26  O1  UNL     1      10.235  60.062  -5.683  1.00  0.00    -0.370 OA
HETATM   27  C6  UNL     1      10.891  59.908  -4.414  1.00  0.00     0.080 A 
HETATM   28  C7  UNL     1      11.111  61.201  -3.692  1.00  0.00     0.048 C 
HETATM   29  C8  UNL     1      12.043  58.953  -4.435  1.00  0.00     0.048 C 
ENDBRANCH  24  25
ENDBRANCH  23  24
ENDBRANCH  21  23
ENDBRANCH   1  21
BRANCH   9  30
HETATM   30  C18 UNL     1       0.353  52.759  -8.886  1.00  0.00     0.082 C 
HETATM   31  C19 UNL     1      -0.905  52.056  -9.442  1.00  0.00     0.049 C 
HETATM   32  C20 UNL     1       1.277  51.654  -8.348  1.00  0.00     0.049 C 
BRANCH  30  33
HETATM   33  O2  UNL     1      -0.052  53.490  -7.716  1.00  0.00    -0.388 OA
HETATM   34  H35 UNL     1      -0.612  52.910  -7.170  1.00  0.00     0.210 HD
ENDBRANCH  30  33
ENDBRANCH   9  30
TORSDOF 6
ENDMDL
MODEL 6
REMARK minimizedAffinity -7.70426369
REMARK CNNscore 0.528724134
REMARK CNNaffinity 6.36437225
REMARK  6 active torsions:
REMARK  status: ('A' for Active; 'I' for Inactive)
REMARK    1  A    between atoms: C2_2  and  C3_3 
REMARK    2  A    between atoms: C2_2  and  C9_10 
REMARK    3  A    between atoms: C3_3  and  C4_4 
REMARK    4  A    between atoms: C4_4  and  C5_5 
REMARK    5  A    between atoms: C17_18  and  C18_19 
REMARK    6  A    between atoms: C18_19  and  O2_22 
ROOT
HETATM    1  C9  UNL     1     -13.932  45.095 -26.972  1.00  0.00    -0.002 C 
HETATM    2  C10 UNL     1     -13.120  44.614 -25.727  1.00  0.00     0.006 C 
HETATM    3  C11 UNL     1     -11.622  44.701 -26.096  1.00  0.00     0.011 C 
HETATM    4  C12 UNL     1     -11.614  44.849 -27.627  1.00  0.00    -0.032 C 
HETATM    5  C13 UNL     1     -11.834  43.403 -28.187  1.00  0.00     0.016 C 
HETATM    6  C14 UNL     1     -10.339  45.501 -28.239  1.00  0.00     0.003 C 
HETATM    7  C15 UNL     1      -9.006  44.801 -27.915  1.00  0.00     0.009 C 
HETATM    8  C16 UNL     1      -7.885  45.138 -28.902  1.00  0.00     0.042 C 
HETATM    9  C17 UNL     1      -7.878  46.574 -29.516  1.00  0.00     0.095 C 
HETATM   10  O3  UNL     1      -6.952  46.423 -30.615  1.00  0.00    -0.377 OA
HETATM   11  C21 UNL     1      -6.821  47.468 -31.566  1.00  0.00     0.169 C 
HETATM   12  C22 UNL     1      -8.106  48.206 -31.892  1.00  0.00     0.027 C 
HETATM   13  C23 UNL     1      -9.324  47.377 -31.547  1.00  0.00     0.010 C 
HETATM   14  C24 UNL     1      -9.322  46.927 -30.067  1.00  0.00     0.032 C 
HETATM   15  C25 UNL     1     -10.467  45.852 -29.765  1.00  0.00    -0.033 C 
HETATM   16  C26 UNL     1     -10.324  44.592 -30.670  1.00  0.00     0.016 C 
HETATM   17  C27 UNL     1     -11.861  46.511 -30.083  1.00  0.00     0.011 C 
HETATM   18  C28 UNL     1     -13.093  45.933 -29.352  1.00  0.00     0.011 C 
HETATM   19  C29 UNL     1     -12.851  45.817 -27.836  1.00  0.00    -0.032 C 
HETATM   20  C30 UNL     1     -12.647  47.258 -27.279  1.00  0.00     0.016 C 
ENDROOT
BRANCH   1  21
HETATM   21  C2  UNL     1     -15.313  45.723 -26.614  1.00  0.00    -0.014 C 
HETATM   22  C1  UNL     1     -16.550  45.148 -27.316  1.00  0.00     0.010 C 
BRANCH  21  23
HETATM   23  C3  UNL     1     -15.528  45.782 -25.086  1.00  0.00     0.007 C 
BRANCH  23  24
HETATM   24  C4  UNL     1     -16.491  46.892 -24.643  1.00  0.00     0.035 C 
BRANCH  24  25
HETATM   25  C5  UNL     1     -17.908  46.537 -24.981  1.00  0.00     0.156 A 
HETATM   26  O1  UNL     1     -18.871  47.553 -24.666  1.00  0.00    -0.370 OA
HETATM   27  C6  UNL     1     -18.994  46.320 -23.939  1.00  0.00     0.080 A 
HETATM   28  C7  UNL     1     -20.199  45.516 -24.319  1.00  0.00     0.048 C 
HETATM   29  C8  UNL     1     -18.711  46.444 -22.475  1.00  0.00     0.048 C 
ENDBRANCH  24  25
ENDBRANCH  23  24
ENDBRANCH  21  23
ENDBRANCH   1  21
BRANCH   9  30
HETATM   30  C18 UNL     1      -7.314  47.615 -28.421  1.00  0.00     0.082 C 
HETATM   31  C19 UNL     1      -7.527  47.106 -26.978  1.00  0.00     0.049 C 
HETATM   32  C20 UNL     1      -5.829  47.997 -28.543  1.00  0.00     0.049 C 
BRANCH  30  33
HETATM   33  O2  UNL     1      -8.017  48.865 -28.537  1.00  0.00    -0.388 OA
HETATM   34  H35 UNL     1      -7.810  49.407 -27.755  1.00  0.00     0.210 HD
ENDBRANCH  30  33
ENDBRANCH   9  30
TORSDOF 6
ENDMDL
MODEL 7
REMARK minimizedAffinity -8.56109619
REMARK CNNscore 0.443373471
REMARK CNNaffinity 7.01244926
REMARK  6 active torsions:
REMARK  status: ('A' for Active; 'I' for Inactive)
REMARK    1  A    between atoms: C2_2  and  C3_3 
REMARK    2  A    between atoms: C2_2  and  C9_10 
REMARK    3  A    between atoms: C3_3  and  C4_4 
REMARK    4  A    between atoms: C4_4  and  C5_5 
REMARK    5  A    between atoms: C17_18  and  C18_19 
REMARK    6  A    between atoms: C18_19  and  O2_22 
ROOT
HETATM    1  C9  UNL     1      -1.357  51.486 -22.096  1.00  0.00    -0.002 C 
HETATM    2  C10 UNL     1      -2.673  52.072 -22.703  1.00  0.00     0.006 C 
HETATM    3  C11 UNL     1      -3.817  51.100 -22.335  1.00  0.00     0.011 C 
HETATM    4  C12 UNL     1      -3.099  49.818 -21.881  1.00  0.00    -0.032 C 
HETATM    5  C13 UNL     1      -2.682  49.083 -23.199  1.00  0.00     0.016 C 
HETATM    6  C14 UNL     1      -3.917  48.877 -20.947  1.00  0.00     0.003 C 
HETATM    7  C15 UNL     1      -5.264  48.384 -21.506  1.00  0.00     0.009 C 
HETATM    8  C16 UNL     1      -5.778  47.113 -20.824  1.00  0.00     0.042 C 
HETATM    9  C17 UNL     1      -5.455  46.933 -19.306  1.00  0.00     0.095 C 
HETATM   10  O3  UNL     1      -5.758  45.535 -19.101  1.00  0.00    -0.377 OA
HETATM   11  C21 UNL     1      -5.397  44.915 -17.878  1.00  0.00     0.169 C 
HETATM   12  C22 UNL     1      -4.090  45.395 -17.275  1.00  0.00     0.027 C 
HETATM   13  C23 UNL     1      -3.202  46.037 -18.317  1.00  0.00     0.010 C 
HETATM   14  C24 UNL     1      -3.913  47.198 -19.054  1.00  0.00     0.032 C 
HETATM   15  C25 UNL     1      -3.075  47.711 -20.316  1.00  0.00    -0.033 C 
HETATM   16  C26 UNL     1      -2.810  46.561 -21.334  1.00  0.00     0.016 C 
HETATM   17  C27 UNL     1      -1.678  48.227 -19.805  1.00  0.00     0.011 C 
HETATM   18  C28 UNL     1      -0.953  49.269 -20.685  1.00  0.00     0.011 C 
HETATM   19  C29 UNL     1      -1.883  50.434 -21.071  1.00  0.00    -0.032 C 
HETATM   20  C30 UNL     1      -2.285  51.171 -19.759  1.00  0.00     0.016 C 
ENDROOT
BRANCH   1  21
HETATM   21  C2  UNL     1      -0.290  52.570 -21.752  1.00  0.00    -0.014 C 
HETATM   22  C1  UNL     1       0.451  52.426 -20.417  1.00  0.00     0.010 C 
BRANCH  21  23
HETATM   23  C3  UNL     1       0.707  52.770 -22.914  1.00  0.00     0.007 C 
BRANCH  23  24
HETATM   24  C4  UNL     1       0.222  52.186 -24.247  1.00  0.00     0.035 C 
BRANCH  24  25
HETATM   25  C5  UNL     1       1.237  52.409 -25.330  1.00  0.00     0.156 A 
HETATM   26  O1  UNL     1       0.785  53.233 -26.414  1.00  0.00    -0.370 OA
HETATM   27  C6  UNL     1       1.091  51.868 -26.743  1.00  0.00     0.080 A 
HETATM   28  C7  UNL     1       2.324  51.716 -27.580  1.00  0.00     0.048 C 
HETATM   29  C8  UNL     1      -0.097  51.058 -27.155  1.00  0.00     0.048 C 
ENDBRANCH  24  25
ENDBRANCH  23  24
ENDBRANCH  21  23
ENDBRANCH   1  21
BRANCH   9  30
HETATM   30  C18 UNL     1      -6.440  47.873 -18.441  1.00  0.00     0.082 C 
HETATM   31  C19 UNL     1      -7.251  48.836 -19.335  1.00  0.00     0.049 C 
HETATM   32  C20 UNL     1      -7.450  47.151 -17.533  1.00  0.00     0.049 C 
BRANCH  30  33
HETATM   33  O2  UNL     1      -5.663  48.684 -17.541  1.00  0.00    -0.388 OA
HETATM   34  H35 UNL     1      -6.242  49.376 -17.174  1.00  0.00     0.210 HD
ENDBRANCH  30  33
ENDBRANCH   9  30
TORSDOF 6
ENDMDL
MODEL 8
REMARK minimizedAffinity -7.26143551
REMARK CNNscore 0.421123207
REMARK CNNaffinity 7.0278759
REMARK  6 active torsions:
REMARK  status: ('A' for Active; 'I' for Inactive)
REMARK    1  A    between atoms: C2_2  and  C3_3 
REMARK    2  A    between atoms: C2_2  and  C9_10 
REMARK    3  A    between atoms: C3_3  and  C4_4 
REMARK    4  A    between atoms: C4_4  and  C5_5 
REMARK    5  A    between atoms: C17_18  and  C18_19 
REMARK    6  A    between atoms: C18_19  and  O2_22 
ROOT
HETATM    1  C9  UNL     1      -0.983  49.042 -17.861  1.00  0.00    -0.002 C 
HETATM    2  C10 UNL     1      -2.287  48.243 -17.538  1.00  0.00     0.006 C 
HETATM    3  C11 UNL     1      -2.640  48.524 -16.060  1.00  0.00     0.011 C 
HETATM    4  C12 UNL     1      -1.359  49.139 -15.471  1.00  0.00    -0.032 C 
HETATM    5  C13 UNL     1      -0.409  47.928 -15.182  1.00  0.00     0.016 C 
HETATM    6  C14 UNL     1      -1.551  50.019 -14.200  1.00  0.00     0.003 C 
HETATM    7  C15 UNL     1      -2.229  49.329 -13.003  1.00  0.00     0.009 C 
HETATM    8  C16 UNL     1      -1.950  50.016 -11.664  1.00  0.00     0.042 C 
HETATM    9  C17 UNL     1      -1.791  51.570 -11.676  1.00  0.00     0.095 C 
HETATM   10  O3  UNL     1      -1.204  51.820 -10.379  1.00  0.00    -0.377 OA
HETATM   11  C21 UNL     1      -0.709  53.113 -10.074  1.00  0.00     0.169 C 
HETATM   12  C22 UNL     1      -0.059  53.843 -11.235  1.00  0.00     0.027 C 
HETATM   13  C23 UNL     1       0.384  52.882 -12.315  1.00  0.00     0.010 C 
HETATM   14  C24 UNL     1      -0.780  51.995 -12.820  1.00  0.00     0.032 C 
HETATM   15  C25 UNL     1      -0.268  50.818 -13.774  1.00  0.00    -0.033 C 
HETATM   16  C26 UNL     1       0.776  49.911 -13.055  1.00  0.00     0.016 C 
HETATM   17  C27 UNL     1       0.442  51.465 -15.021  1.00  0.00     0.011 C 
HETATM   18  C28 UNL     1       0.493  50.621 -16.314  1.00  0.00     0.011 C 
HETATM   19  C29 UNL     1      -0.891  50.055 -16.678  1.00  0.00    -0.032 C 
HETATM   20  C30 UNL     1      -1.831  51.261 -16.978  1.00  0.00     0.016 C 
ENDROOT
BRANCH   1  21
HETATM   21  C2  UNL     1      -0.855  49.450 -19.360  1.00  0.00    -0.014 C 
HETATM   22  C1  UNL     1      -0.895  48.324 -20.401  1.00  0.00     0.010 C 
BRANCH  21  23
HETATM   23  C3  UNL     1      -1.852  50.571 -19.728  1.00  0.00     0.007 C 
BRANCH  23  24
HETATM   24  C4  UNL     1      -1.176  51.905 -20.070  1.00  0.00     0.035 C 
BRANCH  24  25
HETATM   25  C5  UNL     1      -0.644  51.892 -21.473  1.00  0.00     0.156 A 
HETATM   26  O1  UNL     1       0.716  51.452 -21.594  1.00  0.00    -0.370 OA
HETATM   27  C6  UNL     1       0.458  52.816 -21.964  1.00  0.00     0.080 A 
HETATM   28  C7  UNL     1       0.575  53.070 -23.436  1.00  0.00     0.048 C 
HETATM   29  C8  UNL     1       1.097  53.824 -21.061  1.00  0.00     0.048 C 
ENDBRANCH  24  25
ENDBRANCH  23  24
ENDBRANCH  21  23
ENDBRANCH   1  21
BRANCH   9  30
HETATM   30  C18 UNL     1      -3.249  52.250 -11.794  1.00  0.00     0.082 C 
HETATM   31  C19 UNL     1      -3.431  53.403 -10.782  1.00  0.00     0.049 C 
HETATM   32  C20 UNL     1      -3.634  52.807 -13.175  1.00  0.00     0.049 C 
BRANCH  30  33
HETATM   33  O2  UNL     1      -4.262  51.270 -11.507  1.00  0.00    -0.388 OA
HETATM   34  H35 UNL     1      -5.111  51.732 -11.387  1.00  0.00     0.210 HD
ENDBRANCH  30  33
ENDBRANCH   9  30
TORSDOF 6
ENDMDL
MODEL 9
REMARK minimizedAffinity -6.73648024
REMARK CNNscore 0.39887765
REMARK CNNaffinity 6.03969765
REMARK  6 active torsions:
REMARK  status: ('A' for Active; 'I' for Inactive)
REMARK    1  A    between atoms: C2_2  and  C3_3 
REMARK    2  A    between atoms: C2_2  and  C9_10 
REMARK    3  A    between atoms: C3_3  and  C4_4 
REMARK    4  A    between atoms: C4_4  and  C5_5 
REMARK    5  A    between atoms: C17_18  and  C18_19 
REMARK    6  A    between atoms: C18_19  and  O2_22 
ROOT
HETATM    1  C9  UNL     1     -12.306  46.120 -27.237  1.00  0.00    -0.002 C 
HETATM    2  C10 UNL     1     -12.742  47.445 -27.943  1.00  0.00     0.006 C 
HETATM    3  C11 UNL     1     -11.663  47.777 -28.998  1.00  0.00     0.011 C 
HETATM    4  C12 UNL     1     -10.470  46.883 -28.620  1.00  0.00    -0.032 C 
HETATM    5  C13 UNL     1      -9.761  47.614 -27.430  1.00  0.00     0.016 C 
HETATM    6  C14 UNL     1      -9.464  46.572 -29.768  1.00  0.00     0.003 C 
HETATM    7  C15 UNL     1      -8.825  47.795 -30.449  1.00  0.00     0.009 C 
HETATM    8  C16 UNL     1      -7.519  47.473 -31.180  1.00  0.00     0.042 C 
HETATM    9  C17 UNL     1      -7.398  46.064 -31.843  1.00  0.00     0.095 C 
HETATM   10  O3  UNL     1      -5.979  45.979 -32.107  1.00  0.00    -0.377 OA
HETATM   11  C21 UNL     1      -5.420  44.746 -32.529  1.00  0.00     0.169 C 
HETATM   12  C22 UNL     1      -6.043  43.511 -31.905  1.00  0.00     0.027 C 
HETATM   13  C23 UNL     1      -6.757  43.843 -30.613  1.00  0.00     0.010 C 
HETATM   14  C24 UNL     1      -7.825  44.946 -30.804  1.00  0.00     0.032 C 
HETATM   15  C25 UNL     1      -8.402  45.472 -29.409  1.00  0.00    -0.033 C 
HETATM   16  C26 UNL     1      -7.270  46.027 -28.493  1.00  0.00     0.016 C 
HETATM   17  C27 UNL     1      -9.068  44.258 -28.660  1.00  0.00     0.011 C 
HETATM   18  C28 UNL     1     -10.166  44.590 -27.625  1.00  0.00     0.011 C 
HETATM   19  C29 UNL     1     -11.221  45.550 -28.204  1.00  0.00    -0.032 C 
HETATM   20  C30 UNL     1     -11.934  44.815 -29.378  1.00  0.00     0.016 C 
ENDROOT
BRANCH   1  21
HETATM   21  C2  UNL     1     -13.499  45.281 -26.688  1.00  0.00    -0.014 C 
HETATM   22  C1  UNL     1     -13.273  44.509 -25.382  1.00  0.00     0.010 C 
BRANCH  21  23
HETATM   23  C3  UNL     1     -14.792  46.123 -26.609  1.00  0.00     0.007 C 
BRANCH  23  24
HETATM   24  C4  UNL     1     -16.039  45.301 -26.256  1.00  0.00     0.035 C 
BRANCH  24  25
HETATM   25  C5  UNL     1     -16.850  45.986 -25.196  1.00  0.00     0.156 A 
HETATM   26  O1  UNL     1     -17.496  45.101 -24.271  1.00  0.00    -0.370 OA
HETATM   27  C6  UNL     1     -18.364  45.890 -25.101  1.00  0.00     0.080 A 
HETATM   28  C7  UNL     1     -19.102  46.957 -24.353  1.00  0.00     0.048 C 
HETATM   29  C8  UNL     1     -19.162  45.090 -26.081  1.00  0.00     0.048 C 
ENDBRANCH  24  25
ENDBRANCH  23  24
ENDBRANCH  21  23
ENDBRANCH   1  21
BRANCH   9  30
HETATM   30  C18 UNL     1      -8.245  46.051 -33.217  1.00  0.00     0.082 C 
HETATM   31  C19 UNL     1      -9.698  45.577 -32.994  1.00  0.00     0.049 C 
HETATM   32  C20 UNL     1      -8.324  47.383 -33.982  1.00  0.00     0.049 C 
BRANCH  30  33
HETATM   33  O2  UNL     1      -7.639  45.137 -34.147  1.00  0.00    -0.388 OA
HETATM   34  H35 UNL     1      -8.261  44.992 -34.883  1.00  0.00     0.210 HD
ENDBRANCH  30  33
ENDBRANCH   9  30
TORSDOF 6
ENDMDL
