MODEL 1
REMARK minimizedAffinity -9.96394634
REMARK  7 active torsions:
REMARK  status: ('A' for Active; 'I' for Inactive)
REMARK    1  A    between atoms: C2_2  and  C30_33 
REMARK    2  A    between atoms: C3_3  and  C4_4 
REMARK    3  A    between atoms: C4_4  and  C5_5 
REMARK    4  A    between atoms: C5_5  and  C6_6 
REMARK    5  A    between atoms: C6_6  and  C8_8 
REMARK    6  A    between atoms: C19_20  and  O2_21 
REMARK    7  A    between atoms: C30_33  and  O5_35 
ROOT
HETATM    1  C8  UNL     1      -5.084   7.466  15.496  1.00  0.00    -0.002 C 
HETATM    2  C9  UNL     1      -5.423   8.940  15.142  1.00  0.00     0.007 C 
HETATM    3  C10 UNL     1      -4.099   9.590  14.663  1.00  0.00     0.018 C 
HETATM    4  C11 UNL     1      -3.011   8.560  15.016  1.00  0.00     0.025 C 
HETATM    5  C12 UNL     1      -2.626   8.836  16.496  1.00  0.00     0.024 C 
HETATM    6  C13 UNL     1      -1.720   8.597  14.187  1.00  0.00     0.147 C 
HETATM    7  O1  UNL     1      -1.433   9.610  13.548  1.00  0.00    -0.296 OA
HETATM    8  C14 UNL     1      -0.742   7.360  14.284  1.00  0.00     0.055 C 
HETATM    9  C15 UNL     1      -1.554   6.029  14.426  1.00  0.00     0.021 C 
HETATM   10  C16 UNL     1      -2.884   6.066  15.202  1.00  0.00     0.012 C 
HETATM   11  C17 UNL     1      -3.760   7.227  14.719  1.00  0.00    -0.026 C 
HETATM   12  C18 UNL     1      -4.058   7.025  13.202  1.00  0.00     0.016 C 
HETATM   13  C19 UNL     1       0.218   7.677  15.491  1.00  0.00     0.135 C 
HETATM   14  C20 UNL     1       1.620   7.990  14.936  1.00  0.00     0.039 C 
HETATM   15  C21 UNL     1       1.368   8.325  13.471  1.00  0.00     0.012 C 
HETATM   16  C22 UNL     1       2.593   8.471  12.530  1.00  0.00     0.018 C 
HETATM   17  C23 UNL     1       3.098   9.929  12.569  1.00  0.00     0.023 C 
HETATM   18  C24 UNL     1       3.786   7.570  12.889  1.00  0.00     0.023 C 
HETATM   19  C25 UNL     1       2.120   8.198  11.093  1.00  0.00     0.135 C 
HETATM   20  O3  UNL     1       2.890   7.830  10.205  1.00  0.00    -0.297 OA
HETATM   21  C26 UNL     1       0.657   8.464  10.795  1.00  0.00     0.080 C 
HETATM   22  C27 UNL     1      -0.276   7.604  11.650  1.00  0.00     0.018 C 
HETATM   23  C28 UNL     1       0.294   7.275  13.057  1.00  0.00    -0.022 C 
HETATM   24  C29 UNL     1       0.910   5.845  12.947  1.00  0.00     0.017 C 
ENDROOT
BRANCH  13  25
HETATM   25  O2  UNL     1       0.280   6.645  16.464  1.00  0.00    -0.394 OA
HETATM   26  H29 UNL     1       0.819   5.916  16.115  1.00  0.00     0.210 HD
ENDBRANCH  13  25
BRANCH   1  27
HETATM   27  C6  UNL     1      -6.245   6.433  15.388  1.00  0.00    -0.014 C 
HETATM   28  C7  UNL     1      -7.323   6.801  16.427  1.00  0.00     0.010 C 
BRANCH  27  29
HETATM   29  C5  UNL     1      -6.897   6.283  13.995  1.00  0.00     0.008 C 
BRANCH  29  30
HETATM   30  C4  UNL     1      -7.146   4.823  13.589  1.00  0.00     0.028 C 
BRANCH  30  31
HETATM   31  C3  UNL     1      -6.008   4.282  12.762  1.00  0.00    -0.013 C 
HETATM   32  C2  UNL     1      -5.901   3.071  12.176  1.00  0.00     0.008 C 
HETATM   33  C1  UNL     1      -4.673   2.687  11.401  1.00  0.00     0.055 C 
BRANCH  32  34
HETATM   34  C30 UNL     1      -7.005   2.081  12.214  1.00  0.00     0.171 C 
HETATM   35  O4  UNL     1      -8.045   2.153  12.844  1.00  0.00    -0.646 OA
BRANCH  34  36
HETATM   36  O5  UNL     1      -6.755   1.026  11.420  1.00  0.00    -0.773 OA
HETATM   37  H46 UNL     1      -7.555   0.473  11.527  1.00  0.00     0.167 HD
ENDBRANCH  34  36
ENDBRANCH  32  34
ENDBRANCH  30  31
ENDBRANCH  29  30
ENDBRANCH  27  29
ENDBRANCH   1  27
TORSDOF 7
ENDMDL
MODEL 2
REMARK minimizedAffinity -9.87776184
REMARK  7 active torsions:
REMARK  status: ('A' for Active; 'I' for Inactive)
REMARK    1  A    between atoms: C2_2  and  C30_33 
REMARK    2  A    between atoms: C3_3  and  C4_4 
REMARK    3  A    between atoms: C4_4  and  C5_5 
REMARK    4  A    between atoms: C5_5  and  C6_6 
REMARK    5  A    between atoms: C6_6  and  C8_8 
REMARK    6  A    between atoms: C19_20  and  O2_21 
REMARK    7  A    between atoms: C30_33  and  O5_35 
ROOT
HETATM    1  C8  UNL     1      -3.130   8.359  15.211  1.00  0.00    -0.002 C 
HETATM    2  C9  UNL     1      -3.209   9.842  14.755  1.00  0.00     0.007 C 
HETATM    3  C10 UNL     1      -1.979  10.084  13.843  1.00  0.00     0.018 C 
HETATM    4  C11 UNL     1      -1.106   8.830  14.027  1.00  0.00     0.025 C 
HETATM    5  C12 UNL     1      -0.238   9.097  15.289  1.00  0.00     0.024 C 
HETATM    6  C13 UNL     1      -0.154   8.467  12.879  1.00  0.00     0.147 C 
HETATM    7  O1  UNL     1       0.153   9.322  12.047  1.00  0.00    -0.296 OA
HETATM    8  C14 UNL     1       0.492   7.026  12.880  1.00  0.00     0.055 C 
HETATM    9  C15 UNL     1      -0.524   5.970  13.431  1.00  0.00     0.021 C 
HETATM   10  C16 UNL     1      -1.510   6.411  14.528  1.00  0.00     0.012 C 
HETATM   11  C17 UNL     1      -2.197   7.725  14.142  1.00  0.00    -0.026 C 
HETATM   12  C18 UNL     1      -2.978   7.504  12.812  1.00  0.00     0.016 C 
HETATM   13  C19 UNL     1       1.819   7.161  13.719  1.00  0.00     0.135 C 
HETATM   14  C20 UNL     1       3.019   7.053  12.760  1.00  0.00     0.039 C 
HETATM   15  C21 UNL     1       2.421   7.340  11.389  1.00  0.00     0.012 C 
HETATM   16  C22 UNL     1       3.303   7.091  10.136  1.00  0.00     0.018 C 
HETATM   17  C23 UNL     1       4.120   8.364   9.825  1.00  0.00     0.023 C 
HETATM   18  C24 UNL     1       4.305   5.935  10.280  1.00  0.00     0.023 C 
HETATM   19  C25 UNL     1       2.367   6.854   8.940  1.00  0.00     0.135 C 
HETATM   20  O3  UNL     1       2.726   6.236   7.937  1.00  0.00    -0.297 OA
HETATM   21  C26 UNL     1       0.986   7.476   9.020  1.00  0.00     0.080 C 
HETATM   22  C27 UNL     1       0.183   6.955  10.214  1.00  0.00     0.018 C 
HETATM   23  C28 UNL     1       1.059   6.585  11.442  1.00  0.00    -0.022 C 
HETATM   24  C29 UNL     1       1.264   5.039  11.374  1.00  0.00     0.017 C 
ENDROOT
BRANCH  13  25
HETATM   25  O2  UNL     1       1.931   6.220  14.775  1.00  0.00    -0.394 OA
HETATM   26  H29 UNL     1       2.154   5.351  14.400  1.00  0.00     0.210 HD
ENDBRANCH  13  25
BRANCH   1  27
HETATM   27  C6  UNL     1      -4.476   7.665  15.577  1.00  0.00    -0.014 C 
HETATM   28  C7  UNL     1      -5.633   8.518  15.019  1.00  0.00     0.010 C 
BRANCH  27  29
HETATM   29  C5  UNL     1      -4.638   6.201  15.107  1.00  0.00     0.008 C 
BRANCH  29  30
HETATM   30  C4  UNL     1      -5.777   6.005  14.095  1.00  0.00     0.028 C 
BRANCH  30  31
HETATM   31  C3  UNL     1      -5.537   4.798  13.226  1.00  0.00    -0.013 C 
HETATM   32  C2  UNL     1      -6.447   4.003  12.626  1.00  0.00     0.008 C 
HETATM   33  C1  UNL     1      -6.027   2.817  11.806  1.00  0.00     0.055 C 
BRANCH  32  34
HETATM   34  C30 UNL     1      -7.902   4.289  12.693  1.00  0.00     0.171 C 
HETATM   35  O4  UNL     1      -8.480   5.293  12.315  1.00  0.00    -0.646 OA
BRANCH  34  36
HETATM   36  O5  UNL     1      -8.586   3.262  13.227  1.00  0.00    -0.773 OA
HETATM   37  H46 UNL     1      -9.513   3.574  13.195  1.00  0.00     0.167 HD
ENDBRANCH  34  36
ENDBRANCH  32  34
ENDBRANCH  30  31
ENDBRANCH  29  30
ENDBRANCH  27  29
ENDBRANCH   1  27
TORSDOF 7
ENDMDL
MODEL 3
REMARK minimizedAffinity -9.2668066
REMARK  7 active torsions:
REMARK  status: ('A' for Active; 'I' for Inactive)
REMARK    1  A    between atoms: C2_2  and  C30_33 
REMARK    2  A    between atoms: C3_3  and  C4_4 
REMARK    3  A    between atoms: C4_4  and  C5_5 
REMARK    4  A    between atoms: C5_5  and  C6_6 
REMARK    5  A    between atoms: C6_6  and  C8_8 
REMARK    6  A    between atoms: C19_20  and  O2_21 
REMARK    7  A    between atoms: C30_33  and  O5_35 
ROOT
HETATM    1  C8  UNL     1       1.268   8.304  13.474  1.00  0.00    -0.002 C 
HETATM    2  C9  UNL     1       1.706   7.111  14.368  1.00  0.00     0.007 C 
HETATM    3  C10 UNL     1       0.419   6.580  15.049  1.00  0.00     0.018 C 
HETATM    4  C11 UNL     1      -0.651   7.643  14.740  1.00  0.00     0.025 C 
HETATM    5  C12 UNL     1      -0.503   8.730  15.840  1.00  0.00     0.024 C 
HETATM    6  C13 UNL     1      -2.115   7.181  14.740  1.00  0.00     0.147 C 
HETATM    7  O1  UNL     1      -2.424   6.134  15.311  1.00  0.00    -0.296 OA
HETATM    8  C14 UNL     1      -3.195   8.139  14.100  1.00  0.00     0.055 C 
HETATM    9  C15 UNL     1      -2.599   8.884  12.857  1.00  0.00     0.021 C 
HETATM   10  C16 UNL     1      -1.104   9.254  12.877  1.00  0.00     0.012 C 
HETATM   11  C17 UNL     1      -0.254   8.048  13.289  1.00  0.00    -0.026 C 
HETATM   12  C18 UNL     1      -0.483   6.903  12.257  1.00  0.00     0.016 C 
HETATM   13  C19 UNL     1      -3.664   9.084  15.269  1.00  0.00     0.135 C 
HETATM   14  C20 UNL     1      -5.101   8.699  15.665  1.00  0.00     0.039 C 
HETATM   15  C21 UNL     1      -5.273   7.294  15.102  1.00  0.00     0.012 C 
HETATM   16  C22 UNL     1      -6.694   6.668  15.112  1.00  0.00     0.018 C 
HETATM   17  C23 UNL     1      -6.925   5.943  16.456  1.00  0.00     0.023 C 
HETATM   18  C24 UNL     1      -7.839   7.679  14.942  1.00  0.00     0.023 C 
HETATM   19  C25 UNL     1      -6.745   5.598  14.010  1.00  0.00     0.135 C 
HETATM   20  O3  UNL     1      -7.803   5.233  13.496  1.00  0.00    -0.297 OA
HETATM   21  C26 UNL     1      -5.427   4.956  13.620  1.00  0.00     0.080 C 
HETATM   22  C27 UNL     1      -4.420   5.977  13.084  1.00  0.00     0.018 C 
HETATM   23  C28 UNL     1      -4.563   7.387  13.719  1.00  0.00    -0.022 C 
HETATM   24  C29 UNL     1      -5.400   8.231  12.707  1.00  0.00     0.017 C 
ENDROOT
BRANCH  13  25
HETATM   25  O2  UNL     1      -3.578  10.467  14.962  1.00  0.00    -0.394 OA
HETATM   26  H29 UNL     1      -4.307  10.702  14.364  1.00  0.00     0.210 HD
ENDBRANCH  13  25
BRANCH   1  27
HETATM   27  C6  UNL     1       2.158   8.616  12.235  1.00  0.00    -0.014 C 
HETATM   28  C7  UNL     1       3.161   9.722  12.620  1.00  0.00     0.010 C 
BRANCH  27  29
HETATM   29  C5  UNL     1       2.919   7.418  11.621  1.00  0.00     0.008 C 
BRANCH  29  30
HETATM   30  C4  UNL     1       3.855   7.812  10.469  1.00  0.00     0.028 C 
BRANCH  30  31
HETATM   31  C3  UNL     1       3.107   7.913   9.165  1.00  0.00    -0.013 C 
HETATM   32  C2  UNL     1       2.695   6.915   8.356  1.00  0.00     0.008 C 
HETATM   33  C1  UNL     1       1.976   7.202   7.068  1.00  0.00     0.055 C 
BRANCH  32  34
HETATM   34  C30 UNL     1       2.875   5.488   8.718  1.00  0.00     0.171 C 
HETATM   35  O4  UNL     1       2.509   4.929   9.737  1.00  0.00    -0.646 OA
BRANCH  34  36
HETATM   36  O5  UNL     1       3.504   4.803   7.747  1.00  0.00    -0.773 OA
HETATM   37  H46 UNL     1       3.540   3.893   8.105  1.00  0.00     0.167 HD
ENDBRANCH  34  36
ENDBRANCH  32  34
ENDBRANCH  30  31
ENDBRANCH  29  30
ENDBRANCH  27  29
ENDBRANCH   1  27
TORSDOF 7
ENDMDL
MODEL 4
REMARK minimizedAffinity -9.04020786
REMARK  7 active torsions:
REMARK  status: ('A' for Active; 'I' for Inactive)
REMARK    1  A    between atoms: C2_2  and  C30_33 
REMARK    2  A    between atoms: C3_3  and  C4_4 
REMARK    3  A    between atoms: C4_4  and  C5_5 
REMARK    4  A    between atoms: C5_5  and  C6_6 
REMARK    5  A    between atoms: C6_6  and  C8_8 
REMARK    6  A    between atoms: C19_20  and  O2_21 
REMARK    7  A    between atoms: C30_33  and  O5_35 
ROOT
HETATM    1  C8  UNL     1      -3.022   6.690  13.638  1.00  0.00    -0.002 C 
HETATM    2  C9  UNL     1      -2.699   5.251  14.129  1.00  0.00     0.007 C 
HETATM    3  C10 UNL     1      -1.172   5.060  13.948  1.00  0.00     0.018 C 
HETATM    4  C11 UNL     1      -0.724   6.276  13.117  1.00  0.00     0.025 C 
HETATM    5  C12 UNL     1      -0.961   5.887  11.632  1.00  0.00     0.024 C 
HETATM    6  C13 UNL     1       0.742   6.713  13.254  1.00  0.00     0.147 C 
HETATM    7  O1  UNL     1       1.575   5.923  13.701  1.00  0.00    -0.296 OA
HETATM    8  C14 UNL     1       1.145   8.135  12.698  1.00  0.00     0.055 C 
HETATM    9  C15 UNL     1      -0.014   9.163  12.930  1.00  0.00     0.021 C 
HETATM   10  C16 UNL     1      -1.465   8.653  12.860  1.00  0.00     0.012 C 
HETATM   11  C17 UNL     1      -1.636   7.390  13.710  1.00  0.00    -0.026 C 
HETATM   12  C18 UNL     1      -1.287   7.737  15.189  1.00  0.00     0.016 C 
HETATM   13  C19 UNL     1       1.525   7.904  11.187  1.00  0.00     0.135 C 
HETATM   14  C20 UNL     1       3.049   8.065  11.034  1.00  0.00     0.039 C 
HETATM   15  C21 UNL     1       3.579   7.906  12.453  1.00  0.00     0.012 C 
HETATM   16  C22 UNL     1       5.072   8.239  12.721  1.00  0.00     0.018 C 
HETATM   17  C23 UNL     1       5.930   6.980  12.471  1.00  0.00     0.023 C 
HETATM   18  C24 UNL     1       5.645   9.358  11.837  1.00  0.00     0.023 C 
HETATM   19  C25 UNL     1       5.216   8.594  14.209  1.00  0.00     0.135 C 
HETATM   20  O3  UNL     1       6.143   9.285  14.634  1.00  0.00    -0.297 OA
HETATM   21  C26 UNL     1       4.192   7.996  15.155  1.00  0.00     0.080 C 
HETATM   22  C27 UNL     1       2.765   8.433  14.818  1.00  0.00     0.018 C 
HETATM   23  C28 UNL     1       2.530   8.681  13.303  1.00  0.00    -0.022 C 
HETATM   24  C29 UNL     1       2.659  10.224  13.095  1.00  0.00     0.017 C 
ENDROOT
BRANCH  13  25
HETATM   25  O2  UNL     1       0.835   8.752  10.283  1.00  0.00    -0.394 OA
HETATM   26  H29 UNL     1       1.218   9.643  10.332  1.00  0.00     0.210 HD
ENDBRANCH  13  25
BRANCH   1  27
HETATM   27  C6  UNL     1      -4.273   7.379  14.258  1.00  0.00    -0.014 C 
HETATM   28  C7  UNL     1      -4.898   8.304  13.194  1.00  0.00     0.010 C 
BRANCH  27  29
HETATM   29  C5  UNL     1      -5.359   6.438  14.828  1.00  0.00     0.008 C 
BRANCH  29  30
HETATM   30  C4  UNL     1      -6.379   5.972  13.779  1.00  0.00     0.028 C 
BRANCH  30  31
HETATM   31  C3  UNL     1      -5.820   4.867  12.921  1.00  0.00    -0.013 C 
HETATM   32  C2  UNL     1      -6.385   3.684  12.605  1.00  0.00     0.008 C 
HETATM   33  C1  UNL     1      -5.668   2.680  11.748  1.00  0.00     0.055 C 
BRANCH  32  34
HETATM   34  C30 UNL     1      -7.762   3.334  13.034  1.00  0.00     0.171 C 
HETATM   35  O4  UNL     1      -8.403   2.342  12.735  1.00  0.00    -0.646 OA
BRANCH  34  36
HETATM   36  O5  UNL     1      -8.277   4.262  13.860  1.00  0.00    -0.773 OA
HETATM   37  H46 UNL     1      -9.163   3.902  14.072  1.00  0.00     0.167 HD
ENDBRANCH  34  36
ENDBRANCH  32  34
ENDBRANCH  30  31
ENDBRANCH  29  30
ENDBRANCH  27  29
ENDBRANCH   1  27
TORSDOF 7
ENDMDL
MODEL 5
REMARK minimizedAffinity -8.70881653
REMARK  7 active torsions:
REMARK  status: ('A' for Active; 'I' for Inactive)
REMARK    1  A    between atoms: C2_2  and  C30_33 
REMARK    2  A    between atoms: C3_3  and  C4_4 
REMARK    3  A    between atoms: C4_4  and  C5_5 
REMARK    4  A    between atoms: C5_5  and  C6_6 
REMARK    5  A    between atoms: C6_6  and  C8_8 
REMARK    6  A    between atoms: C19_20  and  O2_21 
REMARK    7  A    between atoms: C30_33  and  O5_35 
ROOT
HETATM    1  C8  UNL     1      -4.020   7.660  14.338  1.00  0.00    -0.002 C 
HETATM    2  C9  UNL     1      -4.210   8.204  12.895  1.00  0.00     0.007 C 
HETATM    3  C10 UNL     1      -2.856   8.837  12.485  1.00  0.00     0.018 C 
HETATM    4  C11 UNL     1      -2.036   8.878  13.787  1.00  0.00     0.025 C 
HETATM    5  C12 UNL     1      -2.446  10.192  14.508  1.00  0.00     0.024 C 
HETATM    6  C13 UNL     1      -0.507   8.883  13.650  1.00  0.00     0.147 C 
HETATM    7  O1  UNL     1       0.008   9.208  12.579  1.00  0.00    -0.296 OA
HETATM    8  C14 UNL     1       0.353   8.580  14.939  1.00  0.00     0.055 C 
HETATM    9  C15 UNL     1      -0.358   7.509  15.834  1.00  0.00     0.021 C 
HETATM   10  C16 UNL     1      -1.898   7.500  15.873  1.00  0.00     0.012 C 
HETATM   11  C17 UNL     1      -2.475   7.541  14.454  1.00  0.00    -0.026 C 
HETATM   12  C18 UNL     1      -1.975   6.285  13.679  1.00  0.00     0.016 C 
HETATM   13  C19 UNL     1       0.575   9.975  15.634  1.00  0.00     0.135 C 
HETATM   14  C20 UNL     1       2.051  10.380  15.465  1.00  0.00     0.039 C 
HETATM   15  C21 UNL     1       2.540   9.511  14.313  1.00  0.00     0.012 C 
HETATM   16  C22 UNL     1       4.062   9.482  14.009  1.00  0.00     0.018 C 
HETATM   17  C23 UNL     1       4.411  10.626  13.033  1.00  0.00     0.023 C 
HETATM   18  C24 UNL     1       4.963   9.652  15.243  1.00  0.00     0.023 C 
HETATM   19  C25 UNL     1       4.374   8.162  13.286  1.00  0.00     0.135 C 
HETATM   20  O3  UNL     1       5.499   7.661  13.287  1.00  0.00    -0.297 OA
HETATM   21  C26 UNL     1       3.238   7.526  12.507  1.00  0.00     0.080 C 
HETATM   22  C27 UNL     1       2.046   7.174  13.400  1.00  0.00     0.018 C 
HETATM   23  C28 UNL     1       1.862   8.139  14.604  1.00  0.00    -0.022 C 
HETATM   24  C29 UNL     1       2.520   7.429  15.828  1.00  0.00     0.017 C 
ENDROOT
BRANCH  13  25
HETATM   25  O2  UNL     1       0.198  10.004  17.002  1.00  0.00    -0.394 OA
HETATM   26  H29 UNL     1       0.873   9.540  17.524  1.00  0.00     0.210 HD
ENDBRANCH  13  25
BRANCH   1  27
HETATM   27  C6  UNL     1      -4.925   6.466  14.763  1.00  0.00    -0.014 C 
HETATM   28  C7  UNL     1      -6.010   6.994  15.724  1.00  0.00     0.010 C 
BRANCH  27  29
HETATM   29  C5  UNL     1      -5.591   5.672  13.616  1.00  0.00     0.008 C 
BRANCH  29  30
HETATM   30  C4  UNL     1      -4.669   4.618  12.985  1.00  0.00     0.028 C 
BRANCH  30  31
HETATM   31  C3  UNL     1      -5.462   3.503  12.355  1.00  0.00    -0.013 C 
HETATM   32  C2  UNL     1      -5.003   2.406  11.716  1.00  0.00     0.008 C 
HETATM   33  C1  UNL     1      -5.945   1.398  11.123  1.00  0.00     0.055 C 
BRANCH  32  34
HETATM   34  C30 UNL     1      -3.553   2.107  11.617  1.00  0.00     0.171 C 
HETATM   35  O4  UNL     1      -2.625   2.890  11.714  1.00  0.00    -0.646 OA
BRANCH  34  36
HETATM   36  O5  UNL     1      -3.328   0.797  11.415  1.00  0.00    -0.773 OA
HETATM   37  H46 UNL     1      -2.352   0.741  11.385  1.00  0.00     0.167 HD
ENDBRANCH  34  36
ENDBRANCH  32  34
ENDBRANCH  30  31
ENDBRANCH  29  30
ENDBRANCH  27  29
ENDBRANCH   1  27
TORSDOF 7
ENDMDL
MODEL 6
REMARK minimizedAffinity -8.61272812
REMARK  7 active torsions:
REMARK  status: ('A' for Active; 'I' for Inactive)
REMARK    1  A    between atoms: C2_2  and  C30_33 
REMARK    2  A    between atoms: C3_3  and  C4_4 
REMARK    3  A    between atoms: C4_4  and  C5_5 
REMARK    4  A    between atoms: C5_5  and  C6_6 
REMARK    5  A    between atoms: C6_6  and  C8_8 
REMARK    6  A    between atoms: C19_20  and  O2_21 
REMARK    7  A    between atoms: C30_33  and  O5_35 
ROOT
HETATM    1  C8  UNL     1      -5.289   7.951  15.450  1.00  0.00    -0.002 C 
HETATM    2  C9  UNL     1      -5.129   9.491  15.584  1.00  0.00     0.007 C 
HETATM    3  C10 UNL     1      -3.706   9.829  15.072  1.00  0.00     0.018 C 
HETATM    4  C11 UNL     1      -3.012   8.463  14.923  1.00  0.00     0.025 C 
HETATM    5  C12 UNL     1      -2.439   8.121  16.326  1.00  0.00     0.024 C 
HETATM    6  C13 UNL     1      -1.857   8.373  13.915  1.00  0.00     0.147 C 
HETATM    7  O1  UNL     1      -1.293   9.402  13.540  1.00  0.00    -0.296 OA
HETATM    8  C14 UNL     1      -1.357   6.937  13.488  1.00  0.00     0.055 C 
HETATM    9  C15 UNL     1      -2.562   5.940  13.403  1.00  0.00     0.021 C 
HETATM   10  C16 UNL     1      -3.732   6.126  14.387  1.00  0.00     0.012 C 
HETATM   11  C17 UNL     1      -4.193   7.586  14.410  1.00  0.00    -0.026 C 
HETATM   12  C18 UNL     1      -4.663   7.981  12.977  1.00  0.00     0.016 C 
HETATM   13  C19 UNL     1      -0.253   6.545  14.541  1.00  0.00     0.135 C 
HETATM   14  C20 UNL     1       1.122   6.583  13.849  1.00  0.00     0.039 C 
HETATM   15  C21 UNL     1       0.883   7.428  12.604  1.00  0.00     0.012 C 
HETATM   16  C22 UNL     1       2.005   7.492  11.533  1.00  0.00     0.018 C 
HETATM   17  C23 UNL     1       2.980   8.637  11.881  1.00  0.00     0.023 C 
HETATM   18  C24 UNL     1       2.842   6.209  11.408  1.00  0.00     0.023 C 
HETATM   19  C25 UNL     1       1.353   7.850  10.188  1.00  0.00     0.135 C 
HETATM   20  O3  UNL     1       1.878   7.572   9.108  1.00  0.00    -0.297 OA
HETATM   21  C26 UNL     1       0.051   8.625  10.245  1.00  0.00     0.080 C 
HETATM   22  C27 UNL     1      -1.049   7.859  10.985  1.00  0.00     0.018 C 
HETATM   23  C28 UNL     1      -0.515   6.941  12.119  1.00  0.00    -0.022 C 
HETATM   24  C29 UNL     1      -0.436   5.506  11.509  1.00  0.00     0.017 C 
ENDROOT
BRANCH  13  25
HETATM   25  O2  UNL     1      -0.471   5.289  15.163  1.00  0.00    -0.394 OA
HETATM   26  H29 UNL     1      -0.244   4.583  14.535  1.00  0.00     0.210 HD
ENDBRANCH  13  25
BRANCH   1  27
HETATM   27  C6  UNL     1      -6.737   7.408  15.275  1.00  0.00    -0.014 C 
HETATM   28  C7  UNL     1      -6.965   6.282  16.304  1.00  0.00     0.010 C 
BRANCH  27  29
HETATM   29  C5  UNL     1      -7.875   8.449  15.385  1.00  0.00     0.008 C 
BRANCH  29  30
HETATM   30  C4  UNL     1      -9.165   8.025  14.668  1.00  0.00     0.028 C 
BRANCH  30  31
HETATM   31  C3  UNL     1     -10.379   8.639  15.314  1.00  0.00    -0.013 C 
HETATM   32  C2  UNL     1     -11.680   8.386  15.063  1.00  0.00     0.008 C 
HETATM   33  C1  UNL     1     -12.772   9.116  15.792  1.00  0.00     0.055 C 
BRANCH  32  34
HETATM   34  C30 UNL     1     -12.103   7.338  14.102  1.00  0.00     0.171 C 
HETATM   35  O4  UNL     1     -12.356   7.474  12.918  1.00  0.00    -0.646 OA
BRANCH  34  36
HETATM   36  O5  UNL     1     -12.170   6.127  14.683  1.00  0.00    -0.773 OA
HETATM   37  H46 UNL     1     -12.439   5.542  13.946  1.00  0.00     0.167 HD
ENDBRANCH  34  36
ENDBRANCH  32  34
ENDBRANCH  30  31
ENDBRANCH  29  30
ENDBRANCH  27  29
ENDBRANCH   1  27
TORSDOF 7
ENDMDL
MODEL 7
REMARK minimizedAffinity -8.60973454
REMARK  7 active torsions:
REMARK  status: ('A' for Active; 'I' for Inactive)
REMARK    1  A    between atoms: C2_2  and  C30_33 
REMARK    2  A    between atoms: C3_3  and  C4_4 
REMARK    3  A    between atoms: C4_4  and  C5_5 
REMARK    4  A    between atoms: C5_5  and  C6_6 
REMARK    5  A    between atoms: C6_6  and  C8_8 
REMARK    6  A    between atoms: C19_20  and  O2_21 
REMARK    7  A    between atoms: C30_33  and  O5_35 
ROOT
HETATM    1  C8  UNL     1      -1.444   6.626  13.378  1.00  0.00    -0.002 C 
HETATM    2  C9  UNL     1      -0.554   5.942  14.452  1.00  0.00     0.007 C 
HETATM    3  C10 UNL     1      -0.333   6.992  15.570  1.00  0.00     0.018 C 
HETATM    4  C11 UNL     1      -0.866   8.308  14.977  1.00  0.00     0.025 C 
HETATM    5  C12 UNL     1       0.308   8.914  14.159  1.00  0.00     0.024 C 
HETATM    6  C13 UNL     1      -1.340   9.380  15.970  1.00  0.00     0.147 C 
HETATM    7  O1  UNL     1      -0.970   9.331  17.143  1.00  0.00    -0.296 OA
HETATM    8  C14 UNL     1      -2.199  10.581  15.409  1.00  0.00     0.055 C 
HETATM    9  C15 UNL     1      -3.145  10.089  14.261  1.00  0.00     0.021 C 
HETATM   10  C16 UNL     1      -2.649   8.957  13.344  1.00  0.00     0.012 C 
HETATM   11  C17 UNL     1      -2.095   7.793  14.172  1.00  0.00    -0.026 C 
HETATM   12  C18 UNL     1      -3.234   7.249  15.086  1.00  0.00     0.016 C 
HETATM   13  C19 UNL     1      -1.155  11.678  14.975  1.00  0.00     0.135 C 
HETATM   14  C20 UNL     1      -1.239  12.854  15.966  1.00  0.00     0.039 C 
HETATM   15  C21 UNL     1      -1.933  12.259  17.184  1.00  0.00     0.012 C 
HETATM   16  C22 UNL     1      -2.397  13.224  18.308  1.00  0.00     0.018 C 
HETATM   17  C23 UNL     1      -1.245  13.431  19.314  1.00  0.00     0.023 C 
HETATM   18  C24 UNL     1      -2.824  14.617  17.819  1.00  0.00     0.023 C 
HETATM   19  C25 UNL     1      -3.543  12.541  19.072  1.00  0.00     0.135 C 
HETATM   20  O3  UNL     1      -4.377  13.179  19.716  1.00  0.00    -0.297 OA
HETATM   21  C26 UNL     1      -3.569  11.024  19.052  1.00  0.00     0.080 C 
HETATM   22  C27 UNL     1      -3.697  10.464  17.633  1.00  0.00     0.018 C 
HETATM   23  C28 UNL     1      -3.028  11.352  16.549  1.00  0.00    -0.022 C 
HETATM   24  C29 UNL     1      -4.177  12.204  15.922  1.00  0.00     0.017 C 
ENDROOT
BRANCH  13  25
HETATM   25  O2  UNL     1      -1.315  12.130  13.640  1.00  0.00    -0.394 OA
HETATM   26  H29 UNL     1      -2.084  12.723  13.599  1.00  0.00     0.210 HD
ENDBRANCH  13  25
BRANCH   1  27
HETATM   27  C6  UNL     1      -2.331   5.692  12.503  1.00  0.00    -0.014 C 
HETATM   28  C7  UNL     1      -1.409   4.842  11.606  1.00  0.00     0.010 C 
BRANCH  27  29
HETATM   29  C5  UNL     1      -3.309   4.768  13.265  1.00  0.00     0.008 C 
BRANCH  29  30
HETATM   30  C4  UNL     1      -4.785   5.033  12.937  1.00  0.00     0.028 C 
BRANCH  30  31
HETATM   31  C3  UNL     1      -5.556   3.747  12.795  1.00  0.00    -0.013 C 
HETATM   32  C2  UNL     1      -6.889   3.556  12.872  1.00  0.00     0.008 C 
HETATM   33  C1  UNL     1      -7.491   2.187  12.728  1.00  0.00     0.055 C 
BRANCH  32  34
HETATM   34  C30 UNL     1      -7.834   4.687  13.044  1.00  0.00     0.171 C 
HETATM   35  O4  UNL     1      -8.325   5.382  12.172  1.00  0.00    -0.646 OA
BRANCH  34  36
HETATM   36  O5  UNL     1      -8.144   4.884  14.337  1.00  0.00    -0.773 OA
HETATM   37  H46 UNL     1      -8.774   5.633  14.302  1.00  0.00     0.167 HD
ENDBRANCH  34  36
ENDBRANCH  32  34
ENDBRANCH  30  31
ENDBRANCH  29  30
ENDBRANCH  27  29
ENDBRANCH   1  27
TORSDOF 7
ENDMDL
MODEL 8
REMARK minimizedAffinity -8.54958439
REMARK  7 active torsions:
REMARK  status: ('A' for Active; 'I' for Inactive)
REMARK    1  A    between atoms: C2_2  and  C30_33 
REMARK    2  A    between atoms: C3_3  and  C4_4 
REMARK    3  A    between atoms: C4_4  and  C5_5 
REMARK    4  A    between atoms: C5_5  and  C6_6 
REMARK    5  A    between atoms: C6_6  and  C8_8 
REMARK    6  A    between atoms: C19_20  and  O2_21 
REMARK    7  A    between atoms: C30_33  and  O5_35 
ROOT
HETATM    1  C8  UNL     1      -0.398   6.728  12.007  1.00  0.00    -0.002 C 
HETATM    2  C9  UNL     1      -1.687   5.888  12.216  1.00  0.00     0.007 C 
HETATM    3  C10 UNL     1      -2.399   6.480  13.459  1.00  0.00     0.018 C 
HETATM    4  C11 UNL     1      -1.369   7.447  14.072  1.00  0.00     0.025 C 
HETATM    5  C12 UNL     1      -0.463   6.579  14.989  1.00  0.00     0.024 C 
HETATM    6  C13 UNL     1      -1.915   8.604  14.921  1.00  0.00     0.147 C 
HETATM    7  O1  UNL     1      -3.056   8.537  15.380  1.00  0.00    -0.296 OA
HETATM    8  C14 UNL     1      -0.936   9.792  15.272  1.00  0.00     0.055 C 
HETATM    9  C15 UNL     1       0.031  10.077  14.074  1.00  0.00     0.021 C 
HETATM   10  C16 UNL     1       0.485   8.889  13.206  1.00  0.00     0.012 C 
HETATM   11  C17 UNL     1      -0.715   8.035  12.786  1.00  0.00    -0.026 C 
HETATM   12  C18 UNL     1      -1.694   8.926  11.962  1.00  0.00     0.016 C 
HETATM   13  C19 UNL     1      -0.220   9.366  16.608  1.00  0.00     0.135 C 
HETATM   14  C20 UNL     1      -0.751  10.247  17.754  1.00  0.00     0.039 C 
HETATM   15  C21 UNL     1      -2.057  10.810  17.208  1.00  0.00     0.012 C 
HETATM   16  C22 UNL     1      -2.764  11.935  18.010  1.00  0.00     0.018 C 
HETATM   17  C23 UNL     1      -3.705  11.303  19.058  1.00  0.00     0.023 C 
HETATM   18  C24 UNL     1      -1.812  12.874  18.768  1.00  0.00     0.023 C 
HETATM   19  C25 UNL     1      -3.647  12.728  17.033  1.00  0.00     0.135 C 
HETATM   20  O3  UNL     1      -3.990  13.891  17.252  1.00  0.00    -0.297 OA
HETATM   21  C26 UNL     1      -4.135  11.990  15.802  1.00  0.00     0.080 C 
HETATM   22  C27 UNL     1      -2.983  11.495  14.925  1.00  0.00     0.018 C 
HETATM   23  C28 UNL     1      -1.702  11.130  15.725  1.00  0.00    -0.022 C 
HETATM   24  C29 UNL     1      -0.762  12.372  15.622  1.00  0.00     0.017 C 
ENDROOT
BRANCH  13  25
HETATM   25  O2  UNL     1       1.197   9.420  16.545  1.00  0.00    -0.394 OA
HETATM   26  H29 UNL     1       1.478  10.349  16.590  1.00  0.00     0.210 HD
ENDBRANCH  13  25
BRANCH   1  27
HETATM   27  C6  UNL     1       0.162   6.807  10.556  1.00  0.00    -0.014 C 
HETATM   28  C7  UNL     1       0.501   8.277  10.242  1.00  0.00     0.010 C 
BRANCH  27  29
HETATM   29  C5  UNL     1       1.387   5.915  10.247  1.00  0.00     0.008 C 
BRANCH  29  30
HETATM   30  C4  UNL     1       2.435   6.600   9.358  1.00  0.00     0.028 C 
BRANCH  30  31
HETATM   31  C3  UNL     1       2.673   5.821   8.091  1.00  0.00    -0.013 C 
HETATM   32  C2  UNL     1       3.415   4.708   7.918  1.00  0.00     0.008 C 
HETATM   33  C1  UNL     1       3.563   4.071   6.565  1.00  0.00     0.055 C 
BRANCH  32  34
HETATM   34  C30 UNL     1       4.076   4.023   9.056  1.00  0.00     0.171 C 
HETATM   35  O4  UNL     1       5.234   4.133   9.418  1.00  0.00    -0.646 OA
BRANCH  34  36
HETATM   36  O5  UNL     1       3.222   3.224   9.719  1.00  0.00    -0.773 OA
HETATM   37  H46 UNL     1       3.775   2.856  10.438  1.00  0.00     0.167 HD
ENDBRANCH  34  36
ENDBRANCH  32  34
ENDBRANCH  30  31
ENDBRANCH  29  30
ENDBRANCH  27  29
ENDBRANCH   1  27
TORSDOF 7
ENDMDL
MODEL 9
REMARK minimizedAffinity -8.53656101
REMARK  7 active torsions:
REMARK  status: ('A' for Active; 'I' for Inactive)
REMARK    1  A    between atoms: C2_2  and  C30_33 
REMARK    2  A    between atoms: C3_3  and  C4_4 
REMARK    3  A    between atoms: C4_4  and  C5_5 
REMARK    4  A    between atoms: C5_5  and  C6_6 
REMARK    5  A    between atoms: C6_6  and  C8_8 
REMARK    6  A    between atoms: C19_20  and  O2_21 
REMARK    7  A    between atoms: C30_33  and  O5_35 
ROOT
HETATM    1  C8  UNL     1      -4.266   5.362  13.112  1.00  0.00    -0.002 C 
HETATM    2  C9  UNL     1      -3.541   4.338  14.029  1.00  0.00     0.007 C 
HETATM    3  C10 UNL     1      -2.566   5.157  14.913  1.00  0.00     0.018 C 
HETATM    4  C11 UNL     1      -2.567   6.565  14.291  1.00  0.00     0.025 C 
HETATM    5  C12 UNL     1      -1.516   6.526  13.147  1.00  0.00     0.024 C 
HETATM    6  C13 UNL     1      -2.204   7.737  15.215  1.00  0.00     0.147 C 
HETATM    7  O1  UNL     1      -1.596   7.520  16.264  1.00  0.00    -0.296 OA
HETATM    8  C14 UNL     1      -2.523   9.200  14.715  1.00  0.00     0.055 C 
HETATM    9  C15 UNL     1      -3.859   9.221  13.897  1.00  0.00     0.021 C 
HETATM   10  C16 UNL     1      -4.213   7.985  13.050  1.00  0.00     0.012 C 
HETATM   11  C17 UNL     1      -4.061   6.702  13.873  1.00  0.00    -0.026 C 
HETATM   12  C18 UNL     1      -5.027   6.778  15.093  1.00  0.00     0.016 C 
HETATM   13  C19 UNL     1      -1.251   9.656  13.906  1.00  0.00     0.135 C 
HETATM   14  C20 UNL     1      -0.510  10.731  14.722  1.00  0.00     0.039 C 
HETATM   15  C21 UNL     1      -1.043  10.551  16.138  1.00  0.00     0.012 C 
HETATM   16  C22 UNL     1      -0.685  11.625  17.200  1.00  0.00     0.018 C 
HETATM   17  C23 UNL     1       0.656  11.255  17.871  1.00  0.00     0.023 C 
HETATM   18  C24 UNL     1      -0.532  13.049  16.642  1.00  0.00     0.023 C 
HETATM   19  C25 UNL     1      -1.762  11.582  18.295  1.00  0.00     0.135 C 
HETATM   20  O3  UNL     1      -1.997  12.546  19.025  1.00  0.00    -0.297 OA
HETATM   21  C26 UNL     1      -2.491  10.265  18.485  1.00  0.00     0.080 C 
HETATM   22  C27 UNL     1      -3.242   9.830  17.224  1.00  0.00     0.018 C 
HETATM   23  C28 UNL     1      -2.559  10.281  15.904  1.00  0.00    -0.022 C 
HETATM   24  C29 UNL     1      -3.304  11.578  15.456  1.00  0.00     0.017 C 
ENDROOT
BRANCH  13  25
HETATM   25  O2  UNL     1      -1.538  10.124  12.598  1.00  0.00    -0.394 OA
HETATM   26  H29 UNL     1      -1.923  11.013  12.659  1.00  0.00     0.210 HD
ENDBRANCH  13  25
BRANCH   1  27
HETATM   27  C6  UNL     1      -5.683   4.968  12.602  1.00  0.00    -0.014 C 
HETATM   28  C7  UNL     1      -5.564   3.666  11.785  1.00  0.00     0.010 C 
BRANCH  27  29
HETATM   29  C5  UNL     1      -6.776   4.803  13.684  1.00  0.00     0.008 C 
BRANCH  29  30
HETATM   30  C4  UNL     1      -8.101   5.491  13.326  1.00  0.00     0.028 C 
BRANCH  30  31
HETATM   31  C3  UNL     1      -8.426   6.596  14.298  1.00  0.00    -0.013 C 
HETATM   32  C2  UNL     1      -9.579   7.283  14.431  1.00  0.00     0.008 C 
HETATM   33  C1  UNL     1      -9.722   8.379  15.448  1.00  0.00     0.055 C 
BRANCH  32  34
HETATM   34  C30 UNL     1     -10.782   6.957  13.626  1.00  0.00     0.171 C 
HETATM   35  O4  UNL     1     -11.027   7.302  12.483  1.00  0.00    -0.646 OA
BRANCH  34  36
HETATM   36  O5  UNL     1     -11.638   6.172  14.304  1.00  0.00    -0.773 OA
HETATM   37  H46 UNL     1     -12.362   6.026  13.662  1.00  0.00     0.167 HD
ENDBRANCH  34  36
ENDBRANCH  32  34
ENDBRANCH  30  31
ENDBRANCH  29  30
ENDBRANCH  27  29
ENDBRANCH   1  27
TORSDOF 7
ENDMDL
