MODEL 1
REMARK minimizedAffinity -10.1371498
REMARK  0 active torsions:
REMARK  status: ('A' for Active; 'I' for Inactive)
ROOT
HETATM    1  C1  UNL     1       2.961  11.439  14.250  1.00  0.00     0.023 C 
HETATM    2  C2  UNL     1       2.635  10.202  15.116  1.00  0.00     0.017 C 
HETATM    3  C3  UNL     1       2.717  10.638  16.590  1.00  0.00     0.023 C 
HETATM    4  C4  UNL     1       3.734   9.172  14.832  1.00  0.00     0.135 C 
HETATM    5  O1  UNL     1       4.817   9.179  15.419  1.00  0.00    -0.297 OA
HETATM    6  C5  UNL     1       3.468   8.185  13.725  1.00  0.00     0.080 C 
HETATM    7  C6  UNL     1       2.198   7.373  13.961  1.00  0.00     0.017 C 
HETATM    8  C7  UNL     1       1.105   8.057  14.858  1.00  0.00    -0.035 C 
HETATM    9  C8  UNL     1       1.377   7.590  16.308  1.00  0.00     0.016 C 
HETATM   10  C9  UNL     1      -0.324   7.604  14.323  1.00  0.00     0.003 C 
HETATM   11  C10 UNL     1      -0.576   6.083  14.406  1.00  0.00     0.006 C 
HETATM   12  C11 UNL     1      -1.824   5.644  13.636  1.00  0.00     0.006 C 
HETATM   13  C12 UNL     1      -3.081   6.412  14.057  1.00  0.00    -0.000 C 
HETATM   14  C13 UNL     1      -4.377   5.955  13.346  1.00  0.00     0.009 C 
HETATM   15  C14 UNL     1      -4.780   4.466  13.321  1.00  0.00     0.067 A 
HETATM   16  C15 UNL     1      -6.332   4.514  13.174  1.00  0.00     0.140 A 
HETATM   17  C16 UNL     1      -6.740   5.992  13.203  1.00  0.00     0.042 C 
HETATM   18  C17 UNL     1      -5.605   6.657  13.985  1.00  0.00    -0.037 C 
HETATM   19  C18 UNL     1      -5.815   6.365  15.494  1.00  0.00     0.015 C 
HETATM   20  C19 UNL     1      -5.489   8.170  13.764  1.00  0.00     0.010 C 
HETATM   21  C20 UNL     1      -4.184   8.732  14.363  1.00  0.00     0.011 C 
HETATM   22  C21 UNL     1      -2.876   7.981  13.923  1.00  0.00    -0.032 C 
HETATM   23  C22 UNL     1      -2.672   8.368  12.417  1.00  0.00     0.016 C 
HETATM   24  C23 UNL     1      -1.583   8.420  14.817  1.00  0.00    -0.032 C 
HETATM   25  C24 UNL     1      -1.874   8.160  16.325  1.00  0.00     0.016 C 
HETATM   26  C25 UNL     1      -1.277   9.936  14.670  1.00  0.00     0.011 C 
HETATM   27  C26 UNL     1       0.049  10.372  15.297  1.00  0.00     0.007 C 
HETATM   28  C27 UNL     1       1.241   9.612  14.690  1.00  0.00     0.009 C 
HETATM   29  O2  UNL     1      -6.721   3.937  11.918  1.00  0.00    -0.313 OA
HETATM   30  C28 UNL     1      -5.628   3.453  11.267  1.00  0.00     0.297 A 
HETATM   31  O3  UNL     1      -5.640   2.882  10.190  1.00  0.00    -0.262 OA
HETATM   32  C29 UNL     1      -4.438   3.683  12.100  1.00  0.00     0.175 A 
HETATM   33  C30 UNL     1      -3.269   2.729  12.050  1.00  0.00     0.218 A 
HETATM   34  O4  UNL     1      -3.220   4.022  11.431  1.00  0.00    -0.364 OA
ENDROOT
TORSDOF 0
ENDMDL
MODEL 2
REMARK minimizedAffinity -9.11137199
REMARK  0 active torsions:
REMARK  status: ('A' for Active; 'I' for Inactive)
ROOT
HETATM    1  C1  UNL     1      -8.182   5.838  12.444  1.00  0.00     0.023 C 
HETATM    2  C2  UNL     1      -7.438   5.751  13.794  1.00  0.00     0.017 C 
HETATM    3  C3  UNL     1      -7.482   4.281  14.250  1.00  0.00     0.023 C 
HETATM    4  C4  UNL     1      -8.234   6.609  14.784  1.00  0.00     0.135 C 
HETATM    5  O1  UNL     1      -9.209   6.179  15.401  1.00  0.00    -0.297 OA
HETATM    6  C5  UNL     1      -7.824   8.054  14.910  1.00  0.00     0.080 C 
HETATM    7  C6  UNL     1      -6.362   8.212  15.316  1.00  0.00     0.017 C 
HETATM    8  C7  UNL     1      -5.411   7.022  14.929  1.00  0.00    -0.035 C 
HETATM    9  C8  UNL     1      -5.391   6.068  16.147  1.00  0.00     0.016 C 
HETATM   10  C9  UNL     1      -3.977   7.627  14.595  1.00  0.00     0.003 C 
HETATM   11  C10 UNL     1      -3.309   8.355  15.781  1.00  0.00     0.006 C 
HETATM   12  C11 UNL     1      -2.076   9.162  15.364  1.00  0.00     0.006 C 
HETATM   13  C12 UNL     1      -1.043   8.318  14.610  1.00  0.00    -0.000 C 
HETATM   14  C13 UNL     1       0.246   9.081  14.226  1.00  0.00     0.009 C 
HETATM   15  C14 UNL     1       1.040   9.874  15.284  1.00  0.00     0.067 A 
HETATM   16  C15 UNL     1       2.494   9.877  14.720  1.00  0.00     0.140 A 
HETATM   17  C16 UNL     1       2.479   9.036  13.438  1.00  0.00     0.042 C 
HETATM   18  C17 UNL     1       1.294   8.091  13.648  1.00  0.00    -0.037 C 
HETATM   19  C18 UNL     1       1.733   6.963  14.619  1.00  0.00     0.015 C 
HETATM   20  C19 UNL     1       0.742   7.475  12.357  1.00  0.00     0.010 C 
HETATM   21  C20 UNL     1      -0.597   6.750  12.601  1.00  0.00     0.011 C 
HETATM   22  C21 UNL     1      -1.686   7.604  13.346  1.00  0.00    -0.032 C 
HETATM   23  C22 UNL     1      -2.146   8.677  12.300  1.00  0.00     0.016 C 
HETATM   24  C23 UNL     1      -2.948   6.696  13.842  1.00  0.00    -0.032 C 
HETATM   25  C24 UNL     1      -2.440   5.546  14.763  1.00  0.00     0.016 C 
HETATM   26  C25 UNL     1      -3.674   6.027  12.642  1.00  0.00     0.011 C 
HETATM   27  C26 UNL     1      -4.995   5.348  13.008  1.00  0.00     0.007 C 
HETATM   28  C27 UNL     1      -5.989   6.339  13.638  1.00  0.00     0.009 C 
HETATM   29  O2  UNL     1       2.893  11.219  14.404  1.00  0.00    -0.313 OA
HETATM   30  C28 UNL     1       1.914  12.095  14.762  1.00  0.00     0.297 A 
HETATM   31  O3  UNL     1       1.969  13.307  14.645  1.00  0.00    -0.262 OA
HETATM   32  C29 UNL     1       0.801  11.344  15.362  1.00  0.00     0.175 A 
HETATM   33  C30 UNL     1      -0.058  11.969  16.435  1.00  0.00     0.218 A 
HETATM   34  O4  UNL     1      -0.527  11.802  15.090  1.00  0.00    -0.364 OA
ENDROOT
TORSDOF 0
ENDMDL
MODEL 3
REMARK minimizedAffinity -9.07581234
REMARK  0 active torsions:
REMARK  status: ('A' for Active; 'I' for Inactive)
ROOT
HETATM    1  C1  UNL     1      -6.395   5.860  16.262  1.00  0.00     0.023 C 
HETATM    2  C2  UNL     1      -6.043   6.786  15.078  1.00  0.00     0.017 C 
HETATM    3  C3  UNL     1      -6.946   8.029  15.180  1.00  0.00     0.023 C 
HETATM    4  C4  UNL     1      -6.393   6.012  13.802  1.00  0.00     0.135 C 
HETATM    5  O1  UNL     1      -7.530   5.995  13.328  1.00  0.00    -0.297 OA
HETATM    6  C5  UNL     1      -5.294   5.183  13.188  1.00  0.00     0.080 C 
HETATM    7  C6  UNL     1      -4.066   6.016  12.835  1.00  0.00     0.017 C 
HETATM    8  C7  UNL     1      -3.862   7.327  13.677  1.00  0.00    -0.035 C 
HETATM    9  C8  UNL     1      -4.554   8.463  12.888  1.00  0.00     0.016 C 
HETATM   10  C9  UNL     1      -2.297   7.561  13.850  1.00  0.00     0.003 C 
HETATM   11  C10 UNL     1      -1.539   7.771  12.522  1.00  0.00     0.006 C 
HETATM   12  C11 UNL     1      -0.019   7.711  12.689  1.00  0.00     0.006 C 
HETATM   13  C12 UNL     1       0.499   8.685  13.752  1.00  0.00    -0.000 C 
HETATM   14  C13 UNL     1       2.038   8.701  13.908  1.00  0.00     0.009 C 
HETATM   15  C14 UNL     1       2.954   8.890  12.681  1.00  0.00     0.067 A 
HETATM   16  C15 UNL     1       4.246   9.518  13.287  1.00  0.00     0.140 A 
HETATM   17  C16 UNL     1       3.984   9.729  14.783  1.00  0.00     0.042 C 
HETATM   18  C17 UNL     1       2.460   9.852  14.861  1.00  0.00    -0.037 C 
HETATM   19  C18 UNL     1       2.060  11.274  14.388  1.00  0.00     0.015 C 
HETATM   20  C19 UNL     1       1.877   9.589  16.254  1.00  0.00     0.010 C 
HETATM   21  C20 UNL     1       0.340   9.470  16.213  1.00  0.00     0.011 C 
HETATM   22  C21 UNL     1      -0.217   8.454  15.151  1.00  0.00    -0.032 C 
HETATM   23  C22 UNL     1       0.150   7.037  15.713  1.00  0.00     0.016 C 
HETATM   24  C23 UNL     1      -1.830   8.600  14.945  1.00  0.00    -0.032 C 
HETATM   25  C24 UNL     1      -2.177  10.060  14.530  1.00  0.00     0.016 C 
HETATM   26  C25 UNL     1      -2.599   8.308  16.262  1.00  0.00     0.011 C 
HETATM   27  C26 UNL     1      -4.117   8.204  16.092  1.00  0.00     0.007 C 
HETATM   28  C27 UNL     1      -4.502   7.099  15.093  1.00  0.00     0.009 C 
HETATM   29  O2  UNL     1       5.351   8.617  13.120  1.00  0.00    -0.313 OA
HETATM   30  C28 UNL     1       4.959   7.520  12.416  1.00  0.00     0.297 A 
HETATM   31  O3  UNL     1       5.678   6.590  12.092  1.00  0.00    -0.262 OA
HETATM   32  C29 UNL     1       3.538   7.664  12.066  1.00  0.00     0.175 A 
HETATM   33  C30 UNL     1       2.994   7.058  10.794  1.00  0.00     0.218 A 
HETATM   34  O4  UNL     1       2.731   6.482  12.081  1.00  0.00    -0.364 OA
ENDROOT
TORSDOF 0
ENDMDL
MODEL 4
REMARK minimizedAffinity -9.07249546
REMARK  0 active torsions:
REMARK  status: ('A' for Active; 'I' for Inactive)
ROOT
HETATM    1  C1  UNL     1      -5.859   5.816  16.267  1.00  0.00     0.023 C 
HETATM    2  C2  UNL     1      -5.556   6.781  15.099  1.00  0.00     0.017 C 
HETATM    3  C3  UNL     1      -6.306   8.096  15.381  1.00  0.00     0.023 C 
HETATM    4  C4  UNL     1      -6.135   6.130  13.838  1.00  0.00     0.135 C 
HETATM    5  O1  UNL     1      -7.315   6.255  13.510  1.00  0.00    -0.297 OA
HETATM    6  C5  UNL     1      -5.208   5.242  13.047  1.00  0.00     0.080 C 
HETATM    7  C6  UNL     1      -3.952   5.974  12.588  1.00  0.00     0.017 C 
HETATM    8  C7  UNL     1      -3.513   7.201  13.468  1.00  0.00    -0.035 C 
HETATM    9  C8  UNL     1      -4.172   8.448  12.834  1.00  0.00     0.016 C 
HETATM   10  C9  UNL     1      -1.923   7.271  13.456  1.00  0.00     0.003 C 
HETATM   11  C10 UNL     1      -1.312   7.494  12.056  1.00  0.00     0.006 C 
HETATM   12  C11 UNL     1       0.204   7.276  12.028  1.00  0.00     0.006 C 
HETATM   13  C12 UNL     1       0.943   8.124  13.069  1.00  0.00    -0.000 C 
HETATM   14  C13 UNL     1       2.483   7.980  13.031  1.00  0.00     0.009 C 
HETATM   15  C14 UNL     1       3.260   8.161  11.711  1.00  0.00     0.067 A 
HETATM   16  C15 UNL     1       4.674   8.620  12.184  1.00  0.00     0.140 A 
HETATM   17  C16 UNL     1       4.615   8.755  13.710  1.00  0.00     0.042 C 
HETATM   18  C17 UNL     1       3.133   9.019  13.985  1.00  0.00    -0.037 C 
HETATM   19  C18 UNL     1       2.829  10.502  13.643  1.00  0.00     0.015 C 
HETATM   20  C19 UNL     1       2.696   8.722  15.424  1.00  0.00     0.010 C 
HETATM   21  C20 UNL     1       1.161   8.755  15.569  1.00  0.00     0.011 C 
HETATM   22  C21 UNL     1       0.379   7.870  14.532  1.00  0.00    -0.032 C 
HETATM   23  C22 UNL     1       0.660   6.390  14.966  1.00  0.00     0.016 C 
HETATM   24  C23 UNL     1      -1.223   8.184  14.538  1.00  0.00    -0.032 C 
HETATM   25  C24 UNL     1      -1.464   9.696  14.249  1.00  0.00     0.016 C 
HETATM   26  C25 UNL     1      -1.856   7.882  15.924  1.00  0.00     0.011 C 
HETATM   27  C26 UNL     1      -3.386   7.936  15.939  1.00  0.00     0.007 C 
HETATM   28  C27 UNL     1      -4.000   6.942  14.939  1.00  0.00     0.009 C 
HETATM   29  O2  UNL     1       5.652   7.629  11.831  1.00  0.00    -0.313 OA
HETATM   30  C28 UNL     1       5.066   6.624  11.124  1.00  0.00     0.297 A 
HETATM   31  O3  UNL     1       5.641   5.653  10.663  1.00  0.00    -0.262 OA
HETATM   32  C29 UNL     1       3.636   6.927  10.963  1.00  0.00     0.175 A 
HETATM   33  C30 UNL     1       2.885   6.463   9.738  1.00  0.00     0.218 A 
HETATM   34  O4  UNL     1       2.718   5.831  11.014  1.00  0.00    -0.364 OA
ENDROOT
TORSDOF 0
ENDMDL
MODEL 5
REMARK minimizedAffinity -8.82189751
REMARK  0 active torsions:
REMARK  status: ('A' for Active; 'I' for Inactive)
ROOT
HETATM    1  C1  UNL     1     -11.777   7.912  12.456  1.00  0.00     0.023 C 
HETATM    2  C2  UNL     1     -11.197   7.691  13.870  1.00  0.00     0.017 C 
HETATM    3  C3  UNL     1     -11.857   6.424  14.445  1.00  0.00     0.023 C 
HETATM    4  C4  UNL     1     -11.619   8.904  14.707  1.00  0.00     0.135 C 
HETATM    5  O1  UNL     1     -12.712   8.973  15.270  1.00  0.00    -0.297 OA
HETATM    6  C5  UNL     1     -10.662  10.068  14.743  1.00  0.00     0.080 C 
HETATM    7  C6  UNL     1      -9.284   9.674  15.262  1.00  0.00     0.017 C 
HETATM    8  C7  UNL     1      -8.883   8.167  15.066  1.00  0.00    -0.035 C 
HETATM    9  C8  UNL     1      -9.308   7.432  16.359  1.00  0.00     0.016 C 
HETATM   10  C9  UNL     1      -7.313   8.105  14.810  1.00  0.00     0.003 C 
HETATM   11  C10 UNL     1      -6.461   8.637  15.982  1.00  0.00     0.006 C 
HETATM   12  C11 UNL     1      -4.989   8.830  15.608  1.00  0.00     0.006 C 
HETATM   13  C12 UNL     1      -4.356   7.562  15.026  1.00  0.00    -0.000 C 
HETATM   14  C13 UNL     1      -2.851   7.696  14.692  1.00  0.00     0.009 C 
HETATM   15  C14 UNL     1      -1.853   8.222  15.745  1.00  0.00     0.067 A 
HETATM   16  C15 UNL     1      -0.499   7.578  15.314  1.00  0.00     0.140 A 
HETATM   17  C16 UNL     1      -0.796   6.671  14.113  1.00  0.00     0.042 C 
HETATM   18  C17 UNL     1      -2.272   6.311  14.298  1.00  0.00    -0.037 C 
HETATM   19  C18 UNL     1      -2.374   5.221  15.398  1.00  0.00     0.015 C 
HETATM   20  C19 UNL     1      -2.966   5.822  13.021  1.00  0.00     0.010 C 
HETATM   21  C20 UNL     1      -4.494   5.726  13.208  1.00  0.00     0.011 C 
HETATM   22  C21 UNL     1      -5.174   7.024  13.776  1.00  0.00    -0.032 C 
HETATM   23  C22 UNL     1      -5.109   8.063  12.604  1.00  0.00     0.016 C 
HETATM   24  C23 UNL     1      -6.719   6.760  14.234  1.00  0.00    -0.032 C 
HETATM   25  C24 UNL     1      -6.765   5.618  15.293  1.00  0.00     0.016 C 
HETATM   26  C25 UNL     1      -7.597   6.304  13.037  1.00  0.00     0.011 C 
HETATM   27  C26 UNL     1      -9.096   6.257  13.342  1.00  0.00     0.007 C 
HETATM   28  C27 UNL     1      -9.628   7.628  13.792  1.00  0.00     0.009 C 
HETATM   29  O2  UNL     1       0.425   8.603  14.920  1.00  0.00    -0.313 OA
HETATM   30  C28 UNL     1      -0.128   9.831  15.112  1.00  0.00     0.297 A 
HETATM   31  O3  UNL     1       0.421  10.898  14.896  1.00  0.00    -0.262 OA
HETATM   32  C29 UNL     1      -1.477   9.663  15.674  1.00  0.00     0.175 A 
HETATM   33  C30 UNL     1      -2.056  10.698  16.608  1.00  0.00     0.218 A 
HETATM   34  O4  UNL     1      -2.489  10.578  15.245  1.00  0.00    -0.364 OA
ENDROOT
TORSDOF 0
ENDMDL
MODEL 6
REMARK minimizedAffinity -8.7662468
REMARK  0 active torsions:
REMARK  status: ('A' for Active; 'I' for Inactive)
ROOT
HETATM    1  C1  UNL     1      -4.428   7.769  13.096  1.00  0.00     0.023 C 
HETATM    2  C2  UNL     1      -3.432   6.753  13.696  1.00  0.00     0.017 C 
HETATM    3  C3  UNL     1      -3.891   5.348  13.265  1.00  0.00     0.023 C 
HETATM    4  C4  UNL     1      -3.550   6.877  15.219  1.00  0.00     0.135 C 
HETATM    5  O1  UNL     1      -4.406   6.277  15.869  1.00  0.00    -0.297 OA
HETATM    6  C5  UNL     1      -2.616   7.849  15.894  1.00  0.00     0.080 C 
HETATM    7  C6  UNL     1      -1.150   7.531  15.623  1.00  0.00     0.017 C 
HETATM    8  C7  UNL     1      -0.852   6.752  14.291  1.00  0.00    -0.035 C 
HETATM    9  C8  UNL     1      -0.854   5.249  14.656  1.00  0.00     0.016 C 
HETATM   10  C9  UNL     1       0.554   7.249  13.735  1.00  0.00     0.003 C 
HETATM   11  C10 UNL     1       1.742   6.970  14.681  1.00  0.00     0.006 C 
HETATM   12  C11 UNL     1       3.021   7.698  14.262  1.00  0.00     0.006 C 
HETATM   13  C12 UNL     1       3.420   7.406  12.812  1.00  0.00    -0.000 C 
HETATM   14  C13 UNL     1       4.743   8.074  12.367  1.00  0.00     0.009 C 
HETATM   15  C14 UNL     1       6.030   7.909  13.201  1.00  0.00     0.067 A 
HETATM   16  C15 UNL     1       7.168   8.090  12.149  1.00  0.00     0.140 A 
HETATM   17  C16 UNL     1       6.493   8.265  10.783  1.00  0.00     0.042 C 
HETATM   18  C17 UNL     1       5.148   7.557  10.960  1.00  0.00    -0.037 C 
HETATM   19  C18 UNL     1       5.386   6.026  10.868  1.00  0.00     0.015 C 
HETATM   20  C19 UNL     1       4.078   7.975   9.944  1.00  0.00     0.010 C 
HETATM   21  C20 UNL     1       2.687   7.431  10.330  1.00  0.00     0.011 C 
HETATM   22  C21 UNL     1       2.240   7.743  11.804  1.00  0.00    -0.032 C 
HETATM   23  C22 UNL     1       1.944   9.283  11.821  1.00  0.00     0.016 C 
HETATM   24  C23 UNL     1       0.918   6.891  12.241  1.00  0.00    -0.032 C 
HETATM   25  C24 UNL     1       1.194   5.367  12.071  1.00  0.00     0.016 C 
HETATM   26  C25 UNL     1      -0.301   7.232  11.340  1.00  0.00     0.011 C 
HETATM   27  C26 UNL     1      -1.626   6.644  11.831  1.00  0.00     0.007 C 
HETATM   28  C27 UNL     1      -1.970   7.123  13.252  1.00  0.00     0.009 C 
HETATM   29  O2  UNL     1       7.933   9.266  12.457  1.00  0.00    -0.313 OA
HETATM   30  C28 UNL     1       7.486   9.826  13.614  1.00  0.00     0.297 A 
HETATM   31  O3  UNL     1       7.952  10.818  14.147  1.00  0.00    -0.262 OA
HETATM   32  C29 UNL     1       6.383   9.009  14.142  1.00  0.00     0.175 A 
HETATM   33  C30 UNL     1       6.144   8.910  15.630  1.00  0.00     0.218 A 
HETATM   34  O4  UNL     1       5.299   9.695  14.777  1.00  0.00    -0.364 OA
ENDROOT
TORSDOF 0
ENDMDL
MODEL 7
REMARK minimizedAffinity -8.65507793
REMARK  0 active torsions:
REMARK  status: ('A' for Active; 'I' for Inactive)
ROOT
HETATM    1  C1  UNL     1      -4.815   3.465  10.005  1.00  0.00     0.023 C 
HETATM    2  C2  UNL     1      -4.341   3.475  11.475  1.00  0.00     0.017 C 
HETATM    3  C3  UNL     1      -3.823   2.063  11.802  1.00  0.00     0.023 C 
HETATM    4  C4  UNL     1      -5.581   3.768  12.328  1.00  0.00     0.135 C 
HETATM    5  O1  UNL     1      -6.363   2.887  12.686  1.00  0.00    -0.297 OA
HETATM    6  C5  UNL     1      -5.860   5.215  12.644  1.00  0.00     0.080 C 
HETATM    7  C6  UNL     1      -4.698   5.887  13.369  1.00  0.00     0.017 C 
HETATM    8  C7  UNL     1      -3.278   5.265  13.112  1.00  0.00    -0.035 C 
HETATM    9  C8  UNL     1      -3.051   4.223  14.233  1.00  0.00     0.016 C 
HETATM   10  C9  UNL     1      -2.211   6.445  13.142  1.00  0.00     0.003 C 
HETATM   11  C10 UNL     1      -2.127   7.185  14.494  1.00  0.00     0.006 C 
HETATM   12  C11 UNL     1      -1.312   8.479  14.415  1.00  0.00     0.006 C 
HETATM   13  C12 UNL     1       0.093   8.258  13.845  1.00  0.00    -0.000 C 
HETATM   14  C13 UNL     1       0.973   9.530  13.805  1.00  0.00     0.009 C 
HETATM   15  C14 UNL     1       1.160  10.400  15.066  1.00  0.00     0.067 A 
HETATM   16  C15 UNL     1       2.543  11.083  14.832  1.00  0.00     0.140 A 
HETATM   17  C16 UNL     1       3.104  10.522  13.520  1.00  0.00     0.042 C 
HETATM   18  C17 UNL     1       2.424   9.157  13.399  1.00  0.00    -0.037 C 
HETATM   19  C18 UNL     1       3.138   8.168  14.357  1.00  0.00     0.015 C 
HETATM   20  C19 UNL     1       2.414   8.581  11.977  1.00  0.00     0.010 C 
HETATM   21  C20 UNL     1       1.498   7.346  11.872  1.00  0.00     0.011 C 
HETATM   22  C21 UNL     1       0.040   7.554  12.422  1.00  0.00    -0.032 C 
HETATM   23  C22 UNL     1      -0.656   8.497  11.382  1.00  0.00     0.016 C 
HETATM   24  C23 UNL     1      -0.772   6.145  12.565  1.00  0.00    -0.032 C 
HETATM   25  C24 UNL     1       0.021   5.172  13.488  1.00  0.00     0.016 C 
HETATM   26  C25 UNL     1      -0.929   5.437  11.191  1.00  0.00     0.011 C 
HETATM   27  C26 UNL     1      -1.870   4.231  11.211  1.00  0.00     0.007 C 
HETATM   28  C27 UNL     1      -3.282   4.619  11.680  1.00  0.00     0.009 C 
HETATM   29  O2  UNL     1       2.371  12.503  14.709  1.00  0.00    -0.313 OA
HETATM   30  C28 UNL     1       1.066  12.836  14.909  1.00  0.00     0.297 A 
HETATM   31  O3  UNL     1       0.613  13.967  14.894  1.00  0.00    -0.262 OA
HETATM   32  C29 UNL     1       0.303  11.612  15.196  1.00  0.00     0.175 A 
HETATM   33  C30 UNL     1      -0.907  11.656  16.099  1.00  0.00     0.218 A 
HETATM   34  O4  UNL     1      -1.028  11.527  14.676  1.00  0.00    -0.364 OA
ENDROOT
TORSDOF 0
ENDMDL
MODEL 8
REMARK minimizedAffinity -8.63464928
REMARK  0 active torsions:
REMARK  status: ('A' for Active; 'I' for Inactive)
ROOT
HETATM    1  C1  UNL     1      -2.926  10.267  18.715  1.00  0.00     0.023 C 
HETATM    2  C2  UNL     1      -2.587  11.016  17.407  1.00  0.00     0.017 C 
HETATM    3  C3  UNL     1      -2.292  12.481  17.779  1.00  0.00     0.023 C 
HETATM    4  C4  UNL     1      -3.847  10.961  16.536  1.00  0.00     0.135 C 
HETATM    5  O1  UNL     1      -4.768  11.771  16.650  1.00  0.00    -0.297 OA
HETATM    6  C5  UNL     1      -3.958   9.803  15.578  1.00  0.00     0.080 C 
HETATM    7  C6  UNL     1      -2.786   9.739  14.604  1.00  0.00     0.017 C 
HETATM    8  C7  UNL     1      -1.445  10.387  15.103  1.00  0.00    -0.035 C 
HETATM    9  C8  UNL     1      -1.458  11.852  14.605  1.00  0.00     0.016 C 
HETATM   10  C9  UNL     1      -0.237   9.543  14.502  1.00  0.00     0.003 C 
HETATM   11  C10 UNL     1      -0.176   9.539  12.959  1.00  0.00     0.006 C 
HETATM   12  C11 UNL     1       0.808   8.505  12.406  1.00  0.00     0.006 C 
HETATM   13  C12 UNL     1       2.216   8.655  12.991  1.00  0.00    -0.000 C 
HETATM   14  C13 UNL     1       3.257   7.668  12.410  1.00  0.00     0.009 C 
HETATM   15  C14 UNL     1       3.446   7.527  10.886  1.00  0.00     0.067 A 
HETATM   16  C15 UNL     1       4.922   7.043  10.748  1.00  0.00     0.140 A 
HETATM   17  C16 UNL     1       5.518   7.010  12.161  1.00  0.00     0.042 C 
HETATM   18  C17 UNL     1       4.676   8.035  12.923  1.00  0.00    -0.037 C 
HETATM   19  C18 UNL     1       5.165   9.456  12.536  1.00  0.00     0.015 C 
HETATM   20  C19 UNL     1       4.715   7.874  14.448  1.00  0.00     0.010 C 
HETATM   21  C20 UNL     1       3.656   8.756  15.139  1.00  0.00     0.011 C 
HETATM   22  C21 UNL     1       2.196   8.599  14.578  1.00  0.00    -0.032 C 
HETATM   23  C22 UNL     1       1.726   7.183  15.059  1.00  0.00     0.016 C 
HETATM   24  C23 UNL     1       1.195   9.764  15.131  1.00  0.00    -0.032 C 
HETATM   25  C24 UNL     1       1.767  11.167  14.765  1.00  0.00     0.016 C 
HETATM   26  C25 UNL     1       1.067   9.717  16.678  1.00  0.00     0.011 C 
HETATM   27  C26 UNL     1      -0.023  10.628  17.245  1.00  0.00     0.007 C 
HETATM   28  C27 UNL     1      -1.408  10.283  16.670  1.00  0.00     0.009 C 
HETATM   29  O2  UNL     1       4.952   5.722  10.187  1.00  0.00    -0.313 OA
HETATM   30  C28 UNL     1       3.691   5.317   9.874  1.00  0.00     0.297 A 
HETATM   31  O3  UNL     1       3.395   4.253   9.358  1.00  0.00    -0.262 OA
HETATM   32  C29 UNL     1       2.749   6.395  10.210  1.00  0.00     0.175 A 
HETATM   33  C30 UNL     1       1.481   6.585   9.413  1.00  0.00     0.218 A 
HETATM   34  O4  UNL     1       1.471   6.016  10.730  1.00  0.00    -0.364 OA
ENDROOT
TORSDOF 0
ENDMDL
MODEL 9
REMARK minimizedAffinity -8.52353668
REMARK  0 active torsions:
REMARK  status: ('A' for Active; 'I' for Inactive)
ROOT
HETATM    1  C1  UNL     1       0.508  14.291  15.156  1.00  0.00     0.023 C 
HETATM    2  C2  UNL     1       0.664  13.002  15.993  1.00  0.00     0.017 C 
HETATM    3  C3  UNL     1       0.264  13.342  17.441  1.00  0.00     0.023 C 
HETATM    4  C4  UNL     1       2.152  12.637  15.954  1.00  0.00     0.135 C 
HETATM    5  O1  UNL     1       2.976  13.126  16.728  1.00  0.00    -0.297 OA
HETATM    6  C5  UNL     1       2.592  11.705  14.854  1.00  0.00     0.080 C 
HETATM    7  C6  UNL     1       1.847  10.375  14.885  1.00  0.00     0.017 C 
HETATM    8  C7  UNL     1       0.419  10.405  15.541  1.00  0.00    -0.035 C 
HETATM    9  C8  UNL     1       0.619  10.045  17.032  1.00  0.00     0.016 C 
HETATM   10  C9  UNL     1      -0.498   9.356  14.771  1.00  0.00     0.003 C 
HETATM   11  C10 UNL     1      -0.002   7.897  14.864  1.00  0.00     0.006 C 
HETATM   12  C11 UNL     1      -0.728   6.960  13.895  1.00  0.00     0.006 C 
HETATM   13  C12 UNL     1      -2.252   7.012  14.051  1.00  0.00    -0.000 C 
HETATM   14  C13 UNL     1      -3.021   6.033  13.133  1.00  0.00     0.009 C 
HETATM   15  C14 UNL     1      -2.652   4.536  13.091  1.00  0.00     0.067 A 
HETATM   16  C15 UNL     1      -3.984   3.847  12.660  1.00  0.00     0.140 A 
HETATM   17  C16 UNL     1      -5.046   4.948  12.559  1.00  0.00     0.042 C 
HETATM   18  C17 UNL     1      -4.527   6.029  13.510  1.00  0.00    -0.037 C 
HETATM   19  C18 UNL     1      -4.837   5.589  14.965  1.00  0.00     0.015 C 
HETATM   20  C19 UNL     1      -5.111   7.424  13.257  1.00  0.00     0.010 C 
HETATM   21  C20 UNL     1      -4.365   8.506  14.063  1.00  0.00     0.011 C 
HETATM   22  C21 UNL     1      -2.802   8.494  13.898  1.00  0.00    -0.032 C 
HETATM   23  C22 UNL     1      -2.543   9.014  12.442  1.00  0.00     0.016 C 
HETATM   24  C23 UNL     1      -2.058   9.446  14.996  1.00  0.00    -0.032 C 
HETATM   25  C24 UNL     1      -2.453   8.996  16.435  1.00  0.00     0.016 C 
HETATM   26  C25 UNL     1      -2.494  10.930  14.851  1.00  0.00     0.011 C 
HETATM   27  C26 UNL     1      -1.674  11.909  15.693  1.00  0.00     0.007 C 
HETATM   28  C27 UNL     1      -0.177  11.844  15.342  1.00  0.00     0.009 C 
HETATM   29  O2  UNL     1      -3.819   3.225  11.377  1.00  0.00    -0.313 OA
HETATM   30  C28 UNL     1      -2.531   3.356  10.955  1.00  0.00     0.297 A 
HETATM   31  O3  UNL     1      -2.076   2.909   9.916  1.00  0.00    -0.262 OA
HETATM   32  C29 UNL     1      -1.766   4.079  11.982  1.00  0.00     0.175 A 
HETATM   33  C30 UNL     1      -0.296   3.801  12.183  1.00  0.00     0.218 A 
HETATM   34  O4  UNL     1      -0.761   4.993  11.535  1.00  0.00    -0.364 OA
ENDROOT
TORSDOF 0
ENDMDL
