MODEL 1
REMARK minimizedAffinity -8.08527279
REMARK CNNscore 0.478780627
REMARK CNNaffinity 6.91885805
REMARK  9 active torsions:
REMARK  status: ('A' for Active; 'I' for Inactive)
REMARK    1  A    between atoms: C2_2  and  C3_3 
REMARK    2  A    between atoms: C2_2  and  C9_12 
REMARK    3  A    between atoms: C3_3  and  C4_4 
REMARK    4  A    between atoms: C4_4  and  C5_5 
REMARK    5  A    between atoms: C5_5  and  O1_6 
REMARK    6  A    between atoms: C5_5  and  C6_7 
REMARK    7  A    between atoms: C6_7  and  O2_9 
REMARK    8  A    between atoms: C6_7  and  C8_10 
REMARK    9  A    between atoms: C8_10  and  O3_11 
ROOT
HETATM    1  C9  UNL     1      -1.324   6.860  13.279  1.00  0.00    -0.002 C 
HETATM    2  C10 UNL     1      -0.658   7.840  12.270  1.00  0.00     0.007 C 
HETATM    3  C11 UNL     1      -0.351   9.140  13.036  1.00  0.00     0.015 C 
HETATM    4  C12 UNL     1      -1.452   9.201  14.111  1.00  0.00    -0.013 C 
HETATM    5  C13 UNL     1      -2.746   9.689  13.382  1.00  0.00     0.021 C 
HETATM    6  C14 UNL     1      -1.290  10.173  15.283  1.00  0.00    -0.070 C 
HETATM    7  C15 UNL     1      -0.727  11.385  15.114  1.00  0.00    -0.022 C 
HETATM    8  C16 UNL     1      -0.869  12.495  16.107  1.00  0.00     0.034 C 
HETATM    9  C17 UNL     1      -2.190  12.334  16.891  1.00  0.00     0.013 C 
HETATM   10  C18 UNL     1      -2.610  13.616  17.697  1.00  0.00     0.018 C 
HETATM   11  C19 UNL     1      -2.985  14.741  16.695  1.00  0.00     0.023 C 
HETATM   12  C20 UNL     1      -1.535  14.192  18.633  1.00  0.00     0.023 C 
HETATM   13  C21 UNL     1      -3.861  13.309  18.537  1.00  0.00     0.135 C 
HETATM   14  O4  UNL     1      -4.763  14.135  18.699  1.00  0.00    -0.297 OA
HETATM   15  C22 UNL     1      -3.910  11.995  19.277  1.00  0.00     0.080 C 
HETATM   16  C23 UNL     1      -3.581  10.830  18.357  1.00  0.00     0.017 C 
HETATM   17  C24 UNL     1      -2.209  10.960  17.650  1.00  0.00    -0.031 C 
HETATM   18  C25 UNL     1      -1.096  10.859  18.732  1.00  0.00     0.016 C 
HETATM   19  C26 UNL     1      -1.922   9.760  16.623  1.00  0.00     0.024 C 
HETATM   20  C27 UNL     1      -3.053   8.722  16.434  1.00  0.00     0.010 C 
HETATM   21  C28 UNL     1      -2.712   7.513  15.515  1.00  0.00     0.011 C 
HETATM   22  C29 UNL     1      -1.488   7.712  14.600  1.00  0.00    -0.029 C 
HETATM   23  C30 UNL     1      -0.209   7.308  15.431  1.00  0.00     0.016 C 
ENDROOT
BRANCH   1  24
HETATM   24  C2  UNL     1      -2.451   5.978  12.665  1.00  0.00    -0.014 C 
HETATM   25  C1  UNL     1      -3.861   6.179  13.225  1.00  0.00     0.010 C 
BRANCH  24  26
HETATM   26  C3  UNL     1      -2.127   4.461  12.613  1.00  0.00     0.007 C 
BRANCH  26  27
HETATM   27  C4  UNL     1      -0.915   4.114  11.737  1.00  0.00     0.035 C 
BRANCH  27  28
HETATM   28  C5  UNL     1      -0.568   2.613  11.645  1.00  0.00     0.154 C 
BRANCH  28  29
HETATM   29  O1  UNL     1       0.742   2.481  11.061  1.00  0.00    -0.392 OA
HETATM   30  H10 UNL     1       1.354   3.013  11.603  1.00  0.00     0.210 HD
ENDBRANCH  28  29
BRANCH  28  31
HETATM   31  C6  UNL     1      -1.544   1.713  10.832  1.00  0.00     0.101 C 
HETATM   32  C7  UNL     1      -2.758   1.284  11.657  1.00  0.00     0.051 C 
BRANCH  31  33
HETATM   33  O2  UNL     1      -2.017   2.444   9.687  1.00  0.00    -0.385 OA
HETATM   34  H14 UNL     1      -1.233   2.924   9.352  1.00  0.00     0.210 HD
ENDBRANCH  31  33
BRANCH  31  35
HETATM   35  C8  UNL     1      -0.803   0.464  10.299  1.00  0.00     0.204 C 
BRANCH  35  36
HETATM   36  O3  UNL     1      -0.544   0.548   8.900  1.00  0.00    -0.398 OA
HETATM   37  H17 UNL     1      -1.005  -0.202   8.481  1.00  0.00     0.209 HD
ENDBRANCH  35  36
ENDBRANCH  31  35
ENDBRANCH  28  31
ENDBRANCH  27  28
ENDBRANCH  26  27
ENDBRANCH  24  26
ENDBRANCH   1  24
TORSDOF 9
ENDMDL
MODEL 2
REMARK minimizedAffinity -6.79469585
REMARK CNNscore 0.46823138
REMARK CNNaffinity 6.5412693
REMARK  9 active torsions:
REMARK  status: ('A' for Active; 'I' for Inactive)
REMARK    1  A    between atoms: C2_2  and  C3_3 
REMARK    2  A    between atoms: C2_2  and  C9_12 
REMARK    3  A    between atoms: C3_3  and  C4_4 
REMARK    4  A    between atoms: C4_4  and  C5_5 
REMARK    5  A    between atoms: C5_5  and  O1_6 
REMARK    6  A    between atoms: C5_5  and  C6_7 
REMARK    7  A    between atoms: C6_7  and  O2_9 
REMARK    8  A    between atoms: C6_7  and  C8_10 
REMARK    9  A    between atoms: C8_10  and  O3_11 
ROOT
HETATM    1  C9  UNL     1      -9.775  -7.644  -5.609  1.00  0.00    -0.002 C 
HETATM    2  C10 UNL     1      -8.241  -7.638  -5.873  1.00  0.00     0.007 C 
HETATM    3  C11 UNL     1      -7.585  -8.465  -4.752  1.00  0.00     0.015 C 
HETATM    4  C12 UNL     1      -8.525  -8.263  -3.549  1.00  0.00    -0.013 C 
HETATM    5  C13 UNL     1      -8.202  -6.845  -2.977  1.00  0.00     0.021 C 
HETATM    6  C14 UNL     1      -8.392  -9.195  -2.341  1.00  0.00    -0.070 C 
HETATM    7  C15 UNL     1      -7.190  -9.643  -1.931  1.00  0.00    -0.022 C 
HETATM    8  C16 UNL     1      -6.960 -10.238  -0.578  1.00  0.00     0.034 C 
HETATM    9  C17 UNL     1      -7.981  -9.666   0.430  1.00  0.00     0.013 C 
HETATM   10  C18 UNL     1      -7.615  -9.945   1.932  1.00  0.00     0.018 C 
HETATM   11  C19 UNL     1      -6.340  -9.138   2.297  1.00  0.00     0.023 C 
HETATM   12  C20 UNL     1      -7.328 -11.414   2.283  1.00  0.00     0.023 C 
HETATM   13  C21 UNL     1      -8.753  -9.449   2.840  1.00  0.00     0.135 C 
HETATM   14  O4  UNL     1      -8.537  -8.913   3.930  1.00  0.00    -0.297 OA
HETATM   15  C22 UNL     1     -10.171  -9.745   2.421  1.00  0.00     0.080 C 
HETATM   16  C23 UNL     1     -10.417  -9.336   0.977  1.00  0.00     0.017 C 
HETATM   17  C24 UNL     1      -9.445  -9.993  -0.034  1.00  0.00    -0.031 C 
HETATM   18  C25 UNL     1      -9.737 -11.520  -0.062  1.00  0.00     0.016 C 
HETATM   19  C26 UNL     1      -9.673  -9.481  -1.538  1.00  0.00     0.024 C 
HETATM   20  C27 UNL     1     -10.743  -8.384  -1.745  1.00  0.00     0.010 C 
HETATM   21  C28 UNL     1     -11.019  -7.981  -3.223  1.00  0.00     0.011 C 
HETATM   22  C29 UNL     1      -9.930  -8.401  -4.230  1.00  0.00    -0.029 C 
HETATM   23  C30 UNL     1     -10.251  -9.878  -4.682  1.00  0.00     0.016 C 
ENDROOT
BRANCH   1  24
HETATM   24  C2  UNL     1     -10.489  -6.304  -5.953  1.00  0.00    -0.014 C 
HETATM   25  C1  UNL     1     -11.469  -6.330  -7.127  1.00  0.00     0.010 C 
BRANCH  24  26
HETATM   26  C3  UNL     1      -9.538  -5.086  -6.100  1.00  0.00     0.007 C 
BRANCH  26  27
HETATM   27  C4  UNL     1      -9.552  -4.136  -4.894  1.00  0.00     0.035 C 
BRANCH  27  28
HETATM   28  C5  UNL     1      -9.333  -2.644  -5.220  1.00  0.00     0.154 C 
BRANCH  28  29
HETATM   29  O1  UNL     1      -8.269  -2.145  -4.386  1.00  0.00    -0.392 OA
HETATM   30  H10 UNL     1      -7.494  -2.718  -4.534  1.00  0.00     0.210 HD
ENDBRANCH  28  29
BRANCH  28  31
HETATM   31  C6  UNL     1     -10.556  -1.698  -5.045  1.00  0.00     0.101 C 
HETATM   32  C7  UNL     1     -11.746  -2.127  -5.904  1.00  0.00     0.051 C 
BRANCH  31  33
HETATM   33  O2  UNL     1     -10.971  -1.711  -3.668  1.00  0.00    -0.385 OA
HETATM   34  H14 UNL     1     -10.139  -1.706  -3.154  1.00  0.00     0.210 HD
ENDBRANCH  31  33
BRANCH  31  35
HETATM   35  C8  UNL     1     -10.161  -0.241  -5.387  1.00  0.00     0.204 C 
BRANCH  35  36
HETATM   36  O3  UNL     1      -8.918  -0.170  -6.081  1.00  0.00    -0.398 OA
HETATM   37  H17 UNL     1      -8.314   0.359  -5.526  1.00  0.00     0.209 HD
ENDBRANCH  35  36
ENDBRANCH  31  35
ENDBRANCH  28  31
ENDBRANCH  27  28
ENDBRANCH  26  27
ENDBRANCH  24  26
ENDBRANCH   1  24
TORSDOF 9
ENDMDL
MODEL 3
REMARK minimizedAffinity -7.12344027
REMARK CNNscore 0.378497481
REMARK CNNaffinity 7.06691313
REMARK  9 active torsions:
REMARK  status: ('A' for Active; 'I' for Inactive)
REMARK    1  A    between atoms: C2_2  and  C3_3 
REMARK    2  A    between atoms: C2_2  and  C9_12 
REMARK    3  A    between atoms: C3_3  and  C4_4 
REMARK    4  A    between atoms: C4_4  and  C5_5 
REMARK    5  A    between atoms: C5_5  and  O1_6 
REMARK    6  A    between atoms: C5_5  and  C6_7 
REMARK    7  A    between atoms: C6_7  and  O2_9 
REMARK    8  A    between atoms: C6_7  and  C8_10 
REMARK    9  A    between atoms: C8_10  and  O3_11 
ROOT
HETATM    1  C9  UNL     1      -8.576   7.176  15.217  1.00  0.00    -0.002 C 
HETATM    2  C10 UNL     1      -8.924   5.701  14.866  1.00  0.00     0.007 C 
HETATM    3  C11 UNL     1      -7.591   4.960  14.650  1.00  0.00     0.015 C 
HETATM    4  C12 UNL     1      -6.645   6.054  14.122  1.00  0.00    -0.013 C 
HETATM    5  C13 UNL     1      -7.013   6.260  12.617  1.00  0.00     0.021 C 
HETATM    6  C14 UNL     1      -5.137   5.784  14.106  1.00  0.00    -0.070 C 
HETATM    7  C15 UNL     1      -4.648   4.561  13.827  1.00  0.00    -0.022 C 
HETATM    8  C16 UNL     1      -3.222   4.321  13.442  1.00  0.00     0.034 C 
HETATM    9  C17 UNL     1      -2.639   5.584  12.769  1.00  0.00     0.013 C 
HETATM   10  C18 UNL     1      -1.284   5.333  12.016  1.00  0.00     0.018 C 
HETATM   11  C19 UNL     1      -1.553   4.426  10.784  1.00  0.00     0.023 C 
HETATM   12  C20 UNL     1      -0.183   4.648  12.842  1.00  0.00     0.023 C 
HETATM   13  C21 UNL     1      -0.730   6.669  11.495  1.00  0.00     0.135 C 
HETATM   14  O4  UNL     1      -0.162   6.764  10.403  1.00  0.00    -0.297 OA
HETATM   15  C22 UNL     1      -0.783   7.863  12.415  1.00  0.00     0.080 C 
HETATM   16  C23 UNL     1      -2.176   8.049  12.998  1.00  0.00     0.017 C 
HETATM   17  C24 UNL     1      -2.709   6.806  13.752  1.00  0.00    -0.031 C 
HETATM   18  C25 UNL     1      -1.837   6.602  15.023  1.00  0.00     0.016 C 
HETATM   19  C26 UNL     1      -4.211   6.999  14.286  1.00  0.00     0.024 C 
HETATM   20  C27 UNL     1      -4.915   8.325  13.914  1.00  0.00     0.010 C 
HETATM   21  C28 UNL     1      -6.330   8.532  14.530  1.00  0.00     0.011 C 
HETATM   22  C29 UNL     1      -7.004   7.253  15.065  1.00  0.00    -0.029 C 
HETATM   23  C30 UNL     1      -6.504   7.041  16.546  1.00  0.00     0.016 C 
ENDROOT
BRANCH   1  24
HETATM   24  C2  UNL     1      -9.561   8.226  14.623  1.00  0.00    -0.014 C 
HETATM   25  C1  UNL     1      -9.421   9.662  15.129  1.00  0.00     0.010 C 
BRANCH  24  26
HETATM   26  C3  UNL     1     -11.055   7.805  14.667  1.00  0.00     0.007 C 
BRANCH  26  27
HETATM   27  C4  UNL     1     -11.617   7.363  13.309  1.00  0.00     0.035 C 
BRANCH  27  28
HETATM   28  C5  UNL     1     -12.936   8.040  12.883  1.00  0.00     0.154 C 
BRANCH  28  29
HETATM   29  O1  UNL     1     -12.932   9.396  13.367  1.00  0.00    -0.392 OA
HETATM   30  H10 UNL     1     -12.122   9.821  13.029  1.00  0.00     0.210 HD
ENDBRANCH  28  29
BRANCH  28  31
HETATM   31  C6  UNL     1     -14.258   7.370  13.359  1.00  0.00     0.101 C 
HETATM   32  C7  UNL     1     -15.363   7.457  12.305  1.00  0.00     0.051 C 
BRANCH  31  33
HETATM   33  O2  UNL     1     -14.010   5.980  13.633  1.00  0.00    -0.385 OA
HETATM   34  H14 UNL     1     -13.141   5.961  14.081  1.00  0.00     0.210 HD
ENDBRANCH  31  33
BRANCH  31  35
HETATM   35  C8  UNL     1     -14.741   8.015  14.680  1.00  0.00     0.204 C 
BRANCH  35  36
HETATM   36  O3  UNL     1     -14.015   9.199  14.997  1.00  0.00    -0.398 OA
HETATM   37  H17 UNL     1     -13.577   9.042  15.854  1.00  0.00     0.209 HD
ENDBRANCH  35  36
ENDBRANCH  31  35
ENDBRANCH  28  31
ENDBRANCH  27  28
ENDBRANCH  26  27
ENDBRANCH  24  26
ENDBRANCH   1  24
TORSDOF 9
ENDMDL
MODEL 4
REMARK minimizedAffinity -8.56989002
REMARK CNNscore 0.363033861
REMARK CNNaffinity 6.80341387
REMARK  9 active torsions:
REMARK  status: ('A' for Active; 'I' for Inactive)
REMARK    1  A    between atoms: C2_2  and  C3_3 
REMARK    2  A    between atoms: C2_2  and  C9_12 
REMARK    3  A    between atoms: C3_3  and  C4_4 
REMARK    4  A    between atoms: C4_4  and  C5_5 
REMARK    5  A    between atoms: C5_5  and  O1_6 
REMARK    6  A    between atoms: C5_5  and  C6_7 
REMARK    7  A    between atoms: C6_7  and  O2_9 
REMARK    8  A    between atoms: C6_7  and  C8_10 
REMARK    9  A    between atoms: C8_10  and  O3_11 
ROOT
HETATM    1  C9  UNL     1       1.727   7.723  11.412  1.00  0.00    -0.002 C 
HETATM    2  C10 UNL     1       1.661   9.102  12.132  1.00  0.00     0.007 C 
HETATM    3  C11 UNL     1       0.521   9.020  13.164  1.00  0.00     0.015 C 
HETATM    4  C12 UNL     1      -0.472   8.026  12.536  1.00  0.00    -0.013 C 
HETATM    5  C13 UNL     1      -1.246   8.820  11.434  1.00  0.00     0.021 C 
HETATM    6  C14 UNL     1      -1.576   7.428  13.413  1.00  0.00    -0.070 C 
HETATM    7  C15 UNL     1      -2.178   8.155  14.372  1.00  0.00    -0.022 C 
HETATM    8  C16 UNL     1      -3.479   7.761  14.998  1.00  0.00     0.034 C 
HETATM    9  C17 UNL     1      -4.305   6.913  14.006  1.00  0.00     0.013 C 
HETATM   10  C18 UNL     1      -5.813   6.746  14.416  1.00  0.00     0.018 C 
HETATM   11  C19 UNL     1      -6.520   8.123  14.304  1.00  0.00     0.023 C 
HETATM   12  C20 UNL     1      -6.059   6.234  15.844  1.00  0.00     0.023 C 
HETATM   13  C21 UNL     1      -6.509   5.787  13.437  1.00  0.00     0.135 C 
HETATM   14  O4  UNL     1      -7.671   5.962  13.060  1.00  0.00    -0.297 OA
HETATM   15  C22 UNL     1      -5.773   4.534  13.032  1.00  0.00     0.080 C 
HETATM   16  C23 UNL     1      -4.361   4.850  12.563  1.00  0.00     0.017 C 
HETATM   17  C24 UNL     1      -3.513   5.618  13.607  1.00  0.00    -0.031 C 
HETATM   18  C25 UNL     1      -3.263   4.673  14.816  1.00  0.00     0.016 C 
HETATM   19  C26 UNL     1      -2.057   6.011  13.057  1.00  0.00     0.024 C 
HETATM   20  C27 UNL     1      -1.748   5.647  11.586  1.00  0.00     0.010 C 
HETATM   21  C28 UNL     1      -0.296   5.943  11.108  1.00  0.00     0.011 C 
HETATM   22  C29 UNL     1       0.499   6.919  11.998  1.00  0.00    -0.029 C 
HETATM   23  C30 UNL     1       1.162   6.071  13.152  1.00  0.00     0.016 C 
ENDROOT
BRANCH   1  24
HETATM   24  C2  UNL     1       2.069   7.809   9.895  1.00  0.00    -0.014 C 
HETATM   25  C1  UNL     1       0.896   8.032   8.939  1.00  0.00     0.010 C 
BRANCH  24  26
HETATM   26  C3  UNL     1       2.953   6.647   9.367  1.00  0.00     0.007 C 
BRANCH  26  27
HETATM   27  C4  UNL     1       3.742   5.918  10.464  1.00  0.00     0.035 C 
BRANCH  27  28
HETATM   28  C5  UNL     1       5.182   6.422  10.693  1.00  0.00     0.154 C 
BRANCH  28  29
HETATM   29  O1  UNL     1       6.065   5.284  10.730  1.00  0.00    -0.392 OA
HETATM   30  H10 UNL     1       5.928   4.787   9.902  1.00  0.00     0.210 HD
ENDBRANCH  28  29
BRANCH  28  31
HETATM   31  C6  UNL     1       5.439   7.263  11.978  1.00  0.00     0.101 C 
HETATM   32  C7  UNL     1       5.458   8.765  11.691  1.00  0.00     0.051 C 
BRANCH  31  33
HETATM   33  O2  UNL     1       4.392   7.002  12.929  1.00  0.00    -0.385 OA
HETATM   34  H14 UNL     1       4.233   6.039  12.873  1.00  0.00     0.210 HD
ENDBRANCH  31  33
BRANCH  31  35
HETATM   35  C8  UNL     1       6.771   6.838  12.640  1.00  0.00     0.204 C 
BRANCH  35  36
HETATM   36  O3  UNL     1       7.900   7.437  12.009  1.00  0.00    -0.398 OA
HETATM   37  H17 UNL     1       8.452   6.709  11.668  1.00  0.00     0.209 HD
ENDBRANCH  35  36
ENDBRANCH  31  35
ENDBRANCH  28  31
ENDBRANCH  27  28
ENDBRANCH  26  27
ENDBRANCH  24  26
ENDBRANCH   1  24
TORSDOF 9
ENDMDL
MODEL 5
REMARK minimizedAffinity -6.59026337
REMARK CNNscore 0.352599442
REMARK CNNaffinity 5.58004951
REMARK  9 active torsions:
REMARK  status: ('A' for Active; 'I' for Inactive)
REMARK    1  A    between atoms: C2_2  and  C3_3 
REMARK    2  A    between atoms: C2_2  and  C9_12 
REMARK    3  A    between atoms: C3_3  and  C4_4 
REMARK    4  A    between atoms: C4_4  and  C5_5 
REMARK    5  A    between atoms: C5_5  and  O1_6 
REMARK    6  A    between atoms: C5_5  and  C6_7 
REMARK    7  A    between atoms: C6_7  and  O2_9 
REMARK    8  A    between atoms: C6_7  and  C8_10 
REMARK    9  A    between atoms: C8_10  and  O3_11 
ROOT
HETATM    1  C9  UNL     1      -5.822 -10.840   6.037  1.00  0.00    -0.002 C 
HETATM    2  C10 UNL     1      -7.361 -10.927   6.254  1.00  0.00     0.007 C 
HETATM    3  C11 UNL     1      -7.989 -11.304   4.900  1.00  0.00     0.015 C 
HETATM    4  C12 UNL     1      -7.027 -10.691   3.866  1.00  0.00    -0.013 C 
HETATM    5  C13 UNL     1      -7.347  -9.162   3.824  1.00  0.00     0.021 C 
HETATM    6  C14 UNL     1      -7.129 -11.137   2.404  1.00  0.00    -0.070 C 
HETATM    7  C15 UNL     1      -8.320 -11.410   1.838  1.00  0.00    -0.022 C 
HETATM    8  C16 UNL     1      -8.519 -11.490   0.357  1.00  0.00     0.034 C 
HETATM    9  C17 UNL     1      -7.482 -10.600  -0.363  1.00  0.00     0.013 C 
HETATM   10  C18 UNL     1      -7.816 -10.330  -1.874  1.00  0.00     0.018 C 
HETATM   11  C19 UNL     1      -9.089  -9.445  -1.958  1.00  0.00     0.023 C 
HETATM   12  C20 UNL     1      -8.086 -11.580  -2.727  1.00  0.00     0.023 C 
HETATM   13  C21 UNL     1      -6.664  -9.546  -2.524  1.00  0.00     0.135 C 
HETATM   14  O4  UNL     1      -6.862  -8.660  -3.360  1.00  0.00    -0.297 OA
HETATM   15  C22 UNL     1      -5.252  -9.973  -2.207  1.00  0.00     0.080 C 
HETATM   16  C23 UNL     1      -5.038 -10.100  -0.707  1.00  0.00     0.017 C 
HETATM   17  C24 UNL     1      -6.026 -11.070  -0.014  1.00  0.00    -0.031 C 
HETATM   18  C25 UNL     1      -5.724 -12.509  -0.520  1.00  0.00     0.016 C 
HETATM   19  C26 UNL     1      -5.831 -11.123   1.579  1.00  0.00     0.024 C 
HETATM   20  C27 UNL     1      -4.772 -10.170   2.182  1.00  0.00     0.010 C 
HETATM   21  C28 UNL     1      -4.528 -10.315   3.712  1.00  0.00     0.011 C 
HETATM   22  C29 UNL     1      -5.634 -11.062   4.483  1.00  0.00    -0.029 C 
HETATM   23  C30 UNL     1      -5.313 -12.604   4.391  1.00  0.00     0.016 C 
ENDROOT
BRANCH   1  24
HETATM   24  C2  UNL     1      -5.124  -9.708   6.847  1.00  0.00    -0.014 C 
HETATM   25  C1  UNL     1      -3.600  -9.627   6.738  1.00  0.00     0.010 C 
BRANCH  24  26
HETATM   26  C3  UNL     1      -5.540  -9.632   8.340  1.00  0.00     0.007 C 
BRANCH  26  27
HETATM   27  C4  UNL     1      -6.397  -8.406   8.685  1.00  0.00     0.035 C 
BRANCH  27  28
HETATM   28  C5  UNL     1      -7.512  -8.644   9.724  1.00  0.00     0.154 C 
BRANCH  28  29
HETATM   29  O1  UNL     1      -8.619  -7.776   9.416  1.00  0.00    -0.392 OA
HETATM   30  H10 UNL     1      -8.873  -7.951   8.490  1.00  0.00     0.210 HD
ENDBRANCH  28  29
BRANCH  28  31
HETATM   31  C6  UNL     1      -7.139  -8.426  11.220  1.00  0.00     0.101 C 
HETATM   32  C7  UNL     1      -5.770  -9.011  11.566  1.00  0.00     0.051 C 
BRANCH  31  33
HETATM   33  O2  UNL     1      -7.105  -7.015  11.496  1.00  0.00    -0.385 OA
HETATM   34  H14 UNL     1      -7.872  -6.644  11.016  1.00  0.00     0.210 HD
ENDBRANCH  31  33
BRANCH  31  35
HETATM   35  C8  UNL     1      -8.222  -9.043  12.138  1.00  0.00     0.204 C 
BRANCH  35  36
HETATM   36  O3  UNL     1      -9.110  -8.058  12.659  1.00  0.00    -0.398 OA
HETATM   37  H17 UNL     1      -9.026  -8.088  13.631  1.00  0.00     0.209 HD
ENDBRANCH  35  36
ENDBRANCH  31  35
ENDBRANCH  28  31
ENDBRANCH  27  28
ENDBRANCH  26  27
ENDBRANCH  24  26
ENDBRANCH   1  24
TORSDOF 9
ENDMDL
MODEL 6
REMARK minimizedAffinity -7.36500835
REMARK CNNscore 0.34135735
REMARK CNNaffinity 5.33541822
REMARK  9 active torsions:
REMARK  status: ('A' for Active; 'I' for Inactive)
REMARK    1  A    between atoms: C2_2  and  C3_3 
REMARK    2  A    between atoms: C2_2  and  C9_12 
REMARK    3  A    between atoms: C3_3  and  C4_4 
REMARK    4  A    between atoms: C4_4  and  C5_5 
REMARK    5  A    between atoms: C5_5  and  O1_6 
REMARK    6  A    between atoms: C5_5  and  C6_7 
REMARK    7  A    between atoms: C6_7  and  O2_9 
REMARK    8  A    between atoms: C6_7  and  C8_10 
REMARK    9  A    between atoms: C8_10  and  O3_11 
ROOT
HETATM    1  C9  UNL     1      -5.395 -10.785   6.290  1.00  0.00    -0.002 C 
HETATM    2  C10 UNL     1      -5.700 -10.041   4.957  1.00  0.00     0.007 C 
HETATM    3  C11 UNL     1      -4.927 -10.772   3.843  1.00  0.00     0.015 C 
HETATM    4  C12 UNL     1      -3.689 -11.335   4.565  1.00  0.00    -0.013 C 
HETATM    5  C13 UNL     1      -2.706 -10.134   4.746  1.00  0.00     0.021 C 
HETATM    6  C14 UNL     1      -2.848 -12.408   3.865  1.00  0.00    -0.070 C 
HETATM    7  C15 UNL     1      -2.648 -12.381   2.534  1.00  0.00    -0.022 C 
HETATM    8  C16 UNL     1      -1.566 -13.161   1.856  1.00  0.00     0.034 C 
HETATM    9  C17 UNL     1      -0.391 -13.389   2.833  1.00  0.00     0.013 C 
HETATM   10  C18 UNL     1       0.929 -13.879   2.135  1.00  0.00     0.018 C 
HETATM   11  C19 UNL     1       1.486 -12.732   1.250  1.00  0.00     0.023 C 
HETATM   12  C20 UNL     1       0.781 -15.111   1.228  1.00  0.00     0.023 C 
HETATM   13  C21 UNL     1       1.989 -14.196   3.203  1.00  0.00     0.135 C 
HETATM   14  O4  UNL     1       3.184 -13.940   3.038  1.00  0.00    -0.297 OA
HETATM   15  C22 UNL     1       1.550 -14.953   4.432  1.00  0.00     0.080 C 
HETATM   16  C23 UNL     1       0.322 -14.314   5.064  1.00  0.00     0.017 C 
HETATM   17  C24 UNL     1      -0.880 -14.179   4.098  1.00  0.00    -0.031 C 
HETATM   18  C25 UNL     1      -1.385 -15.609   3.752  1.00  0.00     0.016 C 
HETATM   19  C26 UNL     1      -2.133 -13.429   4.766  1.00  0.00     0.024 C 
HETATM   20  C27 UNL     1      -1.938 -12.896   6.204  1.00  0.00     0.010 C 
HETATM   21  C28 UNL     1      -3.198 -12.267   6.867  1.00  0.00     0.011 C 
HETATM   22  C29 UNL     1      -4.326 -11.879   5.890  1.00  0.00    -0.029 C 
HETATM   23  C30 UNL     1      -5.214 -13.163   5.663  1.00  0.00     0.016 C 
ENDROOT
BRANCH   1  24
HETATM   24  C2  UNL     1      -5.266  -9.852   7.529  1.00  0.00    -0.014 C 
HETATM   25  C1  UNL     1      -3.846  -9.510   7.985  1.00  0.00     0.010 C 
BRANCH  24  26
HETATM   26  C3  UNL     1      -6.113 -10.286   8.755  1.00  0.00     0.007 C 
BRANCH  26  27
HETATM   27  C4  UNL     1      -5.295 -10.474  10.041  1.00  0.00     0.035 C 
BRANCH  27  28
HETATM   28  C5  UNL     1      -5.395  -9.327  11.067  1.00  0.00     0.154 C 
BRANCH  28  29
HETATM   29  O1  UNL     1      -4.157  -9.258  11.799  1.00  0.00    -0.392 OA
HETATM   30  H10 UNL     1      -3.440  -9.164  11.145  1.00  0.00     0.210 HD
ENDBRANCH  28  29
BRANCH  28  31
HETATM   31  C6  UNL     1      -6.555  -9.408  12.102  1.00  0.00     0.101 C 
HETATM   32  C7  UNL     1      -6.848 -10.846  12.533  1.00  0.00     0.051 C 
BRANCH  31  33
HETATM   33  O2  UNL     1      -6.195  -8.655  13.274  1.00  0.00    -0.385 OA
HETATM   34  H14 UNL     1      -5.760  -7.849  12.933  1.00  0.00     0.210 HD
ENDBRANCH  31  33
BRANCH  31  35
HETATM   35  C8  UNL     1      -7.837  -8.762  11.523  1.00  0.00     0.204 C 
BRANCH  35  36
HETATM   36  O3  UNL     1      -8.722  -8.313  12.546  1.00  0.00    -0.398 OA
HETATM   37  H17 UNL     1      -9.557  -8.804  12.433  1.00  0.00     0.209 HD
ENDBRANCH  35  36
ENDBRANCH  31  35
ENDBRANCH  28  31
ENDBRANCH  27  28
ENDBRANCH  26  27
ENDBRANCH  24  26
ENDBRANCH   1  24
TORSDOF 9
ENDMDL
MODEL 7
REMARK minimizedAffinity -8.86985493
REMARK CNNscore 0.321093798
REMARK CNNaffinity 6.79038572
REMARK  9 active torsions:
REMARK  status: ('A' for Active; 'I' for Inactive)
REMARK    1  A    between atoms: C2_2  and  C3_3 
REMARK    2  A    between atoms: C2_2  and  C9_12 
REMARK    3  A    between atoms: C3_3  and  C4_4 
REMARK    4  A    between atoms: C4_4  and  C5_5 
REMARK    5  A    between atoms: C5_5  and  O1_6 
REMARK    6  A    between atoms: C5_5  and  C6_7 
REMARK    7  A    between atoms: C6_7  and  O2_9 
REMARK    8  A    between atoms: C6_7  and  C8_10 
REMARK    9  A    between atoms: C8_10  and  O3_11 
ROOT
HETATM    1  C9  UNL     1      -3.445   8.272  14.762  1.00  0.00    -0.002 C 
HETATM    2  C10 UNL     1      -3.036   7.038  15.619  1.00  0.00     0.007 C 
HETATM    3  C11 UNL     1      -1.602   6.657  15.209  1.00  0.00     0.015 C 
HETATM    4  C12 UNL     1      -1.516   7.085  13.733  1.00  0.00    -0.013 C 
HETATM    5  C13 UNL     1      -2.265   5.983  12.915  1.00  0.00     0.021 C 
HETATM    6  C14 UNL     1      -0.139   7.176  13.067  1.00  0.00    -0.070 C 
HETATM    7  C15 UNL     1       0.840   6.302  13.363  1.00  0.00    -0.022 C 
HETATM    8  C16 UNL     1       2.051   6.112  12.504  1.00  0.00     0.034 C 
HETATM    9  C17 UNL     1       1.717   6.466  11.038  1.00  0.00     0.013 C 
HETATM   10  C18 UNL     1       2.793   5.972  10.005  1.00  0.00     0.018 C 
HETATM   11  C19 UNL     1       2.771   4.421   9.958  1.00  0.00     0.023 C 
HETATM   12  C20 UNL     1       4.242   6.388  10.307  1.00  0.00     0.023 C 
HETATM   13  C21 UNL     1       2.431   6.484   8.601  1.00  0.00     0.135 C 
HETATM   14  O4  UNL     1       2.602   5.799   7.589  1.00  0.00    -0.297 OA
HETATM   15  C22 UNL     1       1.967   7.913   8.467  1.00  0.00     0.080 C 
HETATM   16  C23 UNL     1       0.857   8.228   9.458  1.00  0.00     0.017 C 
HETATM   17  C24 UNL     1       1.240   7.958  10.933  1.00  0.00    -0.031 C 
HETATM   18  C25 UNL     1       2.349   8.971  11.338  1.00  0.00     0.016 C 
HETATM   19  C26 UNL     1       0.025   8.221  11.949  1.00  0.00     0.024 C 
HETATM   20  C27 UNL     1      -1.332   8.617  11.322  1.00  0.00     0.010 C 
HETATM   21  C28 UNL     1      -2.464   8.967  12.331  1.00  0.00     0.011 C 
HETATM   22  C29 UNL     1      -2.228   8.480  13.774  1.00  0.00    -0.029 C 
HETATM   23  C30 UNL     1      -1.374   9.584  14.510  1.00  0.00     0.016 C 
ENDROOT
BRANCH   1  24
HETATM   24  C2  UNL     1      -4.938   8.277  14.319  1.00  0.00    -0.014 C 
HETATM   25  C1  UNL     1      -5.973   8.589  15.401  1.00  0.00     0.010 C 
BRANCH  24  26
HETATM   26  C3  UNL     1      -5.380   7.018  13.527  1.00  0.00     0.007 C 
BRANCH  26  27
HETATM   27  C4  UNL     1      -5.903   5.878  14.413  1.00  0.00     0.035 C 
BRANCH  27  28
HETATM   28  C5  UNL     1      -7.383   5.497  14.203  1.00  0.00     0.154 C 
BRANCH  28  29
HETATM   29  O1  UNL     1      -7.862   4.849  15.397  1.00  0.00    -0.392 OA
HETATM   30  H10 UNL     1      -7.694   5.455  16.142  1.00  0.00     0.210 HD
ENDBRANCH  28  29
BRANCH  28  31
HETATM   31  C6  UNL     1      -7.707   4.570  12.996  1.00  0.00     0.101 C 
HETATM   32  C7  UNL     1      -6.456   3.893  12.434  1.00  0.00     0.051 C 
BRANCH  31  33
HETATM   33  O2  UNL     1      -8.619   3.542  13.422  1.00  0.00    -0.385 OA
HETATM   34  H14 UNL     1      -9.255   3.996  14.010  1.00  0.00     0.210 HD
ENDBRANCH  31  33
BRANCH  31  35
HETATM   35  C8  UNL     1      -8.417   5.372  11.879  1.00  0.00     0.204 C 
BRANCH  35  36
HETATM   36  O3  UNL     1      -9.439   6.221  12.394  1.00  0.00    -0.398 OA
HETATM   37  H17 UNL     1     -10.277   5.934  11.987  1.00  0.00     0.209 HD
ENDBRANCH  35  36
ENDBRANCH  31  35
ENDBRANCH  28  31
ENDBRANCH  27  28
ENDBRANCH  26  27
ENDBRANCH  24  26
ENDBRANCH   1  24
TORSDOF 9
ENDMDL
MODEL 8
REMARK minimizedAffinity -9.34086704
REMARK CNNscore 0.303427219
REMARK CNNaffinity 7.08849001
REMARK  9 active torsions:
REMARK  status: ('A' for Active; 'I' for Inactive)
REMARK    1  A    between atoms: C2_2  and  C3_3 
REMARK    2  A    between atoms: C2_2  and  C9_12 
REMARK    3  A    between atoms: C3_3  and  C4_4 
REMARK    4  A    between atoms: C4_4  and  C5_5 
REMARK    5  A    between atoms: C5_5  and  O1_6 
REMARK    6  A    between atoms: C5_5  and  C6_7 
REMARK    7  A    between atoms: C6_7  and  O2_9 
REMARK    8  A    between atoms: C6_7  and  C8_10 
REMARK    9  A    between atoms: C8_10  and  O3_11 
ROOT
HETATM    1  C9  UNL     1      -5.294   4.950  13.945  1.00  0.00    -0.002 C 
HETATM    2  C10 UNL     1      -4.745   5.757  15.158  1.00  0.00     0.007 C 
HETATM    3  C11 UNL     1      -5.947   6.457  15.818  1.00  0.00     0.015 C 
HETATM    4  C12 UNL     1      -6.918   6.699  14.648  1.00  0.00    -0.013 C 
HETATM    5  C13 UNL     1      -6.362   7.932  13.866  1.00  0.00     0.021 C 
HETATM    6  C14 UNL     1      -8.371   7.073  14.957  1.00  0.00    -0.070 C 
HETATM    7  C15 UNL     1      -8.683   7.864  16.000  1.00  0.00    -0.022 C 
HETATM    8  C16 UNL     1     -10.006   8.550  16.137  1.00  0.00     0.034 C 
HETATM    9  C17 UNL     1     -10.617   8.799  14.740  1.00  0.00     0.013 C 
HETATM   10  C18 UNL     1     -11.816   9.814  14.743  1.00  0.00     0.018 C 
HETATM   11  C19 UNL     1     -11.279  11.227  15.097  1.00  0.00     0.023 C 
HETATM   12  C20 UNL     1     -12.945   9.503  15.738  1.00  0.00     0.023 C 
HETATM   13  C21 UNL     1     -12.428   9.891  13.334  1.00  0.00     0.135 C 
HETATM   14  O4  UNL     1     -12.840  10.951  12.854  1.00  0.00    -0.297 OA
HETATM   15  C22 UNL     1     -12.633   8.601  12.581  1.00  0.00     0.080 C 
HETATM   16  C23 UNL     1     -11.366   7.760  12.571  1.00  0.00     0.017 C 
HETATM   17  C24 UNL     1     -10.818   7.438  13.984  1.00  0.00    -0.031 C 
HETATM   18  C25 UNL     1     -11.837   6.503  14.696  1.00  0.00     0.016 C 
HETATM   19  C26 UNL     1      -9.437   6.620  13.944  1.00  0.00     0.024 C 
HETATM   20  C27 UNL     1      -8.831   6.348  12.547  1.00  0.00     0.010 C 
HETATM   21  C28 UNL     1      -7.549   5.465  12.529  1.00  0.00     0.011 C 
HETATM   22  C29 UNL     1      -6.827   5.333  13.885  1.00  0.00    -0.029 C 
HETATM   23  C30 UNL     1      -7.509   4.145  14.668  1.00  0.00     0.016 C 
ENDROOT
BRANCH   1  24
HETATM   24  C2  UNL     1      -4.350   4.935  12.707  1.00  0.00    -0.014 C 
HETATM   25  C1  UNL     1      -4.785   4.068  11.523  1.00  0.00     0.010 C 
BRANCH  24  26
HETATM   26  C3  UNL     1      -2.860   4.652  13.035  1.00  0.00     0.007 C 
BRANCH  26  27
HETATM   27  C4  UNL     1      -1.981   4.426  11.796  1.00  0.00     0.035 C 
BRANCH  27  28
HETATM   28  C5  UNL     1      -1.186   3.105  11.776  1.00  0.00     0.154 C 
BRANCH  28  29
HETATM   29  O1  UNL     1       0.138   3.375  11.278  1.00  0.00    -0.392 OA
HETATM   30  H10 UNL     1       0.519   4.078  11.838  1.00  0.00     0.210 HD
ENDBRANCH  28  29
BRANCH  28  31
HETATM   31  C6  UNL     1      -1.780   1.937  10.936  1.00  0.00     0.101 C 
HETATM   32  C7  UNL     1      -2.990   1.293  11.615  1.00  0.00     0.051 C 
BRANCH  31  33
HETATM   33  O2  UNL     1      -2.201   2.443   9.657  1.00  0.00    -0.385 OA
HETATM   34  H14 UNL     1      -1.500   3.069   9.389  1.00  0.00     0.210 HD
ENDBRANCH  31  33
BRANCH  31  35
HETATM   35  C8  UNL     1      -0.697   0.865  10.667  1.00  0.00     0.204 C 
BRANCH  35  36
HETATM   36  O3  UNL     1      -0.538   0.599   9.276  1.00  0.00    -0.398 OA
HETATM   37  H17 UNL     1      -0.748  -0.344   9.142  1.00  0.00     0.209 HD
ENDBRANCH  35  36
ENDBRANCH  31  35
ENDBRANCH  28  31
ENDBRANCH  27  28
ENDBRANCH  26  27
ENDBRANCH  24  26
ENDBRANCH   1  24
TORSDOF 9
ENDMDL
MODEL 9
REMARK minimizedAffinity -7.02527905
REMARK CNNscore 0.278769225
REMARK CNNaffinity 5.60413361
REMARK  9 active torsions:
REMARK  status: ('A' for Active; 'I' for Inactive)
REMARK    1  A    between atoms: C2_2  and  C3_3 
REMARK    2  A    between atoms: C2_2  and  C9_12 
REMARK    3  A    between atoms: C3_3  and  C4_4 
REMARK    4  A    between atoms: C4_4  and  C5_5 
REMARK    5  A    between atoms: C5_5  and  O1_6 
REMARK    6  A    between atoms: C5_5  and  C6_7 
REMARK    7  A    between atoms: C6_7  and  O2_9 
REMARK    8  A    between atoms: C6_7  and  C8_10 
REMARK    9  A    between atoms: C8_10  and  O3_11 
ROOT
HETATM    1  C9  UNL     1       7.786  10.143  13.448  1.00  0.00    -0.002 C 
HETATM    2  C10 UNL     1       6.995  10.238  14.785  1.00  0.00     0.007 C 
HETATM    3  C11 UNL     1       5.709   9.409  14.610  1.00  0.00     0.015 C 
HETATM    4  C12 UNL     1       5.402   9.521  13.106  1.00  0.00    -0.013 C 
HETATM    5  C13 UNL     1       4.769  10.934  12.893  1.00  0.00     0.021 C 
HETATM    6  C14 UNL     1       4.387   8.557  12.483  1.00  0.00    -0.070 C 
HETATM    7  C15 UNL     1       3.294   8.159  13.160  1.00  0.00    -0.022 C 
HETATM    8  C16 UNL     1       2.108   7.532  12.498  1.00  0.00     0.034 C 
HETATM    9  C17 UNL     1       2.006   8.015  11.034  1.00  0.00     0.013 C 
HETATM   10  C18 UNL     1       0.621   7.705  10.359  1.00  0.00     0.018 C 
HETATM   11  C19 UNL     1      -0.476   8.565  11.042  1.00  0.00     0.023 C 
HETATM   12  C20 UNL     1       0.156   6.242  10.440  1.00  0.00     0.023 C 
HETATM   13  C21 UNL     1       0.670   8.110   8.876  1.00  0.00     0.135 C 
HETATM   14  O4  UNL     1      -0.297   8.619   8.302  1.00  0.00    -0.297 OA
HETATM   15  C22 UNL     1       1.905   7.754   8.087  1.00  0.00     0.080 C 
HETATM   16  C23 UNL     1       3.168   8.198   8.808  1.00  0.00     0.017 C 
HETATM   17  C24 UNL     1       3.303   7.628  10.241  1.00  0.00    -0.031 C 
HETATM   18  C25 UNL     1       3.502   6.089  10.132  1.00  0.00     0.016 C 
HETATM   19  C26 UNL     1       4.602   8.177  11.008  1.00  0.00     0.024 C 
HETATM   20  C27 UNL     1       5.462   9.222  10.260  1.00  0.00     0.010 C 
HETATM   21  C28 UNL     1       6.770   9.660  10.980  1.00  0.00     0.011 C 
HETATM   22  C29 UNL     1       6.829   9.333  12.485  1.00  0.00    -0.029 C 
HETATM   23  C30 UNL     1       7.369   7.857  12.625  1.00  0.00     0.016 C 
ENDROOT
BRANCH   1  24
HETATM   24  C2  UNL     1       8.522  11.455  13.044  1.00  0.00    -0.014 C 
HETATM   25  C1  UNL     1       7.641  12.666  12.729  1.00  0.00     0.010 C 
BRANCH  24  26
HETATM   26  C3  UNL     1       9.582  11.281  11.924  1.00  0.00     0.007 C 
BRANCH  26  27
HETATM   27  C4  UNL     1       9.858  12.563  11.125  1.00  0.00     0.035 C 
BRANCH  27  28
HETATM   28  C5  UNL     1      10.340  12.351   9.675  1.00  0.00     0.154 C 
BRANCH  28  29
HETATM   29  O1  UNL     1       9.913  11.048   9.236  1.00  0.00    -0.392 OA
HETATM   30  H10 UNL     1       8.946  11.004   9.360  1.00  0.00     0.210 HD
ENDBRANCH  28  29
BRANCH  28  31
HETATM   31  C6  UNL     1      11.872  12.460   9.418  1.00  0.00     0.101 C 
HETATM   32  C7  UNL     1      12.214  13.576   8.429  1.00  0.00     0.051 C 
BRANCH  31  33
HETATM   33  O2  UNL     1      12.539  12.743  10.660  1.00  0.00    -0.385 OA
HETATM   34  H14 UNL     1      12.088  12.185  11.323  1.00  0.00     0.210 HD
ENDBRANCH  31  33
BRANCH  31  35
HETATM   35  C8  UNL     1      12.426  11.112   8.901  1.00  0.00     0.204 C 
BRANCH  35  36
HETATM   36  O3  UNL     1      13.544  10.662   9.662  1.00  0.00    -0.398 OA
HETATM   37  H17 UNL     1      14.299  10.601   9.048  1.00  0.00     0.209 HD
ENDBRANCH  35  36
ENDBRANCH  31  35
ENDBRANCH  28  31
ENDBRANCH  27  28
ENDBRANCH  26  27
ENDBRANCH  24  26
ENDBRANCH   1  24
TORSDOF 9
ENDMDL
