MODEL 1
REMARK minimizedAffinity -7.39892006
REMARK CNNscore 0.593666971
REMARK CNNaffinity 6.7819066
REMARK  6 active torsions:
REMARK  status: ('A' for Active; 'I' for Inactive)
REMARK    1  A    between atoms: C2_2  and  C3_3 
REMARK    2  A    between atoms: C4_5  and  C5_6 
REMARK    3  A    between atoms: C5_6  and  C6_7 
REMARK    4  A    between atoms: C6_7  and  C7_8 
REMARK    5  A    between atoms: C7_8  and  C9_10 
REMARK    6  A    between atoms: C30_32  and  O3_33 
ROOT
HETATM    1  C9  UNL     1      -0.475  11.890  18.198  1.00  0.00    -0.002 C 
HETATM    2  C10 UNL     1      -1.633  12.915  18.055  1.00  0.00     0.007 C 
HETATM    3  C11 UNL     1      -2.662  12.319  17.076  1.00  0.00     0.015 C 
HETATM    4  C12 UNL     1      -2.266  10.838  16.921  1.00  0.00    -0.010 C 
HETATM    5  C13 UNL     1      -2.886  10.064  18.126  1.00  0.00     0.021 C 
HETATM    6  C14 UNL     1      -2.701  10.054  15.681  1.00  0.00    -0.039 C 
HETATM    7  C15 UNL     1      -1.925   9.037  15.215  1.00  0.00    -0.066 C 
HETATM    8  C16 UNL     1      -0.592   8.675  15.875  1.00  0.00     0.036 C 
HETATM    9  C17 UNL     1      -0.111   9.555  17.045  1.00  0.00     0.015 C 
HETATM   10  C18 UNL     1      -0.689  10.972  16.956  1.00  0.00    -0.029 C 
HETATM   11  C19 UNL     1      -0.100  11.674  15.692  1.00  0.00     0.016 C 
HETATM   12  C20 UNL     1      -2.283   8.312  13.898  1.00  0.00    -0.015 C 
HETATM   13  C21 UNL     1      -1.744   9.226  12.753  1.00  0.00     0.020 C 
HETATM   14  C22 UNL     1      -1.557   6.943  13.747  1.00  0.00     0.021 C 
HETATM   15  C23 UNL     1      -2.174   6.060  12.679  1.00  0.00     0.080 C 
HETATM   16  C24 UNL     1      -3.576   5.678  13.073  1.00  0.00     0.135 C 
HETATM   17  O2  UNL     1      -4.043   4.597  12.707  1.00  0.00    -0.297 OA
HETATM   18  C25 UNL     1      -4.385   6.675  13.920  1.00  0.00     0.018 C 
HETATM   19  C26 UNL     1      -5.854   6.579  13.439  1.00  0.00     0.023 C 
HETATM   20  C27 UNL     1      -4.328   6.206  15.386  1.00  0.00     0.023 C 
HETATM   21  C28 UNL     1      -3.842   8.136  13.695  1.00  0.00     0.016 C 
HETATM   22  C29 UNL     1      -4.698   9.173  14.455  1.00  0.00     0.043 C 
HETATM   23  C30 UNL     1      -3.978  10.417  14.963  1.00  0.00     0.148 C 
ENDROOT
BRANCH   1  24
HETATM   24  C7  UNL     1       0.898  12.591  18.416  1.00  0.00    -0.014 C 
HETATM   25  C8  UNL     1       1.102  13.797  17.495  1.00  0.00     0.010 C 
BRANCH  24  26
HETATM   26  C6  UNL     1       2.100  11.619  18.279  1.00  0.00     0.008 C 
BRANCH  26  27
HETATM   27  C5  UNL     1       2.966  11.470  19.536  1.00  0.00     0.028 C 
BRANCH  27  28
HETATM   28  C4  UNL     1       2.428  10.390  20.432  1.00  0.00    -0.017 C 
HETATM   29  C2  UNL     1       3.007   9.886  21.538  1.00  0.00    -0.028 C 
HETATM   30  C1  UNL     1       4.300  10.318  22.154  1.00  0.00     0.051 C 
BRANCH  29  31
HETATM   31  C3  UNL     1       2.293   8.790  22.264  1.00  0.00     0.265 C 
HETATM   32  O1  UNL     1       2.695   8.280  23.303  1.00  0.00    -0.302 OA
ENDBRANCH  29  31
ENDBRANCH  27  28
ENDBRANCH  26  27
ENDBRANCH  24  26
ENDBRANCH   1  24
BRANCH  23  33
HETATM   33  O3  UNL     1      -4.889  11.080  15.832  1.00  0.00    -0.391 OA
HETATM   34  H46 UNL     1      -5.653  11.353  15.298  1.00  0.00     0.210 HD
ENDBRANCH  23  33
TORSDOF 6
ENDMDL
MODEL 2
REMARK minimizedAffinity -8.30994225
REMARK CNNscore 0.558187306
REMARK CNNaffinity 6.12328482
REMARK  6 active torsions:
REMARK  status: ('A' for Active; 'I' for Inactive)
REMARK    1  A    between atoms: C2_2  and  C3_3 
REMARK    2  A    between atoms: C4_5  and  C5_6 
REMARK    3  A    between atoms: C5_6  and  C6_7 
REMARK    4  A    between atoms: C6_7  and  C7_8 
REMARK    5  A    between atoms: C7_8  and  C9_10 
REMARK    6  A    between atoms: C30_32  and  O3_33 
ROOT
HETATM    1  C9  UNL     1       7.017   9.354  14.391  1.00  0.00    -0.002 C 
HETATM    2  C10 UNL     1       7.887   8.103  14.090  1.00  0.00     0.007 C 
HETATM    3  C11 UNL     1       7.161   7.284  13.006  1.00  0.00     0.015 C 
HETATM    4  C12 UNL     1       6.065   8.217  12.456  1.00  0.00    -0.010 C 
HETATM    5  C13 UNL     1       6.733   9.137  11.387  1.00  0.00     0.021 C 
HETATM    6  C14 UNL     1       4.836   7.629  11.759  1.00  0.00    -0.039 C 
HETATM    7  C15 UNL     1       3.644   8.286  11.818  1.00  0.00    -0.066 C 
HETATM    8  C16 UNL     1       3.482   9.588  12.606  1.00  0.00     0.036 C 
HETATM    9  C17 UNL     1       4.698  10.099  13.402  1.00  0.00     0.015 C 
HETATM   10  C18 UNL     1       5.636   8.951  13.791  1.00  0.00    -0.029 C 
HETATM   11  C19 UNL     1       4.893   8.017  14.799  1.00  0.00     0.016 C 
HETATM   12  C20 UNL     1       2.365   7.652  11.225  1.00  0.00    -0.015 C 
HETATM   13  C21 UNL     1       1.849   6.652  12.307  1.00  0.00     0.020 C 
HETATM   14  C22 UNL     1       1.225   8.689  11.006  1.00  0.00     0.021 C 
HETATM   15  C23 UNL     1       0.129   8.178  10.089  1.00  0.00     0.080 C 
HETATM   16  C24 UNL     1       0.679   7.954   8.705  1.00  0.00     0.135 C 
HETATM   17  O2  UNL     1      -0.055   8.092   7.724  1.00  0.00    -0.297 OA
HETATM   18  C25 UNL     1       2.155   7.543   8.572  1.00  0.00     0.018 C 
HETATM   19  C26 UNL     1       2.235   6.549   7.387  1.00  0.00     0.023 C 
HETATM   20  C27 UNL     1       2.964   8.800   8.200  1.00  0.00     0.023 C 
HETATM   21  C28 UNL     1       2.639   6.840   9.896  1.00  0.00     0.016 C 
HETATM   22  C29 UNL     1       4.088   6.326   9.757  1.00  0.00     0.043 C 
HETATM   23  C30 UNL     1       4.936   6.315  11.024  1.00  0.00     0.148 C 
ENDROOT
BRANCH   1  24
HETATM   24  C7  UNL     1       7.118   9.786  15.883  1.00  0.00    -0.014 C 
HETATM   25  C8  UNL     1       7.323  11.295  16.052  1.00  0.00     0.010 C 
BRANCH  24  26
HETATM   26  C6  UNL     1       8.221   9.018  16.661  1.00  0.00     0.008 C 
BRANCH  26  27
HETATM   27  C5  UNL     1       9.460   9.845  17.024  1.00  0.00     0.028 C 
BRANCH  27  28
HETATM   28  C4  UNL     1       9.217  10.660  18.263  1.00  0.00    -0.017 C 
HETATM   29  C2  UNL     1      10.139  11.121  19.128  1.00  0.00    -0.028 C 
HETATM   30  C1  UNL     1      11.623  10.966  19.031  1.00  0.00     0.051 C 
BRANCH  29  31
HETATM   31  C3  UNL     1       9.659  11.897  20.314  1.00  0.00     0.265 C 
HETATM   32  O1  UNL     1       9.577  11.438  21.447  1.00  0.00    -0.302 OA
ENDBRANCH  29  31
ENDBRANCH  27  28
ENDBRANCH  26  27
ENDBRANCH  24  26
ENDBRANCH   1  24
BRANCH  23  33
HETATM   33  O3  UNL     1       6.272   6.056  10.608  1.00  0.00    -0.391 OA
HETATM   34  H46 UNL     1       6.287   5.170  10.212  1.00  0.00     0.210 HD
ENDBRANCH  23  33
TORSDOF 6
ENDMDL
MODEL 3
REMARK minimizedAffinity -7.08876038
REMARK CNNscore 0.537292302
REMARK CNNaffinity 6.57451248
REMARK  6 active torsions:
REMARK  status: ('A' for Active; 'I' for Inactive)
REMARK    1  A    between atoms: C2_2  and  C3_3 
REMARK    2  A    between atoms: C4_5  and  C5_6 
REMARK    3  A    between atoms: C5_6  and  C6_7 
REMARK    4  A    between atoms: C6_7  and  C7_8 
REMARK    5  A    between atoms: C7_8  and  C9_10 
REMARK    6  A    between atoms: C30_32  and  O3_33 
ROOT
HETATM    1  C9  UNL     1      -2.471  11.954  16.761  1.00  0.00    -0.002 C 
HETATM    2  C10 UNL     1      -1.293  11.631  17.722  1.00  0.00     0.007 C 
HETATM    3  C11 UNL     1      -0.747  10.244  17.335  1.00  0.00     0.015 C 
HETATM    4  C12 UNL     1      -1.378   9.924  15.966  1.00  0.00    -0.010 C 
HETATM    5  C13 UNL     1      -0.508  10.628  14.878  1.00  0.00     0.021 C 
HETATM    6  C14 UNL     1      -1.499   8.472  15.497  1.00  0.00    -0.039 C 
HETATM    7  C15 UNL     1      -2.522   8.108  14.677  1.00  0.00    -0.066 C 
HETATM    8  C16 UNL     1      -3.595   9.107  14.236  1.00  0.00     0.036 C 
HETATM    9  C17 UNL     1      -3.526  10.532  14.817  1.00  0.00     0.015 C 
HETATM   10  C18 UNL     1      -2.816  10.551  16.175  1.00  0.00    -0.029 C 
HETATM   11  C19 UNL     1      -3.689   9.767  17.207  1.00  0.00     0.016 C 
HETATM   12  C20 UNL     1      -2.731   6.626  14.289  1.00  0.00    -0.015 C 
HETATM   13  C21 UNL     1      -3.487   5.978  15.492  1.00  0.00     0.020 C 
HETATM   14  C22 UNL     1      -3.654   6.453  13.047  1.00  0.00     0.021 C 
HETATM   15  C23 UNL     1      -3.561   5.070  12.429  1.00  0.00     0.080 C 
HETATM   16  C24 UNL     1      -2.177   4.843  11.881  1.00  0.00     0.135 C 
HETATM   17  O2  UNL     1      -2.018   4.109  10.903  1.00  0.00    -0.297 OA
HETATM   18  C25 UNL     1      -0.998   5.537  12.584  1.00  0.00     0.018 C 
HETATM   19  C26 UNL     1       0.196   4.553  12.529  1.00  0.00     0.023 C 
HETATM   20  C27 UNL     1      -0.628   6.787  11.763  1.00  0.00     0.023 C 
HETATM   21  C28 UNL     1      -1.372   5.845  14.083  1.00  0.00     0.016 C 
HETATM   22  C29 UNL     1      -0.173   6.452  14.844  1.00  0.00     0.043 C 
HETATM   23  C30 UNL     1      -0.498   7.441  15.958  1.00  0.00     0.148 C 
ENDROOT
BRANCH   1  24
HETATM   24  C7  UNL     1      -3.577  12.797  17.459  1.00  0.00    -0.014 C 
HETATM   25  C8  UNL     1      -3.646  14.236  16.938  1.00  0.00     0.010 C 
BRANCH  24  26
HETATM   26  C6  UNL     1      -3.441  12.807  19.006  1.00  0.00     0.008 C 
BRANCH  26  27
HETATM   27  C5  UNL     1      -4.119  13.987  19.712  1.00  0.00     0.028 C 
BRANCH  27  28
HETATM   28  C4  UNL     1      -5.381  13.547  20.400  1.00  0.00    -0.017 C 
HETATM   29  C2  UNL     1      -5.781  13.860  21.647  1.00  0.00    -0.028 C 
HETATM   30  C1  UNL     1      -5.081  14.755  22.619  1.00  0.00     0.051 C 
BRANCH  29  31
HETATM   31  C3  UNL     1      -7.073  13.283  22.132  1.00  0.00     0.265 C 
HETATM   32  O1  UNL     1      -7.254  12.866  23.270  1.00  0.00    -0.302 OA
ENDBRANCH  29  31
ENDBRANCH  27  28
ENDBRANCH  26  27
ENDBRANCH  24  26
ENDBRANCH   1  24
BRANCH  23  33
HETATM   33  O3  UNL     1       0.736   8.046  16.327  1.00  0.00    -0.391 OA
HETATM   34  H46 UNL     1       1.308   7.347  16.683  1.00  0.00     0.210 HD
ENDBRANCH  23  33
TORSDOF 6
ENDMDL
MODEL 4
REMARK minimizedAffinity -7.78236103
REMARK CNNscore 0.526448369
REMARK CNNaffinity 6.97327995
REMARK  6 active torsions:
REMARK  status: ('A' for Active; 'I' for Inactive)
REMARK    1  A    between atoms: C2_2  and  C3_3 
REMARK    2  A    between atoms: C4_5  and  C5_6 
REMARK    3  A    between atoms: C5_6  and  C6_7 
REMARK    4  A    between atoms: C6_7  and  C7_8 
REMARK    5  A    between atoms: C7_8  and  C9_10 
REMARK    6  A    between atoms: C30_32  and  O3_33 
ROOT
HETATM    1  C9  UNL     1      -5.756   6.452  15.005  1.00  0.00    -0.002 C 
HETATM    2  C10 UNL     1      -6.093   5.349  13.965  1.00  0.00     0.007 C 
HETATM    3  C11 UNL     1      -4.864   5.184  13.050  1.00  0.00     0.015 C 
HETATM    4  C12 UNL     1      -3.724   5.938  13.760  1.00  0.00    -0.010 C 
HETATM    5  C13 UNL     1      -3.123   4.972  14.829  1.00  0.00     0.021 C 
HETATM    6  C14 UNL     1      -2.520   6.439  12.958  1.00  0.00    -0.039 C 
HETATM    7  C15 UNL     1      -1.856   7.558  13.359  1.00  0.00    -0.066 C 
HETATM    8  C16 UNL     1      -2.307   8.367  14.578  1.00  0.00     0.036 C 
HETATM    9  C17 UNL     1      -3.593   7.919  15.298  1.00  0.00     0.015 C 
HETATM   10  C18 UNL     1      -4.532   7.164  14.351  1.00  0.00    -0.029 C 
HETATM   11  C19 UNL     1      -5.042   8.155  13.256  1.00  0.00     0.016 C 
HETATM   12  C20 UNL     1      -0.715   8.147  12.499  1.00  0.00    -0.015 C 
HETATM   13  C21 UNL     1      -1.416   8.983  11.383  1.00  0.00     0.020 C 
HETATM   14  C22 UNL     1       0.185   9.141  13.292  1.00  0.00     0.021 C 
HETATM   15  C23 UNL     1       1.505   9.424  12.600  1.00  0.00     0.080 C 
HETATM   16  C24 UNL     1       2.332   8.168  12.534  1.00  0.00     0.135 C 
HETATM   17  O2  UNL     1       3.563   8.243  12.552  1.00  0.00    -0.297 OA
HETATM   18  C25 UNL     1       1.595   6.822  12.432  1.00  0.00     0.018 C 
HETATM   19  C26 UNL     1       2.448   5.915  11.512  1.00  0.00     0.023 C 
HETATM   20  C27 UNL     1       1.568   6.191  13.838  1.00  0.00     0.023 C 
HETATM   21  C28 UNL     1       0.168   7.037  11.801  1.00  0.00     0.016 C 
HETATM   22  C29 UNL     1      -0.559   5.690  11.594  1.00  0.00     0.043 C 
HETATM   23  C30 UNL     1      -2.078   5.706  11.715  1.00  0.00     0.148 C 
ENDROOT
BRANCH   1  24
HETATM   24  C7  UNL     1      -7.012   7.280  15.402  1.00  0.00    -0.014 C 
HETATM   25  C8  UNL     1      -7.451   7.037  16.850  1.00  0.00     0.010 C 
BRANCH  24  26
HETATM   26  C6  UNL     1      -8.214   7.049  14.447  1.00  0.00     0.008 C 
BRANCH  26  27
HETATM   27  C5  UNL     1      -9.574   6.891  15.136  1.00  0.00     0.028 C 
BRANCH  27  28
HETATM   28  C4  UNL     1     -10.696   7.022  14.144  1.00  0.00    -0.017 C 
HETATM   29  C2  UNL     1     -11.310   8.154  13.753  1.00  0.00    -0.028 C 
HETATM   30  C1  UNL     1     -10.985   9.549  14.184  1.00  0.00     0.051 C 
BRANCH  29  31
HETATM   31  C3  UNL     1     -12.426   8.040  12.764  1.00  0.00     0.265 C 
HETATM   32  O1  UNL     1     -13.295   7.177  12.806  1.00  0.00    -0.302 OA
ENDBRANCH  29  31
ENDBRANCH  27  28
ENDBRANCH  26  27
ENDBRANCH  24  26
ENDBRANCH   1  24
BRANCH  23  33
HETATM   33  O3  UNL     1      -2.491   4.344  11.744  1.00  0.00    -0.391 OA
HETATM   34  H46 UNL     1      -2.247   3.949  10.891  1.00  0.00     0.210 HD
ENDBRANCH  23  33
TORSDOF 6
ENDMDL
MODEL 5
REMARK minimizedAffinity -8.29199696
REMARK CNNscore 0.522096574
REMARK CNNaffinity 6.8672924
REMARK  6 active torsions:
REMARK  status: ('A' for Active; 'I' for Inactive)
REMARK    1  A    between atoms: C2_2  and  C3_3 
REMARK    2  A    between atoms: C4_5  and  C5_6 
REMARK    3  A    between atoms: C5_6  and  C6_7 
REMARK    4  A    between atoms: C6_7  and  C7_8 
REMARK    5  A    between atoms: C7_8  and  C9_10 
REMARK    6  A    between atoms: C30_32  and  O3_33 
ROOT
HETATM    1  C9  UNL     1      -1.848   6.677  12.914  1.00  0.00    -0.002 C 
HETATM    2  C10 UNL     1      -1.942   5.311  12.180  1.00  0.00     0.007 C 
HETATM    3  C11 UNL     1      -0.574   5.042  11.525  1.00  0.00     0.015 C 
HETATM    4  C12 UNL     1       0.387   6.072  12.149  1.00  0.00    -0.010 C 
HETATM    5  C13 UNL     1       0.868   5.487  13.514  1.00  0.00     0.021 C 
HETATM    6  C14 UNL     1       1.669   6.469  11.415  1.00  0.00    -0.039 C 
HETATM    7  C15 UNL     1       2.187   7.717  11.580  1.00  0.00    -0.066 C 
HETATM    8  C16 UNL     1       1.495   8.765  12.455  1.00  0.00     0.036 C 
HETATM    9  C17 UNL     1       0.141   8.388  13.087  1.00  0.00     0.015 C 
HETATM   10  C18 UNL     1      -0.583   7.317  12.264  1.00  0.00    -0.029 C 
HETATM   11  C19 UNL     1      -0.973   7.927  10.880  1.00  0.00     0.016 C 
HETATM   12  C20 UNL     1       3.411   8.178  10.756  1.00  0.00    -0.015 C 
HETATM   13  C21 UNL     1       2.845   8.614   9.368  1.00  0.00     0.020 C 
HETATM   14  C22 UNL     1       4.106   9.433  11.361  1.00  0.00     0.021 C 
HETATM   15  C23 UNL     1       5.499   9.663  10.806  1.00  0.00     0.080 C 
HETATM   16  C24 UNL     1       6.405   8.527  11.202  1.00  0.00     0.135 C 
HETATM   17  O2  UNL     1       7.610   8.734  11.368  1.00  0.00    -0.297 OA
HETATM   18  C25 UNL     1       5.782   7.132  11.374  1.00  0.00     0.018 C 
HETATM   19  C26 UNL     1       6.828   6.111  10.865  1.00  0.00     0.023 C 
HETATM   20  C27 UNL     1       5.570   6.892  12.881  1.00  0.00     0.023 C 
HETATM   21  C28 UNL     1       4.464   7.023  10.518  1.00  0.00     0.016 C 
HETATM   22  C29 UNL     1       3.868   5.600  10.591  1.00  0.00     0.043 C 
HETATM   23  C30 UNL     1       2.351   5.487  10.493  1.00  0.00     0.148 C 
ENDROOT
BRANCH   1  24
HETATM   24  C7  UNL     1      -3.203   7.442  12.892  1.00  0.00    -0.014 C 
HETATM   25  C8  UNL     1      -3.046   8.936  13.196  1.00  0.00     0.010 C 
BRANCH  24  26
HETATM   26  C6  UNL     1      -4.262   6.824  13.843  1.00  0.00     0.008 C 
BRANCH  26  27
HETATM   27  C5  UNL     1      -5.640   6.581  13.217  1.00  0.00     0.028 C 
BRANCH  27  28
HETATM   28  C4  UNL     1      -6.070   5.153  13.405  1.00  0.00    -0.017 C 
HETATM   29  C2  UNL     1      -7.312   4.652  13.267  1.00  0.00    -0.028 C 
HETATM   30  C1  UNL     1      -8.541   5.394  12.849  1.00  0.00     0.051 C 
BRANCH  29  31
HETATM   31  C3  UNL     1      -7.511   3.193  13.530  1.00  0.00     0.265 C 
HETATM   32  O1  UNL     1      -8.121   2.437  12.783  1.00  0.00    -0.302 OA
ENDBRANCH  29  31
ENDBRANCH  27  28
ENDBRANCH  26  27
ENDBRANCH  24  26
ENDBRANCH   1  24
BRANCH  23  33
HETATM   33  O3  UNL     1       2.027   4.144  10.838  1.00  0.00    -0.391 OA
HETATM   34  H46 UNL     1       2.430   3.567  10.169  1.00  0.00     0.210 HD
ENDBRANCH  23  33
TORSDOF 6
ENDMDL
MODEL 6
REMARK minimizedAffinity -6.48842001
REMARK CNNscore 0.48734349
REMARK CNNaffinity 6.47374725
REMARK  6 active torsions:
REMARK  status: ('A' for Active; 'I' for Inactive)
REMARK    1  A    between atoms: C2_2  and  C3_3 
REMARK    2  A    between atoms: C4_5  and  C5_6 
REMARK    3  A    between atoms: C5_6  and  C6_7 
REMARK    4  A    between atoms: C6_7  and  C7_8 
REMARK    5  A    between atoms: C7_8  and  C9_10 
REMARK    6  A    between atoms: C30_32  and  O3_33 
ROOT
HETATM    1  C9  UNL     1     -13.712   6.596  24.505  1.00  0.00    -0.002 C 
HETATM    2  C10 UNL     1     -13.629   6.073  23.045  1.00  0.00     0.007 C 
HETATM    3  C11 UNL     1     -13.075   7.217  22.174  1.00  0.00     0.015 C 
HETATM    4  C12 UNL     1     -12.536   8.262  23.169  1.00  0.00    -0.010 C 
HETATM    5  C13 UNL     1     -11.100   7.811  23.583  1.00  0.00     0.021 C 
HETATM    6  C14 UNL     1     -12.383   9.723  22.739  1.00  0.00    -0.039 C 
HETATM    7  C15 UNL     1     -12.513  10.718  23.659  1.00  0.00    -0.066 C 
HETATM    8  C16 UNL     1     -12.854  10.421  25.122  1.00  0.00     0.036 C 
HETATM    9  C17 UNL     1     -13.126   8.954  25.509  1.00  0.00     0.015 C 
HETATM   10  C18 UNL     1     -13.625   8.141  24.310  1.00  0.00    -0.029 C 
HETATM   11  C19 UNL     1     -15.028   8.683  23.887  1.00  0.00     0.016 C 
HETATM   12  C20 UNL     1     -12.482  12.201  23.226  1.00  0.00    -0.015 C 
HETATM   13  C21 UNL     1     -13.918  12.518  22.704  1.00  0.00     0.020 C 
HETATM   14  C22 UNL     1     -12.222  13.171  24.416  1.00  0.00     0.021 C 
HETATM   15  C23 UNL     1     -11.811  14.561  23.967  1.00  0.00     0.080 C 
HETATM   16  C24 UNL     1     -10.483  14.501  23.259  1.00  0.00     0.135 C 
HETATM   17  O2  UNL     1      -9.717  15.466  23.310  1.00  0.00    -0.297 OA
HETATM   18  C25 UNL     1     -10.138  13.222  22.478  1.00  0.00     0.018 C 
HETATM   19  C26 UNL     1      -9.353  13.667  21.220  1.00  0.00     0.023 C 
HETATM   20  C27 UNL     1      -9.198  12.373  23.355  1.00  0.00     0.023 C 
HETATM   21  C28 UNL     1     -11.460  12.479  22.052  1.00  0.00     0.016 C 
HETATM   22  C29 UNL     1     -11.149  11.243  21.180  1.00  0.00     0.043 C 
HETATM   23  C30 UNL     1     -12.107  10.064  21.295  1.00  0.00     0.148 C 
ENDROOT
BRANCH   1  24
HETATM   24  C7  UNL     1     -14.915   5.979  25.276  1.00  0.00    -0.014 C 
HETATM   25  C8  UNL     1     -14.873   6.274  26.778  1.00  0.00     0.010 C 
BRANCH  24  26
HETATM   26  C6  UNL     1     -15.058   4.450  25.048  1.00  0.00     0.008 C 
BRANCH  26  27
HETATM   27  C5  UNL     1     -13.737   3.688  24.887  1.00  0.00     0.028 C 
BRANCH  27  28
HETATM   28  C4  UNL     1     -13.367   2.980  26.160  1.00  0.00    -0.017 C 
HETATM   29  C2  UNL     1     -12.452   2.005  26.313  1.00  0.00    -0.028 C 
HETATM   30  C1  UNL     1     -11.560   1.432  25.258  1.00  0.00     0.051 C 
BRANCH  29  31
HETATM   31  C3  UNL     1     -12.268   1.427  27.681  1.00  0.00     0.265 C 
HETATM   32  O1  UNL     1     -12.909   1.775  28.665  1.00  0.00    -0.302 OA
ENDBRANCH  29  31
ENDBRANCH  27  28
ENDBRANCH  26  27
ENDBRANCH  24  26
ENDBRANCH   1  24
BRANCH  23  33
HETATM   33  O3  UNL     1     -11.488   8.977  20.616  1.00  0.00    -0.391 OA
HETATM   34  H46 UNL     1     -11.406   9.227  19.681  1.00  0.00     0.210 HD
ENDBRANCH  23  33
TORSDOF 6
ENDMDL
MODEL 7
REMARK minimizedAffinity -6.07662249
REMARK CNNscore 0.429850876
REMARK CNNaffinity 6.28359556
REMARK  6 active torsions:
REMARK  status: ('A' for Active; 'I' for Inactive)
REMARK    1  A    between atoms: C2_2  and  C3_3 
REMARK    2  A    between atoms: C4_5  and  C5_6 
REMARK    3  A    between atoms: C5_6  and  C6_7 
REMARK    4  A    between atoms: C6_7  and  C7_8 
REMARK    5  A    between atoms: C7_8  and  C9_10 
REMARK    6  A    between atoms: C30_32  and  O3_33 
ROOT
HETATM    1  C9  UNL     1     -13.440   8.096  23.264  1.00  0.00    -0.002 C 
HETATM    2  C10 UNL     1     -13.809   8.380  24.747  1.00  0.00     0.007 C 
HETATM    3  C11 UNL     1     -13.315   9.800  25.083  1.00  0.00     0.015 C 
HETATM    4  C12 UNL     1     -12.971  10.444  23.726  1.00  0.00    -0.010 C 
HETATM    5  C13 UNL     1     -14.302  10.992  23.122  1.00  0.00     0.021 C 
HETATM    6  C14 UNL     1     -11.993  11.619  23.660  1.00  0.00    -0.039 C 
HETATM    7  C15 UNL     1     -11.224  11.800  22.551  1.00  0.00    -0.066 C 
HETATM    8  C16 UNL     1     -11.276  10.828  21.370  1.00  0.00     0.036 C 
HETATM    9  C17 UNL     1     -12.174   9.584  21.506  1.00  0.00     0.015 C 
HETATM   10  C18 UNL     1     -12.367   9.189  22.974  1.00  0.00    -0.029 C 
HETATM   11  C19 UNL     1     -10.993   8.723  23.551  1.00  0.00     0.016 C 
HETATM   12  C20 UNL     1     -10.146  12.906  22.513  1.00  0.00    -0.015 C 
HETATM   13  C21 UNL     1      -8.907  12.315  23.255  1.00  0.00     0.020 C 
HETATM   14  C22 UNL     1      -9.674  13.237  21.066  1.00  0.00     0.021 C 
HETATM   15  C23 UNL     1      -8.924  14.553  20.975  1.00  0.00     0.080 C 
HETATM   16  C24 UNL     1      -9.843  15.695  21.321  1.00  0.00     0.135 C 
HETATM   17  O2  UNL     1      -9.667  16.801  20.805  1.00  0.00    -0.297 OA
HETATM   18  C25 UNL     1     -10.972  15.433  22.331  1.00  0.00     0.018 C 
HETATM   19  C26 UNL     1     -11.126  16.723  23.173  1.00  0.00     0.023 C 
HETATM   20  C27 UNL     1     -12.275  15.218  21.538  1.00  0.00     0.023 C 
HETATM   21  C28 UNL     1     -10.587  14.224  23.266  1.00  0.00     0.016 C 
HETATM   22  C29 UNL     1     -11.658  14.000  24.357  1.00  0.00     0.043 C 
HETATM   23  C30 UNL     1     -11.865  12.565  24.829  1.00  0.00     0.148 C 
ENDROOT
BRANCH   1  24
HETATM   24  C7  UNL     1     -13.103   6.595  23.027  1.00  0.00    -0.014 C 
HETATM   25  C8  UNL     1     -13.792   6.020  21.785  1.00  0.00     0.010 C 
BRANCH  24  26
HETATM   26  C6  UNL     1     -13.416   5.704  24.258  1.00  0.00     0.008 C 
BRANCH  26  27
HETATM   27  C5  UNL     1     -13.786   4.251  23.936  1.00  0.00     0.028 C 
BRANCH  27  28
HETATM   28  C4  UNL     1     -13.628   3.376  25.148  1.00  0.00    -0.017 C 
HETATM   29  C2  UNL     1     -12.682   2.443  25.361  1.00  0.00    -0.028 C 
HETATM   30  C1  UNL     1     -11.541   2.095  24.459  1.00  0.00     0.051 C 
BRANCH  29  31
HETATM   31  C3  UNL     1     -12.737   1.670  26.641  1.00  0.00     0.265 C 
HETATM   32  O1  UNL     1     -11.958   1.831  27.573  1.00  0.00    -0.302 OA
ENDBRANCH  29  31
ENDBRANCH  27  28
ENDBRANCH  26  27
ENDBRANCH  24  26
ENDBRANCH   1  24
BRANCH  23  33
HETATM   33  O3  UNL     1     -13.047  12.572  25.621  1.00  0.00    -0.391 OA
HETATM   34  H46 UNL     1     -12.877  13.136  26.392  1.00  0.00     0.210 HD
ENDBRANCH  23  33
TORSDOF 6
ENDMDL
MODEL 8
REMARK minimizedAffinity -8.42531872
REMARK CNNscore 0.428084344
REMARK CNNaffinity 6.83143854
REMARK  6 active torsions:
REMARK  status: ('A' for Active; 'I' for Inactive)
REMARK    1  A    between atoms: C2_2  and  C3_3 
REMARK    2  A    between atoms: C4_5  and  C5_6 
REMARK    3  A    between atoms: C5_6  and  C6_7 
REMARK    4  A    between atoms: C6_7  and  C7_8 
REMARK    5  A    between atoms: C7_8  and  C9_10 
REMARK    6  A    between atoms: C30_32  and  O3_33 
ROOT
HETATM    1  C9  UNL     1      -5.503   7.345  14.734  1.00  0.00    -0.002 C 
HETATM    2  C10 UNL     1      -5.067   8.645  15.463  1.00  0.00     0.007 C 
HETATM    3  C11 UNL     1      -3.612   8.940  15.054  1.00  0.00     0.015 C 
HETATM    4  C12 UNL     1      -3.330   8.016  13.854  1.00  0.00    -0.010 C 
HETATM    5  C13 UNL     1      -3.887   8.726  12.581  1.00  0.00     0.021 C 
HETATM    6  C14 UNL     1      -1.890   7.638  13.498  1.00  0.00    -0.039 C 
HETATM    7  C15 UNL     1      -1.629   6.436  12.914  1.00  0.00    -0.066 C 
HETATM    8  C16 UNL     1      -2.739   5.419  12.637  1.00  0.00     0.036 C 
HETATM    9  C17 UNL     1      -4.162   5.766  13.115  1.00  0.00     0.015 C 
HETATM   10  C18 UNL     1      -4.135   6.730  14.305  1.00  0.00    -0.029 C 
HETATM   11  C19 UNL     1      -3.497   5.998  15.528  1.00  0.00     0.016 C 
HETATM   12  C20 UNL     1      -0.174   5.984  12.656  1.00  0.00    -0.015 C 
HETATM   13  C21 UNL     1       0.338   5.416  14.017  1.00  0.00     0.020 C 
HETATM   14  C22 UNL     1      -0.078   4.819  11.629  1.00  0.00     0.021 C 
HETATM   15  C23 UNL     1       1.325   4.627  11.082  1.00  0.00     0.080 C 
HETATM   16  C24 UNL     1       1.738   5.838  10.288  1.00  0.00     0.135 C 
HETATM   17  O2  UNL     1       2.516   5.712   9.340  1.00  0.00    -0.297 OA
HETATM   18  C25 UNL     1       1.174   7.204  10.709  1.00  0.00     0.018 C 
HETATM   19  C26 UNL     1       2.299   8.242  10.477  1.00  0.00     0.023 C 
HETATM   20  C27 UNL     1       0.005   7.544   9.764  1.00  0.00     0.023 C 
HETATM   21  C28 UNL     1       0.776   7.176  12.233  1.00  0.00     0.016 C 
HETATM   22  C29 UNL     1       0.298   8.565  12.711  1.00  0.00     0.043 C 
HETATM   23  C30 UNL     1      -0.758   8.585  13.810  1.00  0.00     0.148 C 
ENDROOT
BRANCH   1  24
HETATM   24  C7  UNL     1      -6.497   6.505  15.587  1.00  0.00    -0.014 C 
HETATM   25  C8  UNL     1      -7.230   5.438  14.768  1.00  0.00     0.010 C 
BRANCH  24  26
HETATM   26  C6  UNL     1      -7.528   7.380  16.348  1.00  0.00     0.008 C 
BRANCH  26  27
HETATM   27  C5  UNL     1      -8.990   6.941  16.203  1.00  0.00     0.028 C 
BRANCH  27  28
HETATM   28  C4  UNL     1      -9.820   8.034  15.590  1.00  0.00    -0.017 C 
HETATM   29  C2  UNL     1     -10.426   8.020  14.387  1.00  0.00    -0.028 C 
HETATM   30  C1  UNL     1     -10.448   6.894  13.404  1.00  0.00     0.051 C 
BRANCH  29  31
HETATM   31  C3  UNL     1     -11.185   9.240  13.973  1.00  0.00     0.265 C 
HETATM   32  O1  UNL     1     -11.541   9.468  12.823  1.00  0.00    -0.302 OA
ENDBRANCH  29  31
ENDBRANCH  27  28
ENDBRANCH  26  27
ENDBRANCH  24  26
ENDBRANCH   1  24
BRANCH  23  33
HETATM   33  O3  UNL     1      -1.217   9.929  13.898  1.00  0.00    -0.391 OA
HETATM   34  H46 UNL     1      -0.464  10.476  14.174  1.00  0.00     0.210 HD
ENDBRANCH  23  33
TORSDOF 6
ENDMDL
MODEL 9
REMARK minimizedAffinity -6.48861933
REMARK CNNscore 0.401821494
REMARK CNNaffinity 6.42136717
REMARK  6 active torsions:
REMARK  status: ('A' for Active; 'I' for Inactive)
REMARK    1  A    between atoms: C2_2  and  C3_3 
REMARK    2  A    between atoms: C4_5  and  C5_6 
REMARK    3  A    between atoms: C5_6  and  C6_7 
REMARK    4  A    between atoms: C6_7  and  C7_8 
REMARK    5  A    between atoms: C7_8  and  C9_10 
REMARK    6  A    between atoms: C30_32  and  O3_33 
ROOT
HETATM    1  C9  UNL     1      -1.561   7.871  14.109  1.00  0.00    -0.002 C 
HETATM    2  C10 UNL     1      -1.864   6.993  15.354  1.00  0.00     0.007 C 
HETATM    3  C11 UNL     1      -2.121   7.942  16.539  1.00  0.00     0.015 C 
HETATM    4  C12 UNL     1      -2.294   9.339  15.913  1.00  0.00    -0.010 C 
HETATM    5  C13 UNL     1      -3.775   9.452  15.434  1.00  0.00     0.021 C 
HETATM    6  C14 UNL     1      -2.055  10.593  16.757  1.00  0.00    -0.039 C 
HETATM    7  C15 UNL     1      -1.604  11.733  16.165  1.00  0.00    -0.066 C 
HETATM    8  C16 UNL     1      -1.283  11.790  14.669  1.00  0.00     0.036 C 
HETATM    9  C17 UNL     1      -1.412  10.485  13.861  1.00  0.00     0.015 C 
HETATM   10  C18 UNL     1      -1.223   9.252  14.751  1.00  0.00    -0.029 C 
HETATM   11  C19 UNL     1       0.251   9.229  15.268  1.00  0.00     0.016 C 
HETATM   12  C20 UNL     1      -1.242  12.972  17.015  1.00  0.00    -0.015 C 
HETATM   13  C21 UNL     1       0.197  12.705  17.558  1.00  0.00     0.020 C 
HETATM   14  C22 UNL     1      -1.157  14.277  16.171  1.00  0.00     0.021 C 
HETATM   15  C23 UNL     1      -1.187  15.534  17.021  1.00  0.00     0.080 C 
HETATM   16  C24 UNL     1      -2.513  15.649  17.724  1.00  0.00     0.135 C 
HETATM   17  O2  UNL     1      -2.975  16.763  17.983  1.00  0.00    -0.297 OA
HETATM   18  C25 UNL     1      -3.243  14.351  18.107  1.00  0.00     0.018 C 
HETATM   19  C26 UNL     1      -3.936  14.613  19.466  1.00  0.00     0.023 C 
HETATM   20  C27 UNL     1      -4.335  14.093  17.052  1.00  0.00     0.023 C 
HETATM   21  C28 UNL     1      -2.205  13.174  18.252  1.00  0.00     0.016 C 
HETATM   22  C29 UNL     1      -2.894  11.878  18.734  1.00  0.00     0.043 C 
HETATM   23  C30 UNL     1      -2.299  10.563  18.246  1.00  0.00     0.148 C 
ENDROOT
BRANCH   1  24
HETATM   24  C7  UNL     1      -0.540   7.191  13.152  1.00  0.00    -0.014 C 
HETATM   25  C8  UNL     1       0.603   6.496  13.899  1.00  0.00     0.010 C 
BRANCH  24  26
HETATM   26  C6  UNL     1       0.043   8.169  12.097  1.00  0.00     0.008 C 
BRANCH  26  27
HETATM   27  C5  UNL     1      -0.124   7.730  10.637  1.00  0.00     0.028 C 
BRANCH  27  28
HETATM   28  C4  UNL     1       1.024   6.862  10.203  1.00  0.00    -0.017 C 
HETATM   29  C2  UNL     1       1.796   7.018   9.111  1.00  0.00    -0.028 C 
HETATM   30  C1  UNL     1       1.717   8.119   8.103  1.00  0.00     0.051 C 
BRANCH  29  31
HETATM   31  C3  UNL     1       2.874   6.011   8.867  1.00  0.00     0.265 C 
HETATM   32  O1  UNL     1       2.848   4.862   9.291  1.00  0.00    -0.302 OA
ENDBRANCH  29  31
ENDBRANCH  27  28
ENDBRANCH  26  27
ENDBRANCH  24  26
ENDBRANCH   1  24
BRANCH  23  33
HETATM   33  O3  UNL     1      -3.232   9.547  18.597  1.00  0.00    -0.391 OA
HETATM   34  H46 UNL     1      -3.289   9.528  19.566  1.00  0.00     0.210 HD
ENDBRANCH  23  33
TORSDOF 6
ENDMDL
