MODEL 1
REMARK minimizedAffinity -6.71416187
REMARK CNNscore 0.633162558
REMARK CNNaffinity 6.75824308
REMARK  4 active torsions:
REMARK  status: ('A' for Active; 'I' for Inactive)
REMARK    1  A    between atoms: C4_4  and  C5_5 
REMARK    2  A    between atoms: C5_5  and  C6_7 
REMARK    3  A    between atoms: C6_7  and  C7_8 
REMARK    4  A    between atoms: C7_8  and  C9_10 
ROOT
HETATM    1  C9  UNL     1     -14.600 -10.089  29.259  1.00  0.00    -0.001 C 
HETATM    2  C10 UNL     1     -14.351 -10.983  30.499  1.00  0.00     0.007 C 
HETATM    3  C11 UNL     1     -13.598 -12.240  30.002  1.00  0.00     0.015 C 
HETATM    4  C12 UNL     1     -13.606 -12.139  28.460  1.00  0.00    -0.013 C 
HETATM    5  C13 UNL     1     -14.951 -12.786  27.997  1.00  0.00     0.021 C 
HETATM    6  C14 UNL     1     -12.506 -12.841  27.675  1.00  0.00    -0.070 C 
HETATM    7  C15 UNL     1     -11.902 -13.955  28.121  1.00  0.00    -0.022 C 
HETATM    8  C16 UNL     1     -10.861 -14.725  27.375  1.00  0.00     0.034 C 
HETATM    9  C17 UNL     1     -10.489 -14.229  25.954  1.00  0.00     0.013 C 
HETATM   10  C18 UNL     1      -9.014 -13.703  25.818  1.00  0.00     0.018 C 
HETATM   11  C19 UNL     1      -8.012 -14.822  26.191  1.00  0.00     0.023 C 
HETATM   12  C20 UNL     1      -8.707 -12.464  26.672  1.00  0.00     0.023 C 
HETATM   13  C21 UNL     1      -8.730 -13.343  24.348  1.00  0.00     0.135 C 
HETATM   14  O2  UNL     1      -7.596 -13.066  23.950  1.00  0.00    -0.297 OA
HETATM   15  C22 UNL     1      -9.895 -13.340  23.390  1.00  0.00     0.080 C 
HETATM   16  C23 UNL     1     -11.044 -12.591  24.041  1.00  0.00     0.017 C 
HETATM   17  C24 UNL     1     -11.601 -13.309  25.305  1.00  0.00    -0.031 C 
HETATM   18  C25 UNL     1     -12.768 -14.230  24.849  1.00  0.00     0.016 C 
HETATM   19  C26 UNL     1     -12.122 -12.235  26.332  1.00  0.00     0.024 C 
HETATM   20  C27 UNL     1     -13.193 -11.261  25.772  1.00  0.00     0.010 C 
HETATM   21  C28 UNL     1     -13.763 -10.233  26.779  1.00  0.00     0.011 C 
HETATM   22  C29 UNL     1     -13.507 -10.588  28.259  1.00  0.00    -0.029 C 
HETATM   23  C30 UNL     1     -12.127  -9.988  28.678  1.00  0.00     0.016 C 
ENDROOT
BRANCH   1  24
HETATM   24  C7  UNL     1     -14.722  -8.551  29.474  1.00  0.00    -0.007 C 
HETATM   25  C8  UNL     1     -16.015  -8.020  28.831  1.00  0.00     0.011 C 
BRANCH  24  26
HETATM   26  C6  UNL     1     -14.541  -8.010  30.908  1.00  0.00     0.087 C 
BRANCH  26  27
HETATM   27  C5  UNL     1     -13.140  -7.590  31.348  1.00  0.00     0.149 C 
HETATM   28  O1  UNL     1     -12.609  -7.995  32.375  1.00  0.00    -0.293 OA
BRANCH  27  29
HETATM   29  C4  UNL     1     -12.444  -6.633  30.425  1.00  0.00     0.052 C 
HETATM   30  C2  UNL     1     -12.304  -5.302  30.574  1.00  0.00    -0.084 C 
HETATM   31  C1  UNL     1     -12.861  -4.469  31.697  1.00  0.00     0.043 C 
HETATM   32  C3  UNL     1     -11.533  -4.503  29.550  1.00  0.00     0.043 C 
ENDBRANCH  27  29
ENDBRANCH  26  27
ENDBRANCH  24  26
ENDBRANCH   1  24
TORSDOF 4
ENDMDL
MODEL 2
REMARK minimizedAffinity -8.96676922
REMARK CNNscore 0.628688753
REMARK CNNaffinity 7.22758627
REMARK  4 active torsions:
REMARK  status: ('A' for Active; 'I' for Inactive)
REMARK    1  A    between atoms: C4_4  and  C5_5 
REMARK    2  A    between atoms: C5_5  and  C6_7 
REMARK    3  A    between atoms: C6_7  and  C7_8 
REMARK    4  A    between atoms: C7_8  and  C9_10 
ROOT
HETATM    1  C9  UNL     1      -5.700   6.547  14.505  1.00  0.00    -0.001 C 
HETATM    2  C10 UNL     1      -6.283   7.491  13.424  1.00  0.00     0.007 C 
HETATM    3  C11 UNL     1      -5.095   8.292  12.839  1.00  0.00     0.015 C 
HETATM    4  C12 UNL     1      -3.885   7.938  13.732  1.00  0.00    -0.013 C 
HETATM    5  C13 UNL     1      -3.937   8.934  14.936  1.00  0.00     0.021 C 
HETATM    6  C14 UNL     1      -2.484   8.056  13.145  1.00  0.00    -0.070 C 
HETATM    7  C15 UNL     1      -2.180   8.940  12.181  1.00  0.00    -0.022 C 
HETATM    8  C16 UNL     1      -0.816   9.148  11.606  1.00  0.00     0.034 C 
HETATM    9  C17 UNL     1       0.346   8.317  12.208  1.00  0.00     0.013 C 
HETATM   10  C18 UNL     1       0.987   7.284  11.210  1.00  0.00     0.018 C 
HETATM   11  C19 UNL     1       1.543   8.017   9.966  1.00  0.00     0.023 C 
HETATM   12  C20 UNL     1       0.024   6.182  10.742  1.00  0.00     0.023 C 
HETATM   13  C21 UNL     1       2.192   6.600  11.882  1.00  0.00     0.135 C 
HETATM   14  O2  UNL     1       2.965   5.873  11.254  1.00  0.00    -0.297 OA
HETATM   15  C22 UNL     1       2.408   6.850  13.354  1.00  0.00     0.080 C 
HETATM   16  C23 UNL     1       1.076   6.683  14.065  1.00  0.00     0.017 C 
HETATM   17  C24 UNL     1       0.028   7.757  13.653  1.00  0.00    -0.031 C 
HETATM   18  C25 UNL     1       0.148   8.942  14.654  1.00  0.00     0.016 C 
HETATM   19  C26 UNL     1      -1.417   7.132  13.716  1.00  0.00     0.024 C 
HETATM   20  C27 UNL     1      -1.805   6.525  15.091  1.00  0.00     0.010 C 
HETATM   21  C28 UNL     1      -3.242   5.957  15.196  1.00  0.00     0.011 C 
HETATM   22  C29 UNL     1      -4.197   6.444  14.087  1.00  0.00    -0.029 C 
HETATM   23  C30 UNL     1      -4.077   5.472  12.870  1.00  0.00     0.016 C 
ENDROOT
BRANCH   1  24
HETATM   24  C7  UNL     1      -6.452   5.215  14.800  1.00  0.00    -0.007 C 
HETATM   25  C8  UNL     1      -6.801   5.116  16.296  1.00  0.00     0.011 C 
BRANCH  24  26
HETATM   26  C6  UNL     1      -7.663   4.862  13.912  1.00  0.00     0.087 C 
BRANCH  26  27
HETATM   27  C5  UNL     1      -7.544   3.662  12.974  1.00  0.00     0.149 C 
HETATM   28  O1  UNL     1      -8.263   2.673  13.054  1.00  0.00    -0.293 OA
BRANCH  27  29
HETATM   29  C4  UNL     1      -6.471   3.774  11.932  1.00  0.00     0.052 C 
HETATM   30  C2  UNL     1      -5.867   2.773  11.262  1.00  0.00    -0.084 C 
HETATM   31  C1  UNL     1      -6.118   1.301  11.448  1.00  0.00     0.043 C 
HETATM   32  C3  UNL     1      -4.826   3.085  10.214  1.00  0.00     0.043 C 
ENDBRANCH  27  29
ENDBRANCH  26  27
ENDBRANCH  24  26
ENDBRANCH   1  24
TORSDOF 4
ENDMDL
MODEL 3
REMARK minimizedAffinity -7.56454325
REMARK CNNscore 0.584429622
REMARK CNNaffinity 6.82059479
REMARK  4 active torsions:
REMARK  status: ('A' for Active; 'I' for Inactive)
REMARK    1  A    between atoms: C4_4  and  C5_5 
REMARK    2  A    between atoms: C5_5  and  C6_7 
REMARK    3  A    between atoms: C6_7  and  C7_8 
REMARK    4  A    between atoms: C7_8  and  C9_10 
ROOT
HETATM    1  C9  UNL     1      -9.439   7.053  14.071  1.00  0.00    -0.001 C 
HETATM    2  C10 UNL     1      -9.161   7.080  15.594  1.00  0.00     0.007 C 
HETATM    3  C11 UNL     1     -10.163   8.081  16.216  1.00  0.00     0.015 C 
HETATM    4  C12 UNL     1     -10.861   8.759  15.016  1.00  0.00    -0.013 C 
HETATM    5  C13 UNL     1      -9.945   9.959  14.611  1.00  0.00     0.021 C 
HETATM    6  C14 UNL     1     -12.256   9.340  15.214  1.00  0.00    -0.070 C 
HETATM    7  C15 UNL     1     -12.677   9.814  16.398  1.00  0.00    -0.022 C 
HETATM    8  C16 UNL     1     -14.007  10.449  16.645  1.00  0.00     0.034 C 
HETATM    9  C17 UNL     1     -14.951  10.622  15.427  1.00  0.00     0.013 C 
HETATM   10  C18 UNL     1     -16.270   9.770  15.505  1.00  0.00     0.018 C 
HETATM   11  C19 UNL     1     -17.077  10.150  16.770  1.00  0.00     0.023 C 
HETATM   12  C20 UNL     1     -16.039   8.252  15.507  1.00  0.00     0.023 C 
HETATM   13  C21 UNL     1     -17.171  10.107  14.302  1.00  0.00     0.135 C 
HETATM   14  O2  UNL     1     -18.331   9.699  14.220  1.00  0.00    -0.297 OA
HETATM   15  C22 UNL     1     -16.587  10.967  13.209  1.00  0.00     0.080 C 
HETATM   16  C23 UNL     1     -15.207  10.431  12.868  1.00  0.00     0.017 C 
HETATM   17  C24 UNL     1     -14.192  10.575  14.040  1.00  0.00    -0.031 C 
HETATM   18  C25 UNL     1     -13.453  11.932  13.860  1.00  0.00     0.016 C 
HETATM   19  C26 UNL     1     -13.165   9.382  13.993  1.00  0.00     0.024 C 
HETATM   20  C27 UNL     1     -12.397   9.234  12.653  1.00  0.00     0.010 C 
HETATM   21  C28 UNL     1     -11.338   8.105  12.602  1.00  0.00     0.011 C 
HETATM   22  C29 UNL     1     -10.909   7.578  13.987  1.00  0.00    -0.029 C 
HETATM   23  C30 UNL     1     -11.881   6.427  14.399  1.00  0.00     0.016 C 
ENDROOT
BRANCH   1  24
HETATM   24  C7  UNL     1      -9.100   5.753  13.284  1.00  0.00    -0.007 C 
HETATM   25  C8  UNL     1      -8.880   6.068  11.794  1.00  0.00     0.011 C 
BRANCH  24  26
HETATM   26  C6  UNL     1      -7.980   4.848  13.841  1.00  0.00     0.087 C 
BRANCH  26  27
HETATM   27  C5  UNL     1      -7.563   3.630  13.019  1.00  0.00     0.149 C 
HETATM   28  O1  UNL     1      -8.293   2.663  12.833  1.00  0.00    -0.293 OA
BRANCH  27  29
HETATM   29  C4  UNL     1      -6.179   3.694  12.444  1.00  0.00     0.052 C 
HETATM   30  C2  UNL     1      -5.552   2.759  11.704  1.00  0.00    -0.084 C 
HETATM   31  C1  UNL     1      -6.102   1.412  11.322  1.00  0.00     0.043 C 
HETATM   32  C3  UNL     1      -4.160   3.019  11.179  1.00  0.00     0.043 C 
ENDBRANCH  27  29
ENDBRANCH  26  27
ENDBRANCH  24  26
ENDBRANCH   1  24
TORSDOF 4
ENDMDL
MODEL 4
REMARK minimizedAffinity -6.26804543
REMARK CNNscore 0.485252202
REMARK CNNaffinity 6.41058588
REMARK  4 active torsions:
REMARK  status: ('A' for Active; 'I' for Inactive)
REMARK    1  A    between atoms: C4_4  and  C5_5 
REMARK    2  A    between atoms: C5_5  and  C6_7 
REMARK    3  A    between atoms: C6_7  and  C7_8 
REMARK    4  A    between atoms: C7_8  and  C9_10 
ROOT
HETATM    1  C9  UNL     1     -13.558 -12.407  28.311  1.00  0.00    -0.001 C 
HETATM    2  C10 UNL     1     -14.897 -12.929  28.890  1.00  0.00     0.007 C 
HETATM    3  C11 UNL     1     -15.407 -11.855  29.880  1.00  0.00     0.015 C 
HETATM    4  C12 UNL     1     -14.256 -10.832  30.003  1.00  0.00    -0.013 C 
HETATM    5  C13 UNL     1     -13.312 -11.384  31.119  1.00  0.00     0.021 C 
HETATM    6  C14 UNL     1     -14.589  -9.400  30.400  1.00  0.00    -0.070 C 
HETATM    7  C15 UNL     1     -15.642  -9.094  31.176  1.00  0.00    -0.022 C 
HETATM    8  C16 UNL     1     -15.990  -7.720  31.650  1.00  0.00     0.034 C 
HETATM    9  C17 UNL     1     -15.029  -6.568  31.261  1.00  0.00     0.013 C 
HETATM   10  C18 UNL     1     -15.661  -5.497  30.297  1.00  0.00     0.018 C 
HETATM   11  C19 UNL     1     -16.905  -4.855  30.954  1.00  0.00     0.023 C 
HETATM   12  C20 UNL     1     -16.060  -6.049  28.921  1.00  0.00     0.023 C 
HETATM   13  C21 UNL     1     -14.655  -4.353  30.070  1.00  0.00     0.135 C 
HETATM   14  O2  UNL     1     -14.969  -3.312  29.489  1.00  0.00    -0.297 OA
HETATM   15  C22 UNL     1     -13.251  -4.542  30.590  1.00  0.00     0.080 C 
HETATM   16  C23 UNL     1     -12.775  -5.926  30.183  1.00  0.00     0.017 C 
HETATM   17  C24 UNL     1     -13.582  -7.070  30.863  1.00  0.00    -0.031 C 
HETATM   18  C25 UNL     1     -12.841  -7.456  32.175  1.00  0.00     0.016 C 
HETATM   19  C26 UNL     1     -13.656  -8.308  29.892  1.00  0.00     0.024 C 
HETATM   20  C27 UNL     1     -12.281  -8.850  29.420  1.00  0.00     0.010 C 
HETATM   21  C28 UNL     1     -12.325 -10.103  28.512  1.00  0.00     0.011 C 
HETATM   22  C29 UNL     1     -13.665 -10.867  28.551  1.00  0.00    -0.029 C 
HETATM   23  C30 UNL     1     -14.615 -10.252  27.474  1.00  0.00     0.016 C 
ENDROOT
BRANCH   1  24
HETATM   24  C7  UNL     1     -13.138 -12.881  26.889  1.00  0.00    -0.007 C 
HETATM   25  C8  UNL     1     -14.342 -13.488  26.147  1.00  0.00     0.011 C 
BRANCH  24  26
HETATM   26  C6  UNL     1     -12.370 -11.882  25.997  1.00  0.00     0.087 C 
BRANCH  26  27
HETATM   27  C5  UNL     1     -10.989 -12.288  25.486  1.00  0.00     0.149 C 
HETATM   28  O1  UNL     1     -10.553 -11.950  24.391  1.00  0.00    -0.293 OA
BRANCH  27  29
HETATM   29  C4  UNL     1     -10.188 -13.141  26.424  1.00  0.00     0.052 C 
HETATM   30  C2  UNL     1      -9.011 -13.749  26.181  1.00  0.00    -0.084 C 
HETATM   31  C1  UNL     1      -8.254 -13.734  24.881  1.00  0.00     0.043 C 
HETATM   32  C3  UNL     1      -8.332 -14.544  27.271  1.00  0.00     0.043 C 
ENDBRANCH  27  29
ENDBRANCH  26  27
ENDBRANCH  24  26
ENDBRANCH   1  24
TORSDOF 4
ENDMDL
MODEL 5
REMARK minimizedAffinity -8.45632362
REMARK CNNscore 0.47642833
REMARK CNNaffinity 7.14664459
REMARK  4 active torsions:
REMARK  status: ('A' for Active; 'I' for Inactive)
REMARK    1  A    between atoms: C4_4  and  C5_5 
REMARK    2  A    between atoms: C5_5  and  C6_7 
REMARK    3  A    between atoms: C6_7  and  C7_8 
REMARK    4  A    between atoms: C7_8  and  C9_10 
ROOT
HETATM    1  C9  UNL     1       0.574   7.128  12.553  1.00  0.00    -0.001 C 
HETATM    2  C10 UNL     1       1.029   5.948  13.447  1.00  0.00     0.007 C 
HETATM    3  C11 UNL     1      -0.106   5.696  14.469  1.00  0.00     0.015 C 
HETATM    4  C12 UNL     1      -1.100   6.862  14.272  1.00  0.00    -0.013 C 
HETATM    5  C13 UNL     1      -0.575   8.026  15.173  1.00  0.00     0.021 C 
HETATM    6  C14 UNL     1      -2.558   6.652  14.658  1.00  0.00    -0.070 C 
HETATM    7  C15 UNL     1      -2.931   5.809  15.635  1.00  0.00    -0.022 C 
HETATM    8  C16 UNL     1      -4.335   5.602  16.102  1.00  0.00     0.034 C 
HETATM    9  C17 UNL     1      -5.440   6.469  15.445  1.00  0.00     0.013 C 
HETATM   10  C18 UNL     1      -6.481   5.653  14.595  1.00  0.00     0.018 C 
HETATM   11  C19 UNL     1      -7.189   4.601  15.482  1.00  0.00     0.023 C 
HETATM   12  C20 UNL     1      -5.876   4.940  13.376  1.00  0.00     0.023 C 
HETATM   13  C21 UNL     1      -7.583   6.600  14.086  1.00  0.00     0.135 C 
HETATM   14  O2  UNL     1      -8.604   6.179  13.537  1.00  0.00    -0.297 OA
HETATM   15  C22 UNL     1      -7.379   8.082  14.282  1.00  0.00     0.080 C 
HETATM   16  C23 UNL     1      -5.964   8.428  13.852  1.00  0.00     0.017 C 
HETATM   17  C24 UNL     1      -4.877   7.778  14.757  1.00  0.00    -0.031 C 
HETATM   18  C25 UNL     1      -4.533   8.792  15.885  1.00  0.00     0.016 C 
HETATM   19  C26 UNL     1      -3.597   7.463  13.895  1.00  0.00     0.024 C 
HETATM   20  C27 UNL     1      -2.994   8.685  13.153  1.00  0.00     0.010 C 
HETATM   21  C28 UNL     1      -1.701   8.414  12.346  1.00  0.00     0.011 C 
HETATM   22  C29 UNL     1      -0.979   7.105  12.729  1.00  0.00    -0.029 C 
HETATM   23  C30 UNL     1      -1.568   5.946  11.864  1.00  0.00     0.016 C 
ENDROOT
BRANCH   1  24
HETATM   24  C7  UNL     1       1.127   7.205  11.099  1.00  0.00    -0.007 C 
HETATM   25  C8  UNL     1       0.524   8.411  10.358  1.00  0.00     0.011 C 
BRANCH  24  26
HETATM   26  C6  UNL     1       2.656   7.131  10.908  1.00  0.00     0.087 C 
BRANCH  26  27
HETATM   27  C5  UNL     1       3.201   6.224   9.806  1.00  0.00     0.149 C 
HETATM   28  O1  UNL     1       4.165   5.484   9.962  1.00  0.00    -0.293 OA
BRANCH  27  29
HETATM   29  C4  UNL     1       2.469   6.300   8.499  1.00  0.00     0.052 C 
HETATM   30  C2  UNL     1       2.429   7.334   7.637  1.00  0.00    -0.084 C 
HETATM   31  C1  UNL     1       3.092   8.672   7.822  1.00  0.00     0.043 C 
HETATM   32  C3  UNL     1       1.661   7.210   6.342  1.00  0.00     0.043 C 
ENDBRANCH  27  29
ENDBRANCH  26  27
ENDBRANCH  24  26
ENDBRANCH   1  24
TORSDOF 4
ENDMDL
MODEL 6
REMARK minimizedAffinity -6.73449421
REMARK CNNscore 0.384180307
REMARK CNNaffinity 6.1340766
REMARK  4 active torsions:
REMARK  status: ('A' for Active; 'I' for Inactive)
REMARK    1  A    between atoms: C4_4  and  C5_5 
REMARK    2  A    between atoms: C5_5  and  C6_7 
REMARK    3  A    between atoms: C6_7  and  C7_8 
REMARK    4  A    between atoms: C7_8  and  C9_10 
ROOT
HETATM    1  C9  UNL     1     -14.464   9.156  23.509  1.00  0.00    -0.001 C 
HETATM    2  C10 UNL     1     -15.917   9.235  24.040  1.00  0.00     0.007 C 
HETATM    3  C11 UNL     1     -16.356   7.787  24.363  1.00  0.00     0.015 C 
HETATM    4  C12 UNL     1     -15.223   6.886  23.824  1.00  0.00    -0.013 C 
HETATM    5  C13 UNL     1     -15.560   6.631  22.320  1.00  0.00     0.021 C 
HETATM    6  C14 UNL     1     -15.019   5.513  24.452  1.00  0.00    -0.070 C 
HETATM    7  C15 UNL     1     -16.029   4.812  24.994  1.00  0.00    -0.022 C 
HETATM    8  C16 UNL     1     -15.908   3.439  25.570  1.00  0.00     0.034 C 
HETATM    9  C17 UNL     1     -14.523   2.749  25.486  1.00  0.00     0.013 C 
HETATM   10  C18 UNL     1     -13.841   2.496  26.880  1.00  0.00     0.018 C 
HETATM   11  C19 UNL     1     -14.745   1.603  27.763  1.00  0.00     0.023 C 
HETATM   12  C20 UNL     1     -13.505   3.777  27.657  1.00  0.00     0.023 C 
HETATM   13  C21 UNL     1     -12.530   1.714  26.676  1.00  0.00     0.135 C 
HETATM   14  O2  UNL     1     -11.893   1.246  27.623  1.00  0.00    -0.297 OA
HETATM   15  C22 UNL     1     -12.038   1.528  25.262  1.00  0.00     0.080 C 
HETATM   16  C23 UNL     1     -12.123   2.866  24.549  1.00  0.00     0.017 C 
HETATM   17  C24 UNL     1     -13.585   3.370  24.373  1.00  0.00    -0.031 C 
HETATM   18  C25 UNL     1     -14.095   2.867  22.992  1.00  0.00     0.016 C 
HETATM   19  C26 UNL     1     -13.607   4.944  24.424  1.00  0.00     0.024 C 
HETATM   20  C27 UNL     1     -12.687   5.643  23.388  1.00  0.00     0.010 C 
HETATM   21  C28 UNL     1     -12.735   7.191  23.378  1.00  0.00     0.011 C 
HETATM   22  C29 UNL     1     -13.969   7.790  24.084  1.00  0.00    -0.029 C 
HETATM   23  C30 UNL     1     -13.630   7.972  25.598  1.00  0.00     0.016 C 
ENDROOT
BRANCH   1  24
HETATM   24  C7  UNL     1     -13.539  10.393  23.710  1.00  0.00    -0.007 C 
HETATM   25  C8  UNL     1     -12.578  10.159  24.889  1.00  0.00     0.011 C 
BRANCH  24  26
HETATM   26  C6  UNL     1     -12.795  10.942  22.475  1.00  0.00     0.087 C 
BRANCH  26  27
HETATM   27  C5  UNL     1     -11.387  10.422  22.192  1.00  0.00     0.149 C 
HETATM   28  O1  UNL     1     -11.164   9.406  21.543  1.00  0.00    -0.293 OA
BRANCH  27  29
HETATM   29  C4  UNL     1     -10.276  11.248  22.769  1.00  0.00     0.052 C 
HETATM   30  C2  UNL     1      -9.564  12.213  22.156  1.00  0.00    -0.084 C 
HETATM   31  C1  UNL     1      -9.708  12.649  20.723  1.00  0.00     0.043 C 
HETATM   32  C3  UNL     1      -8.499  12.966  22.917  1.00  0.00     0.043 C 
ENDBRANCH  27  29
ENDBRANCH  26  27
ENDBRANCH  24  26
ENDBRANCH   1  24
TORSDOF 4
ENDMDL
MODEL 7
REMARK minimizedAffinity -8.034585
REMARK CNNscore 0.350270629
REMARK CNNaffinity 6.46842575
REMARK  4 active torsions:
REMARK  status: ('A' for Active; 'I' for Inactive)
REMARK    1  A    between atoms: C4_4  and  C5_5 
REMARK    2  A    between atoms: C5_5  and  C6_7 
REMARK    3  A    between atoms: C6_7  and  C7_8 
REMARK    4  A    between atoms: C7_8  and  C9_10 
ROOT
HETATM    1  C9  UNL     1      -3.521   7.494  14.333  1.00  0.00    -0.001 C 
HETATM    2  C10 UNL     1      -4.283   8.073  13.115  1.00  0.00     0.007 C 
HETATM    3  C11 UNL     1      -3.216   8.575  12.114  1.00  0.00     0.015 C 
HETATM    4  C12 UNL     1      -1.868   8.459  12.861  1.00  0.00    -0.013 C 
HETATM    5  C13 UNL     1      -1.711   9.790  13.665  1.00  0.00     0.021 C 
HETATM    6  C14 UNL     1      -0.591   8.304  12.046  1.00  0.00    -0.070 C 
HETATM    7  C15 UNL     1      -0.459   8.812  10.810  1.00  0.00    -0.022 C 
HETATM    8  C16 UNL     1       0.783   8.746   9.982  1.00  0.00     0.034 C 
HETATM    9  C17 UNL     1       2.032   8.089  10.622  1.00  0.00     0.013 C 
HETATM   10  C18 UNL     1       2.490   6.756   9.925  1.00  0.00     0.018 C 
HETATM   11  C19 UNL     1       2.821   7.018   8.437  1.00  0.00     0.023 C 
HETATM   12  C20 UNL     1       1.461   5.618  10.007  1.00  0.00     0.023 C 
HETATM   13  C21 UNL     1       3.794   6.257  10.575  1.00  0.00     0.135 C 
HETATM   14  O2  UNL     1       4.446   5.325  10.101  1.00  0.00    -0.297 OA
HETATM   15  C22 UNL     1       4.263   6.954  11.829  1.00  0.00     0.080 C 
HETATM   16  C23 UNL     1       3.075   7.100  12.764  1.00  0.00     0.017 C 
HETATM   17  C24 UNL     1       1.971   8.042  12.203  1.00  0.00    -0.031 C 
HETATM   18  C25 UNL     1       2.263   9.477  12.728  1.00  0.00     0.016 C 
HETATM   19  C26 UNL     1       0.560   7.553  12.703  1.00  0.00     0.024 C 
HETATM   20  C27 UNL     1       0.417   7.443  14.245  1.00  0.00     0.010 C 
HETATM   21  C28 UNL     1      -0.979   7.020  14.764  1.00  0.00     0.011 C 
HETATM   22  C29 UNL     1      -2.114   7.179  13.731  1.00  0.00    -0.029 C 
HETATM   23  C30 UNL     1      -2.206   5.862  12.895  1.00  0.00     0.016 C 
ENDROOT
BRANCH   1  24
HETATM   24  C7  UNL     1      -4.209   6.373  15.166  1.00  0.00    -0.007 C 
HETATM   25  C8  UNL     1      -5.474   6.915  15.856  1.00  0.00     0.011 C 
BRANCH  24  26
HETATM   26  C6  UNL     1      -4.480   5.024  14.469  1.00  0.00     0.087 C 
BRANCH  26  27
HETATM   27  C5  UNL     1      -5.582   4.969  13.411  1.00  0.00     0.149 C 
HETATM   28  O1  UNL     1      -6.529   5.746  13.387  1.00  0.00    -0.293 OA
BRANCH  27  29
HETATM   29  C4  UNL     1      -5.427   3.883  12.387  1.00  0.00     0.052 C 
HETATM   30  C2  UNL     1      -6.240   2.830  12.176  1.00  0.00    -0.084 C 
HETATM   31  C1  UNL     1      -7.478   2.491  12.961  1.00  0.00     0.043 C 
HETATM   32  C3  UNL     1      -5.938   1.853  11.065  1.00  0.00     0.043 C 
ENDBRANCH  27  29
ENDBRANCH  26  27
ENDBRANCH  24  26
ENDBRANCH   1  24
TORSDOF 4
ENDMDL
MODEL 8
REMARK minimizedAffinity -7.64123917
REMARK CNNscore 0.303652912
REMARK CNNaffinity 6.25894928
REMARK  4 active torsions:
REMARK  status: ('A' for Active; 'I' for Inactive)
REMARK    1  A    between atoms: C4_4  and  C5_5 
REMARK    2  A    between atoms: C5_5  and  C6_7 
REMARK    3  A    between atoms: C6_7  and  C7_8 
REMARK    4  A    between atoms: C7_8  and  C9_10 
ROOT
HETATM    1  C9  UNL     1      -1.296   7.022  13.356  1.00  0.00    -0.001 C 
HETATM    2  C10 UNL     1      -2.652   7.163  12.622  1.00  0.00     0.007 C 
HETATM    3  C11 UNL     1      -3.513   8.144  13.454  1.00  0.00     0.015 C 
HETATM    4  C12 UNL     1      -2.712   8.391  14.752  1.00  0.00    -0.013 C 
HETATM    5  C13 UNL     1      -3.117   7.239  15.728  1.00  0.00     0.021 C 
HETATM    6  C14 UNL     1      -2.937   9.690  15.514  1.00  0.00    -0.070 C 
HETATM    7  C15 UNL     1      -4.110  10.343  15.494  1.00  0.00    -0.022 C 
HETATM    8  C16 UNL     1      -4.414  11.587  16.264  1.00  0.00     0.034 C 
HETATM    9  C17 UNL     1      -3.307  12.134  17.200  1.00  0.00     0.013 C 
HETATM   10  C18 UNL     1      -2.730  13.533  16.771  1.00  0.00     0.018 C 
HETATM   11  C19 UNL     1      -3.860  14.588  16.732  1.00  0.00     0.023 C 
HETATM   12  C20 UNL     1      -2.015  13.527  15.412  1.00  0.00     0.023 C 
HETATM   13  C21 UNL     1      -1.723  14.020  17.829  1.00  0.00     0.135 C 
HETATM   14  O2  UNL     1      -1.256  15.161  17.812  1.00  0.00    -0.297 OA
HETATM   15  C22 UNL     1      -1.316  13.048  18.910  1.00  0.00     0.080 C 
HETATM   16  C23 UNL     1      -0.990  11.718  18.253  1.00  0.00     0.017 C 
HETATM   17  C24 UNL     1      -2.228  11.045  17.592  1.00  0.00    -0.031 C 
HETATM   18  C25 UNL     1      -2.873  10.101  18.646  1.00  0.00     0.016 C 
HETATM   19  C26 UNL     1      -1.767  10.222  16.331  1.00  0.00     0.024 C 
HETATM   20  C27 UNL     1      -0.680   9.151  16.613  1.00  0.00     0.010 C 
HETATM   21  C28 UNL     1      -0.252   8.288  15.400  1.00  0.00     0.011 C 
HETATM   22  C29 UNL     1      -1.241   8.326  14.216  1.00  0.00    -0.029 C 
HETATM   23  C30 UNL     1      -0.857   9.525  13.292  1.00  0.00     0.016 C 
ENDROOT
BRANCH   1  24
HETATM   24  C7  UNL     1      -0.036   6.671  12.511  1.00  0.00    -0.007 C 
HETATM   25  C8  UNL     1       0.407   5.222  12.783  1.00  0.00     0.011 C 
BRANCH  24  26
HETATM   26  C6  UNL     1      -0.079   6.973  10.998  1.00  0.00     0.087 C 
BRANCH  26  27
HETATM   27  C5  UNL     1       1.003   7.880  10.414  1.00  0.00     0.149 C 
HETATM   28  O1  UNL     1       1.744   8.572  11.104  1.00  0.00    -0.293 OA
BRANCH  27  29
HETATM   29  C4  UNL     1       1.103   7.870   8.917  1.00  0.00     0.052 C 
HETATM   30  C2  UNL     1       1.887   7.089   8.151  1.00  0.00    -0.084 C 
HETATM   31  C1  UNL     1       2.877   6.068   8.642  1.00  0.00     0.043 C 
HETATM   32  C3  UNL     1       1.823   7.199   6.646  1.00  0.00     0.043 C 
ENDBRANCH  27  29
ENDBRANCH  26  27
ENDBRANCH  24  26
ENDBRANCH   1  24
TORSDOF 4
ENDMDL
MODEL 9
REMARK minimizedAffinity -6.50848198
REMARK CNNscore 0.292982042
REMARK CNNaffinity 6.22102499
REMARK  4 active torsions:
REMARK  status: ('A' for Active; 'I' for Inactive)
REMARK    1  A    between atoms: C4_4  and  C5_5 
REMARK    2  A    between atoms: C5_5  and  C6_7 
REMARK    3  A    between atoms: C6_7  and  C7_8 
REMARK    4  A    between atoms: C7_8  and  C9_10 
ROOT
HETATM    1  C9  UNL     1      -9.999  -6.210  -6.464  1.00  0.00    -0.001 C 
HETATM    2  C10 UNL     1     -10.524  -7.385  -7.326  1.00  0.00     0.007 C 
HETATM    3  C11 UNL     1     -10.129  -8.690  -6.596  1.00  0.00     0.015 C 
HETATM    4  C12 UNL     1      -9.211  -8.247  -5.434  1.00  0.00    -0.013 C 
HETATM    5  C13 UNL     1      -7.770  -8.170  -6.035  1.00  0.00     0.021 C 
HETATM    6  C14 UNL     1      -9.110  -9.137  -4.202  1.00  0.00    -0.070 C 
HETATM    7  C15 UNL     1      -9.269 -10.469  -4.261  1.00  0.00    -0.022 C 
HETATM    8  C16 UNL     1      -9.123 -11.403  -3.104  1.00  0.00     0.034 C 
HETATM    9  C17 UNL     1      -8.703 -10.792  -1.743  1.00  0.00     0.013 C 
HETATM   10  C18 UNL     1      -9.800 -10.894  -0.621  1.00  0.00     0.018 C 
HETATM   11  C19 UNL     1     -10.167 -12.375  -0.366  1.00  0.00     0.023 C 
HETATM   12  C20 UNL     1     -11.088 -10.115  -0.929  1.00  0.00     0.023 C 
HETATM   13  C21 UNL     1      -9.232 -10.356   0.705  1.00  0.00     0.135 C 
HETATM   14  O2  UNL     1      -9.835 -10.480   1.773  1.00  0.00    -0.297 OA
HETATM   15  C22 UNL     1      -7.892  -9.664   0.663  1.00  0.00     0.080 C 
HETATM   16  C23 UNL     1      -7.900  -8.682  -0.496  1.00  0.00     0.017 C 
HETATM   17  C24 UNL     1      -8.004  -9.379  -1.884  1.00  0.00    -0.031 C 
HETATM   18  C25 UNL     1      -6.558  -9.619  -2.402  1.00  0.00     0.016 C 
HETATM   19  C26 UNL     1      -8.795  -8.450  -2.880  1.00  0.00     0.024 C 
HETATM   20  C27 UNL     1      -8.202  -7.027  -3.055  1.00  0.00     0.010 C 
HETATM   21  C28 UNL     1      -8.928  -6.114  -4.073  1.00  0.00     0.011 C 
HETATM   22  C29 UNL     1      -9.851  -6.868  -5.054  1.00  0.00    -0.029 C 
HETATM   23  C30 UNL     1     -11.265  -6.991  -4.403  1.00  0.00     0.016 C 
ENDROOT
BRANCH   1  24
HETATM   24  C7  UNL     1     -10.749  -4.848  -6.541  1.00  0.00    -0.007 C 
HETATM   25  C8  UNL     1     -11.882  -4.917  -7.581  1.00  0.00     0.011 C 
BRANCH  24  26
HETATM   26  C6  UNL     1     -11.235  -4.220  -5.218  1.00  0.00     0.087 C 
BRANCH  26  27
HETATM   27  C5  UNL     1     -10.694  -2.844  -4.833  1.00  0.00     0.149 C 
HETATM   28  O1  UNL     1     -11.383  -1.971  -4.318  1.00  0.00    -0.293 OA
BRANCH  27  29
HETATM   29  C4  UNL     1      -9.240  -2.625  -5.132  1.00  0.00     0.052 C 
HETATM   30  C2  UNL     1      -8.649  -1.491  -5.556  1.00  0.00    -0.084 C 
HETATM   31  C1  UNL     1      -9.339  -0.190  -5.862  1.00  0.00     0.043 C 
HETATM   32  C3  UNL     1      -7.154  -1.453  -5.770  1.00  0.00     0.043 C 
ENDBRANCH  27  29
ENDBRANCH  26  27
ENDBRANCH  24  26
ENDBRANCH   1  24
TORSDOF 4
ENDMDL
