MODEL 1
REMARK minimizedAffinity -8.00706768
REMARK  13 active torsions:
REMARK  status: ('A' for Active; 'I' for Inactive)
REMARK    1  A    between atoms: C4_4  and  C5_5 
REMARK    2  A    between atoms: C5_5  and  C6_6 
REMARK    3  A    between atoms: C6_6  and  C7_7 
REMARK    4  A    between atoms: C9_9  and  C10_10 
REMARK    5  A    between atoms: C11_11  and  C12_12 
REMARK    6  A    between atoms: C14_14  and  C15_15 
REMARK    7  A    between atoms: C18_18  and  O1_19 
REMARK    8  A    between atoms: C19_21  and  C20_22 
REMARK    9  A    between atoms: C20_22  and  C21_23 
REMARK   10  A    between atoms: C21_23  and  C22_24 
REMARK   11  A    between atoms: C22_24  and  O3_25 
REMARK   12  A    between atoms: C24_27  and  C26_29 
REMARK   13  A    between atoms: C29_33  and  O5_35 
ROOT
HETATM    1  C15 UNL     1      -2.280   9.703  16.295  1.00  0.00     0.149 C 
HETATM    2  C16 UNL     1      -1.747   8.544  15.458  1.00  0.00     0.054 C 
HETATM    3  C17 UNL     1      -2.273   8.792  14.028  1.00  0.00     0.050 C 
HETATM    4  C18 UNL     1      -2.393  10.331  14.058  1.00  0.00     0.270 C 
HETATM    5  O2  UNL     1      -2.757  10.703  15.384  1.00  0.00    -0.351 OA
HETATM    6  C19 UNL     1      -1.204   8.295  12.982  1.00  0.00     0.032 C 
HETATM    7  C23 UNL     1      -1.108   6.758  12.994  1.00  0.00    -0.066 C 
HETATM    8  C24 UNL     1       0.005   6.023  13.255  1.00  0.00    -0.021 C 
HETATM    9  C25 UNL     1       0.068   4.517  13.168  1.00  0.00     0.052 C 
HETATM   10  C27 UNL     1      -2.450   6.102  12.706  1.00  0.00     0.038 C 
HETATM   11  C28 UNL     1      -3.525   6.567  13.687  1.00  0.00     0.042 C 
HETATM   12  C29 UNL     1      -3.667   8.102  13.770  1.00  0.00     0.067 C 
HETATM   13  C30 UNL     1      -4.773   8.424  14.788  1.00  0.00     0.047 C 
ENDROOT
BRANCH   4  14
HETATM   14  O1  UNL     1      -1.147  10.969  13.794  1.00  0.00    -0.370 OA
HETATM   15  H26 UNL     1      -1.362  11.918  13.870  1.00  0.00     0.212 HD
ENDBRANCH   4  14
BRANCH   6  16
HETATM   16  C20 UNL     1      -1.409   8.835  11.538  1.00  0.00     0.012 C 
BRANCH  16  17
HETATM   17  C21 UNL     1      -0.161   8.752  10.646  1.00  0.00     0.027 C 
BRANCH  17  18
HETATM   18  C22 UNL     1      -0.428   8.416   9.180  1.00  0.00     0.164 C 
BRANCH  18  19
HETATM   19  O3  UNL     1       0.575   8.951   8.329  1.00  0.00    -0.401 OA
HETATM   20  H34 UNL     1       1.379   8.405   8.448  1.00  0.00     0.209 HD
ENDBRANCH  18  19
ENDBRANCH  17  18
ENDBRANCH  16  17
ENDBRANCH   6  16
BRANCH  12  21
HETATM   21  O5  UNL     1      -4.162   8.562  12.502  1.00  0.00    -0.389 OA
HETATM   22  H46 UNL     1      -5.016   8.129  12.323  1.00  0.00     0.210 HD
ENDBRANCH  12  21
BRANCH   1  23
HETATM   23  C14 UNL     1      -1.235  10.328  17.175  1.00  0.00     0.011 C 
HETATM   24  C12 UNL     1      -1.432  11.089  18.273  1.00  0.00    -0.063 C 
HETATM   25  C13 UNL     1      -2.796  11.402  18.833  1.00  0.00     0.048 C 
BRANCH  24  26
HETATM   26  C11 UNL     1      -0.262  11.631  18.967  1.00  0.00     0.006 C 
HETATM   27  C10 UNL     1       0.330  11.116  20.057  1.00  0.00     0.001 C 
BRANCH  27  28
HETATM   28  C9  UNL     1       1.478  11.737  20.687  1.00  0.00     0.002 C 
HETATM   29  C7  UNL     1       2.531  11.106  21.245  1.00  0.00    -0.084 C 
HETATM   30  C8  UNL     1       2.743   9.614  21.247  1.00  0.00     0.043 C 
BRANCH  29  31
HETATM   31  C6  UNL     1       3.645  11.923  21.886  1.00  0.00     0.037 C 
BRANCH  31  32
HETATM   32  C5  UNL     1       4.307  11.261  23.102  1.00  0.00     0.031 C 
BRANCH  32  33
HETATM   33  C4  UNL     1       5.811  11.261  23.060  1.00  0.00    -0.024 C 
HETATM   34  C2  UNL     1       6.630  12.330  23.086  1.00  0.00    -0.091 C 
HETATM   35  C1  UNL     1       6.174  13.762  23.127  1.00  0.00     0.042 C 
HETATM   36  C3  UNL     1       8.126  12.154  23.061  1.00  0.00     0.042 C 
ENDBRANCH  32  33
ENDBRANCH  31  32
ENDBRANCH  29  31
ENDBRANCH  27  28
ENDBRANCH  24  26
ENDBRANCH   1  23
BRANCH   8  37
HETATM   37  C26 UNL     1       1.312   6.637  13.660  1.00  0.00     0.265 C 
HETATM   38  O4  UNL     1       2.122   7.074  12.850  1.00  0.00    -0.302 OA
ENDBRANCH   8  37
TORSDOF 13
ENDMDL
MODEL 2
REMARK minimizedAffinity -7.95605469
REMARK  13 active torsions:
REMARK  status: ('A' for Active; 'I' for Inactive)
REMARK    1  A    between atoms: C4_4  and  C5_5 
REMARK    2  A    between atoms: C5_5  and  C6_6 
REMARK    3  A    between atoms: C6_6  and  C7_7 
REMARK    4  A    between atoms: C9_9  and  C10_10 
REMARK    5  A    between atoms: C11_11  and  C12_12 
REMARK    6  A    between atoms: C14_14  and  C15_15 
REMARK    7  A    between atoms: C18_18  and  O1_19 
REMARK    8  A    between atoms: C19_21  and  C20_22 
REMARK    9  A    between atoms: C20_22  and  C21_23 
REMARK   10  A    between atoms: C21_23  and  C22_24 
REMARK   11  A    between atoms: C22_24  and  O3_25 
REMARK   12  A    between atoms: C24_27  and  C26_29 
REMARK   13  A    between atoms: C29_33  and  O5_35 
ROOT
HETATM    1  C15 UNL     1       0.752   8.669  14.657  1.00  0.00     0.149 C 
HETATM    2  C16 UNL     1       1.993   8.810  13.780  1.00  0.00     0.054 C 
HETATM    3  C17 UNL     1       3.191   8.775  14.754  1.00  0.00     0.050 C 
HETATM    4  C18 UNL     1       2.580   7.925  15.888  1.00  0.00     0.270 C 
HETATM    5  O2  UNL     1       1.191   8.237  15.952  1.00  0.00    -0.351 OA
HETATM    6  C19 UNL     1       4.410   8.057  14.059  1.00  0.00     0.032 C 
HETATM    7  C23 UNL     1       4.981   8.932  12.927  1.00  0.00    -0.066 C 
HETATM    8  C24 UNL     1       5.082   8.586  11.617  1.00  0.00    -0.021 C 
HETATM    9  C25 UNL     1       5.731   9.448  10.560  1.00  0.00     0.052 C 
HETATM   10  C27 UNL     1       5.411  10.302  13.428  1.00  0.00     0.038 C 
HETATM   11  C28 UNL     1       4.263  11.031  14.126  1.00  0.00     0.042 C 
HETATM   12  C29 UNL     1       3.603  10.211  15.255  1.00  0.00     0.067 C 
HETATM   13  C30 UNL     1       2.473  11.059  15.861  1.00  0.00     0.047 C 
ENDROOT
BRANCH   4  14
HETATM   14  O1  UNL     1       2.661   6.530  15.615  1.00  0.00    -0.370 OA
HETATM   15  H26 UNL     1       2.222   6.125  16.387  1.00  0.00     0.212 HD
ENDBRANCH   4  14
BRANCH   6  16
HETATM   16  C20 UNL     1       5.532   7.595  15.033  1.00  0.00     0.012 C 
BRANCH  16  17
HETATM   17  C21 UNL     1       6.949   7.647  14.440  1.00  0.00     0.027 C 
BRANCH  17  18
HETATM   18  C22 UNL     1       8.048   8.071  15.412  1.00  0.00     0.164 C 
BRANCH  18  19
HETATM   19  O3  UNL     1       7.580   8.101  16.752  1.00  0.00    -0.401 OA
HETATM   20  H34 UNL     1       7.488   7.172  17.049  1.00  0.00     0.209 HD
ENDBRANCH  18  19
ENDBRANCH  17  18
ENDBRANCH  16  17
ENDBRANCH   6  16
BRANCH  12  21
HETATM   21  O5  UNL     1       4.573  10.055  16.303  1.00  0.00    -0.389 OA
HETATM   22  H46 UNL     1       4.848  10.937  16.610  1.00  0.00     0.210 HD
ENDBRANCH  12  21
BRANCH   1  23
HETATM   23  C14 UNL     1      -0.232   7.662  14.133  1.00  0.00     0.011 C 
HETATM   24  C12 UNL     1      -1.208   7.862  13.222  1.00  0.00    -0.063 C 
HETATM   25  C13 UNL     1      -1.436   9.180  12.525  1.00  0.00     0.048 C 
BRANCH  24  26
HETATM   26  C11 UNL     1      -2.086   6.743  12.880  1.00  0.00     0.006 C 
HETATM   27  C10 UNL     1      -2.221   5.594  13.563  1.00  0.00     0.001 C 
BRANCH  27  28
HETATM   28  C9  UNL     1      -3.106   4.530  13.133  1.00  0.00     0.002 C 
HETATM   29  C7  UNL     1      -3.036   3.839  11.977  1.00  0.00    -0.084 C 
HETATM   30  C8  UNL     1      -1.957   4.002  10.938  1.00  0.00     0.043 C 
BRANCH  29  31
HETATM   31  C6  UNL     1      -4.070   2.763  11.680  1.00  0.00     0.037 C 
BRANCH  31  32
HETATM   32  C5  UNL     1      -5.524   3.257  11.670  1.00  0.00     0.031 C 
BRANCH  32  33
HETATM   33  C4  UNL     1      -6.050   3.647  13.025  1.00  0.00    -0.024 C 
HETATM   34  C2  UNL     1      -7.113   4.430  13.297  1.00  0.00    -0.091 C 
HETATM   35  C1  UNL     1      -7.969   5.105  12.262  1.00  0.00     0.042 C 
HETATM   36  C3  UNL     1      -7.523   4.703  14.720  1.00  0.00     0.042 C 
ENDBRANCH  32  33
ENDBRANCH  31  32
ENDBRANCH  29  31
ENDBRANCH  27  28
ENDBRANCH  24  26
ENDBRANCH   1  23
BRANCH   8  37
HETATM   37  C26 UNL     1       4.558   7.292  11.071  1.00  0.00     0.265 C 
HETATM   38  O4  UNL     1       4.508   7.047   9.870  1.00  0.00    -0.302 OA
ENDBRANCH   8  37
TORSDOF 13
ENDMDL
MODEL 3
REMARK minimizedAffinity -7.74819088
REMARK  13 active torsions:
REMARK  status: ('A' for Active; 'I' for Inactive)
REMARK    1  A    between atoms: C4_4  and  C5_5 
REMARK    2  A    between atoms: C5_5  and  C6_6 
REMARK    3  A    between atoms: C6_6  and  C7_7 
REMARK    4  A    between atoms: C9_9  and  C10_10 
REMARK    5  A    between atoms: C11_11  and  C12_12 
REMARK    6  A    between atoms: C14_14  and  C15_15 
REMARK    7  A    between atoms: C18_18  and  O1_19 
REMARK    8  A    between atoms: C19_21  and  C20_22 
REMARK    9  A    between atoms: C20_22  and  C21_23 
REMARK   10  A    between atoms: C21_23  and  C22_24 
REMARK   11  A    between atoms: C22_24  and  O3_25 
REMARK   12  A    between atoms: C24_27  and  C26_29 
REMARK   13  A    between atoms: C29_33  and  O5_35 
ROOT
HETATM    1  C15 UNL     1       0.770   5.984  11.110  1.00  0.00     0.149 C 
HETATM    2  C16 UNL     1       1.875   6.426  12.065  1.00  0.00     0.054 C 
HETATM    3  C17 UNL     1       2.600   7.586  11.347  1.00  0.00     0.050 C 
HETATM    4  C18 UNL     1       1.439   8.121  10.480  1.00  0.00     0.270 C 
HETATM    5  O2  UNL     1       0.634   7.005  10.112  1.00  0.00    -0.351 OA
HETATM    6  C19 UNL     1       3.086   8.640  12.413  1.00  0.00     0.032 C 
HETATM    7  C23 UNL     1       4.233   8.062  13.262  1.00  0.00    -0.066 C 
HETATM    8  C24 UNL     1       4.237   7.911  14.613  1.00  0.00    -0.021 C 
HETATM    9  C25 UNL     1       5.423   7.420  15.408  1.00  0.00     0.052 C 
HETATM   10  C27 UNL     1       5.409   7.621  12.405  1.00  0.00     0.038 C 
HETATM   11  C28 UNL     1       4.982   6.608  11.343  1.00  0.00     0.042 C 
HETATM   12  C29 UNL     1       3.807   7.089  10.464  1.00  0.00     0.067 C 
HETATM   13  C30 UNL     1       3.485   5.978   9.451  1.00  0.00     0.047 C 
ENDROOT
BRANCH   4  14
HETATM   14  O1  UNL     1       0.588   9.000  11.209  1.00  0.00    -0.370 OA
HETATM   15  H26 UNL     1      -0.101   9.234  10.559  1.00  0.00     0.212 HD
ENDBRANCH   4  14
BRANCH   6  16
HETATM   16  C20 UNL     1       3.465  10.029  11.825  1.00  0.00     0.012 C 
BRANCH  16  17
HETATM   17  C21 UNL     1       3.978  11.040  12.863  1.00  0.00     0.027 C 
BRANCH  17  18
HETATM   18  C22 UNL     1       5.417  11.509  12.662  1.00  0.00     0.164 C 
BRANCH  18  19
HETATM   19  O3  UNL     1       5.841  11.340  11.318  1.00  0.00    -0.401 OA
HETATM   20  H34 UNL     1       5.397  12.032  10.784  1.00  0.00     0.209 HD
ENDBRANCH  18  19
ENDBRANCH  17  18
ENDBRANCH  16  17
ENDBRANCH   6  16
BRANCH  12  21
HETATM   21  O5  UNL     1       4.275   8.201   9.684  1.00  0.00    -0.389 OA
HETATM   22  H46 UNL     1       5.032   7.910   9.147  1.00  0.00     0.210 HD
ENDBRANCH  12  21
BRANCH   1  23
HETATM   23  C14 UNL     1      -0.560   5.806  11.786  1.00  0.00     0.011 C 
HETATM   24  C12 UNL     1      -1.241   4.656  11.971  1.00  0.00    -0.063 C 
HETATM   25  C13 UNL     1      -0.722   3.305  11.549  1.00  0.00     0.048 C 
BRANCH  24  26
HETATM   26  C11 UNL     1      -2.548   4.715  12.627  1.00  0.00     0.006 C 
HETATM   27  C10 UNL     1      -3.635   3.990  12.313  1.00  0.00     0.001 C 
BRANCH  27  28
HETATM   28  C9  UNL     1      -4.896   4.132  13.012  1.00  0.00     0.002 C 
HETATM   29  C7  UNL     1      -6.036   3.454  12.765  1.00  0.00    -0.084 C 
HETATM   30  C8  UNL     1      -6.183   2.353  11.746  1.00  0.00     0.043 C 
BRANCH  29  31
HETATM   31  C6  UNL     1      -7.280   3.750  13.590  1.00  0.00     0.037 C 
BRANCH  31  32
HETATM   32  C5  UNL     1      -8.125   4.924  13.076  1.00  0.00     0.031 C 
BRANCH  32  33
HETATM   33  C4  UNL     1      -7.618   6.277  13.498  1.00  0.00    -0.024 C 
HETATM   34  C2  UNL     1      -7.454   6.734  14.754  1.00  0.00    -0.091 C 
HETATM   35  C1  UNL     1      -7.794   5.964  16.000  1.00  0.00     0.042 C 
HETATM   36  C3  UNL     1      -6.908   8.115  15.005  1.00  0.00     0.042 C 
ENDBRANCH  32  33
ENDBRANCH  31  32
ENDBRANCH  29  31
ENDBRANCH  27  28
ENDBRANCH  24  26
ENDBRANCH   1  23
BRANCH   8  37
HETATM   37  C26 UNL     1       3.049   8.224  15.472  1.00  0.00     0.265 C 
HETATM   38  O4  UNL     1       2.415   7.362  16.072  1.00  0.00    -0.302 OA
ENDBRANCH   8  37
TORSDOF 13
ENDMDL
MODEL 4
REMARK minimizedAffinity -7.64582968
REMARK  13 active torsions:
REMARK  status: ('A' for Active; 'I' for Inactive)
REMARK    1  A    between atoms: C4_4  and  C5_5 
REMARK    2  A    between atoms: C5_5  and  C6_6 
REMARK    3  A    between atoms: C6_6  and  C7_7 
REMARK    4  A    between atoms: C9_9  and  C10_10 
REMARK    5  A    between atoms: C11_11  and  C12_12 
REMARK    6  A    between atoms: C14_14  and  C15_15 
REMARK    7  A    between atoms: C18_18  and  O1_19 
REMARK    8  A    between atoms: C19_21  and  C20_22 
REMARK    9  A    between atoms: C20_22  and  C21_23 
REMARK   10  A    between atoms: C21_23  and  C22_24 
REMARK   11  A    between atoms: C22_24  and  O3_25 
REMARK   12  A    between atoms: C24_27  and  C26_29 
REMARK   13  A    between atoms: C29_33  and  O5_35 
ROOT
HETATM    1  C15 UNL     1      -3.490  10.022  15.385  1.00  0.00     0.149 C 
HETATM    2  C16 UNL     1      -2.018  10.372  15.580  1.00  0.00     0.054 C 
HETATM    3  C17 UNL     1      -1.953  11.159  16.907  1.00  0.00     0.050 C 
HETATM    4  C18 UNL     1      -3.177  10.553  17.628  1.00  0.00     0.270 C 
HETATM    5  O2  UNL     1      -4.155  10.261  16.633  1.00  0.00    -0.351 OA
HETATM    6  C19 UNL     1      -0.601  10.829  17.646  1.00  0.00     0.032 C 
HETATM    7  C23 UNL     1       0.593  11.440  16.889  1.00  0.00    -0.066 C 
HETATM    8  C24 UNL     1       1.654  10.761  16.379  1.00  0.00    -0.021 C 
HETATM    9  C25 UNL     1       2.844  11.417  15.721  1.00  0.00     0.052 C 
HETATM   10  C27 UNL     1       0.453  12.945  16.723  1.00  0.00     0.038 C 
HETATM   11  C28 UNL     1      -0.855  13.314  16.025  1.00  0.00     0.042 C 
HETATM   12  C29 UNL     1      -2.108  12.712  16.696  1.00  0.00     0.067 C 
HETATM   13  C30 UNL     1      -3.340  13.160  15.892  1.00  0.00     0.047 C 
ENDROOT
BRANCH   4  14
HETATM   14  O1  UNL     1      -2.869   9.314  18.257  1.00  0.00    -0.370 OA
HETATM   15  H26 UNL     1      -3.723   9.040  18.642  1.00  0.00     0.212 HD
ENDBRANCH   4  14
BRANCH   6  16
HETATM   16  C20 UNL     1      -0.572  11.222  19.151  1.00  0.00     0.012 C 
BRANCH  16  17
HETATM   17  C21 UNL     1       0.827  11.551  19.695  1.00  0.00     0.027 C 
BRANCH  17  18
HETATM   18  C22 UNL     1       1.432  10.498  20.622  1.00  0.00     0.164 C 
BRANCH  18  19
HETATM   19  O3  UNL     1       2.475   9.776  19.984  1.00  0.00    -0.401 OA
HETATM   20  H34 UNL     1       3.251  10.371  19.931  1.00  0.00     0.209 HD
ENDBRANCH  18  19
ENDBRANCH  17  18
ENDBRANCH  16  17
ENDBRANCH   6  16
BRANCH  12  21
HETATM   21  O5  UNL     1      -2.246  13.325  17.988  1.00  0.00    -0.389 OA
HETATM   22  H46 UNL     1      -2.326  14.288  17.871  1.00  0.00     0.210 HD
ENDBRANCH  12  21
BRANCH   1  23
HETATM   23  C14 UNL     1      -3.713   8.588  14.999  1.00  0.00     0.011 C 
HETATM   24  C12 UNL     1      -3.507   8.018  13.793  1.00  0.00    -0.063 C 
HETATM   25  C13 UNL     1      -2.950   8.764  12.607  1.00  0.00     0.048 C 
BRANCH  24  26
HETATM   26  C11 UNL     1      -3.827   6.600  13.625  1.00  0.00     0.006 C 
HETATM   27  C10 UNL     1      -3.035   5.660  13.083  1.00  0.00     0.001 C 
BRANCH  27  28
HETATM   28  C9  UNL     1      -3.448   4.279  12.942  1.00  0.00     0.002 C 
HETATM   29  C7  UNL     1      -3.298   3.499  11.851  1.00  0.00    -0.084 C 
HETATM   30  C8  UNL     1      -2.593   3.911  10.585  1.00  0.00     0.043 C 
BRANCH  29  31
HETATM   31  C6  UNL     1      -3.815   2.067  11.874  1.00  0.00     0.037 C 
BRANCH  31  32
HETATM   32  C5  UNL     1      -5.294   1.914  11.492  1.00  0.00     0.031 C 
BRANCH  32  33
HETATM   33  C4  UNL     1      -6.064   3.207  11.488  1.00  0.00    -0.024 C 
HETATM   34  C2  UNL     1      -6.988   3.612  12.382  1.00  0.00    -0.091 C 
HETATM   35  C1  UNL     1      -7.457   2.804  13.560  1.00  0.00     0.042 C 
HETATM   36  C3  UNL     1      -7.653   4.957  12.245  1.00  0.00     0.042 C 
ENDBRANCH  32  33
ENDBRANCH  31  32
ENDBRANCH  29  31
ENDBRANCH  27  28
ENDBRANCH  24  26
ENDBRANCH   1  23
BRANCH   8  37
HETATM   37  C26 UNL     1       1.763   9.266  16.420  1.00  0.00     0.265 C 
HETATM   38  O4  UNL     1       2.240   8.658  17.373  1.00  0.00    -0.302 OA
ENDBRANCH   8  37
TORSDOF 13
ENDMDL
MODEL 5
REMARK minimizedAffinity -7.61877966
REMARK  13 active torsions:
REMARK  status: ('A' for Active; 'I' for Inactive)
REMARK    1  A    between atoms: C4_4  and  C5_5 
REMARK    2  A    between atoms: C5_5  and  C6_6 
REMARK    3  A    between atoms: C6_6  and  C7_7 
REMARK    4  A    between atoms: C9_9  and  C10_10 
REMARK    5  A    between atoms: C11_11  and  C12_12 
REMARK    6  A    between atoms: C14_14  and  C15_15 
REMARK    7  A    between atoms: C18_18  and  O1_19 
REMARK    8  A    between atoms: C19_21  and  C20_22 
REMARK    9  A    between atoms: C20_22  and  C21_23 
REMARK   10  A    between atoms: C21_23  and  C22_24 
REMARK   11  A    between atoms: C22_24  and  O3_25 
REMARK   12  A    between atoms: C24_27  and  C26_29 
REMARK   13  A    between atoms: C29_33  and  O5_35 
ROOT
HETATM    1  C15 UNL     1       1.003   6.291  11.339  1.00  0.00     0.149 C 
HETATM    2  C16 UNL     1       2.332   6.585  12.028  1.00  0.00     0.054 C 
HETATM    3  C17 UNL     1       2.941   7.777  11.258  1.00  0.00     0.050 C 
HETATM    4  C18 UNL     1       1.646   8.448  10.752  1.00  0.00     0.270 C 
HETATM    5  O2  UNL     1       0.702   7.411  10.496  1.00  0.00    -0.351 OA
HETATM    6  C19 UNL     1       3.738   8.696  12.260  1.00  0.00     0.032 C 
HETATM    7  C23 UNL     1       5.014   7.985  12.749  1.00  0.00    -0.066 C 
HETATM    8  C24 UNL     1       5.331   7.699  14.039  1.00  0.00    -0.021 C 
HETATM    9  C25 UNL     1       6.636   7.078  14.475  1.00  0.00     0.052 C 
HETATM   10  C27 UNL     1       5.918   7.579  11.595  1.00  0.00     0.038 C 
HETATM   11  C28 UNL     1       5.181   6.699  10.587  1.00  0.00     0.042 C 
HETATM   12  C29 UNL     1       3.865   7.317  10.068  1.00  0.00     0.067 C 
HETATM   13  C30 UNL     1       3.236   6.329   9.072  1.00  0.00     0.047 C 
ENDROOT
BRANCH   4  14
HETATM   14  O1  UNL     1       1.056   9.286  11.740  1.00  0.00    -0.370 OA
HETATM   15  H26 UNL     1       0.249   9.616  11.300  1.00  0.00     0.212 HD
ENDBRANCH   4  14
BRANCH   6  16
HETATM   16  C20 UNL     1       4.060  10.119  11.719  1.00  0.00     0.012 C 
BRANCH  16  17
HETATM   17  C21 UNL     1       4.918  10.977  12.661  1.00  0.00     0.027 C 
BRANCH  17  18
HETATM   18  C22 UNL     1       4.564  12.462  12.696  1.00  0.00     0.164 C 
BRANCH  18  19
HETATM   19  O3  UNL     1       5.311  13.202  11.742  1.00  0.00    -0.401 OA
HETATM   20  H34 UNL     1       4.942  12.996  10.859  1.00  0.00     0.209 HD
ENDBRANCH  18  19
ENDBRANCH  17  18
ENDBRANCH  16  17
ENDBRANCH   6  16
BRANCH  12  21
HETATM   21  O5  UNL     1       4.207   8.480   9.295  1.00  0.00    -0.389 OA
HETATM   22  H46 UNL     1       4.792   8.210   8.566  1.00  0.00     0.210 HD
ENDBRANCH  12  21
BRANCH   1  23
HETATM   23  C14 UNL     1      -0.135   6.106  12.302  1.00  0.00     0.011 C 
HETATM   24  C12 UNL     1      -1.174   5.251  12.193  1.00  0.00    -0.063 C 
HETATM   25  C13 UNL     1      -1.329   4.272  11.057  1.00  0.00     0.048 C 
BRANCH  24  26
HETATM   26  C11 UNL     1      -2.200   5.260  13.237  1.00  0.00     0.006 C 
HETATM   27  C10 UNL     1      -3.475   5.660  13.101  1.00  0.00     0.001 C 
BRANCH  27  28
HETATM   28  C9  UNL     1      -4.417   5.650  14.202  1.00  0.00     0.002 C 
HETATM   29  C7  UNL     1      -5.306   6.616  14.512  1.00  0.00    -0.084 C 
HETATM   30  C8  UNL     1      -5.534   7.869  13.708  1.00  0.00     0.043 C 
BRANCH  29  31
HETATM   31  C6  UNL     1      -6.209   6.445  15.726  1.00  0.00     0.037 C 
BRANCH  31  32
HETATM   32  C5  UNL     1      -7.583   5.832  15.420  1.00  0.00     0.031 C 
BRANCH  32  33
HETATM   33  C4  UNL     1      -7.521   4.467  14.790  1.00  0.00    -0.024 C 
HETATM   34  C2  UNL     1      -7.728   4.152  13.496  1.00  0.00    -0.091 C 
HETATM   35  C1  UNL     1      -8.108   5.133  12.423  1.00  0.00     0.042 C 
HETATM   36  C3  UNL     1      -7.601   2.728  13.021  1.00  0.00     0.042 C 
ENDBRANCH  32  33
ENDBRANCH  31  32
ENDBRANCH  29  31
ENDBRANCH  27  28
ENDBRANCH  24  26
ENDBRANCH   1  23
BRANCH   8  37
HETATM   37  C26 UNL     1       4.407   7.977  15.187  1.00  0.00     0.265 C 
HETATM   38  O4  UNL     1       4.498   8.980  15.888  1.00  0.00    -0.302 OA
ENDBRANCH   8  37
TORSDOF 13
ENDMDL
MODEL 6
REMARK minimizedAffinity -7.47353315
REMARK  13 active torsions:
REMARK  status: ('A' for Active; 'I' for Inactive)
REMARK    1  A    between atoms: C4_4  and  C5_5 
REMARK    2  A    between atoms: C5_5  and  C6_6 
REMARK    3  A    between atoms: C6_6  and  C7_7 
REMARK    4  A    between atoms: C9_9  and  C10_10 
REMARK    5  A    between atoms: C11_11  and  C12_12 
REMARK    6  A    between atoms: C14_14  and  C15_15 
REMARK    7  A    between atoms: C18_18  and  O1_19 
REMARK    8  A    between atoms: C19_21  and  C20_22 
REMARK    9  A    between atoms: C20_22  and  C21_23 
REMARK   10  A    between atoms: C21_23  and  C22_24 
REMARK   11  A    between atoms: C22_24  and  O3_25 
REMARK   12  A    between atoms: C24_27  and  C26_29 
REMARK   13  A    between atoms: C29_33  and  O5_35 
ROOT
HETATM    1  C15 UNL     1      -3.873   6.550  15.125  1.00  0.00     0.149 C 
HETATM    2  C16 UNL     1      -4.670   5.462  14.410  1.00  0.00     0.054 C 
HETATM    3  C17 UNL     1      -6.079   6.057  14.198  1.00  0.00     0.050 C 
HETATM    4  C18 UNL     1      -5.722   7.558  14.138  1.00  0.00     0.270 C 
HETATM    5  O2  UNL     1      -4.620   7.769  15.017  1.00  0.00    -0.351 OA
HETATM    6  C19 UNL     1      -6.672   5.528  12.837  1.00  0.00     0.032 C 
HETATM    7  C23 UNL     1      -7.002   4.027  12.937  1.00  0.00    -0.066 C 
HETATM    8  C24 UNL     1      -6.492   3.038  12.158  1.00  0.00    -0.021 C 
HETATM    9  C25 UNL     1      -6.915   1.590  12.239  1.00  0.00     0.052 C 
HETATM   10  C27 UNL     1      -7.975   3.732  14.069  1.00  0.00     0.038 C 
HETATM   11  C28 UNL     1      -7.448   4.243  15.409  1.00  0.00     0.042 C 
HETATM   12  C29 UNL     1      -7.055   5.736  15.393  1.00  0.00     0.067 C 
HETATM   13  C30 UNL     1      -6.545   6.109  16.795  1.00  0.00     0.047 C 
ENDROOT
BRANCH   4  14
HETATM   14  O1  UNL     1      -5.276   7.950  12.844  1.00  0.00    -0.370 OA
HETATM   15  H26 UNL     1      -5.064   8.896  12.957  1.00  0.00     0.212 HD
ENDBRANCH   4  14
BRANCH   6  16
HETATM   16  C20 UNL     1      -7.888   6.337  12.302  1.00  0.00     0.012 C 
BRANCH  16  17
HETATM   17  C21 UNL     1      -9.251   5.851  12.818  1.00  0.00     0.027 C 
BRANCH  17  18
HETATM   18  C22 UNL     1     -10.395   6.854  12.686  1.00  0.00     0.164 C 
BRANCH  18  19
HETATM   19  O3  UNL     1     -11.506   6.491  13.492  1.00  0.00    -0.401 OA
HETATM   20  H34 UNL     1     -11.265   6.682  14.422  1.00  0.00     0.209 HD
ENDBRANCH  18  19
ENDBRANCH  17  18
ENDBRANCH  16  17
ENDBRANCH   6  16
BRANCH  12  21
HETATM   21  O5  UNL     1      -8.257   6.500  15.203  1.00  0.00    -0.389 OA
HETATM   22  H46 UNL     1      -8.875   6.297  15.927  1.00  0.00     0.210 HD
ENDBRANCH  12  21
BRANCH   1  23
HETATM   23  C14 UNL     1      -2.513   6.777  14.528  1.00  0.00     0.011 C 
HETATM   24  C12 UNL     1      -1.531   7.576  14.996  1.00  0.00    -0.063 C 
HETATM   25  C13 UNL     1      -1.641   8.363  16.278  1.00  0.00     0.048 C 
BRANCH  24  26
HETATM   26  C11 UNL     1      -0.287   7.678  14.232  1.00  0.00     0.006 C 
HETATM   27  C10 UNL     1       0.217   6.754  13.397  1.00  0.00     0.001 C 
BRANCH  27  28
HETATM   28  C9  UNL     1       1.471   6.939  12.695  1.00  0.00     0.002 C 
HETATM   29  C7  UNL     1       1.997   6.126  11.756  1.00  0.00    -0.084 C 
HETATM   30  C8  UNL     1       1.325   4.895  11.205  1.00  0.00     0.043 C 
BRANCH  29  31
HETATM   31  C6  UNL     1       3.344   6.467  11.135  1.00  0.00     0.037 C 
BRANCH  31  32
HETATM   32  C5  UNL     1       3.328   7.684  10.199  1.00  0.00     0.031 C 
BRANCH  32  33
HETATM   33  C4  UNL     1       3.099   7.342   8.751  1.00  0.00    -0.024 C 
HETATM   34  C2  UNL     1       1.986   7.562   8.024  1.00  0.00    -0.091 C 
HETATM   35  C1  UNL     1       0.720   8.174   8.555  1.00  0.00     0.042 C 
HETATM   36  C3  UNL     1       1.930   7.179   6.569  1.00  0.00     0.042 C 
ENDBRANCH  32  33
ENDBRANCH  31  32
ENDBRANCH  29  31
ENDBRANCH  27  28
ENDBRANCH  24  26
ENDBRANCH   1  23
BRANCH   8  37
HETATM   37  C26 UNL     1      -5.443   3.279  11.115  1.00  0.00     0.265 C 
HETATM   38  O4  UNL     1      -5.697   3.350   9.917  1.00  0.00    -0.302 OA
ENDBRANCH   8  37
TORSDOF 13
ENDMDL
MODEL 7
REMARK minimizedAffinity -7.42716837
REMARK  13 active torsions:
REMARK  status: ('A' for Active; 'I' for Inactive)
REMARK    1  A    between atoms: C4_4  and  C5_5 
REMARK    2  A    between atoms: C5_5  and  C6_6 
REMARK    3  A    between atoms: C6_6  and  C7_7 
REMARK    4  A    between atoms: C9_9  and  C10_10 
REMARK    5  A    between atoms: C11_11  and  C12_12 
REMARK    6  A    between atoms: C14_14  and  C15_15 
REMARK    7  A    between atoms: C18_18  and  O1_19 
REMARK    8  A    between atoms: C19_21  and  C20_22 
REMARK    9  A    between atoms: C20_22  and  C21_23 
REMARK   10  A    between atoms: C21_23  and  C22_24 
REMARK   11  A    between atoms: C22_24  and  O3_25 
REMARK   12  A    between atoms: C24_27  and  C26_29 
REMARK   13  A    between atoms: C29_33  and  O5_35 
ROOT
HETATM    1  C15 UNL     1      -9.943   9.226  15.518  1.00  0.00     0.149 C 
HETATM    2  C16 UNL     1     -11.331   8.609  15.662  1.00  0.00     0.054 C 
HETATM    3  C17 UNL     1     -12.319   9.709  15.215  1.00  0.00     0.050 C 
HETATM    4  C18 UNL     1     -11.415  10.486  14.233  1.00  0.00     0.270 C 
HETATM    5  O2  UNL     1     -10.084  10.419  14.735  1.00  0.00    -0.351 OA
HETATM    6  C19 UNL     1     -13.553   9.044  14.495  1.00  0.00     0.032 C 
HETATM    7  C23 UNL     1     -14.418   8.271  15.507  1.00  0.00    -0.066 C 
HETATM    8  C24 UNL     1     -14.718   6.946  15.463  1.00  0.00    -0.021 C 
HETATM    9  C25 UNL     1     -15.644   6.253  16.433  1.00  0.00     0.052 C 
HETATM   10  C27 UNL     1     -14.904   9.163  16.640  1.00  0.00     0.038 C 
HETATM   11  C28 UNL     1     -13.740   9.844  17.358  1.00  0.00     0.042 C 
HETATM   12  C29 UNL     1     -12.794  10.615  16.414  1.00  0.00     0.067 C 
HETATM   13  C30 UNL     1     -11.678  11.241  17.265  1.00  0.00     0.047 C 
ENDROOT
BRANCH   4  14
HETATM   14  O1  UNL     1     -11.383   9.882  12.944  1.00  0.00    -0.370 OA
HETATM   15  H26 UNL     1     -10.767  10.451  12.445  1.00  0.00     0.212 HD
ENDBRANCH   4  14
BRANCH   6  16
HETATM   16  C20 UNL     1     -14.416  10.025  13.651  1.00  0.00     0.012 C 
BRANCH  16  17
HETATM   17  C21 UNL     1     -15.718   9.417  13.106  1.00  0.00     0.027 C 
BRANCH  17  18
HETATM   18  C22 UNL     1     -15.921   9.552  11.598  1.00  0.00     0.164 C 
BRANCH  18  19
HETATM   19  O3  UNL     1     -15.925   8.286  10.955  1.00  0.00    -0.401 OA
HETATM   20  H34 UNL     1     -16.777   7.854  11.168  1.00  0.00     0.209 HD
ENDBRANCH  18  19
ENDBRANCH  17  18
ENDBRANCH  16  17
ENDBRANCH   6  16
BRANCH  12  21
HETATM   21  O5  UNL     1     -13.531  11.722  15.869  1.00  0.00    -0.389 OA
HETATM   22  H46 UNL     1     -13.845  12.280  16.601  1.00  0.00     0.210 HD
ENDBRANCH  12  21
BRANCH   1  23
HETATM   23  C14 UNL     1      -8.961   8.322  14.828  1.00  0.00     0.011 C 
HETATM   24  C12 UNL     1      -8.108   7.445  15.398  1.00  0.00    -0.063 C 
HETATM   25  C13 UNL     1      -8.042   7.196  16.883  1.00  0.00     0.048 C 
BRANCH  24  26
HETATM   26  C11 UNL     1      -7.205   6.685  14.533  1.00  0.00     0.006 C 
HETATM   27  C10 UNL     1      -7.561   5.831  13.559  1.00  0.00     0.001 C 
BRANCH  27  28
HETATM   28  C9  UNL     1      -6.590   5.106  12.763  1.00  0.00     0.002 C 
HETATM   29  C7  UNL     1      -6.555   3.775  12.548  1.00  0.00    -0.084 C 
HETATM   30  C8  UNL     1      -7.584   2.793  13.046  1.00  0.00     0.043 C 
BRANCH  29  31
HETATM   31  C6  UNL     1      -5.443   3.180  11.698  1.00  0.00     0.037 C 
BRANCH  31  32
HETATM   32  C5  UNL     1      -4.072   3.122  12.386  1.00  0.00     0.031 C 
BRANCH  32  33
HETATM   33  C4  UNL     1      -3.132   2.102  11.801  1.00  0.00    -0.024 C 
HETATM   34  C2  UNL     1      -1.926   2.324  11.244  1.00  0.00    -0.091 C 
HETATM   35  C1  UNL     1      -1.296   3.678  11.069  1.00  0.00     0.042 C 
HETATM   36  C3  UNL     1      -1.095   1.180  10.725  1.00  0.00     0.042 C 
ENDBRANCH  32  33
ENDBRANCH  31  32
ENDBRANCH  29  31
ENDBRANCH  27  28
ENDBRANCH  24  26
ENDBRANCH   1  23
BRANCH   8  37
HETATM   37  C26 UNL     1     -14.157   6.017  14.429  1.00  0.00     0.265 C 
HETATM   38  O4  UNL     1     -12.955   5.806  14.305  1.00  0.00    -0.302 OA
ENDBRANCH   8  37
TORSDOF 13
ENDMDL
MODEL 8
REMARK minimizedAffinity -7.42370939
REMARK  13 active torsions:
REMARK  status: ('A' for Active; 'I' for Inactive)
REMARK    1  A    between atoms: C4_4  and  C5_5 
REMARK    2  A    between atoms: C5_5  and  C6_6 
REMARK    3  A    between atoms: C6_6  and  C7_7 
REMARK    4  A    between atoms: C9_9  and  C10_10 
REMARK    5  A    between atoms: C11_11  and  C12_12 
REMARK    6  A    between atoms: C14_14  and  C15_15 
REMARK    7  A    between atoms: C18_18  and  O1_19 
REMARK    8  A    between atoms: C19_21  and  C20_22 
REMARK    9  A    between atoms: C20_22  and  C21_23 
REMARK   10  A    between atoms: C21_23  and  C22_24 
REMARK   11  A    between atoms: C22_24  and  O3_25 
REMARK   12  A    between atoms: C24_27  and  C26_29 
REMARK   13  A    between atoms: C29_33  and  O5_35 
ROOT
HETATM    1  C15 UNL     1      -3.565  11.068  15.377  1.00  0.00     0.149 C 
HETATM    2  C16 UNL     1      -2.065  10.946  15.627  1.00  0.00     0.054 C 
HETATM    3  C17 UNL     1      -1.830  11.553  17.028  1.00  0.00     0.050 C 
HETATM    4  C18 UNL     1      -3.209  11.275  17.666  1.00  0.00     0.270 C 
HETATM    5  O2  UNL     1      -4.184  11.378  16.633  1.00  0.00    -0.351 OA
HETATM    6  C19 UNL     1      -0.668  10.771  17.750  1.00  0.00     0.032 C 
HETATM    7  C23 UNL     1       0.685  11.066  17.076  1.00  0.00    -0.066 C 
HETATM    8  C24 UNL     1       1.521  10.152  16.516  1.00  0.00    -0.021 C 
HETATM    9  C25 UNL     1       2.879  10.483  15.945  1.00  0.00     0.052 C 
HETATM   10  C27 UNL     1       1.000  12.554  17.060  1.00  0.00     0.038 C 
HETATM   11  C28 UNL     1      -0.109  13.357  16.382  1.00  0.00     0.042 C 
HETATM   12  C29 UNL     1      -1.513  13.095  16.971  1.00  0.00     0.067 C 
HETATM   13  C30 UNL     1      -2.522  13.960  16.198  1.00  0.00     0.047 C 
ENDROOT
BRANCH   4  14
HETATM   14  O1  UNL     1      -3.306   9.948  18.172  1.00  0.00    -0.370 OA
HETATM   15  H26 UNL     1      -4.219   9.906  18.514  1.00  0.00     0.212 HD
ENDBRANCH   4  14
BRANCH   6  16
HETATM   16  C20 UNL     1      -0.591  10.998  19.287  1.00  0.00     0.012 C 
BRANCH  16  17
HETATM   17  C21 UNL     1       0.811  10.813  19.887  1.00  0.00     0.027 C 
BRANCH  17  18
HETATM   18  C22 UNL     1       1.360  12.018  20.648  1.00  0.00     0.164 C 
BRANCH  18  19
HETATM   19  O3  UNL     1       0.555  13.172  20.453  1.00  0.00    -0.401 OA
HETATM   20  H34 UNL     1      -0.265  13.046  20.972  1.00  0.00     0.209 HD
ENDBRANCH  18  19
ENDBRANCH  17  18
ENDBRANCH  16  17
ENDBRANCH   6  16
BRANCH  12  21
HETATM   21  O5  UNL     1      -1.521  13.601  18.316  1.00  0.00    -0.389 OA
HETATM   22  H46 UNL     1      -1.309  14.550  18.295  1.00  0.00     0.210 HD
ENDBRANCH  12  21
BRANCH   1  23
HETATM   23  C14 UNL     1      -4.182   9.806  14.846  1.00  0.00     0.011 C 
HETATM   24  C12 UNL     1      -3.711   9.009  13.864  1.00  0.00    -0.063 C 
HETATM   25  C13 UNL     1      -2.405   9.253  13.150  1.00  0.00     0.048 C 
BRANCH  24  26
HETATM   26  C11 UNL     1      -4.497   7.837  13.475  1.00  0.00     0.006 C 
HETATM   27  C10 UNL     1      -5.762   7.566  13.839  1.00  0.00     0.001 C 
BRANCH  27  28
HETATM   28  C9  UNL     1      -6.454   6.366  13.416  1.00  0.00     0.002 C 
HETATM   29  C7  UNL     1      -7.740   6.045  13.667  1.00  0.00    -0.084 C 
HETATM   30  C8  UNL     1      -8.727   6.932  14.382  1.00  0.00     0.043 C 
BRANCH  29  31
HETATM   31  C6  UNL     1      -8.299   4.723  13.161  1.00  0.00     0.037 C 
BRANCH  31  32
HETATM   32  C5  UNL     1      -7.642   3.476  13.770  1.00  0.00     0.031 C 
BRANCH  32  33
HETATM   33  C4  UNL     1      -7.317   2.401  12.768  1.00  0.00    -0.024 C 
HETATM   34  C2  UNL     1      -6.226   2.319  11.981  1.00  0.00    -0.091 C 
HETATM   35  C1  UNL     1      -5.121   3.337  11.934  1.00  0.00     0.042 C 
HETATM   36  C3  UNL     1      -6.040   1.155  11.043  1.00  0.00     0.042 C 
ENDBRANCH  32  33
ENDBRANCH  31  32
ENDBRANCH  29  31
ENDBRANCH  27  28
ENDBRANCH  24  26
ENDBRANCH   1  23
BRANCH   8  37
HETATM   37  C26 UNL     1       1.183   8.696  16.409  1.00  0.00     0.265 C 
HETATM   38  O4  UNL     1       2.009   7.806  16.583  1.00  0.00    -0.302 OA
ENDBRANCH   8  37
TORSDOF 13
ENDMDL
MODEL 9
REMARK minimizedAffinity -7.35617542
REMARK  13 active torsions:
REMARK  status: ('A' for Active; 'I' for Inactive)
REMARK    1  A    between atoms: C4_4  and  C5_5 
REMARK    2  A    between atoms: C5_5  and  C6_6 
REMARK    3  A    between atoms: C6_6  and  C7_7 
REMARK    4  A    between atoms: C9_9  and  C10_10 
REMARK    5  A    between atoms: C11_11  and  C12_12 
REMARK    6  A    between atoms: C14_14  and  C15_15 
REMARK    7  A    between atoms: C18_18  and  O1_19 
REMARK    8  A    between atoms: C19_21  and  C20_22 
REMARK    9  A    between atoms: C20_22  and  C21_23 
REMARK   10  A    between atoms: C21_23  and  C22_24 
REMARK   11  A    between atoms: C22_24  and  O3_25 
REMARK   12  A    between atoms: C24_27  and  C26_29 
REMARK   13  A    between atoms: C29_33  and  O5_35 
ROOT
HETATM    1  C15 UNL     1      -0.086   7.476  14.174  1.00  0.00     0.149 C 
HETATM    2  C16 UNL     1      -0.154   8.452  15.345  1.00  0.00     0.054 C 
HETATM    3  C17 UNL     1       0.170   9.838  14.745  1.00  0.00     0.050 C 
HETATM    4  C18 UNL     1      -0.326   9.618  13.299  1.00  0.00     0.270 C 
HETATM    5  O2  UNL     1      -0.081   8.254  12.969  1.00  0.00    -0.351 OA
HETATM    6  C19 UNL     1      -0.662  10.943  15.501  1.00  0.00     0.032 C 
HETATM    7  C23 UNL     1      -0.144  11.121  16.940  1.00  0.00    -0.066 C 
HETATM    8  C24 UNL     1      -0.865  10.959  18.080  1.00  0.00    -0.021 C 
HETATM    9  C25 UNL     1      -0.332  11.232  19.467  1.00  0.00     0.052 C 
HETATM   10  C27 UNL     1       1.334  11.480  16.973  1.00  0.00     0.038 C 
HETATM   11  C28 UNL     1       2.180  10.443  16.236  1.00  0.00     0.042 C 
HETATM   12  C29 UNL     1       1.709  10.170  14.791  1.00  0.00     0.067 C 
HETATM   13  C30 UNL     1       2.642   9.114  14.177  1.00  0.00     0.047 C 
ENDROOT
BRANCH   4  14
HETATM   14  O1  UNL     1      -1.732   9.808  13.181  1.00  0.00    -0.370 OA
HETATM   15  H26 UNL     1      -1.906   9.614  12.240  1.00  0.00     0.212 HD
ENDBRANCH   4  14
BRANCH   6  16
HETATM   16  C20 UNL     1      -0.748  12.308  14.761  1.00  0.00     0.012 C 
BRANCH  16  17
HETATM   17  C21 UNL     1      -2.106  13.016  14.891  1.00  0.00     0.027 C 
BRANCH  17  18
HETATM   18  C22 UNL     1      -2.294  14.239  13.995  1.00  0.00     0.164 C 
BRANCH  18  19
HETATM   19  O3  UNL     1      -1.293  14.311  12.991  1.00  0.00    -0.401 OA
HETATM   20  H34 UNL     1      -1.498  13.622  12.325  1.00  0.00     0.209 HD
ENDBRANCH  18  19
ENDBRANCH  17  18
ENDBRANCH  16  17
ENDBRANCH   6  16
BRANCH  12  21
HETATM   21  O5  UNL     1       1.928  11.369  14.029  1.00  0.00    -0.389 OA
HETATM   22  H46 UNL     1       2.874  11.594  14.064  1.00  0.00     0.210 HD
ENDBRANCH  12  21
BRANCH   1  23
HETATM   23  C14 UNL     1      -1.252   6.531  14.121  1.00  0.00     0.011 C 
HETATM   24  C12 UNL     1      -1.361   5.397  13.397  1.00  0.00    -0.063 C 
HETATM   25  C13 UNL     1      -0.254   4.857  12.527  1.00  0.00     0.048 C 
BRANCH  24  26
HETATM   26  C11 UNL     1      -2.612   4.640  13.467  1.00  0.00     0.006 C 
HETATM   27  C10 UNL     1      -3.745   4.905  12.797  1.00  0.00     0.001 C 
BRANCH  27  28
HETATM   28  C9  UNL     1      -4.944   4.105  12.945  1.00  0.00     0.002 C 
HETATM   29  C7  UNL     1      -5.584   3.422  11.973  1.00  0.00    -0.084 C 
HETATM   30  C8  UNL     1      -5.113   3.306  10.546  1.00  0.00     0.043 C 
BRANCH  29  31
HETATM   31  C6  UNL     1      -6.851   2.648  12.307  1.00  0.00     0.037 C 
BRANCH  31  32
HETATM   32  C5  UNL     1      -7.636   3.193  13.508  1.00  0.00     0.031 C 
BRANCH  32  33
HETATM   33  C4  UNL     1      -7.214   4.570  13.945  1.00  0.00    -0.024 C 
HETATM   34  C2  UNL     1      -7.857   5.733  13.722  1.00  0.00    -0.091 C 
HETATM   35  C1  UNL     1      -9.133   5.873  12.939  1.00  0.00     0.042 C 
HETATM   36  C3  UNL     1      -7.306   7.031  14.253  1.00  0.00     0.042 C 
ENDBRANCH  32  33
ENDBRANCH  31  32
ENDBRANCH  29  31
ENDBRANCH  27  28
ENDBRANCH  24  26
ENDBRANCH   1  23
BRANCH   8  37
HETATM   37  C26 UNL     1      -2.289  10.490  18.086  1.00  0.00     0.265 C 
HETATM   38  O4  UNL     1      -2.771   9.834  19.003  1.00  0.00    -0.302 OA
ENDBRANCH   8  37
TORSDOF 13
ENDMDL
