MODEL 1
REMARK minimizedAffinity -10.0173025
REMARK CNNscore 0.723228693
REMARK CNNaffinity 7.22404146
REMARK  8 active torsions:
REMARK  status: ('A' for Active; 'I' for Inactive)
REMARK    1  A    between atoms: C2_2  and  C4_4 
REMARK    2  A    between atoms: C4_4  and  O1_6 
REMARK    3  A    between atoms: C4_4  and  C6_7 
REMARK    4  A    between atoms: C7_9  and  C8_10 
REMARK    5  A    between atoms: C8_10  and  O3_12 
REMARK    6  A    between atoms: C8_10  and  C10_13 
REMARK    7  A    between atoms: C22_25  and  O4_26 
REMARK    8  A    between atoms: C27_31  and  O5_32 
ROOT
HETATM    1  C10 UNL     1      -1.931   7.013  14.185  1.00  0.00     0.034 C 
HETATM    2  C11 UNL     1      -1.860   5.718  13.276  1.00  0.00     0.016 C 
HETATM    3  C12 UNL     1      -3.272   5.112  13.331  1.00  0.00     0.026 C 
HETATM    4  C13 UNL     1      -3.846   4.361  12.144  1.00  0.00     0.013 C 
HETATM    5  C14 UNL     1      -5.301   3.942  12.485  1.00  0.00     0.043 C 
HETATM    6  C15 UNL     1      -6.111   4.960  13.283  1.00  0.00    -0.006 C 
HETATM    7  C16 UNL     1      -5.581   6.066  13.841  1.00  0.00    -0.030 C 
HETATM    8  C17 UNL     1      -6.364   7.193  14.491  1.00  0.00     0.027 C 
HETATM    9  C18 UNL     1      -5.547   8.060  15.505  1.00  0.00     0.011 C 
HETATM   10  C19 UNL     1      -4.060   8.290  15.149  1.00  0.00     0.014 C 
HETATM   11  C20 UNL     1      -3.363   6.951  14.837  1.00  0.00    -0.002 C 
HETATM   12  C21 UNL     1      -3.394   6.071  16.111  1.00  0.00     0.019 C 
HETATM   13  C22 UNL     1      -4.131   6.331  13.648  1.00  0.00     0.094 C 
HETATM   14  C23 UNL     1      -7.746   6.705  15.055  1.00  0.00    -0.026 C 
HETATM   15  C24 UNL     1      -7.576   5.871  16.353  1.00  0.00     0.016 C 
HETATM   16  C25 UNL     1      -8.625   7.956  15.379  1.00  0.00     0.013 C 
HETATM   17  C26 UNL     1     -10.104   7.733  15.087  1.00  0.00     0.032 C 
HETATM   18  C27 UNL     1     -10.337   7.440  13.601  1.00  0.00     0.119 C 
HETATM   19  C28 UNL     1      -9.224   6.603  12.960  1.00  0.00     0.045 C 
HETATM   20  C29 UNL     1      -8.472   5.789  14.019  1.00  0.00     0.071 C 
HETATM   21  C30 UNL     1      -7.582   4.750  13.348  1.00  0.00     0.161 C 
HETATM   22  O6  UNL     1      -8.076   3.750  12.826  1.00  0.00    -0.292 OA
ENDROOT
BRANCH   1  23
HETATM   23  C8  UNL     1      -0.656   7.309  15.030  1.00  0.00     0.087 C 
HETATM   24  C9  UNL     1      -0.809   8.382  16.116  1.00  0.00     0.049 C 
BRANCH  23  25
HETATM   25  C7  UNL     1       0.529   7.544  14.115  1.00  0.00     0.188 A 
HETATM   26  C6  UNL     1       1.232   6.423  13.379  1.00  0.00     0.188 A 
HETATM   27  O2  UNL     1       1.798   7.033  14.554  1.00  0.00    -0.369 OA
BRANCH  26  28
HETATM   28  C4  UNL     1       1.999   6.671  12.095  1.00  0.00     0.086 C 
HETATM   29  C5  UNL     1       1.809   5.477  11.149  1.00  0.00     0.049 C 
BRANCH  28  30
HETATM   30  C2  UNL     1       1.594   8.040  11.469  1.00  0.00     0.014 C 
HETATM   31  C1  UNL     1       2.132   9.256  12.234  1.00  0.00     0.012 C 
HETATM   32  C3  UNL     1       0.076   8.191  11.292  1.00  0.00     0.012 C 
ENDBRANCH  28  30
BRANCH  28  33
HETATM   33  O1  UNL     1       3.400   6.739  12.401  1.00  0.00    -0.387 OA
HETATM   34  H11 UNL     1       3.604   5.952  12.941  1.00  0.00     0.210 HD
ENDBRANCH  28  33
ENDBRANCH  26  28
ENDBRANCH  23  25
BRANCH  23  35
HETATM   35  O3  UNL     1      -0.361   6.102  15.765  1.00  0.00    -0.387 OA
HETATM   36  H17 UNL     1      -0.301   5.369  15.129  1.00  0.00     0.210 HD
ENDBRANCH  23  35
ENDBRANCH   1  23
BRANCH  13  37
HETATM   37  O4  UNL     1      -4.080   7.244  12.530  1.00  0.00    -0.384 OA
HETATM   38  H34 UNL     1      -4.700   6.927  11.848  1.00  0.00     0.211 HD
ENDBRANCH  13  37
BRANCH  18  39
HETATM   39  O5  UNL     1     -11.593   6.780  13.458  1.00  0.00    -0.396 OA
HETATM   40  H43 UNL     1     -11.511   5.883  13.828  1.00  0.00     0.210 HD
ENDBRANCH  18  39
TORSDOF 8
ENDMDL
MODEL 2
REMARK minimizedAffinity -10.3214293
REMARK CNNscore 0.702247739
REMARK CNNaffinity 7.34933233
REMARK  8 active torsions:
REMARK  status: ('A' for Active; 'I' for Inactive)
REMARK    1  A    between atoms: C2_2  and  C4_4 
REMARK    2  A    between atoms: C4_4  and  O1_6 
REMARK    3  A    between atoms: C4_4  and  C6_7 
REMARK    4  A    between atoms: C7_9  and  C8_10 
REMARK    5  A    between atoms: C8_10  and  O3_12 
REMARK    6  A    between atoms: C8_10  and  C10_13 
REMARK    7  A    between atoms: C22_25  and  O4_26 
REMARK    8  A    between atoms: C27_31  and  O5_32 
ROOT
HETATM    1  C10 UNL     1      -2.069   6.705  14.076  1.00  0.00     0.034 C 
HETATM    2  C11 UNL     1      -2.056   5.331  13.290  1.00  0.00     0.016 C 
HETATM    3  C12 UNL     1      -3.490   4.788  13.408  1.00  0.00     0.026 C 
HETATM    4  C13 UNL     1      -4.103   3.956  12.297  1.00  0.00     0.013 C 
HETATM    5  C14 UNL     1      -5.570   3.627  12.684  1.00  0.00     0.043 C 
HETATM    6  C15 UNL     1      -6.333   4.744  13.389  1.00  0.00    -0.006 C 
HETATM    7  C16 UNL     1      -5.755   5.875  13.842  1.00  0.00    -0.030 C 
HETATM    8  C17 UNL     1      -6.488   7.086  14.390  1.00  0.00     0.027 C 
HETATM    9  C18 UNL     1      -5.629   8.009  15.316  1.00  0.00     0.011 C 
HETATM   10  C19 UNL     1      -4.138   8.148  14.931  1.00  0.00     0.014 C 
HETATM   11  C20 UNL     1      -3.496   6.760  14.739  1.00  0.00    -0.002 C 
HETATM   12  C21 UNL     1      -3.549   6.001  16.089  1.00  0.00     0.019 C 
HETATM   13  C22 UNL     1      -4.298   6.064  13.617  1.00  0.00     0.094 C 
HETATM   14  C23 UNL     1      -7.883   6.706  15.004  1.00  0.00    -0.026 C 
HETATM   15  C24 UNL     1      -7.733   5.988  16.372  1.00  0.00     0.016 C 
HETATM   16  C25 UNL     1      -8.710   8.015  15.217  1.00  0.00     0.013 C 
HETATM   17  C26 UNL     1     -10.199   7.824  14.955  1.00  0.00     0.032 C 
HETATM   18  C27 UNL     1     -10.457   7.407  13.503  1.00  0.00     0.119 C 
HETATM   19  C28 UNL     1      -9.383   6.471  12.936  1.00  0.00     0.045 C 
HETATM   20  C29 UNL     1      -8.653   5.729  14.061  1.00  0.00     0.071 C 
HETATM   21  C30 UNL     1      -7.810   4.599  13.482  1.00  0.00     0.161 C 
HETATM   22  O6  UNL     1      -8.347   3.575  13.056  1.00  0.00    -0.292 OA
ENDROOT
BRANCH   1  23
HETATM   23  C8  UNL     1      -0.775   7.027  14.883  1.00  0.00     0.087 C 
HETATM   24  C9  UNL     1      -0.957   7.950  16.096  1.00  0.00     0.049 C 
BRANCH  23  25
HETATM   25  C7  UNL     1       0.324   7.478  13.943  1.00  0.00     0.188 A 
HETATM   26  C6  UNL     1       0.456   6.960  12.527  1.00  0.00     0.188 A 
HETATM   27  O2  UNL     1       1.315   6.501  13.588  1.00  0.00    -0.369 OA
BRANCH  26  28
HETATM   28  C4  UNL     1       1.148   7.766  11.445  1.00  0.00     0.086 C 
HETATM   29  C5  UNL     1       2.660   7.783  11.712  1.00  0.00     0.049 C 
BRANCH  28  30
HETATM   30  C2  UNL     1       0.765   7.233  10.032  1.00  0.00     0.014 C 
HETATM   31  C1  UNL     1       1.935   6.592   9.273  1.00  0.00     0.012 C 
HETATM   32  C3  UNL     1       0.119   8.305   9.142  1.00  0.00     0.012 C 
ENDBRANCH  28  30
BRANCH  28  33
HETATM   33  O1  UNL     1       0.697   9.127  11.525  1.00  0.00    -0.387 OA
HETATM   34  H11 UNL     1       0.789   9.394  12.460  1.00  0.00     0.210 HD
ENDBRANCH  28  33
ENDBRANCH  26  28
ENDBRANCH  23  25
BRANCH  23  35
HETATM   35  O3  UNL     1      -0.327   5.780  15.454  1.00  0.00    -0.387 OA
HETATM   36  H17 UNL     1      -0.240   5.132  14.734  1.00  0.00     0.210 HD
ENDBRANCH  23  35
ENDBRANCH   1  23
BRANCH  13  37
HETATM   37  O4  UNL     1      -4.223   6.868  12.419  1.00  0.00    -0.384 OA
HETATM   38  H34 UNL     1      -4.860   6.516  11.773  1.00  0.00     0.211 HD
ENDBRANCH  13  37
BRANCH  18  39
HETATM   39  O5  UNL     1     -11.739   6.786  13.429  1.00  0.00    -0.396 OA
HETATM   40  H43 UNL     1     -11.688   5.924  13.879  1.00  0.00     0.210 HD
ENDBRANCH  18  39
TORSDOF 8
ENDMDL
MODEL 3
REMARK minimizedAffinity -7.50637865
REMARK CNNscore 0.53181988
REMARK CNNaffinity 6.68041468
REMARK  8 active torsions:
REMARK  status: ('A' for Active; 'I' for Inactive)
REMARK    1  A    between atoms: C2_2  and  C4_4 
REMARK    2  A    between atoms: C4_4  and  O1_6 
REMARK    3  A    between atoms: C4_4  and  C6_7 
REMARK    4  A    between atoms: C7_9  and  C8_10 
REMARK    5  A    between atoms: C8_10  and  O3_12 
REMARK    6  A    between atoms: C8_10  and  C10_13 
REMARK    7  A    between atoms: C22_25  and  O4_26 
REMARK    8  A    between atoms: C27_31  and  O5_32 
ROOT
HETATM    1  C10 UNL     1       3.397   9.567  13.802  1.00  0.00     0.034 C 
HETATM    2  C11 UNL     1       3.104  10.452  15.082  1.00  0.00     0.016 C 
HETATM    3  C12 UNL     1       4.428  10.474  15.865  1.00  0.00     0.026 C 
HETATM    4  C13 UNL     1       4.827  11.683  16.690  1.00  0.00     0.013 C 
HETATM    5  C14 UNL     1       6.234  11.425  17.292  1.00  0.00     0.043 C 
HETATM    6  C15 UNL     1       7.215  10.691  16.382  1.00  0.00    -0.006 C 
HETATM    7  C16 UNL     1       6.867  10.116  15.214  1.00  0.00    -0.030 C 
HETATM    8  C17 UNL     1       7.827   9.530  14.194  1.00  0.00     0.027 C 
HETATM    9  C18 UNL     1       7.191   8.480  13.223  1.00  0.00     0.011 C 
HETATM   10  C19 UNL     1       5.727   8.751  12.805  1.00  0.00     0.014 C 
HETATM   11  C20 UNL     1       4.847   9.002  14.044  1.00  0.00    -0.002 C 
HETATM   12  C21 UNL     1       4.842   7.720  14.914  1.00  0.00     0.019 C 
HETATM   13  C22 UNL     1       5.454  10.226  14.765  1.00  0.00     0.094 C 
HETATM   14  C23 UNL     1       9.167   9.044  14.853  1.00  0.00    -0.026 C 
HETATM   15  C24 UNL     1       8.971   7.726  15.650  1.00  0.00     0.016 C 
HETATM   16  C25 UNL     1      10.217   8.791  13.723  1.00  0.00     0.013 C 
HETATM   17  C26 UNL     1      11.634   9.168  14.137  1.00  0.00     0.032 C 
HETATM   18  C27 UNL     1      11.737  10.661  14.466  1.00  0.00     0.119 C 
HETATM   19  C28 UNL     1      10.488  11.222  15.157  1.00  0.00     0.045 C 
HETATM   20  C29 UNL     1       9.704  10.108  15.860  1.00  0.00     0.071 C 
HETATM   21  C30 UNL     1       8.649  10.711  16.780  1.00  0.00     0.161 C 
HETATM   22  O6  UNL     1       8.978  11.248  17.838  1.00  0.00    -0.292 OA
ENDROOT
BRANCH   1  23
HETATM   23  C8  UNL     1       2.224   8.651  13.339  1.00  0.00     0.087 C 
HETATM   24  C9  UNL     1       1.554   7.818  14.439  1.00  0.00     0.049 C 
BRANCH  23  25
HETATM   25  C7  UNL     1       2.650   7.832  12.138  1.00  0.00     0.188 A 
HETATM   26  C6  UNL     1       2.125   8.090  10.741  1.00  0.00     0.188 A 
HETATM   27  O2  UNL     1       1.650   6.990  11.541  1.00  0.00    -0.369 OA
BRANCH  26  28
HETATM   28  C4  UNL     1       2.913   7.693   9.508  1.00  0.00     0.086 C 
HETATM   29  C5  UNL     1       3.350   6.226   9.635  1.00  0.00     0.049 C 
BRANCH  28  30
HETATM   30  C2  UNL     1       2.101   7.997   8.214  1.00  0.00     0.014 C 
HETATM   31  C1  UNL     1       0.634   8.365   8.475  1.00  0.00     0.012 C 
HETATM   32  C3  UNL     1       2.156   6.854   7.189  1.00  0.00     0.012 C 
ENDBRANCH  28  30
BRANCH  28  33
HETATM   33  O1  UNL     1       4.113   8.480   9.456  1.00  0.00    -0.387 OA
HETATM   34  H11 UNL     1       4.528   8.412  10.337  1.00  0.00     0.210 HD
ENDBRANCH  28  33
ENDBRANCH  26  28
ENDBRANCH  23  25
BRANCH  23  35
HETATM   35  O3  UNL     1       1.178   9.530  12.874  1.00  0.00    -0.387 OA
HETATM   36  H17 UNL     1       1.557  10.123  12.203  1.00  0.00     0.210 HD
ENDBRANCH  23  35
ENDBRANCH   1  23
BRANCH  13  37
HETATM   37  O4  UNL     1       5.453  11.351  13.860  1.00  0.00    -0.384 OA
HETATM   38  H34 UNL     1       5.983  12.064  14.257  1.00  0.00     0.211 HD
ENDBRANCH  13  37
BRANCH  18  39
HETATM   39  O5  UNL     1      12.887  10.870  15.284  1.00  0.00    -0.396 OA
HETATM   40  H43 UNL     1      12.713  10.483  16.160  1.00  0.00     0.210 HD
ENDBRANCH  18  39
TORSDOF 8
ENDMDL
MODEL 4
REMARK minimizedAffinity -7.42246914
REMARK CNNscore 0.512767613
REMARK CNNaffinity 6.30451441
REMARK  8 active torsions:
REMARK  status: ('A' for Active; 'I' for Inactive)
REMARK    1  A    between atoms: C2_2  and  C4_4 
REMARK    2  A    between atoms: C4_4  and  O1_6 
REMARK    3  A    between atoms: C4_4  and  C6_7 
REMARK    4  A    between atoms: C7_9  and  C8_10 
REMARK    5  A    between atoms: C8_10  and  O3_12 
REMARK    6  A    between atoms: C8_10  and  C10_13 
REMARK    7  A    between atoms: C22_25  and  O4_26 
REMARK    8  A    between atoms: C27_31  and  O5_32 
ROOT
HETATM    1  C10 UNL     1      -9.396  -7.277  -3.829  1.00  0.00     0.034 C 
HETATM    2  C11 UNL     1     -10.635  -7.080  -2.862  1.00  0.00     0.016 C 
HETATM    3  C12 UNL     1     -10.359  -8.006  -1.665  1.00  0.00     0.026 C 
HETATM    4  C13 UNL     1     -10.836  -7.642  -0.271  1.00  0.00     0.013 C 
HETATM    5  C14 UNL     1     -10.342  -8.733   0.716  1.00  0.00     0.043 C 
HETATM    6  C15 UNL     1      -8.946  -9.287   0.444  1.00  0.00    -0.006 C 
HETATM    7  C16 UNL     1      -8.241  -9.022  -0.674  1.00  0.00    -0.030 C 
HETATM    8  C17 UNL     1      -6.791  -9.401  -0.918  1.00  0.00     0.027 C 
HETATM    9  C18 UNL     1      -6.376  -9.471  -2.425  1.00  0.00     0.011 C 
HETATM   10  C19 UNL     1      -7.045  -8.434  -3.356  1.00  0.00     0.014 C 
HETATM   11  C20 UNL     1      -8.576  -8.451  -3.175  1.00  0.00    -0.002 C 
HETATM   12  C21 UNL     1      -9.106  -9.846  -3.591  1.00  0.00     0.019 C 
HETATM   13  C22 UNL     1      -8.839  -8.116  -1.690  1.00  0.00     0.094 C 
HETATM   14  C23 UNL     1      -6.362 -10.665  -0.090  1.00  0.00    -0.026 C 
HETATM   15  C24 UNL     1      -6.960 -11.970  -0.681  1.00  0.00     0.016 C 
HETATM   16  C25 UNL     1      -4.803 -10.775  -0.116  1.00  0.00     0.013 C 
HETATM   17  C26 UNL     1      -4.224 -11.293   1.195  1.00  0.00     0.032 C 
HETATM   18  C27 UNL     1      -4.550 -10.348   2.356  1.00  0.00     0.119 C 
HETATM   19  C28 UNL     1      -5.939  -9.708   2.253  1.00  0.00     0.045 C 
HETATM   20  C29 UNL     1      -6.871 -10.558   1.382  1.00  0.00     0.071 C 
HETATM   21  C30 UNL     1      -8.309 -10.078   1.531  1.00  0.00     0.161 C 
HETATM   22  O6  UNL     1      -8.941 -10.311   2.562  1.00  0.00    -0.292 OA
ENDROOT
BRANCH   1  23
HETATM   23  C8  UNL     1      -9.726  -7.254  -5.352  1.00  0.00     0.087 C 
HETATM   24  C9  UNL     1      -8.989  -8.289  -6.210  1.00  0.00     0.049 C 
BRANCH  23  25
HETATM   25  C7  UNL     1      -9.615  -5.840  -5.886  1.00  0.00     0.188 A 
HETATM   26  C6  UNL     1     -10.333  -4.666  -5.255  1.00  0.00     0.188 A 
HETATM   27  O2  UNL     1     -10.797  -5.275  -6.475  1.00  0.00    -0.369 OA
BRANCH  26  28
HETATM   28  C4  UNL     1      -9.820  -3.247  -5.401  1.00  0.00     0.086 C 
HETATM   29  C5  UNL     1      -9.472  -2.981  -6.873  1.00  0.00     0.049 C 
BRANCH  28  30
HETATM   30  C2  UNL     1     -10.838  -2.230  -4.801  1.00  0.00     0.014 C 
HETATM   31  C1  UNL     1     -12.126  -2.085  -5.622  1.00  0.00     0.012 C 
HETATM   32  C3  UNL     1     -10.230  -0.838  -4.575  1.00  0.00     0.012 C 
ENDBRANCH  28  30
BRANCH  28  33
HETATM   33  O1  UNL     1      -8.599  -3.120  -4.656  1.00  0.00    -0.387 OA
HETATM   34  H11 UNL     1      -8.032  -3.869  -4.924  1.00  0.00     0.210 HD
ENDBRANCH  28  33
ENDBRANCH  26  28
ENDBRANCH  23  25
BRANCH  23  35
HETATM   35  O3  UNL     1     -11.117  -7.620  -5.476  1.00  0.00    -0.387 OA
HETATM   36  H17 UNL     1     -11.638  -7.025  -4.909  1.00  0.00     0.210 HD
ENDBRANCH  23  35
ENDBRANCH   1  23
BRANCH  13  37
HETATM   37  O4  UNL     1      -8.270  -6.822  -1.393  1.00  0.00    -0.384 OA
HETATM   38  H34 UNL     1      -8.291  -6.693  -0.428  1.00  0.00     0.211 HD
ENDBRANCH  13  37
BRANCH  18  39
HETATM   39  O5  UNL     1      -4.432 -11.072   3.580  1.00  0.00    -0.396 OA
HETATM   40  H43 UNL     1      -5.166 -11.710   3.629  1.00  0.00     0.210 HD
ENDBRANCH  18  39
TORSDOF 8
ENDMDL
MODEL 5
REMARK minimizedAffinity -7.41377974
REMARK CNNscore 0.466130197
REMARK CNNaffinity 6.22922325
REMARK  8 active torsions:
REMARK  status: ('A' for Active; 'I' for Inactive)
REMARK    1  A    between atoms: C2_2  and  C4_4 
REMARK    2  A    between atoms: C4_4  and  O1_6 
REMARK    3  A    between atoms: C4_4  and  C6_7 
REMARK    4  A    between atoms: C7_9  and  C8_10 
REMARK    5  A    between atoms: C8_10  and  O3_12 
REMARK    6  A    between atoms: C8_10  and  C10_13 
REMARK    7  A    between atoms: C22_25  and  O4_26 
REMARK    8  A    between atoms: C27_31  and  O5_32 
ROOT
HETATM    1  C10 UNL     1       0.936   8.510  13.689  1.00  0.00     0.034 C 
HETATM    2  C11 UNL     1       0.935   8.284  12.121  1.00  0.00     0.016 C 
HETATM    3  C12 UNL     1       2.366   8.620  11.668  1.00  0.00     0.026 C 
HETATM    4  C13 UNL     1       3.000   7.905  10.489  1.00  0.00     0.013 C 
HETATM    5  C14 UNL     1       4.458   8.412  10.333  1.00  0.00     0.043 C 
HETATM    6  C15 UNL     1       5.209   8.672  11.636  1.00  0.00    -0.006 C 
HETATM    7  C16 UNL     1       4.625   8.666  12.851  1.00  0.00    -0.030 C 
HETATM    8  C17 UNL     1       5.349   8.745  14.183  1.00  0.00     0.027 C 
HETATM    9  C18 UNL     1       4.473   9.251  15.377  1.00  0.00     0.011 C 
HETATM   10  C19 UNL     1       2.990   8.814  15.356  1.00  0.00     0.014 C 
HETATM   11  C20 UNL     1       2.350   9.134  13.991  1.00  0.00    -0.002 C 
HETATM   12  C21 UNL     1       2.375  10.669  13.781  1.00  0.00     0.019 C 
HETATM   13  C22 UNL     1       3.172   8.360  12.936  1.00  0.00     0.094 C 
HETATM   14  C23 UNL     1       6.731   9.481  14.063  1.00  0.00    -0.026 C 
HETATM   15  C24 UNL     1       6.553  11.015  13.897  1.00  0.00     0.016 C 
HETATM   16  C25 UNL     1       7.555   9.213  15.363  1.00  0.00     0.013 C 
HETATM   17  C26 UNL     1       9.049   9.068  15.098  1.00  0.00     0.032 C 
HETATM   18  C27 UNL     1       9.335   7.876  14.177  1.00  0.00     0.119 C 
HETATM   19  C28 UNL     1       8.271   7.672  13.093  1.00  0.00     0.045 C 
HETATM   20  C29 UNL     1       7.517   8.978  12.812  1.00  0.00     0.071 C 
HETATM   21  C30 UNL     1       6.684   8.839  11.543  1.00  0.00     0.161 C 
HETATM   22  O6  UNL     1       7.228   8.830  10.438  1.00  0.00    -0.292 OA
ENDROOT
BRANCH   1  23
HETATM   23  C8  UNL     1      -0.373   9.118  14.277  1.00  0.00     0.087 C 
HETATM   24  C9  UNL     1      -1.423   9.562  13.251  1.00  0.00     0.049 C 
BRANCH  23  25
HETATM   25  C7  UNL     1      -0.036  10.189  15.294  1.00  0.00     0.188 A 
HETATM   26  C6  UNL     1      -0.352  10.050  16.768  1.00  0.00     0.188 A 
HETATM   27  O2  UNL     1      -1.141  10.882  15.897  1.00  0.00    -0.369 OA
BRANCH  26  28
HETATM   28  C4  UNL     1       0.437  10.796  17.826  1.00  0.00     0.086 C 
HETATM   29  C5  UNL     1       1.070  12.048  17.200  1.00  0.00     0.049 C 
BRANCH  28  30
HETATM   30  C2  UNL     1      -0.455  11.097  19.068  1.00  0.00     0.014 C 
HETATM   31  C1  UNL     1      -1.925  10.698  18.887  1.00  0.00     0.012 C 
HETATM   32  C3  UNL     1      -0.387  12.566  19.513  1.00  0.00     0.012 C 
ENDBRANCH  28  30
BRANCH  28  33
HETATM   33  O1  UNL     1       1.519   9.961  18.269  1.00  0.00    -0.387 OA
HETATM   34  H11 UNL     1       1.970   9.643  17.463  1.00  0.00     0.210 HD
ENDBRANCH  28  33
ENDBRANCH  26  28
ENDBRANCH  23  25
BRANCH  23  35
HETATM   35  O3  UNL     1      -1.023   8.059  15.012  1.00  0.00    -0.387 OA
HETATM   36  H17 UNL     1      -0.385   7.700  15.651  1.00  0.00     0.210 HD
ENDBRANCH  23  35
ENDBRANCH   1  23
BRANCH  13  37
HETATM   37  O4  UNL     1       3.122   6.950  13.243  1.00  0.00    -0.384 OA
HETATM   38  H34 UNL     1       3.771   6.491  12.681  1.00  0.00     0.211 HD
ENDBRANCH  13  37
BRANCH  18  39
HETATM   39  O5  UNL     1      10.617   8.059  13.580  1.00  0.00    -0.396 OA
HETATM   40  H43 UNL     1      10.556   8.794  12.944  1.00  0.00     0.210 HD
ENDBRANCH  18  39
TORSDOF 8
ENDMDL
MODEL 6
REMARK minimizedAffinity -9.47950649
REMARK CNNscore 0.418442011
REMARK CNNaffinity 7.07081223
REMARK  8 active torsions:
REMARK  status: ('A' for Active; 'I' for Inactive)
REMARK    1  A    between atoms: C2_2  and  C4_4 
REMARK    2  A    between atoms: C4_4  and  O1_6 
REMARK    3  A    between atoms: C4_4  and  C6_7 
REMARK    4  A    between atoms: C7_9  and  C8_10 
REMARK    5  A    between atoms: C8_10  and  O3_12 
REMARK    6  A    between atoms: C8_10  and  C10_13 
REMARK    7  A    between atoms: C22_25  and  O4_26 
REMARK    8  A    between atoms: C27_31  and  O5_32 
ROOT
HETATM    1  C10 UNL     1       0.111   7.691  14.936  1.00  0.00     0.034 C 
HETATM    2  C11 UNL     1      -0.139   9.183  15.403  1.00  0.00     0.016 C 
HETATM    3  C12 UNL     1      -1.650   9.410  15.228  1.00  0.00     0.026 C 
HETATM    4  C13 UNL     1      -2.413  10.339  16.154  1.00  0.00     0.013 C 
HETATM    5  C14 UNL     1      -3.914  10.295  15.765  1.00  0.00     0.043 C 
HETATM    6  C15 UNL     1      -4.449   8.927  15.351  1.00  0.00    -0.006 C 
HETATM    7  C16 UNL     1      -3.666   7.852  15.133  1.00  0.00    -0.030 C 
HETATM    8  C17 UNL     1      -4.154   6.434  14.891  1.00  0.00     0.027 C 
HETATM    9  C18 UNL     1      -3.133   5.506  14.155  1.00  0.00     0.011 C 
HETATM   10  C19 UNL     1      -1.643   5.736  14.500  1.00  0.00     0.014 C 
HETATM   11  C20 UNL     1      -1.278   7.227  14.359  1.00  0.00    -0.002 C 
HETATM   12  C21 UNL     1      -1.472   7.644  12.880  1.00  0.00     0.019 C 
HETATM   13  C22 UNL     1      -2.200   7.992  15.335  1.00  0.00     0.094 C 
HETATM   14  C23 UNL     1      -5.594   6.403  14.266  1.00  0.00    -0.026 C 
HETATM   15  C24 UNL     1      -5.581   6.815  12.769  1.00  0.00     0.016 C 
HETATM   16  C25 UNL     1      -6.156   4.949  14.377  1.00  0.00     0.013 C 
HETATM   17  C26 UNL     1      -7.655   4.912  14.651  1.00  0.00     0.032 C 
HETATM   18  C27 UNL     1      -7.991   5.586  15.986  1.00  0.00     0.119 C 
HETATM   19  C28 UNL     1      -7.116   6.807  16.293  1.00  0.00     0.045 C 
HETATM   20  C29 UNL     1      -6.538   7.404  15.004  1.00  0.00     0.071 C 
HETATM   21  C30 UNL     1      -5.927   8.771  15.288  1.00  0.00     0.161 C 
HETATM   22  O6  UNL     1      -6.650   9.745  15.502  1.00  0.00    -0.292 OA
ENDROOT
BRANCH   1  23
HETATM   23  C8  UNL     1       1.445   7.445  14.167  1.00  0.00     0.087 C 
HETATM   24  C9  UNL     1       2.684   8.142  14.741  1.00  0.00     0.049 C 
BRANCH  23  25
HETATM   25  C7  UNL     1       1.244   7.697  12.687  1.00  0.00     0.188 A 
HETATM   26  C6  UNL     1       2.197   7.181  11.630  1.00  0.00     0.188 A 
HETATM   27  O2  UNL     1       2.193   8.561  12.042  1.00  0.00    -0.369 OA
BRANCH  26  28
HETATM   28  C4  UNL     1       1.747   6.936  10.203  1.00  0.00     0.086 C 
HETATM   29  C5  UNL     1       0.695   7.985   9.815  1.00  0.00     0.049 C 
BRANCH  28  30
HETATM   30  C2  UNL     1       2.972   6.889   9.240  1.00  0.00     0.014 C 
HETATM   31  C1  UNL     1       3.443   8.270   8.768  1.00  0.00     0.012 C 
HETATM   32  C3  UNL     1       2.736   5.994   8.014  1.00  0.00     0.012 C 
ENDBRANCH  28  30
BRANCH  28  33
HETATM   33  O1  UNL     1       1.101   5.656  10.137  1.00  0.00    -0.387 OA
HETATM   34  H11 UNL     1       0.445   5.639  10.860  1.00  0.00     0.210 HD
ENDBRANCH  28  33
ENDBRANCH  26  28
ENDBRANCH  23  25
BRANCH  23  35
HETATM   35  O3  UNL     1       1.739   6.038  14.297  1.00  0.00    -0.387 OA
HETATM   36  H17 UNL     1       0.963   5.537  13.993  1.00  0.00     0.210 HD
ENDBRANCH  23  35
ENDBRANCH   1  23
BRANCH  13  37
HETATM   37  O4  UNL     1      -1.975   7.501  16.674  1.00  0.00    -0.384 OA
HETATM   38  H34 UNL     1      -2.669   7.863  17.253  1.00  0.00     0.211 HD
ENDBRANCH  13  37
BRANCH  18  39
HETATM   39  O5  UNL     1      -9.368   5.958  15.975  1.00  0.00    -0.396 OA
HETATM   40  H43 UNL     1      -9.481   6.693  15.346  1.00  0.00     0.210 HD
ENDBRANCH  18  39
TORSDOF 8
ENDMDL
MODEL 7
REMARK minimizedAffinity -9.0309124
REMARK CNNscore 0.41233182
REMARK CNNaffinity 6.91829634
REMARK  8 active torsions:
REMARK  status: ('A' for Active; 'I' for Inactive)
REMARK    1  A    between atoms: C2_2  and  C4_4 
REMARK    2  A    between atoms: C4_4  and  O1_6 
REMARK    3  A    between atoms: C4_4  and  C6_7 
REMARK    4  A    between atoms: C7_9  and  C8_10 
REMARK    5  A    between atoms: C8_10  and  O3_12 
REMARK    6  A    between atoms: C8_10  and  C10_13 
REMARK    7  A    between atoms: C22_25  and  O4_26 
REMARK    8  A    between atoms: C27_31  and  O5_32 
ROOT
HETATM    1  C10 UNL     1      -5.665   7.665  14.630  1.00  0.00     0.034 C 
HETATM    2  C11 UNL     1      -5.322   9.063  15.289  1.00  0.00     0.016 C 
HETATM    3  C12 UNL     1      -3.795   9.198  15.170  1.00  0.00     0.026 C 
HETATM    4  C13 UNL     1      -3.142  10.558  14.996  1.00  0.00     0.013 C 
HETATM    5  C14 UNL     1      -1.613  10.351  14.835  1.00  0.00     0.043 C 
HETATM    6  C15 UNL     1      -1.194   9.129  14.022  1.00  0.00    -0.006 C 
HETATM    7  C16 UNL     1      -2.049   8.165  13.625  1.00  0.00    -0.030 C 
HETATM    8  C17 UNL     1      -1.722   7.028  12.674  1.00  0.00     0.027 C 
HETATM    9  C18 UNL     1      -2.667   5.786  12.788  1.00  0.00     0.011 C 
HETATM   10  C19 UNL     1      -4.148   6.094  13.106  1.00  0.00     0.014 C 
HETATM   11  C20 UNL     1      -4.259   7.021  14.331  1.00  0.00    -0.002 C 
HETATM   12  C21 UNL     1      -3.674   6.284  15.562  1.00  0.00     0.019 C 
HETATM   13  C22 UNL     1      -3.488   8.310  13.969  1.00  0.00     0.094 C 
HETATM   14  C23 UNL     1      -0.196   6.659  12.695  1.00  0.00    -0.026 C 
HETATM   15  C24 UNL     1       0.193   5.892  13.988  1.00  0.00     0.016 C 
HETATM   16  C25 UNL     1       0.116   5.749  11.463  1.00  0.00     0.013 C 
HETATM   17  C26 UNL     1       1.492   6.015  10.864  1.00  0.00     0.032 C 
HETATM   18  C27 UNL     1       1.603   7.454  10.350  1.00  0.00     0.119 C 
HETATM   19  C28 UNL     1       0.861   8.474  11.221  1.00  0.00     0.045 C 
HETATM   20  C29 UNL     1       0.684   7.948  12.650  1.00  0.00     0.071 C 
HETATM   21  C30 UNL     1       0.222   9.072  13.569  1.00  0.00     0.161 C 
HETATM   22  O6  UNL     1       1.005   9.957  13.915  1.00  0.00    -0.292 OA
ENDROOT
BRANCH   1  23
HETATM   23  C8  UNL     1      -6.807   6.860  15.322  1.00  0.00     0.087 C 
HETATM   24  C9  UNL     1      -6.399   6.055  16.562  1.00  0.00     0.049 C 
BRANCH  23  25
HETATM   25  C7  UNL     1      -7.561   6.042  14.294  1.00  0.00     0.188 A 
HETATM   26  C6  UNL     1      -6.866   5.178  13.262  1.00  0.00     0.188 A 
HETATM   27  O2  UNL     1      -7.442   6.454  12.923  1.00  0.00    -0.369 OA
BRANCH  26  28
HETATM   28  C4  UNL     1      -7.551   3.979  12.637  1.00  0.00     0.086 C 
HETATM   29  C5  UNL     1      -8.378   4.440  11.427  1.00  0.00     0.049 C 
BRANCH  28  30
HETATM   30  C2  UNL     1      -6.513   2.866  12.301  1.00  0.00     0.014 C 
HETATM   31  C1  UNL     1      -5.667   3.162  11.056  1.00  0.00     0.012 C 
HETATM   32  C3  UNL     1      -7.152   1.477  12.154  1.00  0.00     0.012 C 
ENDBRANCH  28  30
BRANCH  28  33
HETATM   33  O1  UNL     1      -8.476   3.429  13.587  1.00  0.00    -0.387 OA
HETATM   34  H11 UNL     1      -9.014   4.176  13.915  1.00  0.00     0.210 HD
ENDBRANCH  28  33
ENDBRANCH  26  28
ENDBRANCH  23  25
BRANCH  23  35
HETATM   35  O3  UNL     1      -7.746   7.834  15.826  1.00  0.00    -0.387 OA
HETATM   36  H17 UNL     1      -8.006   8.412  15.089  1.00  0.00     0.210 HD
ENDBRANCH  23  35
ENDBRANCH   1  23
BRANCH  13  37
HETATM   37  O4  UNL     1      -4.081   8.895  12.790  1.00  0.00    -0.384 OA
HETATM   38  H34 UNL     1      -3.495   9.605  12.472  1.00  0.00     0.211 HD
ENDBRANCH  13  37
BRANCH  18  39
HETATM   39  O5  UNL     1       2.984   7.800  10.257  1.00  0.00    -0.396 OA
HETATM   40  H43 UNL     1       3.340   7.881  11.159  1.00  0.00     0.210 HD
ENDBRANCH  18  39
TORSDOF 8
ENDMDL
MODEL 8
REMARK minimizedAffinity -7.43227768
REMARK CNNscore 0.406743437
REMARK CNNaffinity 5.73626089
REMARK  8 active torsions:
REMARK  status: ('A' for Active; 'I' for Inactive)
REMARK    1  A    between atoms: C2_2  and  C4_4 
REMARK    2  A    between atoms: C4_4  and  O1_6 
REMARK    3  A    between atoms: C4_4  and  C6_7 
REMARK    4  A    between atoms: C7_9  and  C8_10 
REMARK    5  A    between atoms: C8_10  and  O3_12 
REMARK    6  A    between atoms: C8_10  and  C10_13 
REMARK    7  A    between atoms: C22_25  and  O4_26 
REMARK    8  A    between atoms: C27_31  and  O5_32 
ROOT
HETATM    1  C10 UNL     1      -6.196 -10.301   8.311  1.00  0.00     0.034 C 
HETATM    2  C11 UNL     1      -7.371  -9.476   7.643  1.00  0.00     0.016 C 
HETATM    3  C12 UNL     1      -6.970  -9.334   6.165  1.00  0.00     0.026 C 
HETATM    4  C13 UNL     1      -8.023  -9.280   5.073  1.00  0.00     0.013 C 
HETATM    5  C14 UNL     1      -7.303  -9.209   3.701  1.00  0.00     0.043 C 
HETATM    6  C15 UNL     1      -6.033 -10.047   3.577  1.00  0.00    -0.006 C 
HETATM    7  C16 UNL     1      -5.437 -10.660   4.619  1.00  0.00    -0.030 C 
HETATM    8  C17 UNL     1      -4.281 -11.641   4.527  1.00  0.00     0.027 C 
HETATM    9  C18 UNL     1      -3.442 -11.790   5.839  1.00  0.00     0.011 C 
HETATM   10  C19 UNL     1      -4.236 -11.691   7.162  1.00  0.00     0.014 C 
HETATM   11  C20 UNL     1      -5.112 -10.423   7.175  1.00  0.00    -0.002 C 
HETATM   12  C21 UNL     1      -4.186  -9.183   7.107  1.00  0.00     0.019 C 
HETATM   13  C22 UNL     1      -6.063 -10.542   5.963  1.00  0.00     0.094 C 
HETATM   14  C23 UNL     1      -3.405 -11.405   3.245  1.00  0.00    -0.026 C 
HETATM   15  C24 UNL     1      -2.518 -10.139   3.380  1.00  0.00     0.016 C 
HETATM   16  C25 UNL     1      -2.476 -12.645   3.040  1.00  0.00     0.013 C 
HETATM   17  C26 UNL     1      -2.264 -12.988   1.570  1.00  0.00     0.032 C 
HETATM   18  C27 UNL     1      -3.588 -13.350   0.889  1.00  0.00     0.119 C 
HETATM   19  C28 UNL     1      -4.779 -12.524   1.389  1.00  0.00     0.045 C 
HETATM   20  C29 UNL     1      -4.310 -11.194   1.990  1.00  0.00     0.071 C 
HETATM   21  C30 UNL     1      -5.500 -10.268   2.206  1.00  0.00     0.161 C 
HETATM   22  O6  UNL     1      -6.049  -9.724   1.247  1.00  0.00    -0.292 OA
ENDROOT
BRANCH   1  23
HETATM   23  C8  UNL     1      -5.820  -9.876   9.763  1.00  0.00     0.087 C 
HETATM   24  C9  UNL     1      -4.335  -9.994  10.129  1.00  0.00     0.049 C 
BRANCH  23  25
HETATM   25  C7  UNL     1      -6.741 -10.554  10.756  1.00  0.00     0.188 A 
HETATM   26  C6  UNL     1      -7.073  -9.957  12.107  1.00  0.00     0.188 A 
HETATM   27  O2  UNL     1      -6.141 -11.046  11.966  1.00  0.00    -0.369 OA
BRANCH  26  28
HETATM   28  C4  UNL     1      -8.356 -10.302  12.837  1.00  0.00     0.086 C 
HETATM   29  C5  UNL     1      -9.538  -9.609  12.144  1.00  0.00     0.049 C 
BRANCH  28  30
HETATM   30  C2  UNL     1      -8.519 -11.848  12.961  1.00  0.00     0.014 C 
HETATM   31  C1  UNL     1      -7.243 -12.571  13.411  1.00  0.00     0.012 C 
HETATM   32  C3  UNL     1      -9.037 -12.501  11.671  1.00  0.00     0.012 C 
ENDBRANCH  28  30
BRANCH  28  33
HETATM   33  O1  UNL     1      -8.286  -9.771  14.169  1.00  0.00    -0.387 OA
HETATM   34  H11 UNL     1      -8.017  -8.837  14.081  1.00  0.00     0.210 HD
ENDBRANCH  28  33
ENDBRANCH  26  28
ENDBRANCH  23  25
BRANCH  23  35
HETATM   35  O3  UNL     1      -6.096  -8.463   9.860  1.00  0.00    -0.387 OA
HETATM   36  H17 UNL     1      -7.019  -8.316   9.590  1.00  0.00     0.210 HD
ENDBRANCH  23  35
ENDBRANCH   1  23
BRANCH  13  37
HETATM   37  O4  UNL     1      -6.848 -11.746   6.098  1.00  0.00    -0.384 OA
HETATM   38  H34 UNL     1      -7.318 -11.901   5.260  1.00  0.00     0.211 HD
ENDBRANCH  13  37
BRANCH  18  39
HETATM   39  O5  UNL     1      -3.435 -13.188  -0.520  1.00  0.00    -0.396 OA
HETATM   40  H43 UNL     1      -3.365 -12.236  -0.712  1.00  0.00     0.210 HD
ENDBRANCH  18  39
TORSDOF 8
ENDMDL
MODEL 9
REMARK minimizedAffinity -8.16019058
REMARK CNNscore 0.396078497
REMARK CNNaffinity 6.19502687
REMARK  8 active torsions:
REMARK  status: ('A' for Active; 'I' for Inactive)
REMARK    1  A    between atoms: C2_2  and  C4_4 
REMARK    2  A    between atoms: C4_4  and  O1_6 
REMARK    3  A    between atoms: C4_4  and  C6_7 
REMARK    4  A    between atoms: C7_9  and  C8_10 
REMARK    5  A    between atoms: C8_10  and  O3_12 
REMARK    6  A    between atoms: C8_10  and  C10_13 
REMARK    7  A    between atoms: C22_25  and  O4_26 
REMARK    8  A    between atoms: C27_31  and  O5_32 
ROOT
HETATM    1  C10 UNL     1       2.973  10.176  15.723  1.00  0.00     0.034 C 
HETATM    2  C11 UNL     1       4.483   9.698  15.709  1.00  0.00     0.016 C 
HETATM    3  C12 UNL     1       4.585   8.731  14.517  1.00  0.00     0.026 C 
HETATM    4  C13 UNL     1       5.870   8.609  13.719  1.00  0.00     0.013 C 
HETATM    5  C14 UNL     1       5.630   7.617  12.550  1.00  0.00     0.043 C 
HETATM    6  C15 UNL     1       4.257   7.697  11.889  1.00  0.00    -0.006 C 
HETATM    7  C16 UNL     1       3.231   8.421  12.379  1.00  0.00    -0.030 C 
HETATM    8  C17 UNL     1       1.909   8.674  11.675  1.00  0.00     0.027 C 
HETATM    9  C18 UNL     1       0.725   9.061  12.623  1.00  0.00     0.011 C 
HETATM   10  C19 UNL     1       1.100   9.927  13.848  1.00  0.00     0.014 C 
HETATM   11  C20 UNL     1       2.277   9.298  14.618  1.00  0.00    -0.002 C 
HETATM   12  C21 UNL     1       1.831   7.915  15.157  1.00  0.00     0.019 C 
HETATM   13  C22 UNL     1       3.451   9.212  13.618  1.00  0.00     0.094 C 
HETATM   14  C23 UNL     1       1.551   7.531  10.659  1.00  0.00    -0.026 C 
HETATM   15  C24 UNL     1       1.090   6.239  11.385  1.00  0.00     0.016 C 
HETATM   16  C25 UNL     1       0.389   8.027   9.739  1.00  0.00     0.013 C 
HETATM   17  C26 UNL     1       0.512   7.522   8.306  1.00  0.00     0.032 C 
HETATM   18  C27 UNL     1       1.801   8.028   7.649  1.00  0.00     0.119 C 
HETATM   19  C28 UNL     1       2.991   8.102   8.613  1.00  0.00     0.045 C 
HETATM   20  C29 UNL     1       2.796   7.149   9.798  1.00  0.00     0.071 C 
HETATM   21  C30 UNL     1       4.097   7.010  10.578  1.00  0.00     0.161 C 
HETATM   22  O6  UNL     1       5.036   6.360  10.116  1.00  0.00    -0.292 OA
ENDROOT
BRANCH   1  23
HETATM   23  C8  UNL     1       2.346  10.369  17.137  1.00  0.00     0.087 C 
HETATM   24  C9  UNL     1       0.925  10.946  17.163  1.00  0.00     0.049 C 
BRANCH  23  25
HETATM   25  C7  UNL     1       3.313  11.109  18.037  1.00  0.00     0.188 A 
HETATM   26  C6  UNL     1       2.989  11.466  19.473  1.00  0.00     0.188 A 
HETATM   27  O2  UNL     1       2.950  12.446  18.418  1.00  0.00    -0.369 OA
BRANCH  26  28
HETATM   28  C4  UNL     1       4.078  11.678  20.506  1.00  0.00     0.086 C 
HETATM   29  C5  UNL     1       4.639  13.101  20.368  1.00  0.00     0.049 C 
BRANCH  28  30
HETATM   30  C2  UNL     1       3.554  11.344  21.935  1.00  0.00     0.014 C 
HETATM   31  C1  UNL     1       3.765  12.473  22.952  1.00  0.00     0.012 C 
HETATM   32  C3  UNL     1       4.144  10.044  22.501  1.00  0.00     0.012 C 
ENDBRANCH  28  30
BRANCH  28  33
HETATM   33  O1  UNL     1       5.161  10.777  20.226  1.00  0.00    -0.387 OA
HETATM   34  H11 UNL     1       5.368  10.879  19.277  1.00  0.00     0.210 HD
ENDBRANCH  28  33
ENDBRANCH  26  28
ENDBRANCH  23  25
BRANCH  23  35
HETATM   35  O3  UNL     1       2.201   9.049  17.704  1.00  0.00    -0.387 OA
HETATM   36  H17 UNL     1       3.067   8.609  17.669  1.00  0.00     0.210 HD
ENDBRANCH  23  35
ENDBRANCH   1  23
BRANCH  13  37
HETATM   37  O4  UNL     1       3.761  10.540  13.143  1.00  0.00    -0.384 OA
HETATM   38  H34 UNL     1       4.381  10.462  12.396  1.00  0.00     0.211 HD
ENDBRANCH  13  37
BRANCH  18  39
HETATM   39  O5  UNL     1       2.114   7.179   6.546  1.00  0.00    -0.396 OA
HETATM   40  H43 UNL     1       2.394   6.315   6.895  1.00  0.00     0.210 HD
ENDBRANCH  18  39
TORSDOF 8
ENDMDL
