MODEL 1
REMARK minimizedAffinity -7.24067593
REMARK CNNscore 0.563362837
REMARK CNNaffinity 6.48808098
REMARK  6 active torsions:
REMARK  status: ('A' for Active; 'I' for Inactive)
REMARK    1  A    between atoms: C2_2  and  C3_3 
REMARK    2  A    between atoms: C3_3  and  C4_4 
REMARK    3  A    between atoms: C3_3  and  C27_28 
REMARK    4  A    between atoms: C5_5  and  C6_6 
REMARK    5  A    between atoms: C6_6  and  C8_8 
REMARK    6  A    between atoms: C16_16  and  O1_17 
ROOT
HETATM    1  C8  UNL     1       2.001  55.642  -8.927  1.00  0.00    -0.002 C 
HETATM    2  C9  UNL     1       0.952  55.360 -10.024  1.00  0.00     0.040 C 
HETATM    3  C10 UNL     1       0.355  54.066  -9.554  1.00  0.00    -0.068 C 
HETATM    4  C11 UNL     1      -0.954  53.779  -9.444  1.00  0.00    -0.072 C 
HETATM    5  C12 UNL     1      -2.059  54.536 -10.136  1.00  0.00     0.035 C 
HETATM    6  C13 UNL     1      -2.903  53.571 -10.981  1.00  0.00     0.010 C 
HETATM    7  C14 UNL     1      -3.390  52.364 -10.159  1.00  0.00    -0.003 C 
HETATM    8  C15 UNL     1      -4.311  51.452 -10.978  1.00  0.00     0.037 C 
HETATM    9  C16 UNL     1      -4.883  50.332 -10.110  1.00  0.00     0.118 C 
HETATM   10  C17 UNL     1      -3.796  49.550  -9.377  1.00  0.00     0.032 C 
HETATM   11  C18 UNL     1      -2.842  50.459  -8.599  1.00  0.00     0.012 C 
HETATM   12  C19 UNL     1      -2.212  51.580  -9.469  1.00  0.00    -0.033 C 
HETATM   13  C20 UNL     1      -1.269  50.928 -10.508  1.00  0.00     0.016 C 
HETATM   14  C21 UNL     1      -1.451  52.627  -8.583  1.00  0.00     0.023 C 
HETATM   15  C22 UNL     1      -0.373  52.135  -7.594  1.00  0.00     0.011 C 
HETATM   16  C23 UNL     1       1.028  52.003  -8.178  1.00  0.00     0.014 C 
HETATM   17  C24 UNL     1       1.480  53.217  -9.009  1.00  0.00    -0.020 C 
HETATM   18  C25 UNL     1       2.383  52.686 -10.148  1.00  0.00     0.020 C 
HETATM   19  C26 UNL     1       2.243  54.283  -8.207  1.00  0.00     0.019 C 
ENDROOT
BRANCH   1  20
HETATM   20  C6  UNL     1       3.286  56.324  -9.456  1.00  0.00     0.008 C 
HETATM   21  C7  UNL     1       3.378  56.223 -10.986  1.00  0.00     0.014 C 
BRANCH  20  22
HETATM   22  C5  UNL     1       4.527  55.685  -8.867  1.00  0.00    -0.026 C 
HETATM   23  C4  UNL     1       5.287  56.124  -7.847  1.00  0.00    -0.025 C 
BRANCH  23  24
HETATM   24  C3  UNL     1       5.089  57.357  -6.988  1.00  0.00     0.011 C 
BRANCH  24  25
HETATM   25  C2  UNL     1       3.811  57.218  -6.125  1.00  0.00     0.004 C 
HETATM   26  C1  UNL     1       2.753  58.273  -6.426  1.00  0.00     0.006 C 
ENDBRANCH  24  25
BRANCH  24  27
HETATM   27  C27 UNL     1       6.325  57.673  -6.093  1.00  0.00    -0.015 C 
HETATM   28  C28 UNL     1       7.273  56.474  -5.983  1.00  0.00     0.010 C 
HETATM   29  C29 UNL     1       5.975  58.178  -4.688  1.00  0.00     0.010 C 
ENDBRANCH  24  27
ENDBRANCH  23  24
ENDBRANCH  20  22
ENDBRANCH   1  20
BRANCH   9  30
HETATM   30  O1  UNL     1      -5.631  49.451 -10.941  1.00  0.00    -0.396 OA
HETATM   31  H24 UNL     1      -5.992  48.747 -10.374  1.00  0.00     0.210 HD
ENDBRANCH   9  30
TORSDOF 6
ENDMDL
MODEL 2
REMARK minimizedAffinity -6.44182634
REMARK CNNscore 0.515946746
REMARK CNNaffinity 6.62934065
REMARK  6 active torsions:
REMARK  status: ('A' for Active; 'I' for Inactive)
REMARK    1  A    between atoms: C2_2  and  C3_3 
REMARK    2  A    between atoms: C3_3  and  C4_4 
REMARK    3  A    between atoms: C3_3  and  C27_28 
REMARK    4  A    between atoms: C5_5  and  C6_6 
REMARK    5  A    between atoms: C6_6  and  C8_8 
REMARK    6  A    between atoms: C16_16  and  O1_17 
ROOT
HETATM    1  C8  UNL     1       1.232  54.644 -10.343  1.00  0.00    -0.002 C 
HETATM    2  C9  UNL     1       1.395  55.312  -8.961  1.00  0.00     0.040 C 
HETATM    3  C10 UNL     1       2.863  55.134  -8.705  1.00  0.00    -0.068 C 
HETATM    4  C11 UNL     1       3.728  56.080  -8.301  1.00  0.00    -0.072 C 
HETATM    5  C12 UNL     1       3.333  57.381  -7.649  1.00  0.00     0.035 C 
HETATM    6  C13 UNL     1       4.036  57.521  -6.292  1.00  0.00     0.010 C 
HETATM    7  C14 UNL     1       5.558  57.316  -6.410  1.00  0.00    -0.003 C 
HETATM    8  C15 UNL     1       6.269  57.550  -5.072  1.00  0.00     0.037 C 
HETATM    9  C16 UNL     1       7.786  57.466  -5.238  1.00  0.00     0.118 C 
HETATM   10  C17 UNL     1       8.228  56.168  -5.910  1.00  0.00     0.032 C 
HETATM   11  C18 UNL     1       7.483  55.903  -7.221  1.00  0.00     0.012 C 
HETATM   12  C19 UNL     1       5.938  55.939  -7.071  1.00  0.00    -0.033 C 
HETATM   13  C20 UNL     1       5.499  54.741  -6.196  1.00  0.00     0.016 C 
HETATM   14  C21 UNL     1       5.231  55.916  -8.471  1.00  0.00     0.023 C 
HETATM   15  C22 UNL     1       5.582  54.797  -9.474  1.00  0.00     0.011 C 
HETATM   16  C23 UNL     1       4.762  53.521  -9.332  1.00  0.00     0.014 C 
HETATM   17  C24 UNL     1       3.247  53.759  -9.199  1.00  0.00    -0.020 C 
HETATM   18  C25 UNL     1       2.688  52.654  -8.270  1.00  0.00     0.020 C 
HETATM   19  C26 UNL     1       2.485  53.740 -10.533  1.00  0.00     0.019 C 
ENDROOT
BRANCH   1  20
HETATM   20  C6  UNL     1      -0.120  53.910 -10.522  1.00  0.00     0.008 C 
HETATM   21  C7  UNL     1      -0.913  53.880  -9.208  1.00  0.00     0.014 C 
BRANCH  20  22
HETATM   22  C5  UNL     1       0.090  52.480 -10.977  1.00  0.00    -0.026 C 
HETATM   23  C4  UNL     1      -0.811  51.483 -11.036  1.00  0.00    -0.025 C 
BRANCH  23  24
HETATM   24  C3  UNL     1      -2.287  51.527 -10.695  1.00  0.00     0.011 C 
BRANCH  24  25
HETATM   25  C2  UNL     1      -2.495  52.002  -9.235  1.00  0.00     0.004 C 
HETATM   26  C1  UNL     1      -2.256  50.910  -8.200  1.00  0.00     0.006 C 
ENDBRANCH  24  25
BRANCH  24  27
HETATM   27  C27 UNL     1      -3.107  52.414 -11.682  1.00  0.00    -0.015 C 
HETATM   28  C28 UNL     1      -2.394  52.581 -13.028  1.00  0.00     0.010 C 
HETATM   29  C29 UNL     1      -3.483  53.793 -11.129  1.00  0.00     0.010 C 
ENDBRANCH  24  27
ENDBRANCH  23  24
ENDBRANCH  20  22
ENDBRANCH   1  20
BRANCH   9  30
HETATM   30  O1  UNL     1       8.389  57.570  -3.952  1.00  0.00    -0.396 OA
HETATM   31  H24 UNL     1       9.353  57.520  -4.075  1.00  0.00     0.210 HD
ENDBRANCH   9  30
TORSDOF 6
ENDMDL
MODEL 3
REMARK minimizedAffinity -7.63739872
REMARK CNNscore 0.487169057
REMARK CNNaffinity 6.39628744
REMARK  6 active torsions:
REMARK  status: ('A' for Active; 'I' for Inactive)
REMARK    1  A    between atoms: C2_2  and  C3_3 
REMARK    2  A    between atoms: C3_3  and  C4_4 
REMARK    3  A    between atoms: C3_3  and  C27_28 
REMARK    4  A    between atoms: C5_5  and  C6_6 
REMARK    5  A    between atoms: C6_6  and  C8_8 
REMARK    6  A    between atoms: C16_16  and  O1_17 
ROOT
HETATM    1  C8  UNL     1       1.307  54.938 -10.682  1.00  0.00    -0.002 C 
HETATM    2  C9  UNL     1       1.495  55.704  -9.355  1.00  0.00     0.040 C 
HETATM    3  C10 UNL     1       2.896  55.321  -8.976  1.00  0.00    -0.068 C 
HETATM    4  C11 UNL     1       3.879  56.154  -8.591  1.00  0.00    -0.072 C 
HETATM    5  C12 UNL     1       3.665  57.558  -8.086  1.00  0.00     0.035 C 
HETATM    6  C13 UNL     1       4.298  57.716  -6.697  1.00  0.00     0.010 C 
HETATM    7  C14 UNL     1       5.770  57.263  -6.682  1.00  0.00    -0.003 C 
HETATM    8  C15 UNL     1       6.429  57.511  -5.320  1.00  0.00     0.037 C 
HETATM    9  C16 UNL     1       7.918  57.172  -5.365  1.00  0.00     0.118 C 
HETATM   10  C17 UNL     1       8.181  55.762  -5.887  1.00  0.00     0.032 C 
HETATM   11  C18 UNL     1       7.482  55.492  -7.222  1.00  0.00     0.012 C 
HETATM   12  C19 UNL     1       5.959  55.786  -7.192  1.00  0.00    -0.033 C 
HETATM   13  C20 UNL     1       5.277  54.763  -6.253  1.00  0.00     0.016 C 
HETATM   14  C21 UNL     1       5.342  55.739  -8.634  1.00  0.00     0.023 C 
HETATM   15  C22 UNL     1       5.564  54.486  -9.508  1.00  0.00     0.011 C 
HETATM   16  C23 UNL     1       4.538  53.376  -9.317  1.00  0.00     0.014 C 
HETATM   17  C24 UNL     1       3.078  53.861  -9.319  1.00  0.00    -0.020 C 
HETATM   18  C25 UNL     1       2.290  52.954  -8.342  1.00  0.00     0.020 C 
HETATM   19  C26 UNL     1       2.404  53.834 -10.700  1.00  0.00     0.019 C 
ENDROOT
BRANCH   1  20
HETATM   20  C6  UNL     1      -0.133  54.413 -10.898  1.00  0.00     0.008 C 
HETATM   21  C7  UNL     1      -1.125  55.114  -9.958  1.00  0.00     0.014 C 
BRANCH  20  22
HETATM   22  C5  UNL     1      -0.216  52.922 -10.643  1.00  0.00    -0.026 C 
HETATM   23  C4  UNL     1      -1.084  52.035 -11.162  1.00  0.00    -0.025 C 
BRANCH  23  24
HETATM   24  C3  UNL     1      -2.191  52.279 -12.168  1.00  0.00     0.011 C 
BRANCH  24  25
HETATM   25  C2  UNL     1      -2.040  51.330 -13.383  1.00  0.00     0.004 C 
HETATM   26  C1  UNL     1      -3.165  51.462 -14.403  1.00  0.00     0.006 C 
ENDBRANCH  24  25
BRANCH  24  27
HETATM   27  C27 UNL     1      -3.614  52.148 -11.543  1.00  0.00    -0.015 C 
HETATM   28  C28 UNL     1      -4.084  53.462 -10.911  1.00  0.00     0.010 C 
HETATM   29  C29 UNL     1      -3.753  51.012 -10.523  1.00  0.00     0.010 C 
ENDBRANCH  24  27
ENDBRANCH  23  24
ENDBRANCH  20  22
ENDBRANCH   1  20
BRANCH   9  30
HETATM   30  O1  UNL     1       8.453  57.305  -4.051  1.00  0.00    -0.396 OA
HETATM   31  H24 UNL     1       9.401  57.091  -4.097  1.00  0.00     0.210 HD
ENDBRANCH   9  30
TORSDOF 6
ENDMDL
MODEL 4
REMARK minimizedAffinity -7.53184271
REMARK CNNscore 0.445882142
REMARK CNNaffinity 7.25369596
REMARK  6 active torsions:
REMARK  status: ('A' for Active; 'I' for Inactive)
REMARK    1  A    between atoms: C2_2  and  C3_3 
REMARK    2  A    between atoms: C3_3  and  C4_4 
REMARK    3  A    between atoms: C3_3  and  C27_28 
REMARK    4  A    between atoms: C5_5  and  C6_6 
REMARK    5  A    between atoms: C6_6  and  C8_8 
REMARK    6  A    between atoms: C16_16  and  O1_17 
ROOT
HETATM    1  C8  UNL     1       1.043  52.342 -12.432  1.00  0.00    -0.002 C 
HETATM    2  C9  UNL     1       0.441  52.744 -11.068  1.00  0.00     0.040 C 
HETATM    3  C10 UNL     1       1.528  53.607 -10.495  1.00  0.00    -0.068 C 
HETATM    4  C11 UNL     1       1.378  54.823  -9.941  1.00  0.00    -0.072 C 
HETATM    5  C12 UNL     1       0.073  55.378  -9.430  1.00  0.00     0.035 C 
HETATM    6  C13 UNL     1       0.220  55.785  -7.957  1.00  0.00     0.010 C 
HETATM    7  C14 UNL     1       1.426  56.717  -7.737  1.00  0.00    -0.003 C 
HETATM    8  C15 UNL     1       1.515  57.199  -6.285  1.00  0.00     0.037 C 
HETATM    9  C16 UNL     1       2.641  58.219  -6.116  1.00  0.00     0.118 C 
HETATM   10  C17 UNL     1       3.979  57.702  -6.638  1.00  0.00     0.032 C 
HETATM   11  C18 UNL     1       3.885  57.171  -8.070  1.00  0.00     0.012 C 
HETATM   12  C19 UNL     1       2.777  56.100  -8.259  1.00  0.00    -0.033 C 
HETATM   13  C20 UNL     1       3.175  54.833  -7.465  1.00  0.00     0.016 C 
HETATM   14  C21 UNL     1       2.552  55.777  -9.778  1.00  0.00     0.023 C 
HETATM   15  C22 UNL     1       3.759  55.367 -10.648  1.00  0.00     0.011 C 
HETATM   16  C23 UNL     1       4.078  53.877 -10.648  1.00  0.00     0.014 C 
HETATM   17  C24 UNL     1       2.850  52.971 -10.853  1.00  0.00    -0.020 C 
HETATM   18  C25 UNL     1       3.090  51.679 -10.035  1.00  0.00     0.020 C 
HETATM   19  C26 UNL     1       2.573  52.604 -12.320  1.00  0.00     0.019 C 
ENDROOT
BRANCH   1  20
HETATM   20  C6  UNL     1       0.670  50.908 -12.877  1.00  0.00     0.008 C 
HETATM   21  C7  UNL     1       0.481  49.982 -11.666  1.00  0.00     0.014 C 
BRANCH  20  22
HETATM   22  C5  UNL     1       1.746  50.312 -13.761  1.00  0.00    -0.026 C 
HETATM   23  C4  UNL     1       2.129  50.705 -14.990  1.00  0.00    -0.025 C 
BRANCH  23  24
HETATM   24  C3  UNL     1       1.611  51.871 -15.809  1.00  0.00     0.011 C 
BRANCH  24  25
HETATM   25  C2  UNL     1       2.757  52.510 -16.630  1.00  0.00     0.004 C 
HETATM   26  C1  UNL     1       4.107  52.472 -15.924  1.00  0.00     0.006 C 
ENDBRANCH  24  25
BRANCH  24  27
HETATM   27  C27 UNL     1       0.424  51.474 -16.739  1.00  0.00    -0.015 C 
HETATM   28  C28 UNL     1       0.311  49.955 -16.906  1.00  0.00     0.010 C 
HETATM   29  C29 UNL     1       0.454  52.139 -18.120  1.00  0.00     0.010 C 
ENDBRANCH  24  27
ENDBRANCH  23  24
ENDBRANCH  20  22
ENDBRANCH   1  20
BRANCH   9  30
HETATM   30  O1  UNL     1       2.757  58.542  -4.734  1.00  0.00    -0.396 OA
HETATM   31  H24 UNL     1       3.473  59.195  -4.644  1.00  0.00     0.210 HD
ENDBRANCH   9  30
TORSDOF 6
ENDMDL
MODEL 5
REMARK minimizedAffinity -7.00667477
REMARK CNNscore 0.41017586
REMARK CNNaffinity 6.1013751
REMARK  6 active torsions:
REMARK  status: ('A' for Active; 'I' for Inactive)
REMARK    1  A    between atoms: C2_2  and  C3_3 
REMARK    2  A    between atoms: C3_3  and  C4_4 
REMARK    3  A    between atoms: C3_3  and  C27_28 
REMARK    4  A    between atoms: C5_5  and  C6_6 
REMARK    5  A    between atoms: C6_6  and  C8_8 
REMARK    6  A    between atoms: C16_16  and  O1_17 
ROOT
HETATM    1  C8  UNL     1       1.387  56.396  -6.413  1.00  0.00    -0.002 C 
HETATM    2  C9  UNL     1       1.132  56.137  -7.913  1.00  0.00     0.040 C 
HETATM    3  C10 UNL     1       0.413  54.820  -7.880  1.00  0.00    -0.068 C 
HETATM    4  C11 UNL     1      -0.729  54.512  -8.521  1.00  0.00    -0.072 C 
HETATM    5  C12 UNL     1      -1.286  55.277  -9.695  1.00  0.00     0.035 C 
HETATM    6  C13 UNL     1      -1.491  54.330 -10.885  1.00  0.00     0.010 C 
HETATM    7  C14 UNL     1      -2.317  53.089 -10.497  1.00  0.00    -0.003 C 
HETATM    8  C15 UNL     1      -2.602  52.193 -11.708  1.00  0.00     0.037 C 
HETATM    9  C16 UNL     1      -3.526  51.037 -11.326  1.00  0.00     0.118 C 
HETATM   10  C17 UNL     1      -3.005  50.245 -10.129  1.00  0.00     0.032 C 
HETATM   11  C18 UNL     1      -2.669  51.141  -8.934  1.00  0.00     0.012 C 
HETATM   12  C19 UNL     1      -1.696  52.299  -9.285  1.00  0.00    -0.033 C 
HETATM   13  C20 UNL     1      -0.317  51.694  -9.639  1.00  0.00     0.016 C 
HETATM   14  C21 UNL     1      -1.585  53.326  -8.104  1.00  0.00     0.023 C 
HETATM   15  C22 UNL     1      -1.222  52.815  -6.693  1.00  0.00     0.011 C 
HETATM   16  C23 UNL     1       0.270  52.721  -6.405  1.00  0.00     0.014 C 
HETATM   17  C24 UNL     1       1.071  53.969  -6.820  1.00  0.00    -0.020 C 
HETATM   18  C25 UNL     1       2.470  53.487  -7.277  1.00  0.00     0.020 C 
HETATM   19  C26 UNL     1       1.229  55.018  -5.708  1.00  0.00     0.019 C 
ENDROOT
BRANCH   1  20
HETATM   20  C6  UNL     1       2.729  57.112  -6.126  1.00  0.00     0.008 C 
HETATM   21  C7  UNL     1       2.585  58.118  -4.975  1.00  0.00     0.014 C 
BRANCH  20  22
HETATM   22  C5  UNL     1       3.221  57.862  -7.347  1.00  0.00    -0.026 C 
HETATM   23  C4  UNL     1       3.972  57.400  -8.363  1.00  0.00    -0.025 C 
BRANCH  23  24
HETATM   24  C3  UNL     1       4.500  55.995  -8.580  1.00  0.00     0.011 C 
BRANCH  24  25
HETATM   25  C2  UNL     1       4.508  55.644 -10.088  1.00  0.00     0.004 C 
HETATM   26  C1  UNL     1       3.417  56.350 -10.884  1.00  0.00     0.006 C 
ENDBRANCH  24  25
BRANCH  24  27
HETATM   27  C27 UNL     1       5.914  55.780  -7.959  1.00  0.00    -0.015 C 
HETATM   28  C28 UNL     1       6.832  54.981  -8.890  1.00  0.00     0.010 C 
HETATM   29  C29 UNL     1       5.903  55.129  -6.571  1.00  0.00     0.010 C 
ENDBRANCH  24  27
ENDBRANCH  23  24
ENDBRANCH  20  22
ENDBRANCH   1  20
BRANCH   9  30
HETATM   30  O1  UNL     1      -3.661  50.174 -12.450  1.00  0.00    -0.396 OA
HETATM   31  H24 UNL     1      -4.254  49.447 -12.193  1.00  0.00     0.210 HD
ENDBRANCH   9  30
TORSDOF 6
ENDMDL
MODEL 6
REMARK minimizedAffinity -6.98125267
REMARK CNNscore 0.324069202
REMARK CNNaffinity 5.57418108
REMARK  6 active torsions:
REMARK  status: ('A' for Active; 'I' for Inactive)
REMARK    1  A    between atoms: C2_2  and  C3_3 
REMARK    2  A    between atoms: C3_3  and  C4_4 
REMARK    3  A    between atoms: C3_3  and  C27_28 
REMARK    4  A    between atoms: C5_5  and  C6_6 
REMARK    5  A    between atoms: C6_6  and  C8_8 
REMARK    6  A    between atoms: C16_16  and  O1_17 
ROOT
HETATM    1  C8  UNL     1       5.746  57.827  -5.992  1.00  0.00    -0.002 C 
HETATM    2  C9  UNL     1       5.620  56.861  -7.189  1.00  0.00     0.040 C 
HETATM    3  C10 UNL     1       4.153  56.542  -7.174  1.00  0.00    -0.068 C 
HETATM    4  C11 UNL     1       3.314  56.572  -8.224  1.00  0.00    -0.072 C 
HETATM    5  C12 UNL     1       3.747  56.540  -9.668  1.00  0.00     0.035 C 
HETATM    6  C13 UNL     1       3.071  55.366 -10.390  1.00  0.00     0.010 C 
HETATM    7  C14 UNL     1       1.544  55.373 -10.193  1.00  0.00    -0.003 C 
HETATM    8  C15 UNL     1       0.861  54.257 -10.992  1.00  0.00     0.037 C 
HETATM    9  C16 UNL     1      -0.660  54.360 -10.884  1.00  0.00     0.118 C 
HETATM   10  C17 UNL     1      -1.139  54.412  -9.435  1.00  0.00     0.032 C 
HETATM   11  C18 UNL     1      -0.423  55.491  -8.619  1.00  0.00     0.012 C 
HETATM   12  C19 UNL     1       1.124  55.383  -8.676  1.00  0.00    -0.033 C 
HETATM   13  C20 UNL     1       1.555  54.085  -7.952  1.00  0.00     0.016 C 
HETATM   14  C21 UNL     1       1.806  56.645  -8.041  1.00  0.00     0.023 C 
HETATM   15  C22 UNL     1       1.415  57.074  -6.611  1.00  0.00     0.011 C 
HETATM   16  C23 UNL     1       2.212  56.408  -5.497  1.00  0.00     0.014 C 
HETATM   17  C24 UNL     1       3.734  56.400  -5.729  1.00  0.00    -0.020 C 
HETATM   18  C25 UNL     1       4.287  55.093  -5.111  1.00  0.00     0.020 C 
HETATM   19  C26 UNL     1       4.472  57.605  -5.126  1.00  0.00     0.019 C 
ENDROOT
BRANCH   1  20
HETATM   20  C6  UNL     1       7.079  57.687  -5.218  1.00  0.00     0.008 C 
HETATM   21  C7  UNL     1       7.046  56.479  -4.271  1.00  0.00     0.014 C 
BRANCH  20  22
HETATM   22  C5  UNL     1       7.364  58.925  -4.392  1.00  0.00    -0.026 C 
HETATM   23  C4  UNL     1       8.503  59.637  -4.322  1.00  0.00    -0.025 C 
BRANCH  23  24
HETATM   24  C3  UNL     1       9.799  59.416  -5.078  1.00  0.00     0.011 C 
BRANCH  24  25
HETATM   25  C2  UNL     1      10.550  60.756  -5.273  1.00  0.00     0.004 C 
HETATM   26  C1  UNL     1       9.732  61.813  -6.004  1.00  0.00     0.006 C 
ENDBRANCH  24  25
BRANCH  24  27
HETATM   27  C27 UNL     1      10.723  58.363  -4.394  1.00  0.00    -0.015 C 
HETATM   28  C28 UNL     1      12.184  58.825  -4.352  1.00  0.00     0.010 C 
HETATM   29  C29 UNL     1      10.649  56.961  -5.011  1.00  0.00     0.010 C 
ENDBRANCH  24  27
ENDBRANCH  23  24
ENDBRANCH  20  22
ENDBRANCH   1  20
BRANCH   9  30
HETATM   30  O1  UNL     1      -1.238  53.237 -11.541  1.00  0.00    -0.396 OA
HETATM   31  H24 UNL     1      -2.205  53.319 -11.467  1.00  0.00     0.210 HD
ENDBRANCH   9  30
TORSDOF 6
ENDMDL
MODEL 7
REMARK minimizedAffinity -6.87366056
REMARK CNNscore 0.321242064
REMARK CNNaffinity 5.52440071
REMARK  6 active torsions:
REMARK  status: ('A' for Active; 'I' for Inactive)
REMARK    1  A    between atoms: C2_2  and  C3_3 
REMARK    2  A    between atoms: C3_3  and  C4_4 
REMARK    3  A    between atoms: C3_3  and  C27_28 
REMARK    4  A    between atoms: C5_5  and  C6_6 
REMARK    5  A    between atoms: C6_6  and  C8_8 
REMARK    6  A    between atoms: C16_16  and  O1_17 
ROOT
HETATM    1  C8  UNL     1     -12.889  47.364 -27.874  1.00  0.00    -0.002 C 
HETATM    2  C9  UNL     1     -11.399  47.293 -27.477  1.00  0.00     0.040 C 
HETATM    3  C10 UNL     1     -10.743  47.002 -28.795  1.00  0.00    -0.068 C 
HETATM    4  C11 UNL     1      -9.679  47.634 -29.319  1.00  0.00    -0.072 C 
HETATM    5  C12 UNL     1      -8.705  48.473 -28.531  1.00  0.00     0.035 C 
HETATM    6  C13 UNL     1      -7.278  47.944 -28.731  1.00  0.00     0.010 C 
HETATM    7  C14 UNL     1      -6.921  47.806 -30.223  1.00  0.00    -0.003 C 
HETATM    8  C15 UNL     1      -5.465  47.369 -30.422  1.00  0.00     0.037 C 
HETATM    9  C16 UNL     1      -5.096  47.361 -31.905  1.00  0.00     0.118 C 
HETATM   10  C17 UNL     1      -6.068  46.535 -32.743  1.00  0.00     0.032 C 
HETATM   11  C18 UNL     1      -7.528  46.932 -32.510  1.00  0.00     0.012 C 
HETATM   12  C19 UNL     1      -7.942  46.906 -31.014  1.00  0.00    -0.033 C 
HETATM   13  C20 UNL     1      -7.918  45.440 -30.520  1.00  0.00     0.016 C 
HETATM   14  C21 UNL     1      -9.354  47.558 -30.803  1.00  0.00     0.023 C 
HETATM   15  C22 UNL     1     -10.551  47.047 -31.634  1.00  0.00     0.011 C 
HETATM   16  C23 UNL     1     -11.297  45.864 -31.031  1.00  0.00     0.014 C 
HETATM   17  C24 UNL     1     -11.625  46.023 -29.535  1.00  0.00    -0.020 C 
HETATM   18  C25 UNL     1     -11.557  44.615 -28.897  1.00  0.00     0.020 C 
HETATM   19  C26 UNL     1     -13.000  46.648 -29.252  1.00  0.00     0.019 C 
ENDROOT
BRANCH   1  20
HETATM   20  C6  UNL     1     -13.848  46.815 -26.789  1.00  0.00     0.008 C 
HETATM   21  C7  UNL     1     -13.161  46.765 -25.416  1.00  0.00     0.014 C 
BRANCH  20  22
HETATM   22  C5  UNL     1     -14.318  45.417 -27.131  1.00  0.00    -0.026 C 
HETATM   23  C4  UNL     1     -15.544  44.887 -26.971  1.00  0.00    -0.025 C 
BRANCH  23  24
HETATM   24  C3  UNL     1     -16.796  45.555 -26.439  1.00  0.00     0.011 C 
BRANCH  24  25
HETATM   25  C2  UNL     1     -18.060  44.937 -27.086  1.00  0.00     0.004 C 
HETATM   26  C1  UNL     1     -19.296  45.005 -26.197  1.00  0.00     0.006 C 
ENDBRANCH  24  25
BRANCH  24  27
HETATM   27  C27 UNL     1     -16.894  45.502 -24.883  1.00  0.00    -0.015 C 
HETATM   28  C28 UNL     1     -16.606  46.865 -24.245  1.00  0.00     0.010 C 
HETATM   29  C29 UNL     1     -16.007  44.435 -24.231  1.00  0.00     0.010 C 
ENDBRANCH  24  27
ENDBRANCH  23  24
ENDBRANCH  20  22
ENDBRANCH   1  20
BRANCH   9  30
HETATM   30  O1  UNL     1      -3.779  46.836 -32.041  1.00  0.00    -0.396 OA
HETATM   31  H24 UNL     1      -3.557  46.842 -32.989  1.00  0.00     0.210 HD
ENDBRANCH   9  30
TORSDOF 6
ENDMDL
MODEL 8
REMARK minimizedAffinity -6.87799406
REMARK CNNscore 0.313537687
REMARK CNNaffinity 6.37171745
REMARK  6 active torsions:
REMARK  status: ('A' for Active; 'I' for Inactive)
REMARK    1  A    between atoms: C2_2  and  C3_3 
REMARK    2  A    between atoms: C3_3  and  C4_4 
REMARK    3  A    between atoms: C3_3  and  C27_28 
REMARK    4  A    between atoms: C5_5  and  C6_6 
REMARK    5  A    between atoms: C6_6  and  C8_8 
REMARK    6  A    between atoms: C16_16  and  O1_17 
ROOT
HETATM    1  C8  UNL     1       1.903  54.276 -11.206  1.00  0.00    -0.002 C 
HETATM    2  C9  UNL     1       1.853  55.129  -9.921  1.00  0.00     0.040 C 
HETATM    3  C10 UNL     1       3.224  54.906  -9.351  1.00  0.00    -0.068 C 
HETATM    4  C11 UNL     1       4.072  55.851  -8.908  1.00  0.00    -0.072 C 
HETATM    5  C12 UNL     1       3.670  57.254  -8.527  1.00  0.00     0.035 C 
HETATM    6  C13 UNL     1       4.108  57.549  -7.086  1.00  0.00     0.010 C 
HETATM    7  C14 UNL     1       5.601  57.243  -6.865  1.00  0.00    -0.003 C 
HETATM    8  C15 UNL     1       6.058  57.629  -5.453  1.00  0.00     0.037 C 
HETATM    9  C16 UNL     1       7.566  57.436  -5.296  1.00  0.00     0.118 C 
HETATM   10  C17 UNL     1       8.017  56.031  -5.687  1.00  0.00     0.032 C 
HETATM   11  C18 UNL     1       7.520  55.620  -7.075  1.00  0.00     0.012 C 
HETATM   12  C19 UNL     1       5.984  55.765  -7.248  1.00  0.00    -0.033 C 
HETATM   13  C20 UNL     1       5.284  54.734  -6.331  1.00  0.00     0.016 C 
HETATM   14  C21 UNL     1       5.560  55.578  -8.747  1.00  0.00     0.023 C 
HETATM   15  C22 UNL     1       6.002  54.307  -9.502  1.00  0.00     0.011 C 
HETATM   16  C23 UNL     1       5.065  53.114  -9.362  1.00  0.00     0.014 C 
HETATM   17  C24 UNL     1       3.578  53.454  -9.571  1.00  0.00    -0.020 C 
HETATM   18  C25 UNL     1       2.758  52.530  -8.638  1.00  0.00     0.020 C 
HETATM   19  C26 UNL     1       3.088  53.285 -11.018  1.00  0.00     0.019 C 
ENDROOT
BRANCH   1  20
HETATM   20  C6  UNL     1       0.554  53.602 -11.558  1.00  0.00     0.008 C 
HETATM   21  C7  UNL     1      -0.503  53.882 -10.480  1.00  0.00     0.014 C 
BRANCH  20  22
HETATM   22  C5  UNL     1       0.710  52.101 -11.685  1.00  0.00    -0.026 C 
HETATM   23  C4  UNL     1       0.913  51.375 -12.800  1.00  0.00    -0.025 C 
BRANCH  23  24
HETATM   24  C3  UNL     1       1.075  51.865 -14.226  1.00  0.00     0.011 C 
BRANCH  24  25
HETATM   25  C2  UNL     1       2.561  51.804 -14.655  1.00  0.00     0.004 C 
HETATM   26  C1  UNL     1       3.377  50.773 -13.885  1.00  0.00     0.006 C 
ENDBRANCH  24  25
BRANCH  24  27
HETATM   27  C27 UNL     1       0.179  51.086 -15.237  1.00  0.00    -0.015 C 
HETATM   28  C28 UNL     1      -0.176  49.686 -14.725  1.00  0.00     0.010 C 
HETATM   29  C29 UNL     1       0.765  50.981 -16.649  1.00  0.00     0.010 C 
ENDBRANCH  24  27
ENDBRANCH  23  24
ENDBRANCH  20  22
ENDBRANCH   1  20
BRANCH   9  30
HETATM   30  O1  UNL     1       7.916  57.692  -3.940  1.00  0.00    -0.396 OA
HETATM   31  H24 UNL     1       8.878  57.570  -3.857  1.00  0.00     0.210 HD
ENDBRANCH   9  30
TORSDOF 6
ENDMDL
MODEL 9
REMARK minimizedAffinity -8.68073559
REMARK CNNscore 0.291490108
REMARK CNNaffinity 6.76274872
REMARK  6 active torsions:
REMARK  status: ('A' for Active; 'I' for Inactive)
REMARK    1  A    between atoms: C2_2  and  C3_3 
REMARK    2  A    between atoms: C3_3  and  C4_4 
REMARK    3  A    between atoms: C3_3  and  C27_28 
REMARK    4  A    between atoms: C5_5  and  C6_6 
REMARK    5  A    between atoms: C6_6  and  C8_8 
REMARK    6  A    between atoms: C16_16  and  O1_17 
ROOT
HETATM    1  C8  UNL     1      -0.211  51.071 -21.299  1.00  0.00    -0.002 C 
HETATM    2  C9  UNL     1       0.013  52.053 -20.130  1.00  0.00     0.040 C 
HETATM    3  C10 UNL     1      -0.360  51.210 -18.945  1.00  0.00    -0.068 C 
HETATM    4  C11 UNL     1       0.349  51.059 -17.813  1.00  0.00    -0.072 C 
HETATM    5  C12 UNL     1       1.436  51.996 -17.349  1.00  0.00     0.035 C 
HETATM    6  C13 UNL     1       1.114  52.512 -15.940  1.00  0.00     0.010 C 
HETATM    7  C14 UNL     1       0.820  51.361 -14.960  1.00  0.00    -0.003 C 
HETATM    8  C15 UNL     1       0.593  51.872 -13.533  1.00  0.00     0.037 C 
HETATM    9  C16 UNL     1       0.428  50.709 -12.556  1.00  0.00     0.118 C 
HETATM   10  C17 UNL     1      -0.653  49.725 -12.998  1.00  0.00     0.032 C 
HETATM   11  C18 UNL     1      -0.461  49.251 -14.440  1.00  0.00     0.012 C 
HETATM   12  C19 UNL     1      -0.335  50.415 -15.460  1.00  0.00    -0.033 C 
HETATM   13  C20 UNL     1      -1.692  51.154 -15.536  1.00  0.00     0.016 C 
HETATM   14  C21 UNL     1       0.110  49.889 -16.870  1.00  0.00     0.023 C 
HETATM   15  C22 UNL     1      -0.697  48.758 -17.541  1.00  0.00     0.011 C 
HETATM   16  C23 UNL     1      -1.882  49.220 -18.379  1.00  0.00     0.014 C 
HETATM   17  C24 UNL     1      -1.562  50.382 -19.336  1.00  0.00    -0.020 C 
HETATM   18  C25 UNL     1      -2.835  51.257 -19.440  1.00  0.00     0.020 C 
HETATM   19  C26 UNL     1      -1.126  49.942 -20.742  1.00  0.00     0.019 C 
ENDROOT
BRANCH   1  20
HETATM   20  C6  UNL     1      -0.740  51.747 -22.587  1.00  0.00     0.008 C 
HETATM   21  C7  UNL     1      -1.299  50.708 -23.570  1.00  0.00     0.014 C 
BRANCH  20  22
HETATM   22  C5  UNL     1       0.359  52.517 -23.291  1.00  0.00    -0.026 C 
HETATM   23  C4  UNL     1       0.646  52.547 -24.605  1.00  0.00    -0.025 C 
BRANCH  23  24
HETATM   24  C3  UNL     1      -0.074  51.847 -25.742  1.00  0.00     0.011 C 
BRANCH  24  25
HETATM   25  C2  UNL     1      -1.015  52.832 -26.477  1.00  0.00     0.004 C 
HETATM   26  C1  UNL     1      -2.436  52.306 -26.647  1.00  0.00     0.006 C 
ENDBRANCH  24  25
BRANCH  24  27
HETATM   27  C27 UNL     1       0.906  51.168 -26.748  1.00  0.00    -0.015 C 
HETATM   28  C28 UNL     1       2.356  51.213 -26.253  1.00  0.00     0.010 C 
HETATM   29  C29 UNL     1       0.835  51.728 -28.173  1.00  0.00     0.010 C 
ENDBRANCH  24  27
ENDBRANCH  23  24
ENDBRANCH  20  22
ENDBRANCH   1  20
BRANCH   9  30
HETATM   30  O1  UNL     1       0.103  51.236 -11.274  1.00  0.00    -0.396 OA
HETATM   31  H24 UNL     1       0.006  50.484 -10.663  1.00  0.00     0.210 HD
ENDBRANCH   9  30
TORSDOF 6
ENDMDL
