MODEL 1
REMARK minimizedAffinity -8.34181881
REMARK CNNscore 0.463845998
REMARK CNNaffinity 7.50386
REMARK  9 active torsions:
REMARK  status: ('A' for Active; 'I' for Inactive)
REMARK    1  A    between atoms: C3_3  and  O1_4 
REMARK    2  A    between atoms: N1_14  and  O2_16 
REMARK    3  A    between atoms: O2_16  and  C13_17 
REMARK    4  A    between atoms: C13_17  and  C14_18 
REMARK       I    between atoms: C14_18  and  N2_20 
REMARK    5  A    between atoms: N2_20  and  C15_21 
REMARK    6  A    between atoms: C15_21  and  C16_22 
REMARK    7  A    between atoms: C15_21  and  C18_26 
REMARK    8  A    between atoms: C16_22  and  C17_23 
REMARK    9  A    between atoms: C17_23  and  O5_25 
ROOT
HETATM    1  C1  UNL     1      -9.045   6.203  11.293  1.00  0.00     0.015 C 
HETATM    2  C2  UNL     1      -8.785   6.204  12.468  1.00  0.00    -0.078 C 
HETATM    3  C3  UNL     1      -8.514   6.215  13.916  1.00  0.00     0.128 C 
HETATM    4  C4  UNL     1      -8.402   7.631  14.455  1.00  0.00     0.052 C 
HETATM    5  C5  UNL     1      -7.759   7.430  15.822  1.00  0.00     0.010 C 
HETATM    6  C6  UNL     1      -6.740   6.279  15.661  1.00  0.00     0.002 C 
HETATM    7  C7  UNL     1      -5.286   6.826  15.637  1.00  0.00    -0.004 C 
HETATM    8  C8  UNL     1      -4.226   5.727  15.898  1.00  0.00     0.010 C 
HETATM    9  C9  UNL     1      -2.898   5.947  15.161  1.00  0.00     0.035 C 
HETATM   10  C10 UNL     1      -2.553   7.411  15.132  1.00  0.00    -0.069 C 
HETATM   11  C11 UNL     1      -1.460   7.886  15.757  1.00  0.00     0.030 C 
HETATM   12  C12 UNL     1      -1.186   9.349  15.833  1.00  0.00     0.032 C 
HETATM   13  N1  UNL     1       0.012   9.741  16.167  1.00  0.00    -0.271 N 
ATOM     14  H1  UNL     1       0.782   9.112  16.393  1.00  0.00     0.194 HD
HETATM   15  C25 UNL     1      -2.314  10.314  15.499  1.00  0.00     0.060 C 
HETATM   16  C26 UNL     1      -3.656   9.622  15.266  1.00  0.00     0.020 C 
HETATM   17  C27 UNL     1      -3.553   8.317  14.420  1.00  0.00    -0.016 C 
HETATM   18  C28 UNL     1      -3.037   8.683  13.008  1.00  0.00     0.020 C 
HETATM   19  C29 UNL     1      -4.986   7.642  14.358  1.00  0.00     0.002 C 
HETATM   20  C30 UNL     1      -5.320   6.834  13.081  1.00  0.00     0.007 C 
HETATM   21  C31 UNL     1      -6.055   5.514  13.303  1.00  0.00     0.014 C 
HETATM   22  C32 UNL     1      -7.185   5.507  14.365  1.00  0.00     0.003 C 
HETATM   23  C33 UNL     1      -7.466   4.022  14.713  1.00  0.00     0.020 C 
ENDROOT
BRANCH   3  24
HETATM   24  O1  UNL     1      -9.638   5.619  14.582  1.00  0.00    -0.377 OA
HETATM   25  H2  UNL     1     -10.434   5.874  14.085  1.00  0.00     0.211 HD
ENDBRANCH   3  24
BRANCH  13  26
HETATM   26  O2  UNL     1       0.101  11.142  16.176  1.00  0.00    -0.271 OA
BRANCH  26  27
HETATM   27  C13 UNL     1       0.610  11.597  14.924  1.00  0.00     0.303 C 
BRANCH  27  28
HETATM   28  C14 UNL     1       1.816  10.805  14.426  1.00  0.00     0.244 C 
HETATM   29  O3  UNL     1       2.965  11.108  14.740  1.00  0.00    -0.271 OA
HETATM   30  N2  UNL     1       1.518   9.744  13.593  1.00  0.00    -0.354 N 
HETATM   31  H16 UNL     1       0.528   9.566  13.426  1.00  0.00     0.162 HD
BRANCH  30  32
HETATM   32  C15 UNL     1       2.537   8.801  13.113  1.00  0.00     0.098 C 
BRANCH  32  33
HETATM   33  C16 UNL     1       2.982   7.861  14.244  1.00  0.00     0.135 C 
BRANCH  33  34
HETATM   34  C17 UNL     1       4.443   7.997  14.559  1.00  0.00     0.141 C 
HETATM   35  O4  UNL     1       4.980   7.709  15.617  1.00  0.00    -0.650 OA
BRANCH  34  36
HETATM   36  O5  UNL     1       5.163   8.442  13.509  1.00  0.00    -0.776 OA
HETATM   37  H20 UNL     1       6.062   8.568  13.877  1.00  0.00     0.167 HD
ENDBRANCH  34  36
ENDBRANCH  33  34
ENDBRANCH  32  33
BRANCH  32  38
HETATM   38  C18 UNL     1       2.008   8.042  11.865  1.00  0.00     0.014 C 
HETATM   39  C19 UNL     1       0.532   8.398  11.573  1.00  0.00     0.033 C 
HETATM   40  C20 UNL     1       0.222   8.450  10.080  1.00  0.00     0.169 C 
HETATM   41  O6  UNL     1       0.859   7.366   9.413  1.00  0.00    -0.381 OA
HETATM   42  C21 UNL     1       2.294   7.436   9.406  1.00  0.00     0.054 C 
HETATM   43  C22 UNL     1       2.790   5.981   9.444  1.00  0.00     0.045 C 
HETATM   44  C23 UNL     1       2.735   8.072   8.082  1.00  0.00     0.045 C 
HETATM   45  C24 UNL     1       2.860   8.241  10.600  1.00  0.00     0.044 C 
ENDBRANCH  32  38
ENDBRANCH  30  32
ENDBRANCH  27  28
ENDBRANCH  26  27
ENDBRANCH  13  26
TORSDOF 9
ENDMDL
MODEL 2
REMARK minimizedAffinity -8.60267925
REMARK CNNscore 0.420954019
REMARK CNNaffinity 7.38313246
REMARK  9 active torsions:
REMARK  status: ('A' for Active; 'I' for Inactive)
REMARK    1  A    between atoms: C3_3  and  O1_4 
REMARK    2  A    between atoms: N1_14  and  O2_16 
REMARK    3  A    between atoms: O2_16  and  C13_17 
REMARK    4  A    between atoms: C13_17  and  C14_18 
REMARK       I    between atoms: C14_18  and  N2_20 
REMARK    5  A    between atoms: N2_20  and  C15_21 
REMARK    6  A    between atoms: C15_21  and  C16_22 
REMARK    7  A    between atoms: C15_21  and  C18_26 
REMARK    8  A    between atoms: C16_22  and  C17_23 
REMARK    9  A    between atoms: C17_23  and  O5_25 
ROOT
HETATM    1  C1  UNL     1       2.786   8.948  15.331  1.00  0.00     0.015 C 
HETATM    2  C2  UNL     1       2.412   8.737  14.207  1.00  0.00    -0.078 C 
HETATM    3  C3  UNL     1       1.970   8.524  12.817  1.00  0.00     0.128 C 
HETATM    4  C4  UNL     1       0.642   9.208  12.541  1.00  0.00     0.052 C 
HETATM    5  C5  UNL     1       0.188   8.568  11.234  1.00  0.00     0.010 C 
HETATM    6  C6  UNL     1       0.617   7.084  11.303  1.00  0.00     0.002 C 
HETATM    7  C7  UNL     1      -0.608   6.166  11.571  1.00  0.00    -0.004 C 
HETATM    8  C8  UNL     1      -0.329   4.680  11.239  1.00  0.00     0.010 C 
HETATM    9  C9  UNL     1      -1.076   3.684  12.138  1.00  0.00     0.035 C 
HETATM   10  C10 UNL     1      -2.455   4.196  12.450  1.00  0.00    -0.069 C 
HETATM   11  C11 UNL     1      -3.557   3.545  12.032  1.00  0.00     0.030 C 
HETATM   12  C12 UNL     1      -4.917   4.117  12.235  1.00  0.00     0.032 C 
HETATM   13  N1  UNL     1      -5.948   3.331  12.099  1.00  0.00    -0.271 N 
ATOM     14  H1  UNL     1      -5.892   2.343  11.851  1.00  0.00     0.194 HD
HETATM   15  C25 UNL     1      -5.036   5.587  12.607  1.00  0.00     0.060 C 
HETATM   16  C26 UNL     1      -3.701   6.330  12.579  1.00  0.00     0.020 C 
HETATM   17  C27 UNL     1      -2.519   5.525  13.197  1.00  0.00    -0.016 C 
HETATM   18  C28 UNL     1      -2.815   5.286  14.697  1.00  0.00     0.020 C 
HETATM   19  C29 UNL     1      -1.184   6.355  12.994  1.00  0.00     0.002 C 
HETATM   20  C30 UNL     1      -0.088   6.185  14.073  1.00  0.00     0.007 C 
HETATM   21  C31 UNL     1       1.345   6.079  13.556  1.00  0.00     0.014 C 
HETATM   22  C32 UNL     1       1.746   7.027  12.396  1.00  0.00     0.003 C 
HETATM   23  C33 UNL     1       3.045   6.451  11.774  1.00  0.00     0.020 C 
ENDROOT
BRANCH   3  24
HETATM   24  O1  UNL     1       2.929   9.142  11.947  1.00  0.00    -0.377 OA
HETATM   25  H2  UNL     1       3.246   9.945  12.394  1.00  0.00     0.211 HD
ENDBRANCH   3  24
BRANCH  13  26
HETATM   26  O2  UNL     1      -7.147   4.022  12.337  1.00  0.00    -0.271 OA
BRANCH  26  27
HETATM   27  C13 UNL     1      -7.453   3.985  13.729  1.00  0.00     0.303 C 
BRANCH  27  28
HETATM   28  C14 UNL     1      -7.788   5.351  14.322  1.00  0.00     0.244 C 
HETATM   29  O3  UNL     1      -7.627   6.391  13.687  1.00  0.00    -0.271 OA
HETATM   30  N2  UNL     1      -8.267   5.326  15.618  1.00  0.00    -0.354 N 
HETATM   31  H16 UNL     1      -8.390   4.405  16.036  1.00  0.00     0.162 HD
BRANCH  30  32
HETATM   32  C15 UNL     1      -8.751   6.529  16.308  1.00  0.00     0.098 C 
BRANCH  32  33
HETATM   33  C16 UNL     1      -7.577   7.319  16.910  1.00  0.00     0.135 C 
BRANCH  33  34
HETATM   34  C17 UNL     1      -6.713   7.951  15.858  1.00  0.00     0.141 C 
HETATM   35  O4  UNL     1      -6.971   8.965  15.230  1.00  0.00    -0.650 OA
BRANCH  34  36
HETATM   36  O5  UNL     1      -5.544   7.300  15.685  1.00  0.00    -0.776 OA
HETATM   37  H20 UNL     1      -5.132   7.758  14.922  1.00  0.00     0.167 HD
ENDBRANCH  34  36
ENDBRANCH  33  34
ENDBRANCH  32  33
BRANCH  32  38
HETATM   38  C18 UNL     1      -9.622   7.378  15.342  1.00  0.00     0.014 C 
HETATM   39  C19 UNL     1     -10.590   6.488  14.529  1.00  0.00     0.033 C 
HETATM   40  C20 UNL     1     -11.937   7.159  14.276  1.00  0.00     0.169 C 
HETATM   41  O6  UNL     1     -11.742   8.528  13.938  1.00  0.00    -0.381 OA
HETATM   42  C21 UNL     1     -11.221   9.334  15.006  1.00  0.00     0.054 C 
HETATM   43  C22 UNL     1     -10.347  10.410  14.340  1.00  0.00     0.045 C 
HETATM   44  C23 UNL     1     -12.400  10.022  15.706  1.00  0.00     0.045 C 
HETATM   45  C24 UNL     1     -10.399   8.513  16.029  1.00  0.00     0.044 C 
ENDBRANCH  32  38
ENDBRANCH  30  32
ENDBRANCH  27  28
ENDBRANCH  26  27
ENDBRANCH  13  26
TORSDOF 9
ENDMDL
MODEL 3
REMARK minimizedAffinity -10.1363506
REMARK CNNscore 0.385103703
REMARK CNNaffinity 7.23523378
REMARK  9 active torsions:
REMARK  status: ('A' for Active; 'I' for Inactive)
REMARK    1  A    between atoms: C3_3  and  O1_4 
REMARK    2  A    between atoms: N1_14  and  O2_16 
REMARK    3  A    between atoms: O2_16  and  C13_17 
REMARK    4  A    between atoms: C13_17  and  C14_18 
REMARK       I    between atoms: C14_18  and  N2_20 
REMARK    5  A    between atoms: N2_20  and  C15_21 
REMARK    6  A    between atoms: C15_21  and  C16_22 
REMARK    7  A    between atoms: C15_21  and  C18_26 
REMARK    8  A    between atoms: C16_22  and  C17_23 
REMARK    9  A    between atoms: C17_23  and  O5_25 
ROOT
HETATM    1  C1  UNL     1      -9.529   9.534  14.921  1.00  0.00     0.015 C 
HETATM    2  C2  UNL     1      -9.033   8.456  15.122  1.00  0.00    -0.078 C 
HETATM    3  C3  UNL     1      -8.461   7.128  15.402  1.00  0.00     0.128 C 
HETATM    4  C4  UNL     1      -7.608   7.138  16.660  1.00  0.00     0.052 C 
HETATM    5  C5  UNL     1      -6.827   5.834  16.559  1.00  0.00     0.010 C 
HETATM    6  C6  UNL     1      -6.496   5.637  15.061  1.00  0.00     0.002 C 
HETATM    7  C7  UNL     1      -5.000   5.947  14.779  1.00  0.00    -0.004 C 
HETATM    8  C8  UNL     1      -4.514   5.378  13.424  1.00  0.00     0.010 C 
HETATM    9  C9  UNL     1      -3.437   6.228  12.736  1.00  0.00     0.035 C 
HETATM   10  C10 UNL     1      -2.492   6.800  13.757  1.00  0.00    -0.069 C 
HETATM   11  C11 UNL     1      -1.190   6.457  13.778  1.00  0.00     0.030 C 
HETATM   12  C12 UNL     1      -0.284   6.927  14.863  1.00  0.00     0.032 C 
HETATM   13  N1  UNL     1       1.004   6.832  14.682  1.00  0.00    -0.271 N 
ATOM     14  H1  UNL     1       1.442   6.446  13.846  1.00  0.00     0.194 HD
HETATM   15  C25 UNL     1      -0.905   7.511  16.123  1.00  0.00     0.060 C 
HETATM   16  C26 UNL     1      -2.429   7.396  16.158  1.00  0.00     0.020 C 
HETATM   17  C27 UNL     1      -3.116   7.724  14.798  1.00  0.00    -0.016 C 
HETATM   18  C28 UNL     1      -2.832   9.204  14.446  1.00  0.00     0.020 C 
HETATM   19  C29 UNL     1      -4.671   7.449  14.941  1.00  0.00     0.002 C 
HETATM   20  C30 UNL     1      -5.614   8.329  14.085  1.00  0.00     0.007 C 
HETATM   21  C31 UNL     1      -6.788   7.605  13.430  1.00  0.00     0.014 C 
HETATM   22  C32 UNL     1      -7.524   6.541  14.286  1.00  0.00     0.003 C 
HETATM   23  C33 UNL     1      -8.349   5.668  13.305  1.00  0.00     0.020 C 
ENDROOT
BRANCH   3  24
HETATM   24  O1  UNL     1      -9.545   6.223  15.660  1.00  0.00    -0.377 OA
HETATM   25  H2  UNL     1     -10.234   6.727  16.126  1.00  0.00     0.211 HD
ENDBRANCH   3  24
BRANCH  13  26
HETATM   26  O2  UNL     1       1.709   7.330  15.790  1.00  0.00    -0.271 OA
BRANCH  26  27
HETATM   27  C13 UNL     1       3.048   7.635  15.406  1.00  0.00     0.303 C 
BRANCH  27  28
HETATM   28  C14 UNL     1       3.168   8.209  13.998  1.00  0.00     0.244 C 
HETATM   29  O3  UNL     1       2.674   9.293  13.695  1.00  0.00    -0.271 OA
HETATM   30  N2  UNL     1       3.854   7.417  13.097  1.00  0.00    -0.354 N 
HETATM   31  H16 UNL     1       4.249   6.552  13.467  1.00  0.00     0.162 HD
BRANCH  30  32
HETATM   32  C15 UNL     1       4.170   7.857  11.732  1.00  0.00     0.098 C 
BRANCH  32  33
HETATM   33  C16 UNL     1       5.661   7.646  11.425  1.00  0.00     0.135 C 
BRANCH  33  34
HETATM   34  C17 UNL     1       5.953   6.261  10.926  1.00  0.00     0.141 C 
HETATM   35  O4  UNL     1       7.051   5.732  10.873  1.00  0.00    -0.650 OA
BRANCH  34  36
HETATM   36  O5  UNL     1       4.838   5.592  10.566  1.00  0.00    -0.776 OA
HETATM   37  H20 UNL     1       5.179   4.757  10.182  1.00  0.00     0.167 HD
ENDBRANCH  34  36
ENDBRANCH  33  34
ENDBRANCH  32  33
BRANCH  32  38
HETATM   38  C18 UNL     1       3.235   7.144  10.717  1.00  0.00     0.014 C 
HETATM   39  C19 UNL     1       2.247   6.194  11.434  1.00  0.00     0.033 C 
HETATM   40  C20 UNL     1       0.875   6.157  10.766  1.00  0.00     0.169 C 
HETATM   41  O6  UNL     1       1.024   6.126   9.351  1.00  0.00    -0.381 OA
HETATM   42  C21 UNL     1       1.579   7.325   8.787  1.00  0.00     0.054 C 
HETATM   43  C22 UNL     1       2.396   6.880   7.563  1.00  0.00     0.045 C 
HETATM   44  C23 UNL     1       0.421   8.210   8.311  1.00  0.00     0.045 C 
HETATM   45  C24 UNL     1       2.468   8.101   9.789  1.00  0.00     0.044 C 
ENDBRANCH  32  38
ENDBRANCH  30  32
ENDBRANCH  27  28
ENDBRANCH  26  27
ENDBRANCH  13  26
TORSDOF 9
ENDMDL
MODEL 4
REMARK minimizedAffinity -7.54260397
REMARK CNNscore 0.273924649
REMARK CNNaffinity 6.30067968
REMARK  9 active torsions:
REMARK  status: ('A' for Active; 'I' for Inactive)
REMARK    1  A    between atoms: C3_3  and  O1_4 
REMARK    2  A    between atoms: N1_14  and  O2_16 
REMARK    3  A    between atoms: O2_16  and  C13_17 
REMARK    4  A    between atoms: C13_17  and  C14_18 
REMARK       I    between atoms: C14_18  and  N2_20 
REMARK    5  A    between atoms: N2_20  and  C15_21 
REMARK    6  A    between atoms: C15_21  and  C16_22 
REMARK    7  A    between atoms: C15_21  and  C18_26 
REMARK    8  A    between atoms: C16_22  and  C17_23 
REMARK    9  A    between atoms: C17_23  and  O5_25 
ROOT
HETATM    1  C1  UNL     1       3.406   3.907   9.762  1.00  0.00     0.015 C 
HETATM    2  C2  UNL     1       3.272   5.098   9.870  1.00  0.00    -0.078 C 
HETATM    3  C3  UNL     1       3.157   6.562   9.991  1.00  0.00     0.128 C 
HETATM    4  C4  UNL     1       3.691   7.058  11.324  1.00  0.00     0.052 C 
HETATM    5  C5  UNL     1       3.145   8.478  11.408  1.00  0.00     0.010 C 
HETATM    6  C6  UNL     1       1.730   8.440  10.786  1.00  0.00     0.002 C 
HETATM    7  C7  UNL     1       0.638   8.513  11.890  1.00  0.00    -0.004 C 
HETATM    8  C8  UNL     1      -0.754   8.896  11.333  1.00  0.00     0.010 C 
HETATM    9  C9  UNL     1      -1.930   8.260  12.087  1.00  0.00     0.035 C 
HETATM   10  C10 UNL     1      -1.637   8.207  13.562  1.00  0.00    -0.069 C 
HETATM   11  C11 UNL     1      -2.375   8.900  14.449  1.00  0.00     0.030 C 
HETATM   12  C12 UNL     1      -2.009   8.945  15.892  1.00  0.00     0.032 C 
HETATM   13  N1  UNL     1      -2.901   9.360  16.747  1.00  0.00    -0.271 N 
ATOM     14  H1  UNL     1      -3.841   9.668  16.497  1.00  0.00     0.194 HD
HETATM   15  C25 UNL     1      -0.616   8.489  16.299  1.00  0.00     0.060 C 
HETATM   16  C26 UNL     1       0.292   8.174  15.111  1.00  0.00     0.020 C 
HETATM   17  C27 UNL     1      -0.418   7.386  13.969  1.00  0.00    -0.016 C 
HETATM   18  C28 UNL     1      -0.855   6.007  14.518  1.00  0.00     0.020 C 
HETATM   19  C29 UNL     1       0.595   7.234  12.758  1.00  0.00     0.002 C 
HETATM   20  C30 UNL     1       0.450   5.964  11.886  1.00  0.00     0.007 C 
HETATM   21  C31 UNL     1       0.586   6.172  10.379  1.00  0.00     0.014 C 
HETATM   22  C32 UNL     1       1.699   7.140   9.901  1.00  0.00     0.003 C 
HETATM   23  C33 UNL     1       1.367   7.517   8.434  1.00  0.00     0.020 C 
ENDROOT
BRANCH   3  24
HETATM   24  O1  UNL     1       3.986   7.157   8.980  1.00  0.00    -0.377 OA
HETATM   25  H2  UNL     1       4.769   6.589   8.881  1.00  0.00     0.211 HD
ENDBRANCH   3  24
BRANCH  13  26
HETATM   26  O2  UNL     1      -2.400   9.327  18.058  1.00  0.00    -0.271 OA
BRANCH  26  27
HETATM   27  C13 UNL     1      -2.366  10.649  18.591  1.00  0.00     0.303 C 
BRANCH  27  28
HETATM   28  C14 UNL     1      -0.990  11.304  18.525  1.00  0.00     0.244 C 
HETATM   29  O3  UNL     1      -0.252  11.167  17.551  1.00  0.00    -0.271 OA
HETATM   30  N2  UNL     1      -0.636  12.040  19.640  1.00  0.00    -0.354 N 
HETATM   31  H16 UNL     1      -1.339  12.111  20.375  1.00  0.00     0.162 HD
BRANCH  30  32
HETATM   32  C15 UNL     1       0.597  12.834  19.708  1.00  0.00     0.098 C 
BRANCH  32  33
HETATM   33  C16 UNL     1       0.278  14.307  20.015  1.00  0.00     0.135 C 
BRANCH  33  34
HETATM   34  C17 UNL     1      -1.162  14.644  19.765  1.00  0.00     0.141 C 
HETATM   35  O4  UNL     1      -2.009  14.860  20.617  1.00  0.00    -0.650 OA
BRANCH  34  36
HETATM   36  O5  UNL     1      -1.453  14.743  18.451  1.00  0.00    -0.776 OA
HETATM   37  H20 UNL     1      -2.424  14.873  18.435  1.00  0.00     0.167 HD
ENDBRANCH  34  36
ENDBRANCH  33  34
ENDBRANCH  32  33
BRANCH  32  38
HETATM   38  C18 UNL     1       1.580  12.200  20.730  1.00  0.00     0.014 C 
HETATM   39  C19 UNL     1       1.520  10.656  20.683  1.00  0.00     0.033 C 
HETATM   40  C20 UNL     1       2.881  10.006  20.916  1.00  0.00     0.169 C 
HETATM   41  O6  UNL     1       3.569  10.680  21.963  1.00  0.00    -0.381 OA
HETATM   42  C21 UNL     1       3.951  12.029  21.649  1.00  0.00     0.054 C 
HETATM   43  C22 UNL     1       3.886  12.808  22.973  1.00  0.00     0.045 C 
HETATM   44  C23 UNL     1       5.404  12.013  21.158  1.00  0.00     0.045 C 
HETATM   45  C24 UNL     1       3.034  12.677  20.584  1.00  0.00     0.044 C 
ENDBRANCH  32  38
ENDBRANCH  30  32
ENDBRANCH  27  28
ENDBRANCH  26  27
ENDBRANCH  13  26
TORSDOF 9
ENDMDL
MODEL 5
REMARK minimizedAffinity -8.98356915
REMARK CNNscore 0.247209519
REMARK CNNaffinity 6.60977697
REMARK  9 active torsions:
REMARK  status: ('A' for Active; 'I' for Inactive)
REMARK    1  A    between atoms: C3_3  and  O1_4 
REMARK    2  A    between atoms: N1_14  and  O2_16 
REMARK    3  A    between atoms: O2_16  and  C13_17 
REMARK    4  A    between atoms: C13_17  and  C14_18 
REMARK       I    between atoms: C14_18  and  N2_20 
REMARK    5  A    between atoms: N2_20  and  C15_21 
REMARK    6  A    between atoms: C15_21  and  C16_22 
REMARK    7  A    between atoms: C15_21  and  C18_26 
REMARK    8  A    between atoms: C16_22  and  C17_23 
REMARK    9  A    between atoms: C17_23  and  O5_25 
ROOT
HETATM    1  C1  UNL     1       1.587   7.647  15.996  1.00  0.00     0.015 C 
HETATM    2  C2  UNL     1       1.083   7.605  14.904  1.00  0.00    -0.078 C 
HETATM    3  C3  UNL     1       0.497   7.591  13.553  1.00  0.00     0.128 C 
HETATM    4  C4  UNL     1      -0.514   8.711  13.369  1.00  0.00     0.052 C 
HETATM    5  C5  UNL     1      -1.258   8.300  12.104  1.00  0.00     0.010 C 
HETATM    6  C6  UNL     1      -1.386   6.760  12.151  1.00  0.00     0.002 C 
HETATM    7  C7  UNL     1      -2.836   6.336  12.515  1.00  0.00    -0.004 C 
HETATM    8  C8  UNL     1      -3.131   4.855  12.174  1.00  0.00     0.010 C 
HETATM    9  C9  UNL     1      -4.119   4.175  13.132  1.00  0.00     0.035 C 
HETATM   10  C10 UNL     1      -5.198   5.140  13.541  1.00  0.00    -0.069 C 
HETATM   11  C11 UNL     1      -6.487   4.933  13.210  1.00  0.00     0.030 C 
HETATM   12  C12 UNL     1      -7.534   5.950  13.507  1.00  0.00     0.032 C 
HETATM   13  N1  UNL     1      -8.785   5.587  13.452  1.00  0.00    -0.271 N 
ATOM     14  H1  UNL     1      -9.104   4.650  13.208  1.00  0.00     0.194 HD
HETATM   15  C25 UNL     1      -7.092   7.358  13.876  1.00  0.00     0.060 C 
HETATM   16  C26 UNL     1      -5.585   7.576  13.745  1.00  0.00     0.020 C 
HETATM   17  C27 UNL     1      -4.729   6.388  14.281  1.00  0.00    -0.016 C 
HETATM   18  C28 UNL     1      -4.984   6.243  15.800  1.00  0.00     0.020 C 
HETATM   19  C29 UNL     1      -3.203   6.690  13.974  1.00  0.00     0.002 C 
HETATM   20  C30 UNL     1      -2.167   6.118  14.972  1.00  0.00     0.007 C 
HETATM   21  C31 UNL     1      -0.908   5.517  14.352  1.00  0.00     0.014 C 
HETATM   22  C32 UNL     1      -0.277   6.282  13.159  1.00  0.00     0.003 C 
HETATM   23  C33 UNL     1       0.682   5.292  12.448  1.00  0.00     0.020 C 
ENDROOT
BRANCH   3  24
HETATM   24  O1  UNL     1       1.550   7.843  12.609  1.00  0.00    -0.377 OA
HETATM   25  H2  UNL     1       2.164   8.471  13.026  1.00  0.00     0.211 HD
ENDBRANCH   3  24
BRANCH  13  26
HETATM   26  O2  UNL     1      -9.637   6.657  13.772  1.00  0.00    -0.271 OA
BRANCH  26  27
HETATM   27  C13 UNL     1     -10.573   6.856  12.715  1.00  0.00     0.303 C 
BRANCH  27  28
HETATM   28  C14 UNL     1     -11.968   7.249  13.195  1.00  0.00     0.244 C 
HETATM   29  O3  UNL     1     -12.500   6.703  14.159  1.00  0.00    -0.271 OA
HETATM   30  N2  UNL     1     -12.584   8.243  12.458  1.00  0.00    -0.354 N 
HETATM   31  H16 UNL     1     -12.036   8.646  11.699  1.00  0.00     0.162 HD
BRANCH  30  32
HETATM   32  C15 UNL     1     -13.874   8.830  12.840  1.00  0.00     0.098 C 
BRANCH  32  33
HETATM   33  C16 UNL     1     -14.879   7.730  13.223  1.00  0.00     0.135 C 
BRANCH  33  34
HETATM   34  C17 UNL     1     -15.734   7.308  12.064  1.00  0.00     0.141 C 
HETATM   35  O4  UNL     1     -16.464   6.331  12.028  1.00  0.00    -0.650 OA
BRANCH  34  36
HETATM   36  O5  UNL     1     -15.664   8.167  11.026  1.00  0.00    -0.776 OA
HETATM   37  H20 UNL     1     -16.187   7.728  10.323  1.00  0.00     0.167 HD
ENDBRANCH  34  36
ENDBRANCH  33  34
ENDBRANCH  32  33
BRANCH  32  38
HETATM   38  C18 UNL     1     -13.665   9.879  13.967  1.00  0.00     0.014 C 
HETATM   39  C19 UNL     1     -14.172   9.350  15.329  1.00  0.00     0.033 C 
HETATM   40  C20 UNL     1     -13.311   9.816  16.499  1.00  0.00     0.169 C 
HETATM   41  O6  UNL     1     -12.959  11.185  16.330  1.00  0.00    -0.381 OA
HETATM   42  C21 UNL     1     -12.085  11.439  15.219  1.00  0.00     0.054 C 
HETATM   43  C22 UNL     1     -12.460  12.835  14.695  1.00  0.00     0.045 C 
HETATM   44  C23 UNL     1     -10.645  11.481  15.743  1.00  0.00     0.045 C 
HETATM   45  C24 UNL     1     -12.217  10.378  14.100  1.00  0.00     0.044 C 
ENDBRANCH  32  38
ENDBRANCH  30  32
ENDBRANCH  27  28
ENDBRANCH  26  27
ENDBRANCH  13  26
TORSDOF 9
ENDMDL
MODEL 6
REMARK minimizedAffinity -10.2452383
REMARK CNNscore 0.239147946
REMARK CNNaffinity 6.85029554
REMARK  9 active torsions:
REMARK  status: ('A' for Active; 'I' for Inactive)
REMARK    1  A    between atoms: C3_3  and  O1_4 
REMARK    2  A    between atoms: N1_14  and  O2_16 
REMARK    3  A    between atoms: O2_16  and  C13_17 
REMARK    4  A    between atoms: C13_17  and  C14_18 
REMARK       I    between atoms: C14_18  and  N2_20 
REMARK    5  A    between atoms: N2_20  and  C15_21 
REMARK    6  A    between atoms: C15_21  and  C16_22 
REMARK    7  A    between atoms: C15_21  and  C18_26 
REMARK    8  A    between atoms: C16_22  and  C17_23 
REMARK    9  A    between atoms: C17_23  and  O5_25 
ROOT
HETATM    1  C1  UNL     1       2.768   8.779   7.916  1.00  0.00     0.015 C 
HETATM    2  C2  UNL     1       2.856   7.940   8.774  1.00  0.00    -0.078 C 
HETATM    3  C3  UNL     1       2.984   6.882   9.791  1.00  0.00     0.128 C 
HETATM    4  C4  UNL     1       1.886   5.840   9.658  1.00  0.00     0.052 C 
HETATM    5  C5  UNL     1       1.962   5.087  10.981  1.00  0.00     0.010 C 
HETATM    6  C6  UNL     1       2.292   6.139  12.065  1.00  0.00     0.002 C 
HETATM    7  C7  UNL     1       1.038   6.465  12.921  1.00  0.00    -0.004 C 
HETATM    8  C8  UNL     1       1.387   7.171  14.254  1.00  0.00     0.010 C 
HETATM    9  C9  UNL     1       0.324   8.169  14.734  1.00  0.00     0.035 C 
HETATM   10  C10 UNL     1      -1.055   7.649  14.432  1.00  0.00    -0.069 C 
HETATM   11  C11 UNL     1      -1.923   7.351  15.417  1.00  0.00     0.030 C 
HETATM   12  C12 UNL     1      -3.240   6.720  15.123  1.00  0.00     0.032 C 
HETATM   13  N1  UNL     1      -4.156   6.733  16.051  1.00  0.00    -0.271 N 
ATOM     14  H1  UNL     1      -4.033   7.139  16.978  1.00  0.00     0.194 HD
HETATM   15  C25 UNL     1      -3.458   6.108  13.748  1.00  0.00     0.060 C 
HETATM   16  C26 UNL     1      -2.199   6.097  12.881  1.00  0.00     0.020 C 
HETATM   17  C27 UNL     1      -1.371   7.416  12.959  1.00  0.00    -0.016 C 
HETATM   18  C28 UNL     1      -2.234   8.574  12.402  1.00  0.00     0.020 C 
HETATM   19  C29 UNL     1      -0.042   7.225  12.116  1.00  0.00     0.002 C 
HETATM   20  C30 UNL     1       0.542   8.491  11.443  1.00  0.00     0.007 C 
HETATM   21  C31 UNL     1       2.060   8.641  11.514  1.00  0.00     0.014 C 
HETATM   22  C32 UNL     1       2.905   7.360  11.286  1.00  0.00     0.003 C 
HETATM   23  C33 UNL     1       4.329   7.660  11.823  1.00  0.00     0.020 C 
ENDROOT
BRANCH   3  24
HETATM   24  O1  UNL     1       4.222   6.192   9.560  1.00  0.00    -0.377 OA
HETATM   25  H2  UNL     1       4.360   6.165   8.598  1.00  0.00     0.211 HD
ENDBRANCH   3  24
BRANCH  13  26
HETATM   26  O2  UNL     1      -5.335   6.113  15.606  1.00  0.00    -0.271 OA
BRANCH  26  27
HETATM   27  C13 UNL     1      -6.464   6.752  16.198  1.00  0.00     0.303 C 
BRANCH  27  28
HETATM   28  C14 UNL     1      -7.431   7.356  15.184  1.00  0.00     0.244 C 
HETATM   29  O3  UNL     1      -7.337   8.524  14.814  1.00  0.00    -0.271 OA
HETATM   30  N2  UNL     1      -8.419   6.501  14.733  1.00  0.00    -0.354 N 
HETATM   31  H16 UNL     1      -8.381   5.544  15.084  1.00  0.00     0.162 HD
BRANCH  30  32
HETATM   32  C15 UNL     1      -9.364   6.870  13.672  1.00  0.00     0.098 C 
BRANCH  32  33
HETATM   33  C16 UNL     1      -9.294   5.866  12.510  1.00  0.00     0.135 C 
BRANCH  33  34
HETATM   34  C17 UNL     1      -8.252   4.807  12.730  1.00  0.00     0.141 C 
HETATM   35  O4  UNL     1      -7.054   4.926  12.529  1.00  0.00    -0.650 OA
BRANCH  34  36
HETATM   36  O5  UNL     1      -8.767   3.669  13.239  1.00  0.00    -0.776 OA
HETATM   37  H20 UNL     1      -8.007   3.050  13.244  1.00  0.00     0.167 HD
ENDBRANCH  34  36
ENDBRANCH  33  34
ENDBRANCH  32  33
BRANCH  32  38
HETATM   38  C18 UNL     1     -10.793   7.015  14.263  1.00  0.00     0.014 C 
HETATM   39  C19 UNL     1     -10.912   8.283  15.141  1.00  0.00     0.033 C 
HETATM   40  C20 UNL     1     -12.281   8.949  15.031  1.00  0.00     0.169 C 
HETATM   41  O6  UNL     1     -13.304   7.960  15.030  1.00  0.00    -0.381 OA
HETATM   42  C21 UNL     1     -13.310   7.113  13.870  1.00  0.00     0.054 C 
HETATM   43  C22 UNL     1     -13.808   5.740  14.349  1.00  0.00     0.045 C 
HETATM   44  C23 UNL     1     -14.321   7.681  12.867  1.00  0.00     0.045 C 
HETATM   45  C24 UNL     1     -11.914   6.993  13.211  1.00  0.00     0.044 C 
ENDBRANCH  32  38
ENDBRANCH  30  32
ENDBRANCH  27  28
ENDBRANCH  26  27
ENDBRANCH  13  26
TORSDOF 9
ENDMDL
MODEL 7
REMARK minimizedAffinity -8.05517578
REMARK CNNscore 0.232590258
REMARK CNNaffinity 6.83039999
REMARK  9 active torsions:
REMARK  status: ('A' for Active; 'I' for Inactive)
REMARK    1  A    between atoms: C3_3  and  O1_4 
REMARK    2  A    between atoms: N1_14  and  O2_16 
REMARK    3  A    between atoms: O2_16  and  C13_17 
REMARK    4  A    between atoms: C13_17  and  C14_18 
REMARK       I    between atoms: C14_18  and  N2_20 
REMARK    5  A    between atoms: N2_20  and  C15_21 
REMARK    6  A    between atoms: C15_21  and  C16_22 
REMARK    7  A    between atoms: C15_21  and  C18_26 
REMARK    8  A    between atoms: C16_22  and  C17_23 
REMARK    9  A    between atoms: C17_23  and  O5_25 
ROOT
HETATM    1  C1  UNL     1      -8.818   5.924  11.228  1.00  0.00     0.015 C 
HETATM    2  C2  UNL     1      -8.557   6.035  12.398  1.00  0.00    -0.078 C 
HETATM    3  C3  UNL     1      -8.286   6.186  13.838  1.00  0.00     0.128 C 
HETATM    4  C4  UNL     1      -8.043   7.639  14.213  1.00  0.00     0.052 C 
HETATM    5  C5  UNL     1      -7.420   7.538  15.600  1.00  0.00     0.010 C 
HETATM    6  C6  UNL     1      -6.512   6.287  15.582  1.00  0.00     0.002 C 
HETATM    7  C7  UNL     1      -5.013   6.691  15.510  1.00  0.00    -0.004 C 
HETATM    8  C8  UNL     1      -4.060   5.537  15.905  1.00  0.00     0.010 C 
HETATM    9  C9  UNL     1      -2.718   5.548  15.161  1.00  0.00     0.035 C 
HETATM   10  C10 UNL     1      -2.238   6.961  14.968  1.00  0.00    -0.069 C 
HETATM   11  C11 UNL     1      -1.105   7.402  15.545  1.00  0.00     0.030 C 
HETATM   12  C12 UNL     1      -0.698   8.833  15.456  1.00  0.00     0.032 C 
HETATM   13  N1  UNL     1       0.531   9.148  15.755  1.00  0.00    -0.271 N 
ATOM     14  H1  UNL     1       1.241   8.482  16.059  1.00  0.00     0.194 HD
HETATM   15  C25 UNL     1      -1.732   9.853  15.004  1.00  0.00     0.060 C 
HETATM   16  C26 UNL     1      -3.133   9.265  14.838  1.00  0.00     0.020 C 
HETATM   17  C27 UNL     1      -3.151   7.867  14.148  1.00  0.00    -0.016 C 
HETATM   18  C28 UNL     1      -2.605   8.021  12.708  1.00  0.00     0.020 C 
HETATM   19  C29 UNL     1      -4.641   7.325  14.149  1.00  0.00     0.002 C 
HETATM   20  C30 UNL     1      -5.048   6.410  12.969  1.00  0.00     0.007 C 
HETATM   21  C31 UNL     1      -5.902   5.197  13.333  1.00  0.00     0.014 C 
HETATM   22  C32 UNL     1      -7.027   5.416  14.378  1.00  0.00     0.003 C 
HETATM   23  C33 UNL     1      -7.444   4.013  14.890  1.00  0.00     0.020 C 
ENDROOT
BRANCH   3  24
HETATM   24  O1  UNL     1      -9.459   5.777  14.556  1.00  0.00    -0.377 OA
HETATM   25  H2  UNL     1     -10.228   6.046  14.026  1.00  0.00     0.211 HD
ENDBRANCH   3  24
BRANCH  13  26
HETATM   26  O2  UNL     1       0.750  10.528  15.605  1.00  0.00    -0.271 OA
BRANCH  26  27
HETATM   27  C13 UNL     1       1.070  11.101  16.871  1.00  0.00     0.303 C 
BRANCH  27  28
HETATM   28  C14 UNL     1       2.410  10.637  17.435  1.00  0.00     0.244 C 
HETATM   29  O3  UNL     1       2.924   9.575  17.094  1.00  0.00    -0.271 OA
HETATM   30  N2  UNL     1       2.983  11.488  18.361  1.00  0.00    -0.354 N 
HETATM   31  H16 UNL     1       2.483  12.358  18.544  1.00  0.00     0.162 HD
BRANCH  30  32
HETATM   32  C15 UNL     1       4.322  11.265  18.921  1.00  0.00     0.098 C 
BRANCH  32  33
HETATM   33  C16 UNL     1       5.388  12.000  18.091  1.00  0.00     0.135 C 
BRANCH  33  34
HETATM   34  C17 UNL     1       6.280  11.055  17.340  1.00  0.00     0.141 C 
HETATM   35  O4  UNL     1       6.320  10.914  16.129  1.00  0.00    -0.650 OA
BRANCH  34  36
HETATM   36  O5  UNL     1       7.112  10.370  18.152  1.00  0.00    -0.776 OA
HETATM   37  H20 UNL     1       7.560   9.740  17.550  1.00  0.00     0.167 HD
ENDBRANCH  34  36
ENDBRANCH  33  34
ENDBRANCH  32  33
BRANCH  32  38
HETATM   38  C18 UNL     1       4.341  11.665  20.422  1.00  0.00     0.014 C 
HETATM   39  C19 UNL     1       3.710  10.563  21.305  1.00  0.00     0.033 C 
HETATM   40  C20 UNL     1       4.402  10.423  22.658  1.00  0.00     0.169 C 
HETATM   41  O6  UNL     1       4.693  11.711  23.190  1.00  0.00    -0.381 OA
HETATM   42  C21 UNL     1       5.675  12.451  22.447  1.00  0.00     0.054 C 
HETATM   43  C22 UNL     1       5.285  13.932  22.588  1.00  0.00     0.045 C 
HETATM   44  C23 UNL     1       7.040  12.236  23.111  1.00  0.00     0.045 C 
HETATM   45  C24 UNL     1       5.734  12.037  20.957  1.00  0.00     0.044 C 
ENDBRANCH  32  38
ENDBRANCH  30  32
ENDBRANCH  27  28
ENDBRANCH  26  27
ENDBRANCH  13  26
TORSDOF 9
ENDMDL
MODEL 8
REMARK minimizedAffinity -8.36100674
REMARK CNNscore 0.215602979
REMARK CNNaffinity 5.61594343
REMARK  9 active torsions:
REMARK  status: ('A' for Active; 'I' for Inactive)
REMARK    1  A    between atoms: C3_3  and  O1_4 
REMARK    2  A    between atoms: N1_14  and  O2_16 
REMARK    3  A    between atoms: O2_16  and  C13_17 
REMARK    4  A    between atoms: C13_17  and  C14_18 
REMARK       I    between atoms: C14_18  and  N2_20 
REMARK    5  A    between atoms: N2_20  and  C15_21 
REMARK    6  A    between atoms: C15_21  and  C16_22 
REMARK    7  A    between atoms: C15_21  and  C18_26 
REMARK    8  A    between atoms: C16_22  and  C17_23 
REMARK    9  A    between atoms: C17_23  and  O5_25 
ROOT
HETATM    1  C1  UNL     1       8.332  16.015  23.987  1.00  0.00     0.015 C 
HETATM    2  C2  UNL     1       8.313  15.173  23.127  1.00  0.00    -0.078 C 
HETATM    3  C3  UNL     1       8.328  14.165  22.053  1.00  0.00     0.128 C 
HETATM    4  C4  UNL     1       7.651  14.678  20.793  1.00  0.00     0.052 C 
HETATM    5  C5  UNL     1       7.431  13.410  19.977  1.00  0.00     0.010 C 
HETATM    6  C6  UNL     1       7.075  12.296  20.988  1.00  0.00     0.002 C 
HETATM    7  C7  UNL     1       5.558  11.966  20.936  1.00  0.00    -0.004 C 
HETATM    8  C8  UNL     1       5.215  10.608  21.596  1.00  0.00     0.010 C 
HETATM    9  C9  UNL     1       3.837  10.567  22.272  1.00  0.00     0.035 C 
HETATM   10  C10 UNL     1       2.836  11.348  21.464  1.00  0.00    -0.069 C 
HETATM   11  C11 UNL     1       1.777  10.747  20.889  1.00  0.00     0.030 C 
HETATM   12  C12 UNL     1       0.858  11.496  19.989  1.00  0.00     0.032 C 
HETATM   13  N1  UNL     1      -0.303  10.971  19.709  1.00  0.00    -0.271 N 
ATOM     14  H1  UNL     1      -0.627  10.069  20.057  1.00  0.00     0.194 HD
HETATM   15  C25 UNL     1       1.310  12.847  19.453  1.00  0.00     0.060 C 
HETATM   16  C26 UNL     1       2.755  13.189  19.812  1.00  0.00     0.020 C 
HETATM   17  C27 UNL     1       3.141  12.831  21.280  1.00  0.00    -0.016 C 
HETATM   18  C28 UNL     1       2.275  13.682  22.239  1.00  0.00     0.020 C 
HETATM   19  C29 UNL     1       4.686  13.123  21.479  1.00  0.00     0.002 C 
HETATM   20  C30 UNL     1       5.136  13.550  22.897  1.00  0.00     0.007 C 
HETATM   21  C31 UNL     1       6.437  12.929  23.398  1.00  0.00     0.014 C 
HETATM   22  C32 UNL     1       7.600  12.812  22.378  1.00  0.00     0.003 C 
HETATM   23  C33 UNL     1       8.611  11.792  22.964  1.00  0.00     0.020 C 
ENDROOT
BRANCH   3  24
HETATM   24  O1  UNL     1       9.697  13.915  21.699  1.00  0.00    -0.377 OA
HETATM   25  H2  UNL     1      10.173  14.758  21.782  1.00  0.00     0.211 HD
ENDBRANCH   3  24
BRANCH  13  26
HETATM   26  O2  UNL     1      -1.047  11.810  18.863  1.00  0.00    -0.271 OA
BRANCH  26  27
HETATM   27  C13 UNL     1      -2.288  11.185  18.541  1.00  0.00     0.303 C 
BRANCH  27  28
HETATM   28  C14 UNL     1      -2.333  10.597  17.134  1.00  0.00     0.244 C 
HETATM   29  O3  UNL     1      -2.320  11.310  16.133  1.00  0.00    -0.271 OA
HETATM   30  N2  UNL     1      -2.406   9.218  17.076  1.00  0.00    -0.354 N 
HETATM   31  H16 UNL     1      -2.378   8.728  17.969  1.00  0.00     0.162 HD
BRANCH  30  32
HETATM   32  C15 UNL     1      -2.340   8.473  15.812  1.00  0.00     0.098 C 
BRANCH  32  33
HETATM   33  C16 UNL     1      -1.423   7.247  15.953  1.00  0.00     0.135 C 
BRANCH  33  34
HETATM   34  C17 UNL     1       0.031   7.620  15.979  1.00  0.00     0.141 C 
HETATM   35  O4  UNL     1       0.509   8.610  16.508  1.00  0.00    -0.650 OA
BRANCH  34  36
HETATM   36  O5  UNL     1       0.815   6.700  15.380  1.00  0.00    -0.776 OA
HETATM   37  H20 UNL     1       1.706   7.109  15.391  1.00  0.00     0.167 HD
ENDBRANCH  34  36
ENDBRANCH  33  34
ENDBRANCH  32  33
BRANCH  32  38
HETATM   38  C18 UNL     1      -3.773   8.107  15.339  1.00  0.00     0.014 C 
HETATM   39  C19 UNL     1      -4.223   9.005  14.162  1.00  0.00     0.033 C 
HETATM   40  C20 UNL     1      -5.083   8.259  13.146  1.00  0.00     0.169 C 
HETATM   41  O6  UNL     1      -6.011   7.416  13.821  1.00  0.00    -0.381 OA
HETATM   42  C21 UNL     1      -5.410   6.325  14.536  1.00  0.00     0.054 C 
HETATM   43  C22 UNL     1      -6.306   6.075  15.760  1.00  0.00     0.045 C 
HETATM   44  C23 UNL     1      -5.448   5.084  13.637  1.00  0.00     0.045 C 
HETATM   45  C24 UNL     1      -3.955   6.625  14.972  1.00  0.00     0.044 C 
ENDBRANCH  32  38
ENDBRANCH  30  32
ENDBRANCH  27  28
ENDBRANCH  26  27
ENDBRANCH  13  26
TORSDOF 9
ENDMDL
MODEL 9
REMARK minimizedAffinity -8.95772648
REMARK CNNscore 0.181533024
REMARK CNNaffinity 6.84671926
REMARK  9 active torsions:
REMARK  status: ('A' for Active; 'I' for Inactive)
REMARK    1  A    between atoms: C3_3  and  O1_4 
REMARK    2  A    between atoms: N1_14  and  O2_16 
REMARK    3  A    between atoms: O2_16  and  C13_17 
REMARK    4  A    between atoms: C13_17  and  C14_18 
REMARK       I    between atoms: C14_18  and  N2_20 
REMARK    5  A    between atoms: N2_20  and  C15_21 
REMARK    6  A    between atoms: C15_21  and  C16_22 
REMARK    7  A    between atoms: C15_21  and  C18_26 
REMARK    8  A    between atoms: C16_22  and  C17_23 
REMARK    9  A    between atoms: C17_23  and  O5_25 
ROOT
HETATM    1  C1  UNL     1      -9.670   7.556  14.268  1.00  0.00     0.015 C 
HETATM    2  C2  UNL     1      -8.741   6.833  14.519  1.00  0.00    -0.078 C 
HETATM    3  C3  UNL     1      -7.636   5.919  14.853  1.00  0.00     0.128 C 
HETATM    4  C4  UNL     1      -7.105   6.169  16.255  1.00  0.00     0.052 C 
HETATM    5  C5  UNL     1      -5.774   5.427  16.259  1.00  0.00     0.010 C 
HETATM    6  C6  UNL     1      -5.165   5.615  14.850  1.00  0.00     0.002 C 
HETATM    7  C7  UNL     1      -3.997   6.640  14.884  1.00  0.00    -0.004 C 
HETATM    8  C8  UNL     1      -3.092   6.562  13.631  1.00  0.00     0.010 C 
HETATM    9  C9  UNL     1      -2.489   7.907  13.206  1.00  0.00     0.035 C 
HETATM   10  C10 UNL     1      -2.122   8.721  14.417  1.00  0.00    -0.069 C 
HETATM   11  C11 UNL     1      -0.843   9.045  14.682  1.00  0.00     0.030 C 
HETATM   12  C12 UNL     1      -0.468   9.743  15.944  1.00  0.00     0.032 C 
HETATM   13  N1  UNL     1       0.707  10.303  16.019  1.00  0.00    -0.271 N 
ATOM     14  H1  UNL     1       1.401  10.290  15.272  1.00  0.00     0.194 HD
HETATM   15  C25 UNL     1      -1.481   9.783  17.078  1.00  0.00     0.060 C 
HETATM   16  C26 UNL     1      -2.731   8.946  16.804  1.00  0.00     0.020 C 
HETATM   17  C27 UNL     1      -3.273   9.082  15.349  1.00  0.00    -0.016 C 
HETATM   18  C28 UNL     1      -3.712  10.549  15.121  1.00  0.00     0.020 C 
HETATM   19  C29 UNL     1      -4.487   8.079  15.169  1.00  0.00     0.002 C 
HETATM   20  C30 UNL     1      -5.599   8.503  14.179  1.00  0.00     0.007 C 
HETATM   21  C31 UNL     1      -6.142   7.399  13.275  1.00  0.00     0.014 C 
HETATM   22  C32 UNL     1      -6.373   6.009  13.923  1.00  0.00     0.003 C 
HETATM   23  C33 UNL     1      -6.494   4.987  12.763  1.00  0.00     0.020 C 
ENDROOT
BRANCH   3  24
HETATM   24  O1  UNL     1      -8.152   4.579  14.853  1.00  0.00    -0.377 OA
HETATM   25  H2  UNL     1      -9.062   4.623  15.194  1.00  0.00     0.211 HD
ENDBRANCH   3  24
BRANCH  13  26
HETATM   26  O2  UNL     1       0.893  10.925  17.264  1.00  0.00    -0.271 OA
BRANCH  26  27
HETATM   27  C13 UNL     1       2.015  10.345  17.926  1.00  0.00     0.303 C 
BRANCH  27  28
HETATM   28  C14 UNL     1       2.072  10.649  19.421  1.00  0.00     0.244 C 
HETATM   29  O3  UNL     1       1.055  10.860  20.078  1.00  0.00    -0.271 OA
HETATM   30  N2  UNL     1       3.341  10.681  19.966  1.00  0.00    -0.354 N 
HETATM   31  H16 UNL     1       4.109  10.459  19.333  1.00  0.00     0.162 HD
BRANCH  30  32
HETATM   32  C15 UNL     1       3.583  10.841  21.405  1.00  0.00     0.098 C 
BRANCH  32  33
HETATM   33  C16 UNL     1       3.915   9.487  22.053  1.00  0.00     0.135 C 
BRANCH  33  34
HETATM   34  C17 UNL     1       2.713   8.842  22.680  1.00  0.00     0.141 C 
HETATM   35  O4  UNL     1       1.894   8.142  22.108  1.00  0.00    -0.650 OA
BRANCH  34  36
HETATM   36  O5  UNL     1       2.633   9.072  24.007  1.00  0.00    -0.776 OA
HETATM   37  H20 UNL     1       1.771   8.679  24.260  1.00  0.00     0.167 HD
ENDBRANCH  34  36
ENDBRANCH  33  34
ENDBRANCH  32  33
BRANCH  32  38
HETATM   38  C18 UNL     1       4.682  11.913  21.641  1.00  0.00     0.014 C 
HETATM   39  C19 UNL     1       5.275  11.806  23.065  1.00  0.00     0.033 C 
HETATM   40  C20 UNL     1       6.768  12.120  23.108  1.00  0.00     0.169 C 
HETATM   41  O6  UNL     1       7.053  13.240  22.278  1.00  0.00    -0.381 OA
HETATM   42  C21 UNL     1       6.855  13.005  20.875  1.00  0.00     0.054 C 
HETATM   43  C22 UNL     1       6.398  14.347  20.280  1.00  0.00     0.045 C 
HETATM   44  C23 UNL     1       8.206  12.627  20.257  1.00  0.00     0.045 C 
HETATM   45  C24 UNL     1       5.811  11.896  20.597  1.00  0.00     0.044 C 
ENDBRANCH  32  38
ENDBRANCH  30  32
ENDBRANCH  27  28
ENDBRANCH  26  27
ENDBRANCH  13  26
TORSDOF 9
ENDMDL
