MODEL 1
REMARK minimizedAffinity -10.425663
REMARK CNNscore 0.640763998
REMARK CNNaffinity 7.9504509
REMARK  14 active torsions:
REMARK  status: ('A' for Active; 'I' for Inactive)
REMARK    1  A    between atoms: C12_13  and  O2_14 
REMARK    2  A    between atoms: C19_21  and  O3_22 
REMARK    3  A    between atoms: C19_21  and  C20_23 
REMARK    4  A    between atoms: C20_23  and  C21_25 
REMARK    5  A    between atoms: C21_25  and  O5_26 
REMARK    6  A    between atoms: O5_26  and  C22_27 
REMARK    7  A    between atoms: C22_27  and  C23_29 
REMARK    8  A    between atoms: C23_29  and  C24_30 
REMARK    9  A    between atoms: C24_30  and  C25_31 
REMARK       I    between atoms: C25_31  and  N1_33 
REMARK   10  A    between atoms: N1_33  and  C26_34 
REMARK   11  A    between atoms: C26_34  and  C27_35 
REMARK   12  A    between atoms: C26_34  and  C36_45 
REMARK   13  A    between atoms: C27_35  and  C28_36 
REMARK   14  A    between atoms: C36_45  and  O9_47 
ROOT
HETATM    1  C20 UNL     1      -0.154   6.404  14.017  1.00  0.00     0.185 C 
HETATM    2  O4  UNL     1       0.676   5.487  14.029  1.00  0.00    -0.292 OA
ENDROOT
BRANCH   1   3
HETATM    3  C19 UNL     1      -1.445   6.346  13.145  1.00  0.00     0.128 C 
HETATM    4  C14 UNL     1      -2.776   6.120  13.949  1.00  0.00     0.001 C 
HETATM    5  C13 UNL     1      -3.479   7.377  14.514  1.00  0.00     0.045 C 
HETATM    6  C15 UNL     1      -2.525   5.083  15.078  1.00  0.00     0.019 C 
HETATM    7  C16 UNL     1      -3.689   5.580  12.822  1.00  0.00     0.002 C 
HETATM    8  C12 UNL     1      -4.926   7.119  14.989  1.00  0.00     0.124 C 
HETATM    9  C11 UNL     1      -5.807   6.395  13.929  1.00  0.00     0.031 C 
HETATM   10  C2  UNL     1      -7.290   6.075  14.381  1.00  0.00    -0.014 C 
HETATM   11  C10 UNL     1      -5.089   5.161  13.297  1.00  0.00    -0.002 C 
HETATM   12  C1  UNL     1      -7.380   5.118  15.591  1.00  0.00     0.020 C 
HETATM   13  C3  UNL     1      -7.987   7.420  14.745  1.00  0.00     0.022 C 
HETATM   14  C7  UNL     1      -8.037   5.402  13.219  1.00  0.00    -0.068 C 
HETATM   15  C4  UNL     1      -9.502   7.324  14.827  1.00  0.00     0.084 C 
HETATM   16  C5  UNL     1     -10.060   6.780  13.539  1.00  0.00     0.149 C 
HETATM   17  O1  UNL     1     -11.167   7.101  13.114  1.00  0.00    -0.293 OA
HETATM   18  C6  UNL     1      -9.271   5.757  12.816  1.00  0.00     0.053 C 
HETATM   19  C8  UNL     1      -7.331   4.248  12.547  1.00  0.00     0.035 C 
HETATM   20  C9  UNL     1      -5.917   4.615  12.122  1.00  0.00     0.010 C 
HETATM   21  C17 UNL     1      -2.828   4.531  12.131  1.00  0.00     0.009 C 
HETATM   22  C18 UNL     1      -1.402   5.105  12.195  1.00  0.00     0.047 C 
BRANCH   8  23
HETATM   23  O2  UNL     1      -4.894   6.404  16.214  1.00  0.00    -0.395 OA
HETATM   24  H16 UNL     1      -4.456   6.963  16.879  1.00  0.00     0.210 HD
ENDBRANCH   8  23
BRANCH   3  25
HETATM   25  O3  UNL     1      -1.547   7.471  12.272  1.00  0.00    -0.381 OA
HETATM   26  H27 UNL     1      -1.717   8.280  12.794  1.00  0.00     0.211 HD
ENDBRANCH   3  25
ENDBRANCH   1   3
BRANCH   1  27
HETATM   27  C21 UNL     1       0.066   7.615  14.913  1.00  0.00     0.260 C 
BRANCH  27  28
HETATM   28  O5  UNL     1       0.927   7.341  16.015  1.00  0.00    -0.314 OA
BRANCH  28  29
HETATM   29  C22 UNL     1       2.047   8.096  16.097  1.00  0.00     0.259 C 
HETATM   30  O6  UNL     1       2.286   8.856  17.031  1.00  0.00    -0.265 OA
BRANCH  29  31
HETATM   31  C23 UNL     1       2.974   7.929  14.916  1.00  0.00     0.120 C 
BRANCH  31  32
HETATM   32  C24 UNL     1       4.451   8.144  15.226  1.00  0.00     0.112 C 
BRANCH  32  33
HETATM   33  C25 UNL     1       5.347   7.597  14.133  1.00  0.00     0.218 C 
HETATM   34  O7  UNL     1       6.536   7.349  14.291  1.00  0.00    -0.274 OA
HETATM   35  N1  UNL     1       4.691   7.417  12.940  1.00  0.00    -0.346 N 
HETATM   36  H34 UNL     1       3.685   7.546  12.885  1.00  0.00     0.163 HD
BRANCH  35  37
HETATM   37  C26 UNL     1       5.359   6.841  11.766  1.00  0.00     0.186 C 
BRANCH  37  38
HETATM   38  C27 UNL     1       4.355   6.117  10.860  1.00  0.00     0.077 C 
BRANCH  38  39
HETATM   39  C28 UNL     1       3.089   6.885  10.643  1.00  0.00    -0.028 A 
HETATM   40  C29 UNL     1       2.323   7.502  11.613  1.00  0.00     0.096 A 
HETATM   41  N2  UNL     1       1.247   8.089  11.001  1.00  0.00    -0.365 N 
HETATM   42  C30 UNL     1       1.293   7.869   9.644  1.00  0.00     0.042 A 
HETATM   43  H39 UNL     1       0.521   8.610  11.471  1.00  0.00     0.165 HD
HETATM   44  C31 UNL     1       0.414   8.279   8.633  1.00  0.00     0.030 A 
HETATM   45  C35 UNL     1       2.436   7.112   9.388  1.00  0.00    -0.002 A 
HETATM   46  C32 UNL     1       0.716   7.902   7.321  1.00  0.00     0.002 A 
HETATM   47  C33 UNL     1       1.849   7.145   7.034  1.00  0.00     0.001 A 
HETATM   48  C34 UNL     1       2.717   6.744   8.057  1.00  0.00     0.014 A 
ENDBRANCH  38  39
ENDBRANCH  37  38
BRANCH  37  49
HETATM   49  C36 UNL     1       5.997   8.004  11.017  1.00  0.00     0.163 C 
HETATM   50  O8  UNL     1       5.629   9.170  11.070  1.00  0.00    -0.648 OA
BRANCH  49  51
HETATM   51  O9  UNL     1       7.060   7.657  10.268  1.00  0.00    -0.775 OA
HETATM   52  H44 UNL     1       7.355   8.490   9.850  1.00  0.00     0.167 HD
ENDBRANCH  49  51
ENDBRANCH  37  49
ENDBRANCH  35  37
ENDBRANCH  32  33
ENDBRANCH  31  32
ENDBRANCH  29  31
ENDBRANCH  28  29
ENDBRANCH  27  28
ENDBRANCH   1  27
TORSDOF 14
ENDMDL
MODEL 2
REMARK minimizedAffinity -8.90091324
REMARK CNNscore 0.53855741
REMARK CNNaffinity 7.00528145
REMARK  14 active torsions:
REMARK  status: ('A' for Active; 'I' for Inactive)
REMARK    1  A    between atoms: C12_13  and  O2_14 
REMARK    2  A    between atoms: C19_21  and  O3_22 
REMARK    3  A    between atoms: C19_21  and  C20_23 
REMARK    4  A    between atoms: C20_23  and  C21_25 
REMARK    5  A    between atoms: C21_25  and  O5_26 
REMARK    6  A    between atoms: O5_26  and  C22_27 
REMARK    7  A    between atoms: C22_27  and  C23_29 
REMARK    8  A    between atoms: C23_29  and  C24_30 
REMARK    9  A    between atoms: C24_30  and  C25_31 
REMARK       I    between atoms: C25_31  and  N1_33 
REMARK   10  A    between atoms: N1_33  and  C26_34 
REMARK   11  A    between atoms: C26_34  and  C27_35 
REMARK   12  A    between atoms: C26_34  and  C36_45 
REMARK   13  A    between atoms: C27_35  and  C28_36 
REMARK   14  A    between atoms: C36_45  and  O9_47 
ROOT
HETATM    1  C20 UNL     1      -7.078   6.173  15.517  1.00  0.00     0.185 C 
HETATM    2  O4  UNL     1      -7.169   4.971  15.796  1.00  0.00    -0.292 OA
ENDROOT
BRANCH   1   3
HETATM    3  C19 UNL     1      -6.267   6.682  14.287  1.00  0.00     0.128 C 
HETATM    4  C14 UNL     1      -4.719   6.425  14.364  1.00  0.00     0.001 C 
HETATM    5  C13 UNL     1      -4.206   5.056  13.856  1.00  0.00     0.045 C 
HETATM    6  C15 UNL     1      -4.225   6.688  15.813  1.00  0.00     0.019 C 
HETATM    7  C16 UNL     1      -4.215   7.481  13.350  1.00  0.00     0.002 C 
HETATM    8  C12 UNL     1      -2.677   5.002  13.649  1.00  0.00     0.124 C 
HETATM    9  C11 UNL     1      -2.126   6.177  12.787  1.00  0.00     0.031 C 
HETATM   10  C2  UNL     1      -0.558   6.188  12.575  1.00  0.00    -0.014 C 
HETATM   11  C10 UNL     1      -2.684   7.563  13.241  1.00  0.00    -0.002 C 
HETATM   12  C1  UNL     1       0.248   6.337  13.886  1.00  0.00     0.020 C 
HETATM   13  C3  UNL     1      -0.153   4.854  11.880  1.00  0.00     0.022 C 
HETATM   14  C7  UNL     1      -0.179   7.377  11.677  1.00  0.00    -0.068 C 
HETATM   15  C4  UNL     1       1.240   4.877  11.272  1.00  0.00     0.084 C 
HETATM   16  C5  UNL     1       1.369   6.026  10.308  1.00  0.00     0.149 C 
HETATM   17  O1  UNL     1       2.094   5.976   9.318  1.00  0.00    -0.293 OA
HETATM   18  C6  UNL     1       0.658   7.284  10.627  1.00  0.00     0.053 C 
HETATM   19  C8  UNL     1      -0.763   8.716  12.057  1.00  0.00     0.035 C 
HETATM   20  C9  UNL     1      -2.273   8.651  12.235  1.00  0.00     0.010 C 
HETATM   21  C17 UNL     1      -4.970   8.744  13.739  1.00  0.00     0.009 C 
HETATM   22  C18 UNL     1      -6.353   8.239  14.188  1.00  0.00     0.047 C 
BRANCH   8  23
HETATM   23  O2  UNL     1      -2.037   4.941  14.913  1.00  0.00    -0.395 OA
HETATM   24  H16 UNL     1      -2.308   4.115  15.350  1.00  0.00     0.210 HD
ENDBRANCH   8  23
BRANCH   3  25
HETATM   25  O3  UNL     1      -6.815   6.207  13.056  1.00  0.00    -0.381 OA
HETATM   26  H27 UNL     1      -6.672   5.243  12.981  1.00  0.00     0.211 HD
ENDBRANCH   3  25
ENDBRANCH   1   3
BRANCH   1  27
HETATM   27  C21 UNL     1      -7.814   7.190  16.376  1.00  0.00     0.260 C 
BRANCH  27  28
HETATM   28  O5  UNL     1      -9.209   7.251  16.094  1.00  0.00    -0.314 OA
BRANCH  28  29
HETATM   29  C22 UNL     1      -9.692   8.466  15.745  1.00  0.00     0.259 C 
HETATM   30  O6  UNL     1      -8.991   9.467  15.624  1.00  0.00    -0.265 OA
BRANCH  29  31
HETATM   31  C23 UNL     1     -11.189   8.481  15.534  1.00  0.00     0.120 C 
BRANCH  31  32
HETATM   32  C24 UNL     1     -11.705   7.450  14.537  1.00  0.00     0.112 C 
BRANCH  32  33
HETATM   33  C25 UNL     1     -13.219   7.386  14.518  1.00  0.00     0.218 C 
HETATM   34  O7  UNL     1     -13.936   8.059  15.248  1.00  0.00    -0.274 OA
HETATM   35  N1  UNL     1     -13.707   6.489  13.601  1.00  0.00    -0.346 N 
HETATM   36  H34 UNL     1     -13.077   6.026  12.952  1.00  0.00     0.163 HD
BRANCH  35  37
HETATM   37  C26 UNL     1     -15.148   6.314  13.376  1.00  0.00     0.186 C 
BRANCH  37  38
HETATM   38  C27 UNL     1     -15.940   6.549  14.668  1.00  0.00     0.077 C 
BRANCH  38  39
HETATM   39  C28 UNL     1     -16.719   5.352  15.114  1.00  0.00    -0.028 A 
HETATM   40  C29 UNL     1     -18.010   5.344  15.604  1.00  0.00     0.096 A 
HETATM   41  N2  UNL     1     -18.350   4.050  15.899  1.00  0.00    -0.365 N 
HETATM   42  C30 UNL     1     -17.304   3.206  15.610  1.00  0.00     0.042 A 
HETATM   43  H39 UNL     1     -19.237   3.751  16.276  1.00  0.00     0.165 HD
HETATM   44  C31 UNL     1     -17.201   1.816  15.748  1.00  0.00     0.030 A 
HETATM   45  C35 UNL     1     -16.263   3.994  15.119  1.00  0.00    -0.002 A 
HETATM   46  C32 UNL     1     -15.996   1.215  15.371  1.00  0.00     0.002 A 
HETATM   47  C33 UNL     1     -14.938   1.975  14.878  1.00  0.00     0.001 A 
HETATM   48  C34 UNL     1     -15.058   3.363  14.747  1.00  0.00     0.014 A 
ENDBRANCH  38  39
ENDBRANCH  37  38
BRANCH  37  49
HETATM   49  C36 UNL     1     -15.549   7.339  12.322  1.00  0.00     0.163 C 
HETATM   50  O8  UNL     1     -16.575   7.309  11.657  1.00  0.00    -0.648 OA
BRANCH  49  51
HETATM   51  O9  UNL     1     -14.667   8.346  12.172  1.00  0.00    -0.775 OA
HETATM   52  H44 UNL     1     -15.049   8.910  11.471  1.00  0.00     0.167 HD
ENDBRANCH  49  51
ENDBRANCH  37  49
ENDBRANCH  35  37
ENDBRANCH  32  33
ENDBRANCH  31  32
ENDBRANCH  29  31
ENDBRANCH  28  29
ENDBRANCH  27  28
ENDBRANCH   1  27
TORSDOF 14
ENDMDL
MODEL 3
REMARK minimizedAffinity -9.3669672
REMARK CNNscore 0.47945264
REMARK CNNaffinity 6.7737937
REMARK  14 active torsions:
REMARK  status: ('A' for Active; 'I' for Inactive)
REMARK    1  A    between atoms: C12_13  and  O2_14 
REMARK    2  A    between atoms: C19_21  and  O3_22 
REMARK    3  A    between atoms: C19_21  and  C20_23 
REMARK    4  A    between atoms: C20_23  and  C21_25 
REMARK    5  A    between atoms: C21_25  and  O5_26 
REMARK    6  A    between atoms: O5_26  and  C22_27 
REMARK    7  A    between atoms: C22_27  and  C23_29 
REMARK    8  A    between atoms: C23_29  and  C24_30 
REMARK    9  A    between atoms: C24_30  and  C25_31 
REMARK       I    between atoms: C25_31  and  N1_33 
REMARK   10  A    between atoms: N1_33  and  C26_34 
REMARK   11  A    between atoms: C26_34  and  C27_35 
REMARK   12  A    between atoms: C26_34  and  C36_45 
REMARK   13  A    between atoms: C27_35  and  C28_36 
REMARK   14  A    between atoms: C36_45  and  O9_47 
ROOT
HETATM    1  C20 UNL     1       4.565   8.399  10.603  1.00  0.00     0.185 C 
HETATM    2  O4  UNL     1       4.917   9.399   9.967  1.00  0.00    -0.292 OA
ENDROOT
BRANCH   1   3
HETATM    3  C19 UNL     1       5.171   8.042  11.994  1.00  0.00     0.128 C 
HETATM    4  C14 UNL     1       6.034   9.179  12.650  1.00  0.00     0.001 C 
HETATM    5  C13 UNL     1       5.282  10.235  13.495  1.00  0.00     0.045 C 
HETATM    6  C15 UNL     1       6.894   9.869  11.556  1.00  0.00     0.019 C 
HETATM    7  C16 UNL     1       6.876   8.344  13.646  1.00  0.00     0.002 C 
HETATM    8  C12 UNL     1       6.210  11.107  14.370  1.00  0.00     0.124 C 
HETATM    9  C11 UNL     1       7.203  10.278  15.237  1.00  0.00     0.031 C 
HETATM   10  C2  UNL     1       8.201  11.126  16.126  1.00  0.00    -0.014 C 
HETATM   11  C10 UNL     1       7.924   9.162  14.418  1.00  0.00    -0.002 C 
HETATM   12  C1  UNL     1       9.153  12.028  15.308  1.00  0.00     0.020 C 
HETATM   13  C3  UNL     1       7.357  12.019  17.085  1.00  0.00     0.022 C 
HETATM   14  C7  UNL     1       9.081  10.171  16.947  1.00  0.00    -0.068 C 
HETATM   15  C4  UNL     1       8.153  12.596  18.245  1.00  0.00     0.084 C 
HETATM   16  C5  UNL     1       8.824  11.492  19.017  1.00  0.00     0.149 C 
HETATM   17  O1  UNL     1       9.034  11.567  20.225  1.00  0.00    -0.293 OA
HETATM   18  C6  UNL     1       9.321  10.319  18.263  1.00  0.00     0.053 C 
HETATM   19  C8  UNL     1       9.735   9.042  16.187  1.00  0.00     0.035 C 
HETATM   20  C9  UNL     1       8.730   8.253  15.362  1.00  0.00     0.010 C 
HETATM   21  C17 UNL     1       7.365   7.169  12.810  1.00  0.00     0.009 C 
HETATM   22  C18 UNL     1       6.196   6.869  11.855  1.00  0.00     0.047 C 
BRANCH   8  23
HETATM   23  O2  UNL     1       6.892  12.036  13.544  1.00  0.00    -0.395 OA
HETATM   24  H16 UNL     1       6.230  12.621  13.136  1.00  0.00     0.210 HD
ENDBRANCH   8  23
BRANCH   3  25
HETATM   25  O3  UNL     1       4.179   7.553  12.897  1.00  0.00    -0.381 OA
HETATM   26  H27 UNL     1       3.571   8.278  13.145  1.00  0.00     0.211 HD
ENDBRANCH   3  25
ENDBRANCH   1   3
BRANCH   1  27
HETATM   27  C21 UNL     1       3.474   7.504  10.033  1.00  0.00     0.260 C 
BRANCH  27  28
HETATM   28  O5  UNL     1       3.220   6.355  10.836  1.00  0.00    -0.314 OA
BRANCH  28  29
HETATM   29  C22 UNL     1       2.017   5.761  10.661  1.00  0.00     0.259 C 
HETATM   30  O6  UNL     1       1.555   5.475   9.560  1.00  0.00    -0.265 OA
BRANCH  29  31
HETATM   31  C23 UNL     1       1.282   5.496  11.954  1.00  0.00     0.120 C 
BRANCH  31  32
HETATM   32  C24 UNL     1      -0.073   6.183  12.073  1.00  0.00     0.112 C 
BRANCH  32  33
HETATM   33  C25 UNL     1      -1.185   5.200  12.377  1.00  0.00     0.218 C 
HETATM   34  O7  UNL     1      -1.949   5.311  13.329  1.00  0.00    -0.274 OA
HETATM   35  N1  UNL     1      -1.246   4.164  11.478  1.00  0.00    -0.346 N 
HETATM   36  H34 UNL     1      -0.655   4.167  10.652  1.00  0.00     0.163 HD
BRANCH  35  37
HETATM   37  C26 UNL     1      -2.288   3.131  11.554  1.00  0.00     0.186 C 
BRANCH  37  38
HETATM   38  C27 UNL     1      -3.530   3.540  10.752  1.00  0.00     0.077 C 
BRANCH  38  39
HETATM   39  C28 UNL     1      -4.816   3.133  11.399  1.00  0.00    -0.028 A 
HETATM   40  C29 UNL     1      -5.557   2.001  11.121  1.00  0.00     0.096 A 
HETATM   41  N2  UNL     1      -6.664   2.003  11.928  1.00  0.00    -0.365 N 
HETATM   42  C30 UNL     1      -6.664   3.118  12.733  1.00  0.00     0.042 A 
HETATM   43  H39 UNL     1      -7.381   1.294  11.937  1.00  0.00     0.165 HD
HETATM   44  C31 UNL     1      -7.586   3.531  13.704  1.00  0.00     0.030 A 
HETATM   45  C35 UNL     1      -5.518   3.851  12.422  1.00  0.00    -0.002 A 
HETATM   46  C32 UNL     1      -7.325   4.729  14.375  1.00  0.00     0.002 A 
HETATM   47  C33 UNL     1      -6.190   5.483  14.086  1.00  0.00     0.001 A 
HETATM   48  C34 UNL     1      -5.280   5.056  13.112  1.00  0.00     0.014 A 
ENDBRANCH  38  39
ENDBRANCH  37  38
BRANCH  37  49
HETATM   49  C36 UNL     1      -1.682   1.861  10.969  1.00  0.00     0.163 C 
HETATM   50  O8  UNL     1      -0.605   1.789  10.392  1.00  0.00    -0.648 OA
BRANCH  49  51
HETATM   51  O9  UNL     1      -2.434   0.760  11.152  1.00  0.00    -0.775 OA
HETATM   52  H44 UNL     1      -1.929   0.038  10.726  1.00  0.00     0.167 HD
ENDBRANCH  49  51
ENDBRANCH  37  49
ENDBRANCH  35  37
ENDBRANCH  32  33
ENDBRANCH  31  32
ENDBRANCH  29  31
ENDBRANCH  28  29
ENDBRANCH  27  28
ENDBRANCH   1  27
TORSDOF 14
ENDMDL
MODEL 4
REMARK minimizedAffinity -8.8486681
REMARK CNNscore 0.426985443
REMARK CNNaffinity 6.86866713
REMARK  14 active torsions:
REMARK  status: ('A' for Active; 'I' for Inactive)
REMARK    1  A    between atoms: C12_13  and  O2_14 
REMARK    2  A    between atoms: C19_21  and  O3_22 
REMARK    3  A    between atoms: C19_21  and  C20_23 
REMARK    4  A    between atoms: C20_23  and  C21_25 
REMARK    5  A    between atoms: C21_25  and  O5_26 
REMARK    6  A    between atoms: O5_26  and  C22_27 
REMARK    7  A    between atoms: C22_27  and  C23_29 
REMARK    8  A    between atoms: C23_29  and  C24_30 
REMARK    9  A    between atoms: C24_30  and  C25_31 
REMARK       I    between atoms: C25_31  and  N1_33 
REMARK   10  A    between atoms: N1_33  and  C26_34 
REMARK   11  A    between atoms: C26_34  and  C27_35 
REMARK   12  A    between atoms: C26_34  and  C36_45 
REMARK   13  A    between atoms: C27_35  and  C28_36 
REMARK   14  A    between atoms: C36_45  and  O9_47 
ROOT
HETATM    1  C20 UNL     1      -7.119   5.798  15.314  1.00  0.00     0.185 C 
HETATM    2  O4  UNL     1      -7.247   4.569  15.384  1.00  0.00    -0.292 OA
ENDROOT
BRANCH   1   3
HETATM    3  C19 UNL     1      -6.333   6.488  14.159  1.00  0.00     0.128 C 
HETATM    4  C14 UNL     1      -4.778   6.264  14.192  1.00  0.00     0.001 C 
HETATM    5  C13 UNL     1      -4.236   4.989  13.503  1.00  0.00     0.045 C 
HETATM    6  C15 UNL     1      -4.277   6.343  15.661  1.00  0.00     0.019 C 
HETATM    7  C16 UNL     1      -4.310   7.459  13.326  1.00  0.00     0.002 C 
HETATM    8  C12 UNL     1      -2.708   5.003  13.281  1.00  0.00     0.124 C 
HETATM    9  C11 UNL     1      -2.194   6.297  12.582  1.00  0.00     0.031 C 
HETATM   10  C2  UNL     1      -0.629   6.377  12.364  1.00  0.00    -0.014 C 
HETATM   11  C10 UNL     1      -2.782   7.594  13.220  1.00  0.00    -0.002 C 
HETATM   12  C1  UNL     1       0.185   6.370  13.679  1.00  0.00     0.020 C 
HETATM   13  C3  UNL     1      -0.198   5.159  11.494  1.00  0.00     0.022 C 
HETATM   14  C7  UNL     1      -0.288   7.684  11.632  1.00  0.00    -0.068 C 
HETATM   15  C4  UNL     1       1.189   5.299  10.887  1.00  0.00     0.084 C 
HETATM   16  C5  UNL     1       1.280   6.570  10.085  1.00  0.00     0.149 C 
HETATM   17  O1  UNL     1       1.997   6.672   9.093  1.00  0.00    -0.293 OA
HETATM   18  C6  UNL     1       0.541   7.755  10.574  1.00  0.00     0.053 C 
HETATM   19  C8  UNL     1      -0.902   8.945  12.191  1.00  0.00     0.035 C 
HETATM   20  C9  UNL     1      -2.408   8.818  12.367  1.00  0.00     0.010 C 
HETATM   21  C17 UNL     1      -5.093   8.639  13.886  1.00  0.00     0.009 C 
HETATM   22  C18 UNL     1      -6.458   8.042  14.271  1.00  0.00     0.047 C 
BRANCH   8  23
HETATM   23  O2  UNL     1      -2.055   4.790  14.523  1.00  0.00    -0.395 OA
HETATM   24  H16 UNL     1      -2.301   3.906  14.846  1.00  0.00     0.210 HD
ENDBRANCH   8  23
BRANCH   3  25
HETATM   25  O3  UNL     1      -6.880   6.169  12.880  1.00  0.00    -0.381 OA
HETATM   26  H27 UNL     1      -6.713   5.227  12.675  1.00  0.00     0.211 HD
ENDBRANCH   3  25
ENDBRANCH   1   3
BRANCH   1  27
HETATM   27  C21 UNL     1      -7.785   6.673  16.367  1.00  0.00     0.260 C 
BRANCH  27  28
HETATM   28  O5  UNL     1      -9.207   6.608  16.325  1.00  0.00    -0.314 OA
BRANCH  28  29
HETATM   29  C22 UNL     1      -9.816   7.463  15.471  1.00  0.00     0.259 C 
HETATM   30  O6  UNL     1     -10.218   7.138  14.356  1.00  0.00    -0.265 OA
BRANCH  29  31
HETATM   31  C23 UNL     1      -9.941   8.868  16.012  1.00  0.00     0.120 C 
BRANCH  31  32
HETATM   32  C24 UNL     1      -9.276   9.944  15.160  1.00  0.00     0.112 C 
BRANCH  32  33
HETATM   33  C25 UNL     1      -9.757  11.335  15.523  1.00  0.00     0.218 C 
HETATM   34  O7  UNL     1     -10.938  11.660  15.547  1.00  0.00    -0.274 OA
HETATM   35  N1  UNL     1      -8.731  12.199  15.815  1.00  0.00    -0.346 N 
HETATM   36  H34 UNL     1      -7.777  11.858  15.876  1.00  0.00     0.163 HD
BRANCH  35  37
HETATM   37  C26 UNL     1      -8.979  13.579  16.250  1.00  0.00     0.186 C 
BRANCH  37  38
HETATM   38  C27 UNL     1      -7.967  14.013  17.317  1.00  0.00     0.077 C 
BRANCH  38  39
HETATM   39  C28 UNL     1      -8.411  13.712  18.714  1.00  0.00    -0.028 A 
HETATM   40  C29 UNL     1      -9.710  13.525  19.144  1.00  0.00     0.096 A 
HETATM   41  N2  UNL     1      -9.685  13.276  20.491  1.00  0.00    -0.365 N 
HETATM   42  C30 UNL     1      -8.390  13.297  20.955  1.00  0.00     0.042 A 
HETATM   43  H39 UNL     1     -10.495  13.103  21.068  1.00  0.00     0.165 HD
HETATM   44  C31 UNL     1      -7.892  13.096  22.248  1.00  0.00     0.030 A 
HETATM   45  C35 UNL     1      -7.567  13.573  19.864  1.00  0.00    -0.002 A 
HETATM   46  C32 UNL     1      -6.508  13.179  22.429  1.00  0.00     0.002 A 
HETATM   47  C33 UNL     1      -5.659  13.454  21.359  1.00  0.00     0.001 A 
HETATM   48  C34 UNL     1      -6.175  13.653  20.073  1.00  0.00     0.014 A 
ENDBRANCH  38  39
ENDBRANCH  37  38
BRANCH  37  49
HETATM   49  C36 UNL     1      -8.840  14.455  15.010  1.00  0.00     0.163 C 
HETATM   50  O8  UNL     1      -7.812  15.006  14.642  1.00  0.00    -0.648 OA
BRANCH  49  51
HETATM   51  O9  UNL     1      -9.974  14.576  14.294  1.00  0.00    -0.775 OA
HETATM   52  H44 UNL     1      -9.737  15.160  13.546  1.00  0.00     0.167 HD
ENDBRANCH  49  51
ENDBRANCH  37  49
ENDBRANCH  35  37
ENDBRANCH  32  33
ENDBRANCH  31  32
ENDBRANCH  29  31
ENDBRANCH  28  29
ENDBRANCH  27  28
ENDBRANCH   1  27
TORSDOF 14
ENDMDL
MODEL 5
REMARK minimizedAffinity -10.2680483
REMARK CNNscore 0.421713382
REMARK CNNaffinity 7.11146164
REMARK  14 active torsions:
REMARK  status: ('A' for Active; 'I' for Inactive)
REMARK    1  A    between atoms: C12_13  and  O2_14 
REMARK    2  A    between atoms: C19_21  and  O3_22 
REMARK    3  A    between atoms: C19_21  and  C20_23 
REMARK    4  A    between atoms: C20_23  and  C21_25 
REMARK    5  A    between atoms: C21_25  and  O5_26 
REMARK    6  A    between atoms: O5_26  and  C22_27 
REMARK    7  A    between atoms: C22_27  and  C23_29 
REMARK    8  A    between atoms: C23_29  and  C24_30 
REMARK    9  A    between atoms: C24_30  and  C25_31 
REMARK       I    between atoms: C25_31  and  N1_33 
REMARK   10  A    between atoms: N1_33  and  C26_34 
REMARK   11  A    between atoms: C26_34  and  C27_35 
REMARK   12  A    between atoms: C26_34  and  C36_45 
REMARK   13  A    between atoms: C27_35  and  C28_36 
REMARK   14  A    between atoms: C36_45  and  O9_47 
ROOT
HETATM    1  C20 UNL     1       0.921   8.016  13.459  1.00  0.00     0.185 C 
HETATM    2  O4  UNL     1       1.969   7.358  13.459  1.00  0.00    -0.292 OA
ENDROOT
BRANCH   1   3
HETATM    3  C19 UNL     1      -0.372   7.520  12.744  1.00  0.00     0.128 C 
HETATM    4  C14 UNL     1      -1.598   7.270  13.694  1.00  0.00     0.001 C 
HETATM    5  C13 UNL     1      -2.503   8.485  14.009  1.00  0.00     0.045 C 
HETATM    6  C15 UNL     1      -1.103   6.604  15.008  1.00  0.00     0.019 C 
HETATM    7  C16 UNL     1      -2.440   6.317  12.811  1.00  0.00     0.002 C 
HETATM    8  C12 UNL     1      -3.851   8.104  14.659  1.00  0.00     0.124 C 
HETATM    9  C11 UNL     1      -4.624   6.998  13.882  1.00  0.00     0.031 C 
HETATM   10  C2  UNL     1      -5.996   6.546  14.527  1.00  0.00    -0.014 C 
HETATM   11  C10 UNL     1      -3.712   5.792  13.495  1.00  0.00    -0.002 C 
HETATM   12  C1  UNL     1      -5.848   5.917  15.931  1.00  0.00     0.020 C 
HETATM   13  C3  UNL     1      -6.921   7.796  14.626  1.00  0.00     0.022 C 
HETATM   14  C7  UNL     1      -6.652   5.487  13.627  1.00  0.00    -0.068 C 
HETATM   15  C4  UNL     1      -8.384   7.460  14.865  1.00  0.00     0.084 C 
HETATM   16  C5  UNL     1      -8.885   6.526  13.795  1.00  0.00     0.149 C 
HETATM   17  O1  UNL     1     -10.050   6.534  13.408  1.00  0.00    -0.293 OA
HETATM   18  C6  UNL     1      -7.948   5.510  13.265  1.00  0.00     0.053 C 
HETATM   19  C8  UNL     1      -5.769   4.345  13.184  1.00  0.00     0.035 C 
HETATM   20  C9  UNL     1      -4.471   4.835  12.560  1.00  0.00     0.010 C 
HETATM   21  C17 UNL     1      -1.426   5.297  12.312  1.00  0.00     0.009 C 
HETATM   22  C18 UNL     1      -0.135   6.110  12.111  1.00  0.00     0.047 C 
BRANCH   8  23
HETATM   23  O2  UNL     1      -3.629   7.730  16.010  1.00  0.00    -0.395 OA
HETATM   24  H16 UNL     1      -3.277   8.504  16.483  1.00  0.00     0.210 HD
ENDBRANCH   8  23
BRANCH   3  25
HETATM   25  O3  UNL     1      -0.726   8.358  11.644  1.00  0.00    -0.381 OA
HETATM   26  H27 UNL     1      -1.024   9.229  11.975  1.00  0.00     0.211 HD
ENDBRANCH   3  25
ENDBRANCH   1   3
BRANCH   1  27
HETATM   27  C21 UNL     1       0.875   9.336  14.215  1.00  0.00     0.260 C 
BRANCH  27  28
HETATM   28  O5  UNL     1       2.027   9.552  15.026  1.00  0.00    -0.314 OA
BRANCH  28  29
HETATM   29  C22 UNL     1       1.841   9.444  16.362  1.00  0.00     0.259 C 
HETATM   30  O6  UNL     1       1.682   8.372  16.941  1.00  0.00    -0.265 OA
BRANCH  29  31
HETATM   31  C23 UNL     1       1.832  10.774  17.079  1.00  0.00     0.120 C 
BRANCH  31  32
HETATM   32  C24 UNL     1       1.312  10.725  18.511  1.00  0.00     0.112 C 
BRANCH  32  33
HETATM   33  C25 UNL     1       2.433  10.559  19.518  1.00  0.00     0.218 C 
HETATM   34  O7  UNL     1       3.598  10.862  19.292  1.00  0.00    -0.274 OA
HETATM   35  N1  UNL     1       2.010  10.024  20.709  1.00  0.00    -0.346 N 
HETATM   36  H34 UNL     1       1.019   9.880  20.882  1.00  0.00     0.163 HD
BRANCH  35  37
HETATM   37  C26 UNL     1       2.924   9.835  21.843  1.00  0.00     0.186 C 
BRANCH  37  38
HETATM   38  C27 UNL     1       2.994  11.097  22.712  1.00  0.00     0.077 C 
BRANCH  38  39
HETATM   39  C28 UNL     1       4.379  11.648  22.850  1.00  0.00    -0.028 A 
HETATM   40  C29 UNL     1       5.551  10.922  22.922  1.00  0.00     0.096 A 
HETATM   41  N2  UNL     1       6.594  11.801  23.046  1.00  0.00    -0.365 N 
HETATM   42  C30 UNL     1       6.127  13.094  23.057  1.00  0.00     0.042 A 
HETATM   43  H39 UNL     1       7.567  11.545  23.121  1.00  0.00     0.165 HD
HETATM   44  C31 UNL     1       6.824  14.305  23.163  1.00  0.00     0.030 A 
HETATM   45  C35 UNL     1       4.739  13.032  22.940  1.00  0.00    -0.002 A 
HETATM   46  C32 UNL     1       6.076  15.486  23.148  1.00  0.00     0.002 A 
HETATM   47  C33 UNL     1       4.688  15.456  23.033  1.00  0.00     0.001 A 
HETATM   48  C34 UNL     1       4.008  14.237  22.928  1.00  0.00     0.014 A 
ENDBRANCH  38  39
ENDBRANCH  37  38
BRANCH  37  49
HETATM   49  C36 UNL     1       2.370   8.670  22.655  1.00  0.00     0.163 C 
HETATM   50  O8  UNL     1       1.826   7.677  22.192  1.00  0.00    -0.648 OA
BRANCH  49  51
HETATM   51  O9  UNL     1       2.543   8.797  23.985  1.00  0.00    -0.775 OA
HETATM   52  H44 UNL     1       2.140   7.993  24.367  1.00  0.00     0.167 HD
ENDBRANCH  49  51
ENDBRANCH  37  49
ENDBRANCH  35  37
ENDBRANCH  32  33
ENDBRANCH  31  32
ENDBRANCH  29  31
ENDBRANCH  28  29
ENDBRANCH  27  28
ENDBRANCH   1  27
TORSDOF 14
ENDMDL
MODEL 6
REMARK minimizedAffinity -10.3319283
REMARK CNNscore 0.399641037
REMARK CNNaffinity 7.40375137
REMARK  14 active torsions:
REMARK  status: ('A' for Active; 'I' for Inactive)
REMARK    1  A    between atoms: C12_13  and  O2_14 
REMARK    2  A    between atoms: C19_21  and  O3_22 
REMARK    3  A    between atoms: C19_21  and  C20_23 
REMARK    4  A    between atoms: C20_23  and  C21_25 
REMARK    5  A    between atoms: C21_25  and  O5_26 
REMARK    6  A    between atoms: O5_26  and  C22_27 
REMARK    7  A    between atoms: C22_27  and  C23_29 
REMARK    8  A    between atoms: C23_29  and  C24_30 
REMARK    9  A    between atoms: C24_30  and  C25_31 
REMARK       I    between atoms: C25_31  and  N1_33 
REMARK   10  A    between atoms: N1_33  and  C26_34 
REMARK   11  A    between atoms: C26_34  and  C27_35 
REMARK   12  A    between atoms: C26_34  and  C36_45 
REMARK   13  A    between atoms: C27_35  and  C28_36 
REMARK   14  A    between atoms: C36_45  and  O9_47 
ROOT
HETATM    1  C20 UNL     1      -1.053   8.562  15.235  1.00  0.00     0.185 C 
HETATM    2  O4  UNL     1      -0.142   9.293  15.643  1.00  0.00    -0.292 OA
ENDROOT
BRANCH   1   3
HETATM    3  C19 UNL     1      -1.155   8.110  13.747  1.00  0.00     0.128 C 
HETATM    4  C14 UNL     1       0.225   7.863  13.036  1.00  0.00     0.001 C 
HETATM    5  C13 UNL     1       0.853   6.458  13.190  1.00  0.00     0.045 C 
HETATM    6  C15 UNL     1       1.233   8.961  13.473  1.00  0.00     0.019 C 
HETATM    7  C16 UNL     1      -0.205   7.988  11.554  1.00  0.00     0.002 C 
HETATM    8  C12 UNL     1       2.013   6.184  12.208  1.00  0.00     0.124 C 
HETATM    9  C11 UNL     1       1.656   6.494  10.724  1.00  0.00     0.031 C 
HETATM   10  C2  UNL     1       2.823   6.265   9.681  1.00  0.00    -0.014 C 
HETATM   11  C10 UNL     1       0.959   7.881  10.555  1.00  0.00    -0.002 C 
HETATM   12  C1  UNL     1       4.057   7.167   9.916  1.00  0.00     0.020 C 
HETATM   13  C3  UNL     1       3.263   4.773   9.766  1.00  0.00     0.022 C 
HETATM   14  C7  UNL     1       2.304   6.573   8.267  1.00  0.00    -0.068 C 
HETATM   15  C4  UNL     1       4.095   4.310   8.580  1.00  0.00     0.084 C 
HETATM   16  C5  UNL     1       3.354   4.562   7.294  1.00  0.00     0.149 C 
HETATM   17  O1  UNL     1       3.484   3.842   6.307  1.00  0.00    -0.293 OA
HETATM   18  C6  UNL     1       2.511   5.776   7.204  1.00  0.00     0.053 C 
HETATM   19  C8  UNL     1       1.567   7.879   8.095  1.00  0.00     0.035 C 
HETATM   20  C9  UNL     1       0.448   8.041   9.113  1.00  0.00     0.010 C 
HETATM   21  C17 UNL     1      -1.052   9.253  11.529  1.00  0.00     0.009 C 
HETATM   22  C18 UNL     1      -1.791   9.244  12.878  1.00  0.00     0.047 C 
BRANCH   8  23
HETATM   23  O2  UNL     1       3.160   6.906  12.627  1.00  0.00    -0.395 OA
HETATM   24  H16 UNL     1       3.424   6.572  13.502  1.00  0.00     0.210 HD
ENDBRANCH   8  23
BRANCH   3  25
HETATM   25  O3  UNL     1      -2.031   6.994  13.589  1.00  0.00    -0.381 OA
HETATM   26  H27 UNL     1      -1.630   6.199  13.993  1.00  0.00     0.211 HD
ENDBRANCH   3  25
ENDBRANCH   1   3
BRANCH   1  27
HETATM   27  C21 UNL     1      -2.090   8.050  16.225  1.00  0.00     0.260 C 
BRANCH  27  28
HETATM   28  O5  UNL     1      -2.782   9.099  16.897  1.00  0.00    -0.314 OA
BRANCH  28  29
HETATM   29  C22 UNL     1      -3.279  10.083  16.112  1.00  0.00     0.259 C 
HETATM   30  O6  UNL     1      -2.865  11.239  16.129  1.00  0.00    -0.265 OA
BRANCH  29  31
HETATM   31  C23 UNL     1      -4.409   9.628  15.219  1.00  0.00     0.120 C 
BRANCH  31  32
HETATM   32  C24 UNL     1      -4.872   8.194  15.452  1.00  0.00     0.112 C 
BRANCH  32  33
HETATM   33  C25 UNL     1      -5.460   7.575  14.200  1.00  0.00     0.218 C 
HETATM   34  O7  UNL     1      -5.278   8.021  13.073  1.00  0.00    -0.274 OA
HETATM   35  N1  UNL     1      -6.225   6.465  14.458  1.00  0.00    -0.346 N 
HETATM   36  H34 UNL     1      -6.267   6.079  15.396  1.00  0.00     0.163 HD
BRANCH  35  37
HETATM   37  C26 UNL     1      -6.838   5.678  13.380  1.00  0.00     0.186 C 
BRANCH  37  38
HETATM   38  C27 UNL     1      -6.475   4.193  13.505  1.00  0.00     0.077 C 
BRANCH  38  39
HETATM   39  C28 UNL     1      -5.736   3.661  12.318  1.00  0.00    -0.028 A 
HETATM   40  C29 UNL     1      -6.253   2.868  11.312  1.00  0.00     0.096 A 
HETATM   41  N2  UNL     1      -5.250   2.597  10.420  1.00  0.00    -0.365 N 
HETATM   42  C30 UNL     1      -4.080   3.199  10.821  1.00  0.00     0.042 A 
HETATM   43  H39 UNL     1      -5.346   2.036   9.586  1.00  0.00     0.165 HD
HETATM   44  C31 UNL     1      -2.813   3.196  10.225  1.00  0.00     0.030 A 
HETATM   45  C35 UNL     1      -4.351   3.871  12.013  1.00  0.00    -0.002 A 
HETATM   46  C32 UNL     1      -1.793   3.904  10.868  1.00  0.00     0.002 A 
HETATM   47  C33 UNL     1      -2.033   4.585  12.059  1.00  0.00     0.001 A 
HETATM   48  C34 UNL     1      -3.306   4.577  12.642  1.00  0.00     0.014 A 
ENDBRANCH  38  39
ENDBRANCH  37  38
BRANCH  37  49
HETATM   49  C36 UNL     1      -8.346   5.861  13.515  1.00  0.00     0.163 C 
HETATM   50  O8  UNL     1      -9.123   6.053  12.590  1.00  0.00    -0.648 OA
BRANCH  49  51
HETATM   51  O9  UNL     1      -8.798   5.774  14.780  1.00  0.00    -0.775 OA
HETATM   52  H44 UNL     1      -9.763   5.915  14.711  1.00  0.00     0.167 HD
ENDBRANCH  49  51
ENDBRANCH  37  49
ENDBRANCH  35  37
ENDBRANCH  32  33
ENDBRANCH  31  32
ENDBRANCH  29  31
ENDBRANCH  28  29
ENDBRANCH  27  28
ENDBRANCH   1  27
TORSDOF 14
ENDMDL
MODEL 7
REMARK minimizedAffinity -9.75401783
REMARK CNNscore 0.370811224
REMARK CNNaffinity 7.30880737
REMARK  14 active torsions:
REMARK  status: ('A' for Active; 'I' for Inactive)
REMARK    1  A    between atoms: C12_13  and  O2_14 
REMARK    2  A    between atoms: C19_21  and  O3_22 
REMARK    3  A    between atoms: C19_21  and  C20_23 
REMARK    4  A    between atoms: C20_23  and  C21_25 
REMARK    5  A    between atoms: C21_25  and  O5_26 
REMARK    6  A    between atoms: O5_26  and  C22_27 
REMARK    7  A    between atoms: C22_27  and  C23_29 
REMARK    8  A    between atoms: C23_29  and  C24_30 
REMARK    9  A    between atoms: C24_30  and  C25_31 
REMARK       I    between atoms: C25_31  and  N1_33 
REMARK   10  A    between atoms: N1_33  and  C26_34 
REMARK   11  A    between atoms: C26_34  and  C27_35 
REMARK   12  A    between atoms: C26_34  and  C36_45 
REMARK   13  A    between atoms: C27_35  and  C28_36 
REMARK   14  A    between atoms: C36_45  and  O9_47 
ROOT
HETATM    1  C20 UNL     1       0.194   6.616  13.557  1.00  0.00     0.185 C 
HETATM    2  O4  UNL     1       0.240   7.138  14.677  1.00  0.00    -0.292 OA
ENDROOT
BRANCH   1   3
HETATM    3  C19 UNL     1      -1.151   6.371  12.808  1.00  0.00     0.128 C 
HETATM    4  C14 UNL     1      -2.417   6.283  13.734  1.00  0.00     0.001 C 
HETATM    5  C13 UNL     1      -3.117   7.613  14.098  1.00  0.00     0.045 C 
HETATM    6  C15 UNL     1      -2.059   5.486  15.019  1.00  0.00     0.019 C 
HETATM    7  C16 UNL     1      -3.388   5.522  12.799  1.00  0.00     0.002 C 
HETATM    8  C12 UNL     1      -4.520   7.429  14.717  1.00  0.00     0.124 C 
HETATM    9  C11 UNL     1      -5.450   6.501  13.881  1.00  0.00     0.031 C 
HETATM   10  C2  UNL     1      -6.888   6.250  14.492  1.00  0.00    -0.014 C 
HETATM   11  C10 UNL     1      -4.740   5.180  13.446  1.00  0.00    -0.002 C 
HETATM   12  C1  UNL     1      -6.868   5.542  15.866  1.00  0.00     0.020 C 
HETATM   13  C3  UNL     1      -7.598   7.629  14.642  1.00  0.00     0.022 C 
HETATM   14  C7  UNL     1      -7.692   5.354  13.537  1.00  0.00    -0.068 C 
HETATM   15  C4  UNL     1      -9.100   7.526  14.851  1.00  0.00     0.084 C 
HETATM   16  C5  UNL     1      -9.728   6.736  13.734  1.00  0.00     0.149 C 
HETATM   17  O1  UNL     1     -10.871   6.952  13.337  1.00  0.00    -0.293 OA
HETATM   18  C6  UNL     1      -8.961   5.606  13.165  1.00  0.00     0.053 C 
HETATM   19  C8  UNL     1      -7.000   4.105  13.048  1.00  0.00     0.035 C 
HETATM   20  C9  UNL     1      -5.629   4.405  12.459  1.00  0.00     0.010 C 
HETATM   21  C17 UNL     1      -2.546   4.373  12.261  1.00  0.00     0.009 C 
HETATM   22  C18 UNL     1      -1.136   4.972  12.111  1.00  0.00     0.047 C 
BRANCH   8  23
HETATM   23  O2  UNL     1      -4.384   6.963  16.050  1.00  0.00    -0.395 OA
HETATM   24  H16 UNL     1      -3.918   7.647  16.563  1.00  0.00     0.210 HD
ENDBRANCH   8  23
BRANCH   3  25
HETATM   25  O3  UNL     1      -1.345   7.306  11.745  1.00  0.00    -0.381 OA
HETATM   26  H27 UNL     1      -1.504   8.197  12.114  1.00  0.00     0.211 HD
ENDBRANCH   3  25
ENDBRANCH   1   3
BRANCH   1  27
HETATM   27  C21 UNL     1       1.494   6.236  12.863  1.00  0.00     0.260 C 
BRANCH  27  28
HETATM   28  O5  UNL     1       1.755   7.020  11.702  1.00  0.00    -0.314 OA
BRANCH  28  29
HETATM   29  C22 UNL     1       2.089   6.334  10.584  1.00  0.00     0.259 C 
HETATM   30  O6  UNL     1       1.266   5.855   9.810  1.00  0.00    -0.265 OA
BRANCH  29  31
HETATM   31  C23 UNL     1       3.581   6.197  10.386  1.00  0.00     0.120 C 
BRANCH  31  32
HETATM   32  C24 UNL     1       4.289   7.476   9.953  1.00  0.00     0.112 C 
BRANCH  32  33
HETATM   33  C25 UNL     1       5.564   7.713  10.737  1.00  0.00     0.218 C 
HETATM   34  O7  UNL     1       6.579   7.041  10.602  1.00  0.00    -0.274 OA
HETATM   35  N1  UNL     1       5.463   8.756  11.625  1.00  0.00    -0.346 N 
HETATM   36  H34 UNL     1       4.634   9.343  11.632  1.00  0.00     0.163 HD
BRANCH  35  37
HETATM   37  C26 UNL     1       6.602   9.193  12.442  1.00  0.00     0.186 C 
BRANCH  37  38
HETATM   38  C27 UNL     1       7.435   7.996  12.915  1.00  0.00     0.077 C 
BRANCH  38  39
HETATM   39  C28 UNL     1       8.450   8.351  13.955  1.00  0.00    -0.028 A 
HETATM   40  C29 UNL     1       9.801   8.068  13.919  1.00  0.00     0.096 A 
HETATM   41  N2  UNL     1      10.374   8.560  15.062  1.00  0.00    -0.365 N 
HETATM   42  C30 UNL     1       9.422   9.164  15.849  1.00  0.00     0.042 A 
HETATM   43  H39 UNL     1      11.352   8.493  15.300  1.00  0.00     0.165 HD
HETATM   44  C31 UNL     1       9.548   9.799  17.092  1.00  0.00     0.030 A 
HETATM   45  C35 UNL     1       8.202   9.046  15.184  1.00  0.00    -0.002 A 
HETATM   46  C32 UNL     1       8.390  10.328  17.669  1.00  0.00     0.002 A 
HETATM   47  C33 UNL     1       7.157  10.225  17.029  1.00  0.00     0.001 A 
HETATM   48  C34 UNL     1       7.049   9.587  15.788  1.00  0.00     0.014 A 
ENDBRANCH  38  39
ENDBRANCH  37  38
BRANCH  37  49
HETATM   49  C36 UNL     1       7.447  10.101  11.555  1.00  0.00     0.163 C 
HETATM   50  O8  UNL     1       7.482  10.066  10.333  1.00  0.00    -0.648 OA
BRANCH  49  51
HETATM   51  O9  UNL     1       8.177  11.006  12.234  1.00  0.00    -0.775 OA
HETATM   52  H44 UNL     1       8.662  11.503  11.546  1.00  0.00     0.167 HD
ENDBRANCH  49  51
ENDBRANCH  37  49
ENDBRANCH  35  37
ENDBRANCH  32  33
ENDBRANCH  31  32
ENDBRANCH  29  31
ENDBRANCH  28  29
ENDBRANCH  27  28
ENDBRANCH   1  27
TORSDOF 14
ENDMDL
MODEL 8
REMARK minimizedAffinity -8.38457203
REMARK CNNscore 0.344857872
REMARK CNNaffinity 7.40496445
REMARK  14 active torsions:
REMARK  status: ('A' for Active; 'I' for Inactive)
REMARK    1  A    between atoms: C12_13  and  O2_14 
REMARK    2  A    between atoms: C19_21  and  O3_22 
REMARK    3  A    between atoms: C19_21  and  C20_23 
REMARK    4  A    between atoms: C20_23  and  C21_25 
REMARK    5  A    between atoms: C21_25  and  O5_26 
REMARK    6  A    between atoms: O5_26  and  C22_27 
REMARK    7  A    between atoms: C22_27  and  C23_29 
REMARK    8  A    between atoms: C23_29  and  C24_30 
REMARK    9  A    between atoms: C24_30  and  C25_31 
REMARK       I    between atoms: C25_31  and  N1_33 
REMARK   10  A    between atoms: N1_33  and  C26_34 
REMARK   11  A    between atoms: C26_34  and  C27_35 
REMARK   12  A    between atoms: C26_34  and  C36_45 
REMARK   13  A    between atoms: C27_35  and  C28_36 
REMARK   14  A    between atoms: C36_45  and  O9_47 
ROOT
HETATM    1  C20 UNL     1      -7.436   4.065  13.372  1.00  0.00     0.185 C 
HETATM    2  O4  UNL     1      -8.136   3.045  13.362  1.00  0.00    -0.292 OA
ENDROOT
BRANCH   1   3
HETATM    3  C19 UNL     1      -7.671   5.225  14.386  1.00  0.00     0.128 C 
HETATM    4  C14 UNL     1      -8.816   6.226  13.991  1.00  0.00     0.001 C 
HETATM    5  C13 UNL     1     -10.255   5.855  14.420  1.00  0.00     0.045 C 
HETATM    6  C15 UNL     1      -8.756   6.498  12.463  1.00  0.00     0.019 C 
HETATM    7  C16 UNL     1      -8.411   7.454  14.842  1.00  0.00     0.002 C 
HETATM    8  C12 UNL     1     -11.260   7.021  14.300  1.00  0.00     0.124 C 
HETATM    9  C11 UNL     1     -10.776   8.331  14.989  1.00  0.00     0.031 C 
HETATM   10  C2  UNL     1     -11.754   9.568  14.863  1.00  0.00    -0.014 C 
HETATM   11  C10 UNL     1      -9.301   8.688  14.622  1.00  0.00    -0.002 C 
HETATM   12  C1  UNL     1     -11.991  10.031  13.407  1.00  0.00     0.020 C 
HETATM   13  C3  UNL     1     -13.121   9.171  15.497  1.00  0.00     0.022 C 
HETATM   14  C7  UNL     1     -11.157  10.763  15.624  1.00  0.00    -0.068 C 
HETATM   15  C4  UNL     1     -14.027  10.355  15.795  1.00  0.00     0.084 C 
HETATM   16  C5  UNL     1     -13.313  11.348  16.674  1.00  0.00     0.149 C 
HETATM   17  O1  UNL     1     -13.906  12.050  17.489  1.00  0.00    -0.293 OA
HETATM   18  C6  UNL     1     -11.858  11.534  16.474  1.00  0.00     0.053 C 
HETATM   19  C8  UNL     1      -9.711  11.085  15.335  1.00  0.00     0.035 C 
HETATM   20  C9  UNL     1      -8.814   9.865  15.484  1.00  0.00     0.010 C 
HETATM   21  C17 UNL     1      -6.918   7.598  14.583  1.00  0.00     0.009 C 
HETATM   22  C18 UNL     1      -6.413   6.150  14.453  1.00  0.00     0.047 C 
BRANCH   8  23
HETATM   23  O2  UNL     1     -11.564   7.236  12.931  1.00  0.00    -0.395 OA
HETATM   24  H16 UNL     1     -11.995   6.434  12.587  1.00  0.00     0.210 HD
ENDBRANCH   8  23
BRANCH   3  25
HETATM   25  O3  UNL     1      -7.839   4.740  15.719  1.00  0.00    -0.381 OA
HETATM   26  H27 UNL     1      -8.688   4.261  15.792  1.00  0.00     0.211 HD
ENDBRANCH   3  25
ENDBRANCH   1   3
BRANCH   1  27
HETATM   27  C21 UNL     1      -6.278   4.178  12.391  1.00  0.00     0.260 C 
BRANCH  27  28
HETATM   28  O5  UNL     1      -5.077   3.586  12.877  1.00  0.00    -0.314 OA
BRANCH  28  29
HETATM   29  C22 UNL     1      -3.922   4.121  12.417  1.00  0.00     0.259 C 
HETATM   30  O6  UNL     1      -3.670   5.323  12.450  1.00  0.00    -0.265 OA
BRANCH  29  31
HETATM   31  C23 UNL     1      -2.972   3.098  11.839  1.00  0.00     0.120 C 
BRANCH  31  32
HETATM   32  C24 UNL     1      -2.096   3.608  10.701  1.00  0.00     0.112 C 
BRANCH  32  33
HETATM   33  C25 UNL     1      -0.802   4.214  11.206  1.00  0.00     0.218 C 
HETATM   34  O7  UNL     1       0.140   3.551  11.623  1.00  0.00    -0.274 OA
HETATM   35  N1  UNL     1      -0.796   5.586  11.158  1.00  0.00    -0.346 N 
HETATM   36  H34 UNL     1      -1.562   6.086  10.716  1.00  0.00     0.163 HD
BRANCH  35  37
HETATM   37  C26 UNL     1       0.383   6.371  11.545  1.00  0.00     0.186 C 
BRANCH  37  38
HETATM   38  C27 UNL     1       0.676   6.226  13.043  1.00  0.00     0.077 C 
BRANCH  38  39
HETATM   39  C28 UNL     1      -0.525   6.448  13.908  1.00  0.00    -0.028 A 
HETATM   40  C29 UNL     1      -1.151   5.511  14.706  1.00  0.00     0.096 A 
HETATM   41  N2  UNL     1      -2.211   6.116  15.329  1.00  0.00    -0.365 N 
HETATM   42  C30 UNL     1      -2.292   7.437  14.954  1.00  0.00     0.042 A 
HETATM   43  H39 UNL     1      -2.845   5.665  15.971  1.00  0.00     0.165 HD
HETATM   44  C31 UNL     1      -3.204   8.429  15.336  1.00  0.00     0.030 A 
HETATM   45  C35 UNL     1      -1.250   7.675  14.059  1.00  0.00    -0.002 A 
HETATM   46  C32 UNL     1      -3.043   9.703  14.785  1.00  0.00     0.002 A 
HETATM   47  C33 UNL     1      -2.012   9.973  13.887  1.00  0.00     0.001 A 
HETATM   48  C34 UNL     1      -1.110   8.969  13.516  1.00  0.00     0.014 A 
ENDBRANCH  38  39
ENDBRANCH  37  38
BRANCH  37  49
HETATM   49  C36 UNL     1       1.550   5.829  10.729  1.00  0.00     0.163 C 
HETATM   50  O8  UNL     1       1.629   5.842   9.507  1.00  0.00    -0.648 OA
BRANCH  49  51
HETATM   51  O9  UNL     1       2.553   5.326  11.472  1.00  0.00    -0.775 OA
HETATM   52  H44 UNL     1       3.216   5.017  10.823  1.00  0.00     0.167 HD
ENDBRANCH  49  51
ENDBRANCH  37  49
ENDBRANCH  35  37
ENDBRANCH  32  33
ENDBRANCH  31  32
ENDBRANCH  29  31
ENDBRANCH  28  29
ENDBRANCH  27  28
ENDBRANCH   1  27
TORSDOF 14
ENDMDL
MODEL 9
REMARK minimizedAffinity -10.178813
REMARK CNNscore 0.316382825
REMARK CNNaffinity 7.23052835
REMARK  14 active torsions:
REMARK  status: ('A' for Active; 'I' for Inactive)
REMARK    1  A    between atoms: C12_13  and  O2_14 
REMARK    2  A    between atoms: C19_21  and  O3_22 
REMARK    3  A    between atoms: C19_21  and  C20_23 
REMARK    4  A    between atoms: C20_23  and  C21_25 
REMARK    5  A    between atoms: C21_25  and  O5_26 
REMARK    6  A    between atoms: O5_26  and  C22_27 
REMARK    7  A    between atoms: C22_27  and  C23_29 
REMARK    8  A    between atoms: C23_29  and  C24_30 
REMARK    9  A    between atoms: C24_30  and  C25_31 
REMARK       I    between atoms: C25_31  and  N1_33 
REMARK   10  A    between atoms: N1_33  and  C26_34 
REMARK   11  A    between atoms: C26_34  and  C27_35 
REMARK   12  A    between atoms: C26_34  and  C36_45 
REMARK   13  A    between atoms: C27_35  and  C28_36 
REMARK   14  A    between atoms: C36_45  and  O9_47 
ROOT
HETATM    1  C20 UNL     1      -0.596   8.139  13.998  1.00  0.00     0.185 C 
HETATM    2  O4  UNL     1      -0.281   9.321  14.182  1.00  0.00    -0.292 OA
ENDROOT
BRANCH   1   3
HETATM    3  C19 UNL     1      -1.926   7.732  13.296  1.00  0.00     0.128 C 
HETATM    4  C14 UNL     1      -3.190   7.719  14.229  1.00  0.00     0.001 C 
HETATM    5  C13 UNL     1      -3.949   9.055  14.405  1.00  0.00     0.045 C 
HETATM    6  C15 UNL     1      -2.801   7.127  15.612  1.00  0.00     0.019 C 
HETATM    7  C16 UNL     1      -4.123   6.792  13.413  1.00  0.00     0.002 C 
HETATM    8  C12 UNL     1      -5.345   8.897  15.048  1.00  0.00     0.124 C 
HETATM    9  C11 UNL     1      -6.230   7.821  14.354  1.00  0.00     0.031 C 
HETATM   10  C2  UNL     1      -7.657   7.595  14.998  1.00  0.00    -0.014 C 
HETATM   11  C10 UNL     1      -5.461   6.485  14.106  1.00  0.00    -0.002 C 
HETATM   12  C1  UNL     1      -7.610   7.088  16.458  1.00  0.00     0.020 C 
HETATM   13  C3  UNL     1      -8.428   8.948  14.955  1.00  0.00     0.022 C 
HETATM   14  C7  UNL     1      -8.418   6.539  14.180  1.00  0.00    -0.068 C 
HETATM   15  C4  UNL     1      -9.925   8.809  15.182  1.00  0.00     0.084 C 
HETATM   16  C5  UNL     1     -10.514   7.843  14.188  1.00  0.00     0.149 C 
HETATM   17  O1  UNL     1     -11.663   7.950  13.768  1.00  0.00    -0.293 OA
HETATM   18  C6  UNL     1      -9.695   6.679  13.780  1.00  0.00     0.053 C 
HETATM   19  C8  UNL     1      -7.670   5.265  13.870  1.00  0.00     0.035 C 
HETATM   20  C9  UNL     1      -6.312   5.540  13.241  1.00  0.00     0.010 C 
HETATM   21  C17 UNL     1      -3.229   5.617  13.039  1.00  0.00     0.009 C 
HETATM   22  C18 UNL     1      -1.847   6.251  12.802  1.00  0.00     0.047 C 
BRANCH   8  23
HETATM   23  O2  UNL     1      -5.192   8.630  16.433  1.00  0.00    -0.395 OA
HETATM   24  H16 UNL     1      -4.759   9.398  16.844  1.00  0.00     0.210 HD
ENDBRANCH   8  23
BRANCH   3  25
HETATM   25  O3  UNL     1      -2.158   8.499  12.113  1.00  0.00    -0.381 OA
HETATM   26  H27 UNL     1      -2.357   9.425  12.354  1.00  0.00     0.211 HD
ENDBRANCH   3  25
ENDBRANCH   1   3
BRANCH   1  27
HETATM   27  C21 UNL     1       0.364   7.041  14.435  1.00  0.00     0.260 C 
BRANCH  27  28
HETATM   28  O5  UNL     1       0.734   7.140  15.807  1.00  0.00    -0.314 OA
BRANCH  28  29
HETATM   29  C22 UNL     1       1.828   7.889  16.075  1.00  0.00     0.259 C 
HETATM   30  O6  UNL     1       1.814   8.872  16.811  1.00  0.00    -0.265 OA
BRANCH  29  31
HETATM   31  C23 UNL     1       3.075   7.410  15.368  1.00  0.00     0.120 C 
BRANCH  31  32
HETATM   32  C24 UNL     1       3.818   8.484  14.582  1.00  0.00     0.112 C 
BRANCH  32  33
HETATM   33  C25 UNL     1       3.634   8.323  13.086  1.00  0.00     0.218 C 
HETATM   34  O7  UNL     1       3.140   9.183  12.367  1.00  0.00    -0.274 OA
HETATM   35  N1  UNL     1       4.071   7.109  12.618  1.00  0.00    -0.346 N 
HETATM   36  H34 UNL     1       4.560   6.468  13.236  1.00  0.00     0.163 HD
BRANCH  35  37
HETATM   37  C26 UNL     1       4.040   6.771  11.190  1.00  0.00     0.186 C 
BRANCH  37  38
HETATM   38  C27 UNL     1       2.676   7.104  10.572  1.00  0.00     0.077 C 
BRANCH  38  39
HETATM   39  C28 UNL     1       2.571   6.730   9.127  1.00  0.00    -0.028 A 
HETATM   40  C29 UNL     1       1.914   7.436   8.139  1.00  0.00     0.096 A 
HETATM   41  N2  UNL     1       2.052   6.754   6.959  1.00  0.00    -0.365 N 
HETATM   42  C30 UNL     1       2.791   5.610   7.154  1.00  0.00     0.042 A 
HETATM   43  H39 UNL     1       1.670   7.042   6.070  1.00  0.00     0.165 HD
HETATM   44  C31 UNL     1       3.180   4.621   6.243  1.00  0.00     0.030 A 
HETATM   45  C35 UNL     1       3.128   5.564   8.507  1.00  0.00    -0.002 A 
HETATM   46  C32 UNL     1       3.938   3.552   6.732  1.00  0.00     0.002 A 
HETATM   47  C33 UNL     1       4.290   3.478   8.078  1.00  0.00     0.001 A 
HETATM   48  C34 UNL     1       3.892   4.476   8.975  1.00  0.00     0.014 A 
ENDBRANCH  38  39
ENDBRANCH  37  38
BRANCH  37  49
HETATM   49  C36 UNL     1       5.132   7.601  10.525  1.00  0.00     0.163 C 
HETATM   50  O8  UNL     1       6.321   7.313  10.491  1.00  0.00    -0.648 OA
BRANCH  49  51
HETATM   51  O9  UNL     1       4.683   8.721   9.929  1.00  0.00    -0.775 OA
HETATM   52  H44 UNL     1       5.483   9.145   9.558  1.00  0.00     0.167 HD
ENDBRANCH  49  51
ENDBRANCH  37  49
ENDBRANCH  35  37
ENDBRANCH  32  33
ENDBRANCH  31  32
ENDBRANCH  29  31
ENDBRANCH  28  29
ENDBRANCH  27  28
ENDBRANCH   1  27
TORSDOF 14
ENDMDL
