MODEL 1
REMARK minimizedAffinity -8.55830383
REMARK CNNscore 0.399950355
REMARK CNNaffinity 6.31874466
REMARK  9 active torsions:
REMARK  status: ('A' for Active; 'I' for Inactive)
REMARK    1  A    between atoms: C7_8  and  O1_9 
REMARK    2  A    between atoms: O1_9  and  C8_10 
REMARK    3  A    between atoms: C8_10  and  C9_11 
REMARK       I    between atoms: C9_11  and  N1_13 
REMARK    4  A    between atoms: N1_13  and  N2_14 
REMARK    5  A    between atoms: C10_16  and  C11_17 
REMARK    6  A    between atoms: C14_20  and  O3_21 
REMARK    7  A    between atoms: C16_23  and  O4_24 
REMARK    8  A    between atoms: C25_33  and  C26_34 
REMARK    9  A    between atoms: C32_42  and  O7_43 
ROOT
HETATM    1  C11 UNL     1      -1.292  53.553 -10.054  1.00  0.00     0.028 C 
HETATM    2  C12 UNL     1      -2.263  54.720 -10.398  1.00  0.00     0.021 C 
HETATM    3  C13 UNL     1      -3.738  54.291 -10.361  1.00  0.00     0.033 C 
HETATM    4  C14 UNL     1      -4.041  53.040 -11.181  1.00  0.00     0.121 C 
HETATM    5  C15 UNL     1      -3.048  51.897 -10.930  1.00  0.00     0.070 C 
HETATM    6  C16 UNL     1      -1.584  52.379 -11.052  1.00  0.00     0.073 C 
HETATM    7  C17 UNL     1      -0.594  51.211 -10.937  1.00  0.00     0.039 C 
HETATM    8  C18 UNL     1       0.862  51.675 -11.013  1.00  0.00     0.011 C 
HETATM    9  C19 UNL     1       1.187  52.791 -10.004  1.00  0.00     0.026 C 
HETATM   10  C20 UNL     1       0.209  54.004 -10.171  1.00  0.00     0.009 C 
HETATM   11  C21 UNL     1       0.593  55.200  -9.255  1.00  0.00     0.007 C 
HETATM   12  C22 UNL     1       2.081  55.583  -9.322  1.00  0.00     0.013 C 
HETATM   13  C23 UNL     1       2.992  54.370  -9.078  1.00  0.00    -0.005 C 
HETATM   14  C24 UNL     1       2.826  53.902  -7.608  1.00  0.00     0.019 C 
HETATM   15  C25 UNL     1       4.505  54.585  -9.400  1.00  0.00     0.028 C 
HETATM   16  C30 UNL     1       5.012  53.132  -9.658  1.00  0.00     0.013 C 
HETATM   17  C31 UNL     1       3.771  52.270  -9.971  1.00  0.00     0.040 C 
HETATM   18  C32 UNL     1       2.641  53.283 -10.133  1.00  0.00     0.070 C 
ENDROOT
BRANCH   1  19
HETATM   19  C10 UNL     1      -1.578  53.192  -8.583  1.00  0.00     0.093 C 
HETATM   20  N2  UNL     1      -0.955  53.738  -7.588  1.00  0.00    -0.312 N 
ATOM     21  H2  UNL     1      -0.282  54.490  -7.736  1.00  0.00     0.185 HD
BRANCH  20  22
HETATM   22  N1  UNL     1      -1.232  53.271  -6.329  1.00  0.00    -0.269 N 
HETATM   23  C9  UNL     1      -1.266  54.094  -5.198  1.00  0.00     0.260 C 
HETATM   24  O2  UNL     1      -0.885  55.263  -5.169  1.00  0.00    -0.269 OA
HETATM   25  H9  UNL     1      -1.854  52.470  -6.335  1.00  0.00     0.190 HD
BRANCH  23  26
HETATM   26  C8  UNL     1      -1.853  53.374  -3.978  1.00  0.00     0.280 C 
BRANCH  26  27
HETATM   27  O1  UNL     1      -2.116  54.201  -2.857  1.00  0.00    -0.342 OA
BRANCH  27  28
HETATM   28  C7  UNL     1      -3.385  54.685  -2.685  1.00  0.00     0.075 A 
HETATM   29  C2  UNL     1      -3.487  56.082  -2.519  1.00  0.00    -0.027 A 
HETATM   30  C1  UNL     1      -2.261  56.950  -2.514  1.00  0.00     0.051 C 
HETATM   31  C3  UNL     1      -4.749  56.665  -2.330  1.00  0.00     0.033 A 
HETATM   32  C4  UNL     1      -5.893  55.874  -2.325  1.00  0.00     0.034 A 
HETATM   33 CL1  UNL     1      -7.433  56.600  -2.099  1.00  0.00    -0.084 Cl
HETATM   34  C5  UNL     1      -5.796  54.498  -2.510  1.00  0.00     0.026 A 
HETATM   35  C6  UNL     1      -4.544  53.904  -2.699  1.00  0.00     0.039 A 
ENDBRANCH  27  28
ENDBRANCH  26  27
ENDBRANCH  23  26
ENDBRANCH  20  22
ENDBRANCH   1  19
BRANCH   6  36
HETATM   36  O4  UNL     1      -1.477  52.846 -12.422  1.00  0.00    -0.389 OA
HETATM   37  H19 UNL     1      -0.631  53.331 -12.543  1.00  0.00     0.210 HD
ENDBRANCH   6  36
BRANCH   4  38
HETATM   38  O3  UNL     1      -4.055  53.396 -12.562  1.00  0.00    -0.395 OA
HETATM   39  H16 UNL     1      -3.145  53.248 -12.900  1.00  0.00     0.210 HD
ENDBRANCH   4  38
BRANCH  18  40
HETATM   40  O7  UNL     1       2.783  53.856 -11.453  1.00  0.00    -0.389 OA
HETATM   41  H41 UNL     1       2.920  53.138 -12.096  1.00  0.00     0.210 HD
ENDBRANCH  18  40
BRANCH  15  42
HETATM   42  C26 UNL     1       5.319  55.402  -8.435  1.00  0.00    -0.045 A 
HETATM   43  C27 UNL     1       4.965  56.473  -7.725  1.00  0.00     0.087 A 
HETATM   44  C28 UNL     1       6.110  56.850  -6.900  1.00  0.00     0.283 A 
HETATM   45  O5  UNL     1       6.145  57.813  -6.161  1.00  0.00    -0.260 OA
HETATM   46  O6  UNL     1       7.117  55.968  -7.109  1.00  0.00    -0.314 OA
HETATM   47  C29 UNL     1       6.709  55.014  -8.086  1.00  0.00     0.213 A 
ENDBRANCH  15  42
TORSDOF 9
ENDMDL
MODEL 2
REMARK minimizedAffinity -9.63321495
REMARK CNNscore 0.278472662
REMARK CNNaffinity 6.55237341
REMARK  9 active torsions:
REMARK  status: ('A' for Active; 'I' for Inactive)
REMARK    1  A    between atoms: C7_8  and  O1_9 
REMARK    2  A    between atoms: O1_9  and  C8_10 
REMARK    3  A    between atoms: C8_10  and  C9_11 
REMARK       I    between atoms: C9_11  and  N1_13 
REMARK    4  A    between atoms: N1_13  and  N2_14 
REMARK    5  A    between atoms: C10_16  and  C11_17 
REMARK    6  A    between atoms: C14_20  and  O3_21 
REMARK    7  A    between atoms: C16_23  and  O4_24 
REMARK    8  A    between atoms: C25_33  and  C26_34 
REMARK    9  A    between atoms: C32_42  and  O7_43 
ROOT
HETATM    1  C11 UNL     1      -7.254  46.501 -30.743  1.00  0.00     0.028 C 
HETATM    2  C12 UNL     1      -6.361  45.403 -31.392  1.00  0.00     0.021 C 
HETATM    3  C13 UNL     1      -4.919  45.879 -31.630  1.00  0.00     0.033 C 
HETATM    4  C14 UNL     1      -4.819  47.207 -32.376  1.00  0.00     0.121 C 
HETATM    5  C15 UNL     1      -5.753  48.287 -31.815  1.00  0.00     0.070 C 
HETATM    6  C16 UNL     1      -7.201  47.767 -31.667  1.00  0.00     0.073 C 
HETATM    7  C17 UNL     1      -8.161  48.886 -31.237  1.00  0.00     0.039 C 
HETATM    8  C18 UNL     1      -9.592  48.380 -31.044  1.00  0.00     0.011 C 
HETATM    9  C19 UNL     1      -9.676  47.169 -30.098  1.00  0.00     0.026 C 
HETATM   10  C20 UNL     1      -8.738  46.010 -30.580  1.00  0.00     0.009 C 
HETATM   11  C21 UNL     1      -8.898  44.726 -29.718  1.00  0.00     0.007 C 
HETATM   12  C22 UNL     1     -10.359  44.299 -29.502  1.00  0.00     0.013 C 
HETATM   13  C23 UNL     1     -11.215  45.454 -28.959  1.00  0.00    -0.005 C 
HETATM   14  C24 UNL     1     -10.745  45.797 -27.521  1.00  0.00     0.019 C 
HETATM   15  C25 UNL     1     -12.758  45.215 -28.970  1.00  0.00     0.028 C 
HETATM   16  C30 UNL     1     -13.331  46.666 -28.979  1.00  0.00     0.013 C 
HETATM   17  C31 UNL     1     -12.200  47.595 -29.468  1.00  0.00     0.040 C 
HETATM   18  C32 UNL     1     -11.116  46.640 -29.960  1.00  0.00     0.070 C 
ENDROOT
BRANCH   1  19
HETATM   19  C10 UNL     1      -6.664  46.742 -29.340  1.00  0.00     0.093 C 
HETATM   20  N2  UNL     1      -6.569  47.918 -28.807  1.00  0.00    -0.312 N 
ATOM     21  H2  UNL     1      -6.946  48.742 -29.275  1.00  0.00     0.185 HD
BRANCH  20  22
HETATM   22  N1  UNL     1      -5.945  48.018 -27.590  1.00  0.00    -0.269 N 
HETATM   23  C9  UNL     1      -4.565  48.207 -27.451  1.00  0.00     0.260 C 
HETATM   24  O2  UNL     1      -3.750  48.128 -28.368  1.00  0.00    -0.269 OA
HETATM   25  H9  UNL     1      -6.540  48.421 -26.874  1.00  0.00     0.190 HD
BRANCH  23  26
HETATM   26  C8  UNL     1      -4.173  48.546 -26.008  1.00  0.00     0.280 C 
BRANCH  26  27
HETATM   27  O1  UNL     1      -3.943  49.921 -25.751  1.00  0.00    -0.342 OA
BRANCH  27  28
HETATM   28  C7  UNL     1      -2.662  50.396 -25.829  1.00  0.00     0.075 A 
HETATM   29  C2  UNL     1      -2.032  50.656 -24.593  1.00  0.00    -0.027 A 
HETATM   30  C1  UNL     1      -2.758  50.437 -23.297  1.00  0.00     0.051 C 
HETATM   31  C3  UNL     1      -0.719  51.151 -24.577  1.00  0.00     0.033 A 
HETATM   32  C4  UNL     1      -0.037  51.365 -25.769  1.00  0.00     0.034 A 
HETATM   33 CL1  UNL     1       1.573  51.965 -25.737  1.00  0.00    -0.084 Cl
HETATM   34  C5  UNL     1      -0.649  51.088 -26.989  1.00  0.00     0.026 A 
HETATM   35  C6  UNL     1      -1.957  50.596 -27.019  1.00  0.00     0.039 A 
ENDBRANCH  27  28
ENDBRANCH  26  27
ENDBRANCH  23  26
ENDBRANCH  20  22
ENDBRANCH   1  19
BRANCH   6  36
HETATM   36  O4  UNL     1      -7.593  47.418 -33.021  1.00  0.00    -0.389 OA
HETATM   37  H19 UNL     1      -8.437  46.916 -33.003  1.00  0.00     0.210 HD
ENDBRANCH   6  36
BRANCH   4  38
HETATM   38  O3  UNL     1      -5.096  46.973 -33.756  1.00  0.00    -0.395 OA
HETATM   39  H16 UNL     1      -6.060  47.118 -33.878  1.00  0.00     0.210 HD
ENDBRANCH   4  38
BRANCH  18  40
HETATM   40  O7  UNL     1     -11.529  46.180 -31.266  1.00  0.00    -0.389 OA
HETATM   41  H41 UNL     1     -11.812  46.945 -31.796  1.00  0.00     0.210 HD
ENDBRANCH  18  40
BRANCH  15  42
HETATM   42  C26 UNL     1     -13.334  44.288 -27.935  1.00  0.00    -0.045 A 
HETATM   43  C27 UNL     1     -14.012  44.577 -26.825  1.00  0.00     0.087 A 
HETATM   44  C28 UNL     1     -14.395  43.313 -26.203  1.00  0.00     0.283 A 
HETATM   45  O5  UNL     1     -14.988  43.210 -25.148  1.00  0.00    -0.260 OA
HETATM   46  O6  UNL     1     -13.966  42.288 -26.980  1.00  0.00    -0.314 OA
HETATM   47  C29 UNL     1     -13.265  42.815 -28.104  1.00  0.00     0.213 A 
ENDBRANCH  15  42
TORSDOF 9
ENDMDL
MODEL 3
REMARK minimizedAffinity -9.46533012
REMARK CNNscore 0.258403242
REMARK CNNaffinity 6.58906603
REMARK  9 active torsions:
REMARK  status: ('A' for Active; 'I' for Inactive)
REMARK    1  A    between atoms: C7_8  and  O1_9 
REMARK    2  A    between atoms: O1_9  and  C8_10 
REMARK    3  A    between atoms: C8_10  and  C9_11 
REMARK       I    between atoms: C9_11  and  N1_13 
REMARK    4  A    between atoms: N1_13  and  N2_14 
REMARK    5  A    between atoms: C10_16  and  C11_17 
REMARK    6  A    between atoms: C14_20  and  O3_21 
REMARK    7  A    between atoms: C16_23  and  O4_24 
REMARK    8  A    between atoms: C25_33  and  C26_34 
REMARK    9  A    between atoms: C32_42  and  O7_43 
ROOT
HETATM    1  C11 UNL     1      -7.131  46.450 -30.930  1.00  0.00     0.028 C 
HETATM    2  C12 UNL     1      -6.237  45.371 -31.609  1.00  0.00     0.021 C 
HETATM    3  C13 UNL     1      -4.797  45.855 -31.837  1.00  0.00     0.033 C 
HETATM    4  C14 UNL     1      -4.700  47.202 -32.549  1.00  0.00     0.121 C 
HETATM    5  C15 UNL     1      -5.635  48.266 -31.957  1.00  0.00     0.070 C 
HETATM    6  C16 UNL     1      -7.081  47.740 -31.820  1.00  0.00     0.073 C 
HETATM    7  C17 UNL     1      -8.043  48.845 -31.358  1.00  0.00     0.039 C 
HETATM    8  C18 UNL     1      -9.472  48.332 -31.176  1.00  0.00     0.011 C 
HETATM    9  C19 UNL     1      -9.552  47.096 -30.262  1.00  0.00     0.026 C 
HETATM   10  C20 UNL     1      -8.613  45.952 -30.776  1.00  0.00     0.009 C 
HETATM   11  C21 UNL     1      -8.769  44.646 -29.947  1.00  0.00     0.007 C 
HETATM   12  C22 UNL     1     -10.230  44.210 -29.740  1.00  0.00     0.013 C 
HETATM   13  C23 UNL     1     -11.086  45.349 -29.165  1.00  0.00    -0.005 C 
HETATM   14  C24 UNL     1     -10.613  45.655 -27.720  1.00  0.00     0.019 C 
HETATM   15  C25 UNL     1     -12.629  45.107 -29.180  1.00  0.00     0.028 C 
HETATM   16  C30 UNL     1     -13.204  46.557 -29.149  1.00  0.00     0.013 C 
HETATM   17  C31 UNL     1     -12.076  47.501 -29.616  1.00  0.00     0.040 C 
HETATM   18  C32 UNL     1     -10.991  46.561 -30.135  1.00  0.00     0.070 C 
ENDROOT
BRANCH   1  19
HETATM   19  C10 UNL     1      -6.538  46.655 -29.521  1.00  0.00     0.093 C 
HETATM   20  N2  UNL     1      -6.627  47.773 -28.875  1.00  0.00    -0.312 N 
ATOM     21  H2  UNL     1      -7.157  48.559 -29.250  1.00  0.00     0.185 HD
BRANCH  20  22
HETATM   22  N1  UNL     1      -5.983  47.863 -27.667  1.00  0.00    -0.269 N 
HETATM   23  C9  UNL     1      -4.641  48.241 -27.542  1.00  0.00     0.260 C 
HETATM   24  O2  UNL     1      -3.855  48.358 -28.479  1.00  0.00    -0.269 OA
HETATM   25  H9  UNL     1      -6.606  48.115 -26.908  1.00  0.00     0.190 HD
BRANCH  23  26
HETATM   26  C8  UNL     1      -4.254  48.514 -26.084  1.00  0.00     0.280 C 
BRANCH  26  27
HETATM   27  O1  UNL     1      -2.860  48.590 -25.833  1.00  0.00    -0.342 OA
BRANCH  27  28
HETATM   28  C7  UNL     1      -2.420  49.398 -24.820  1.00  0.00     0.075 A 
HETATM   29  C2  UNL     1      -1.567  50.452 -25.207  1.00  0.00    -0.027 A 
HETATM   30  C1  UNL     1      -1.169  50.633 -26.644  1.00  0.00     0.051 C 
HETATM   31  C3  UNL     1      -1.063  51.327 -24.233  1.00  0.00     0.033 A 
HETATM   32  C4  UNL     1      -1.418  51.168 -22.898  1.00  0.00     0.034 A 
HETATM   33 CL1  UNL     1      -0.800  52.249 -21.715  1.00  0.00    -0.084 Cl
HETATM   34  C5  UNL     1      -2.277  50.141 -22.517  1.00  0.00     0.026 A 
HETATM   35  C6  UNL     1      -2.785  49.262 -23.478  1.00  0.00     0.039 A 
ENDBRANCH  27  28
ENDBRANCH  26  27
ENDBRANCH  23  26
ENDBRANCH  20  22
ENDBRANCH   1  19
BRANCH   6  36
HETATM   36  O4  UNL     1      -7.475  47.426 -33.181  1.00  0.00    -0.389 OA
HETATM   37  H19 UNL     1      -8.319  46.922 -33.175  1.00  0.00     0.210 HD
ENDBRANCH   6  36
BRANCH   4  38
HETATM   38  O3  UNL     1      -4.980  47.004 -33.933  1.00  0.00    -0.395 OA
HETATM   39  H16 UNL     1      -5.945  47.151 -34.049  1.00  0.00     0.210 HD
ENDBRANCH   4  38
BRANCH  18  40
HETATM   40  O7  UNL     1     -11.406  46.135 -31.452  1.00  0.00    -0.389 OA
HETATM   41  H41 UNL     1     -11.691  46.914 -31.961  1.00  0.00     0.210 HD
ENDBRANCH  18  40
BRANCH  15  42
HETATM   42  C26 UNL     1     -13.201  44.153 -28.168  1.00  0.00    -0.045 A 
HETATM   43  C27 UNL     1     -13.928  44.409 -27.080  1.00  0.00     0.087 A 
HETATM   44  C28 UNL     1     -14.279  43.127 -26.476  1.00  0.00     0.283 A 
HETATM   45  O5  UNL     1     -14.903  42.994 -25.443  1.00  0.00    -0.260 OA
HETATM   46  O6  UNL     1     -13.782  42.124 -27.242  1.00  0.00    -0.314 OA
HETATM   47  C29 UNL     1     -13.065  42.685 -28.339  1.00  0.00     0.213 A 
ENDBRANCH  15  42
TORSDOF 9
ENDMDL
MODEL 4
REMARK minimizedAffinity -8.30473042
REMARK CNNscore 0.237212658
REMARK CNNaffinity 6.70374107
REMARK  9 active torsions:
REMARK  status: ('A' for Active; 'I' for Inactive)
REMARK    1  A    between atoms: C7_8  and  O1_9 
REMARK    2  A    between atoms: O1_9  and  C8_10 
REMARK    3  A    between atoms: C8_10  and  C9_11 
REMARK       I    between atoms: C9_11  and  N1_13 
REMARK    4  A    between atoms: N1_13  and  N2_14 
REMARK    5  A    between atoms: C10_16  and  C11_17 
REMARK    6  A    between atoms: C14_20  and  O3_21 
REMARK    7  A    between atoms: C16_23  and  O4_24 
REMARK    8  A    between atoms: C25_33  and  C26_34 
REMARK    9  A    between atoms: C32_42  and  O7_43 
ROOT
HETATM    1  C11 UNL     1      -6.196  48.372 -23.228  1.00  0.00     0.028 C 
HETATM    2  C12 UNL     1      -7.440  48.722 -22.360  1.00  0.00     0.021 C 
HETATM    3  C13 UNL     1      -8.477  47.588 -22.328  1.00  0.00     0.033 C 
HETATM    4  C14 UNL     1      -8.875  47.073 -23.708  1.00  0.00     0.121 C 
HETATM    5  C15 UNL     1      -7.672  46.799 -24.621  1.00  0.00     0.070 C 
HETATM    6  C16 UNL     1      -6.706  48.004 -24.665  1.00  0.00     0.073 C 
HETATM    7  C17 UNL     1      -5.576  47.785 -25.683  1.00  0.00     0.039 C 
HETATM    8  C18 UNL     1      -4.585  48.950 -25.709  1.00  0.00     0.011 C 
HETATM    9  C19 UNL     1      -4.030  49.295 -24.316  1.00  0.00     0.026 C 
HETATM   10  C20 UNL     1      -5.190  49.576 -23.300  1.00  0.00     0.009 C 
HETATM   11  C21 UNL     1      -4.660  50.053 -21.919  1.00  0.00     0.007 C 
HETATM   12  C22 UNL     1      -3.619  51.182 -22.007  1.00  0.00     0.013 C 
HETATM   13  C23 UNL     1      -2.468  50.821 -22.959  1.00  0.00    -0.005 C 
HETATM   14  C24 UNL     1      -1.653  49.653 -22.345  1.00  0.00     0.019 C 
HETATM   15  C25 UNL     1      -1.511  51.995 -23.338  1.00  0.00     0.028 C 
HETATM   16  C30 UNL     1      -0.904  51.520 -24.695  1.00  0.00     0.013 C 
HETATM   17  C31 UNL     1      -1.849  50.438 -25.258  1.00  0.00     0.040 C 
HETATM   18  C32 UNL     1      -3.078  50.505 -24.355  1.00  0.00     0.070 C 
ENDROOT
BRANCH   1  19
HETATM   19  C10 UNL     1      -5.501  47.200 -22.507  1.00  0.00     0.093 C 
HETATM   20  N2  UNL     1      -5.443  47.100 -21.218  1.00  0.00    -0.312 N 
ATOM     21  H2  UNL     1      -5.919  47.770 -20.614  1.00  0.00     0.185 HD
BRANCH  20  22
HETATM   22  N1  UNL     1      -4.720  46.060 -20.691  1.00  0.00    -0.269 N 
HETATM   23  C9  UNL     1      -5.047  45.435 -19.483  1.00  0.00     0.260 C 
HETATM   24  O2  UNL     1      -5.886  45.847 -18.684  1.00  0.00    -0.269 OA
HETATM   25  H9  UNL     1      -4.282  45.486 -21.404  1.00  0.00     0.190 HD
BRANCH  23  26
HETATM   26  C8  UNL     1      -4.244  44.148 -19.263  1.00  0.00     0.280 C 
BRANCH  26  27
HETATM   27  O1  UNL     1      -4.059  43.775 -17.908  1.00  0.00    -0.342 OA
BRANCH  27  28
HETATM   28  C7  UNL     1      -2.950  43.044 -17.576  1.00  0.00     0.075 A 
HETATM   29  C2  UNL     1      -2.190  43.545 -16.498  1.00  0.00    -0.027 A 
HETATM   30  C1  UNL     1      -2.589  44.812 -15.797  1.00  0.00     0.051 C 
HETATM   31  C3  UNL     1      -1.033  42.863 -16.092  1.00  0.00     0.033 A 
HETATM   32  C4  UNL     1      -0.648  41.692 -16.736  1.00  0.00     0.034 A 
HETATM   33 CL1  UNL     1       0.768  40.863 -16.227  1.00  0.00    -0.084 Cl
HETATM   34  C5  UNL     1      -1.408  41.185 -17.786  1.00  0.00     0.026 A 
HETATM   35  C6  UNL     1      -2.563  41.855 -18.200  1.00  0.00     0.039 A 
ENDBRANCH  27  28
ENDBRANCH  26  27
ENDBRANCH  23  26
ENDBRANCH  20  22
ENDBRANCH   1  19
BRANCH   6  36
HETATM   36  O4  UNL     1      -7.510  49.085 -25.205  1.00  0.00    -0.389 OA
HETATM   37  H19 UNL     1      -7.030  49.937 -25.108  1.00  0.00     0.210 HD
ENDBRANCH   6  36
BRANCH   4  38
HETATM   38  O3  UNL     1      -9.754  48.021 -24.310  1.00  0.00    -0.395 OA
HETATM   39  H16 UNL     1      -9.193  48.632 -24.836  1.00  0.00     0.210 HD
ENDBRANCH   4  38
BRANCH  18  40
HETATM   40  O7  UNL     1      -3.852  51.645 -24.791  1.00  0.00    -0.389 OA
HETATM   41  H41 UNL     1      -3.934  51.619 -25.760  1.00  0.00     0.210 HD
ENDBRANCH  18  40
BRANCH  15  42
HETATM   42  C26 UNL     1      -0.523  52.458 -22.304  1.00  0.00    -0.045 A 
HETATM   43  C27 UNL     1       0.579  53.193 -22.455  1.00  0.00     0.087 A 
HETATM   44  C28 UNL     1       1.148  53.410 -21.128  1.00  0.00     0.283 A 
HETATM   45  O5  UNL     1       2.183  54.005 -20.905  1.00  0.00    -0.260 OA
HETATM   46  O6  UNL     1       0.347  52.828 -20.202  1.00  0.00    -0.314 OA
HETATM   47  C29 UNL     1      -0.740  52.183 -20.861  1.00  0.00     0.213 A 
ENDBRANCH  15  42
TORSDOF 9
ENDMDL
MODEL 5
REMARK minimizedAffinity -8.15123558
REMARK CNNscore 0.229958043
REMARK CNNaffinity 5.85012865
REMARK  9 active torsions:
REMARK  status: ('A' for Active; 'I' for Inactive)
REMARK    1  A    between atoms: C7_8  and  O1_9 
REMARK    2  A    between atoms: O1_9  and  C8_10 
REMARK    3  A    between atoms: C8_10  and  C9_11 
REMARK       I    between atoms: C9_11  and  N1_13 
REMARK    4  A    between atoms: N1_13  and  N2_14 
REMARK    5  A    between atoms: C10_16  and  C11_17 
REMARK    6  A    between atoms: C14_20  and  O3_21 
REMARK    7  A    between atoms: C16_23  and  O4_24 
REMARK    8  A    between atoms: C25_33  and  C26_34 
REMARK    9  A    between atoms: C32_42  and  O7_43 
ROOT
HETATM    1  C11 UNL     1      -9.397  47.437 -29.625  1.00  0.00     0.028 C 
HETATM    2  C12 UNL     1      -9.288  48.842 -30.286  1.00  0.00     0.021 C 
HETATM    3  C13 UNL     1      -8.337  48.855 -31.493  1.00  0.00     0.033 C 
HETATM    4  C14 UNL     1      -6.963  48.255 -31.207  1.00  0.00     0.121 C 
HETATM    5  C15 UNL     1      -7.034  46.906 -30.477  1.00  0.00     0.070 C 
HETATM    6  C16 UNL     1      -7.949  46.980 -29.234  1.00  0.00     0.073 C 
HETATM    7  C17 UNL     1      -7.911  45.673 -28.427  1.00  0.00     0.039 C 
HETATM    8  C18 UNL     1      -8.844  45.712 -27.216  1.00  0.00     0.011 C 
HETATM    9  C19 UNL     1     -10.286  46.107 -27.583  1.00  0.00     0.026 C 
HETATM   10  C20 UNL     1     -10.319  47.471 -28.353  1.00  0.00     0.009 C 
HETATM   11  C21 UNL     1     -11.769  47.960 -28.624  1.00  0.00     0.007 C 
HETATM   12  C22 UNL     1     -12.682  47.918 -27.387  1.00  0.00     0.013 C 
HETATM   13  C23 UNL     1     -12.668  46.535 -26.717  1.00  0.00    -0.005 C 
HETATM   14  C24 UNL     1     -13.335  45.507 -27.667  1.00  0.00     0.019 C 
HETATM   15  C25 UNL     1     -13.331  46.462 -25.305  1.00  0.00     0.028 C 
HETATM   16  C30 UNL     1     -12.644  45.215 -24.666  1.00  0.00     0.013 C 
HETATM   17  C31 UNL     1     -11.345  44.961 -25.459  1.00  0.00     0.040 C 
HETATM   18  C32 UNL     1     -11.197  46.194 -26.345  1.00  0.00     0.070 C 
ENDROOT
BRANCH   1  19
HETATM   19  C10 UNL     1     -10.061  46.530 -30.681  1.00  0.00     0.093 C 
HETATM   20  N2  UNL     1     -10.783  46.990 -31.652  1.00  0.00    -0.312 N 
ATOM     21  H2  UNL     1     -10.893  47.993 -31.800  1.00  0.00     0.185 HD
BRANCH  20  22
HETATM   22  N1  UNL     1     -11.395  46.081 -32.477  1.00  0.00    -0.269 N 
HETATM   23  C9  UNL     1     -10.746  45.467 -33.555  1.00  0.00     0.260 C 
HETATM   24  O2  UNL     1      -9.643  45.794 -33.988  1.00  0.00    -0.269 OA
HETATM   25  H9  UNL     1     -12.113  45.543 -32.004  1.00  0.00     0.190 HD
BRANCH  23  26
HETATM   26  C8  UNL     1     -11.567  44.312 -34.139  1.00  0.00     0.280 C 
BRANCH  26  27
HETATM   27  O1  UNL     1     -12.461  44.672 -35.180  1.00  0.00    -0.342 OA
BRANCH  27  28
HETATM   28  C7  UNL     1     -11.946  45.227 -36.320  1.00  0.00     0.075 A 
HETATM   29  C2  UNL     1     -12.462  46.494 -36.667  1.00  0.00    -0.027 A 
HETATM   30  C1  UNL     1     -13.521  47.151 -35.830  1.00  0.00     0.051 C 
HETATM   31  C3  UNL     1     -11.996  47.136 -37.825  1.00  0.00     0.033 A 
HETATM   32  C4  UNL     1     -11.020  46.537 -38.614  1.00  0.00     0.034 A 
HETATM   33 CL1  UNL     1     -10.453  47.335 -40.025  1.00  0.00    -0.084 Cl
HETATM   34  C5  UNL     1     -10.495  45.297 -38.261  1.00  0.00     0.026 A 
HETATM   35  C6  UNL     1     -10.951  44.646 -37.110  1.00  0.00     0.039 A 
ENDBRANCH  27  28
ENDBRANCH  26  27
ENDBRANCH  23  26
ENDBRANCH  20  22
ENDBRANCH   1  19
BRANCH   6  36
HETATM   36  O4  UNL     1      -7.319  47.977 -28.388  1.00  0.00    -0.389 OA
HETATM   37  H19 UNL     1      -7.924  48.218 -27.651  1.00  0.00     0.210 HD
ENDBRANCH   6  36
BRANCH   4  38
HETATM   38  O3  UNL     1      -6.206  49.195 -30.448  1.00  0.00    -0.395 OA
HETATM   39  H16 UNL     1      -6.360  48.983 -29.501  1.00  0.00     0.210 HD
ENDBRANCH   4  38
BRANCH  18  40
HETATM   40  O7  UNL     1     -10.675  47.249 -25.504  1.00  0.00    -0.389 OA
HETATM   41  H41 UNL     1      -9.928  46.901 -24.987  1.00  0.00     0.210 HD
ENDBRANCH  18  40
BRANCH  15  42
HETATM   42  C26 UNL     1     -14.833  46.493 -25.231  1.00  0.00    -0.045 A 
HETATM   43  C27 UNL     1     -15.725  45.674 -25.789  1.00  0.00     0.087 A 
HETATM   44  C28 UNL     1     -17.050  46.109 -25.357  1.00  0.00     0.283 A 
HETATM   45  O5  UNL     1     -18.096  45.607 -25.717  1.00  0.00    -0.260 OA
HETATM   46  O6  UNL     1     -16.919  47.162 -24.514  1.00  0.00    -0.314 OA
HETATM   47  C29 UNL     1     -15.537  47.488 -24.384  1.00  0.00     0.213 A 
ENDBRANCH  15  42
TORSDOF 9
ENDMDL
MODEL 6
REMARK minimizedAffinity -10.5834837
REMARK CNNscore 0.204529315
REMARK CNNaffinity 7.13669062
REMARK  9 active torsions:
REMARK  status: ('A' for Active; 'I' for Inactive)
REMARK    1  A    between atoms: C7_8  and  O1_9 
REMARK    2  A    between atoms: O1_9  and  C8_10 
REMARK    3  A    between atoms: C8_10  and  C9_11 
REMARK       I    between atoms: C9_11  and  N1_13 
REMARK    4  A    between atoms: N1_13  and  N2_14 
REMARK    5  A    between atoms: C10_16  and  C11_17 
REMARK    6  A    between atoms: C14_20  and  O3_21 
REMARK    7  A    between atoms: C16_23  and  O4_24 
REMARK    8  A    between atoms: C25_33  and  C26_34 
REMARK    9  A    between atoms: C32_42  and  O7_43 
ROOT
HETATM    1  C11 UNL     1      -5.853  49.178 -21.058  1.00  0.00     0.028 C 
HETATM    2  C12 UNL     1      -6.825  50.100 -20.265  1.00  0.00     0.021 C 
HETATM    3  C13 UNL     1      -7.495  49.378 -19.086  1.00  0.00     0.033 C 
HETATM    4  C14 UNL     1      -8.151  48.052 -19.463  1.00  0.00     0.121 C 
HETATM    5  C15 UNL     1      -7.249  47.154 -20.320  1.00  0.00     0.070 C 
HETATM    6  C16 UNL     1      -6.665  47.921 -21.527  1.00  0.00     0.073 C 
HETATM    7  C17 UNL     1      -5.875  46.989 -22.459  1.00  0.00     0.039 C 
HETATM    8  C18 UNL     1      -5.253  47.740 -23.638  1.00  0.00     0.011 C 
HETATM    9  C19 UNL     1      -4.407  48.948 -23.199  1.00  0.00     0.026 C 
HETATM   10  C20 UNL     1      -5.240  49.923 -22.298  1.00  0.00     0.009 C 
HETATM   11  C21 UNL     1      -4.453  51.216 -21.945  1.00  0.00     0.007 C 
HETATM   12  C22 UNL     1      -3.794  51.895 -23.158  1.00  0.00     0.013 C 
HETATM   13  C23 UNL     1      -2.931  50.909 -23.961  1.00  0.00    -0.005 C 
HETATM   14  C24 UNL     1      -1.710  50.491 -23.101  1.00  0.00     0.019 C 
HETATM   15  C25 UNL     1      -2.448  51.416 -25.357  1.00  0.00     0.028 C 
HETATM   16  C30 UNL     1      -2.180  50.089 -26.132  1.00  0.00     0.013 C 
HETATM   17  C31 UNL     1      -2.957  48.974 -25.400  1.00  0.00     0.040 C 
HETATM   18  C32 UNL     1      -3.835  49.722 -24.401  1.00  0.00     0.070 C 
ENDROOT
BRANCH   1  19
HETATM   19  C10 UNL     1      -4.710  48.839 -20.081  1.00  0.00     0.093 C 
HETATM   20  N2  UNL     1      -4.328  49.638 -19.137  1.00  0.00    -0.312 N 
ATOM     21  H2  UNL     1      -4.818  50.514 -18.956  1.00  0.00     0.185 HD
BRANCH  20  22
HETATM   22  N1  UNL     1      -3.242  49.265 -18.387  1.00  0.00    -0.269 N 
HETATM   23  C9  UNL     1      -2.745  50.031 -17.327  1.00  0.00     0.260 C 
HETATM   24  O2  UNL     1      -3.100  51.178 -17.063  1.00  0.00    -0.269 OA
HETATM   25  H9  UNL     1      -3.139  48.259 -18.318  1.00  0.00     0.190 HD
BRANCH  23  26
HETATM   26  C8  UNL     1      -1.703  49.266 -16.502  1.00  0.00     0.280 C 
BRANCH  26  27
HETATM   27  O1  UNL     1      -0.362  49.411 -16.939  1.00  0.00    -0.342 OA
BRANCH  27  28
HETATM   28  C7  UNL     1      -0.061  50.433 -17.797  1.00  0.00     0.075 A 
HETATM   29  C2  UNL     1       0.578  51.549 -17.216  1.00  0.00    -0.027 A 
HETATM   30  C1  UNL     1       0.872  51.589 -15.744  1.00  0.00     0.051 C 
HETATM   31  C3  UNL     1       0.918  52.647 -18.020  1.00  0.00     0.033 A 
HETATM   32  C4  UNL     1       0.646  52.628 -19.384  1.00  0.00     0.034 A 
HETATM   33 CL1  UNL     1       1.073  53.975 -20.360  1.00  0.00    -0.084 Cl
HETATM   34  C5  UNL     1       0.036  51.518 -19.963  1.00  0.00     0.026 A 
HETATM   35  C6  UNL     1      -0.309  50.418 -19.172  1.00  0.00     0.039 A 
ENDBRANCH  27  28
ENDBRANCH  26  27
ENDBRANCH  23  26
ENDBRANCH  20  22
ENDBRANCH   1  19
BRANCH   6  36
HETATM   36  O4  UNL     1      -7.832  48.331 -22.286  1.00  0.00    -0.389 OA
HETATM   37  H19 UNL     1      -7.568  48.974 -22.981  1.00  0.00     0.210 HD
ENDBRANCH   6  36
BRANCH   4  38
HETATM   38  O3  UNL     1      -9.374  48.329 -20.143  1.00  0.00    -0.395 OA
HETATM   39  H16 UNL     1      -9.163  48.355 -21.102  1.00  0.00     0.210 HD
ENDBRANCH   4  38
BRANCH  18  40
HETATM   40  O7  UNL     1      -4.958  50.246 -25.145  1.00  0.00    -0.389 OA
HETATM   41  H41 UNL     1      -5.318  49.542 -25.712  1.00  0.00     0.210 HD
ENDBRANCH  18  40
BRANCH  15  42
HETATM   42  C26 UNL     1      -1.339  52.431 -25.391  1.00  0.00    -0.045 A 
HETATM   43  C27 UNL     1      -0.713  53.035 -24.381  1.00  0.00     0.087 A 
HETATM   44  C28 UNL     1       0.326  53.886 -24.954  1.00  0.00     0.283 A 
HETATM   45  O5  UNL     1       1.058  54.614 -24.314  1.00  0.00    -0.260 OA
HETATM   46  O6  UNL     1       0.323  53.743 -26.302  1.00  0.00    -0.314 OA
HETATM   47  C29 UNL     1      -0.717  52.843 -26.675  1.00  0.00     0.213 A 
ENDBRANCH  15  42
TORSDOF 9
ENDMDL
MODEL 7
REMARK minimizedAffinity -10.2309732
REMARK CNNscore 0.200760916
REMARK CNNaffinity 6.8157897
REMARK  9 active torsions:
REMARK  status: ('A' for Active; 'I' for Inactive)
REMARK    1  A    between atoms: C7_8  and  O1_9 
REMARK    2  A    between atoms: O1_9  and  C8_10 
REMARK    3  A    between atoms: C8_10  and  C9_11 
REMARK       I    between atoms: C9_11  and  N1_13 
REMARK    4  A    between atoms: N1_13  and  N2_14 
REMARK    5  A    between atoms: C10_16  and  C11_17 
REMARK    6  A    between atoms: C14_20  and  O3_21 
REMARK    7  A    between atoms: C16_23  and  O4_24 
REMARK    8  A    between atoms: C25_33  and  C26_34 
REMARK    9  A    between atoms: C32_42  and  O7_43 
ROOT
HETATM    1  C11 UNL     1      -5.853  49.233 -21.084  1.00  0.00     0.028 C 
HETATM    2  C12 UNL     1      -6.860  50.155 -20.338  1.00  0.00     0.021 C 
HETATM    3  C13 UNL     1      -7.531  49.455 -19.145  1.00  0.00     0.033 C 
HETATM    4  C14 UNL     1      -8.147  48.101 -19.488  1.00  0.00     0.121 C 
HETATM    5  C15 UNL     1      -7.209  47.199 -20.301  1.00  0.00     0.070 C 
HETATM    6  C16 UNL     1      -6.625  47.941 -21.524  1.00  0.00     0.073 C 
HETATM    7  C17 UNL     1      -5.797  47.000 -22.412  1.00  0.00     0.039 C 
HETATM    8  C18 UNL     1      -5.175  47.727 -23.606  1.00  0.00     0.011 C 
HETATM    9  C19 UNL     1      -4.367  48.970 -23.194  1.00  0.00     0.026 C 
HETATM   10  C20 UNL     1      -5.239  49.952 -22.340  1.00  0.00     0.009 C 
HETATM   11  C21 UNL     1      -4.490  51.276 -22.018  1.00  0.00     0.007 C 
HETATM   12  C22 UNL     1      -3.830  51.932 -23.243  1.00  0.00     0.013 C 
HETATM   13  C23 UNL     1      -2.929  50.943 -23.999  1.00  0.00    -0.005 C 
HETATM   14  C24 UNL     1      -1.712  50.585 -23.107  1.00  0.00     0.019 C 
HETATM   15  C25 UNL     1      -2.437  51.416 -25.404  1.00  0.00     0.028 C 
HETATM   16  C30 UNL     1      -2.123  50.072 -26.130  1.00  0.00     0.013 C 
HETATM   17  C31 UNL     1      -2.883  48.962 -25.373  1.00  0.00     0.040 C 
HETATM   18  C32 UNL     1      -3.796  49.719 -24.412  1.00  0.00     0.070 C 
ENDROOT
BRANCH   1  19
HETATM   19  C10 UNL     1      -4.717  48.956 -20.079  1.00  0.00     0.093 C 
HETATM   20  N2  UNL     1      -4.540  49.656 -19.005  1.00  0.00    -0.312 N 
ATOM     21  H2  UNL     1      -5.193  50.393 -18.741  1.00  0.00     0.185 HD
BRANCH  20  22
HETATM   22  N1  UNL     1      -3.442  49.371 -18.234  1.00  0.00    -0.269 N 
HETATM   23  C9  UNL     1      -2.630  50.358 -17.664  1.00  0.00     0.260 C 
HETATM   24  O2  UNL     1      -2.695  51.558 -17.927  1.00  0.00    -0.269 OA
HETATM   25  H9  UNL     1      -3.535  48.500 -17.723  1.00  0.00     0.190 HD
BRANCH  23  26
HETATM   26  C8  UNL     1      -1.643  49.776 -16.646  1.00  0.00     0.280 C 
BRANCH  26  27
HETATM   27  O1  UNL     1      -1.140  50.700 -15.695  1.00  0.00    -0.342 OA
BRANCH  27  28
HETATM   28  C7  UNL     1       0.131  51.181 -15.858  1.00  0.00     0.075 A 
HETATM   29  C2  UNL     1       1.021  50.924 -14.795  1.00  0.00    -0.027 A 
HETATM   30  C1  UNL     1       0.565  50.187 -13.568  1.00  0.00     0.051 C 
HETATM   31  C3  UNL     1       2.344  51.385 -14.873  1.00  0.00     0.033 A 
HETATM   32  C4  UNL     1       2.779  52.074 -16.000  1.00  0.00     0.034 A 
HETATM   33 CL1  UNL     1       4.403  52.629 -16.088  1.00  0.00    -0.084 Cl
HETATM   34  C5  UNL     1       1.908  52.311 -17.060  1.00  0.00     0.026 A 
HETATM   35  C6  UNL     1       0.587  51.857 -16.993  1.00  0.00     0.039 A 
ENDBRANCH  27  28
ENDBRANCH  26  27
ENDBRANCH  23  26
ENDBRANCH  20  22
ENDBRANCH   1  19
BRANCH   6  36
HETATM   36  O4  UNL     1      -7.790  48.295 -22.314  1.00  0.00    -0.389 OA
HETATM   37  H19 UNL     1      -7.531  48.922 -23.025  1.00  0.00     0.210 HD
ENDBRANCH   6  36
BRANCH   4  38
HETATM   38  O3  UNL     1      -9.365  48.324 -20.195  1.00  0.00    -0.395 OA
HETATM   39  H16 UNL     1      -9.139  48.324 -21.151  1.00  0.00     0.210 HD
ENDBRANCH   4  38
BRANCH  18  40
HETATM   40  O7  UNL     1      -4.919  50.189 -25.191  1.00  0.00    -0.389 OA
HETATM   41  H41 UNL     1      -5.252  49.457 -25.739  1.00  0.00     0.210 HD
ENDBRANCH  18  40
BRANCH  15  42
HETATM   42  C26 UNL     1      -1.354  52.458 -25.455  1.00  0.00    -0.045 A 
HETATM   43  C27 UNL     1      -0.743  53.093 -24.455  1.00  0.00     0.087 A 
HETATM   44  C28 UNL     1       0.274  53.961 -25.042  1.00  0.00     0.283 A 
HETATM   45  O5  UNL     1       0.988  54.717 -24.414  1.00  0.00    -0.260 OA
HETATM   46  O6  UNL     1       0.275  53.797 -26.387  1.00  0.00    -0.314 OA
HETATM   47  C29 UNL     1      -0.743  52.864 -26.745  1.00  0.00     0.213 A 
ENDBRANCH  15  42
TORSDOF 9
ENDMDL
MODEL 8
REMARK minimizedAffinity -8.43411064
REMARK CNNscore 0.190906882
REMARK CNNaffinity 5.63199854
REMARK  9 active torsions:
REMARK  status: ('A' for Active; 'I' for Inactive)
REMARK    1  A    between atoms: C7_8  and  O1_9 
REMARK    2  A    between atoms: O1_9  and  C8_10 
REMARK    3  A    between atoms: C8_10  and  C9_11 
REMARK       I    between atoms: C9_11  and  N1_13 
REMARK    4  A    between atoms: N1_13  and  N2_14 
REMARK    5  A    between atoms: C10_16  and  C11_17 
REMARK    6  A    between atoms: C14_20  and  O3_21 
REMARK    7  A    between atoms: C16_23  and  O4_24 
REMARK    8  A    between atoms: C25_33  and  C26_34 
REMARK    9  A    between atoms: C32_42  and  O7_43 
ROOT
HETATM    1  C11 UNL     1      -5.416  49.143 -22.490  1.00  0.00     0.028 C 
HETATM    2  C12 UNL     1      -6.841  49.458 -21.948  1.00  0.00     0.021 C 
HETATM    3  C13 UNL     1      -7.922  48.562 -22.573  1.00  0.00     0.033 C 
HETATM    4  C14 UNL     1      -7.890  48.525 -24.099  1.00  0.00     0.121 C 
HETATM    5  C15 UNL     1      -6.483  48.303 -24.669  1.00  0.00     0.070 C 
HETATM    6  C16 UNL     1      -5.458  49.282 -24.052  1.00  0.00     0.073 C 
HETATM    7  C17 UNL     1      -4.081  49.153 -24.720  1.00  0.00     0.039 C 
HETATM    8  C18 UNL     1      -3.043  50.084 -24.093  1.00  0.00     0.011 C 
HETATM    9  C19 UNL     1      -2.945  49.929 -22.565  1.00  0.00     0.026 C 
HETATM   10  C20 UNL     1      -4.344  50.122 -21.887  1.00  0.00     0.009 C 
HETATM   11  C21 UNL     1      -4.255  50.099 -20.335  1.00  0.00     0.007 C 
HETATM   12  C22 UNL     1      -3.152  51.004 -19.761  1.00  0.00     0.013 C 
HETATM   13  C23 UNL     1      -1.789  50.719 -20.409  1.00  0.00    -0.005 C 
HETATM   14  C24 UNL     1      -1.318  49.302 -19.991  1.00  0.00     0.019 C 
HETATM   15  C25 UNL     1      -0.666  51.762 -20.108  1.00  0.00     0.028 C 
HETATM   16  C30 UNL     1       0.308  51.578 -21.312  1.00  0.00     0.013 C 
HETATM   17  C31 UNL     1      -0.489  50.878 -22.434  1.00  0.00     0.040 C 
HETATM   18  C32 UNL     1      -1.935  50.912 -21.946  1.00  0.00     0.070 C 
ENDROOT
BRANCH   1  19
HETATM   19  C10 UNL     1      -5.093  47.714 -22.010  1.00  0.00     0.093 C 
HETATM   20  N2  UNL     1      -5.625  47.187 -20.954  1.00  0.00    -0.312 N 
ATOM     21  H2  UNL     1      -6.340  47.681 -20.421  1.00  0.00     0.185 HD
BRANCH  20  22
HETATM   22  N1  UNL     1      -5.193  45.942 -20.577  1.00  0.00    -0.269 N 
HETATM   23  C9  UNL     1      -5.838  45.170 -19.605  1.00  0.00     0.260 C 
HETATM   24  O2  UNL     1      -6.734  45.576 -18.868  1.00  0.00    -0.269 OA
HETATM   25  H9  UNL     1      -4.727  45.443 -21.328  1.00  0.00     0.190 HD
BRANCH  23  26
HETATM   26  C8  UNL     1      -5.310  43.731 -19.567  1.00  0.00     0.280 C 
BRANCH  26  27
HETATM   27  O1  UNL     1      -6.303  42.725 -19.451  1.00  0.00    -0.342 OA
BRANCH  27  28
HETATM   28  C7  UNL     1      -6.688  42.052 -20.578  1.00  0.00     0.075 A 
HETATM   29  C2  UNL     1      -6.357  40.681 -20.613  1.00  0.00    -0.027 A 
HETATM   30  C1  UNL     1      -5.609  40.040 -19.479  1.00  0.00     0.051 C 
HETATM   31  C3  UNL     1      -6.707  39.914 -21.733  1.00  0.00     0.033 A 
HETATM   32  C4  UNL     1      -7.393  40.495 -22.794  1.00  0.00     0.034 A 
HETATM   33 CL1  UNL     1      -7.822  39.544 -24.159  1.00  0.00    -0.084 Cl
HETATM   34  C5  UNL     1      -7.740  41.843 -22.752  1.00  0.00     0.026 A 
HETATM   35  C6  UNL     1      -7.396  42.619 -21.641  1.00  0.00     0.039 A 
ENDBRANCH  27  28
ENDBRANCH  26  27
ENDBRANCH  23  26
ENDBRANCH  20  22
ENDBRANCH   1  19
BRANCH   6  36
HETATM   36  O4  UNL     1      -5.951  50.594 -24.427  1.00  0.00    -0.389 OA
HETATM   37  H19 UNL     1      -5.459  51.288 -23.932  1.00  0.00     0.210 HD
ENDBRANCH   6  36
BRANCH   4  38
HETATM   38  O3  UNL     1      -8.444  49.743 -24.593  1.00  0.00    -0.395 OA
HETATM   39  H16 UNL     1      -7.693  50.364 -24.715  1.00  0.00     0.210 HD
ENDBRANCH   4  38
BRANCH  18  40
HETATM   40  O7  UNL     1      -2.427  52.248 -22.200  1.00  0.00    -0.389 OA
HETATM   41  H41 UNL     1      -2.191  52.504 -23.108  1.00  0.00     0.210 HD
ENDBRANCH  18  40
BRANCH  15  42
HETATM   42  C26 UNL     1      -0.034  51.740 -18.744  1.00  0.00    -0.045 A 
HETATM   43  C27 UNL     1      -0.200  50.869 -17.748  1.00  0.00     0.087 A 
HETATM   44  C28 UNL     1       0.691  51.269 -16.662  1.00  0.00     0.283 A 
HETATM   45  O5  UNL     1       0.760  50.716 -15.583  1.00  0.00    -0.260 OA
HETATM   46  O6  UNL     1       1.403  52.355 -17.050  1.00  0.00    -0.314 OA
HETATM   47  C29 UNL     1       0.998  52.736 -18.362  1.00  0.00     0.213 A 
ENDBRANCH  15  42
TORSDOF 9
ENDMDL
MODEL 9
REMARK minimizedAffinity -8.10888672
REMARK CNNscore 0.181529403
REMARK CNNaffinity 5.6845355
REMARK  9 active torsions:
REMARK  status: ('A' for Active; 'I' for Inactive)
REMARK    1  A    between atoms: C7_8  and  O1_9 
REMARK    2  A    between atoms: O1_9  and  C8_10 
REMARK    3  A    between atoms: C8_10  and  C9_11 
REMARK       I    between atoms: C9_11  and  N1_13 
REMARK    4  A    between atoms: N1_13  and  N2_14 
REMARK    5  A    between atoms: C10_16  and  C11_17 
REMARK    6  A    between atoms: C14_20  and  O3_21 
REMARK    7  A    between atoms: C16_23  and  O4_24 
REMARK    8  A    between atoms: C25_33  and  C26_34 
REMARK    9  A    between atoms: C32_42  and  O7_43 
ROOT
HETATM    1  C11 UNL     1      -5.378  49.041 -22.556  1.00  0.00     0.028 C 
HETATM    2  C12 UNL     1      -6.809  49.345 -22.024  1.00  0.00     0.021 C 
HETATM    3  C13 UNL     1      -7.882  48.457 -22.674  1.00  0.00     0.033 C 
HETATM    4  C14 UNL     1      -7.835  48.443 -24.199  1.00  0.00     0.121 C 
HETATM    5  C15 UNL     1      -6.421  48.231 -24.758  1.00  0.00     0.070 C 
HETATM    6  C16 UNL     1      -5.404  49.202 -24.116  1.00  0.00     0.073 C 
HETATM    7  C17 UNL     1      -4.021  49.085 -24.772  1.00  0.00     0.039 C 
HETATM    8  C18 UNL     1      -2.990  50.008 -24.120  1.00  0.00     0.011 C 
HETATM    9  C19 UNL     1      -2.908  49.830 -22.593  1.00  0.00     0.026 C 
HETATM   10  C20 UNL     1      -4.314  50.012 -21.928  1.00  0.00     0.009 C 
HETATM   11  C21 UNL     1      -4.241  49.966 -20.375  1.00  0.00     0.007 C 
HETATM   12  C22 UNL     1      -3.146  50.864 -19.776  1.00  0.00     0.013 C 
HETATM   13  C23 UNL     1      -1.775  50.591 -20.415  1.00  0.00    -0.005 C 
HETATM   14  C24 UNL     1      -1.306  49.168 -20.012  1.00  0.00     0.019 C 
HETATM   15  C25 UNL     1      -0.657  51.631 -20.086  1.00  0.00     0.028 C 
HETATM   16  C30 UNL     1       0.329  51.465 -21.283  1.00  0.00     0.013 C 
HETATM   17  C31 UNL     1      -0.455  50.781 -22.423  1.00  0.00     0.040 C 
HETATM   18  C32 UNL     1      -1.905  50.806 -21.949  1.00  0.00     0.070 C 
ENDROOT
BRANCH   1  19
HETATM   19  C10 UNL     1      -5.058  47.605 -22.094  1.00  0.00     0.093 C 
HETATM   20  N2  UNL     1      -5.366  47.157 -20.919  1.00  0.00    -0.312 N 
ATOM     21  H2  UNL     1      -5.898  47.724 -20.261  1.00  0.00     0.185 HD
BRANCH  20  22
HETATM   22  N1  UNL     1      -4.950  45.892 -20.592  1.00  0.00    -0.269 N 
HETATM   23  C9  UNL     1      -4.059  45.626 -19.545  1.00  0.00     0.260 C 
HETATM   24  O2  UNL     1      -3.424  46.481 -18.931  1.00  0.00    -0.269 OA
HETATM   25  H9  UNL     1      -5.647  45.184 -20.795  1.00  0.00     0.190 HD
BRANCH  23  26
HETATM   26  C8  UNL     1      -3.972  44.128 -19.230  1.00  0.00     0.280 C 
BRANCH  26  27
HETATM   27  O1  UNL     1      -4.504  43.744 -17.972  1.00  0.00    -0.342 OA
BRANCH  27  28
HETATM   28  C7  UNL     1      -5.651  42.997 -17.949  1.00  0.00     0.075 A 
HETATM   29  C2  UNL     1      -5.544  41.735 -17.328  1.00  0.00    -0.027 A 
HETATM   30  C1  UNL     1      -4.236  41.263 -16.760  1.00  0.00     0.051 C 
HETATM   31  C3  UNL     1      -6.669  40.899 -17.263  1.00  0.00     0.033 A 
HETATM   32  C4  UNL     1      -7.885  41.320 -17.790  1.00  0.00     0.034 A 
HETATM   33 CL1  UNL     1      -9.258  40.290 -17.699  1.00  0.00    -0.084 Cl
HETATM   34  C5  UNL     1      -7.998  42.574 -18.384  1.00  0.00     0.026 A 
HETATM   35  C6  UNL     1      -6.884  43.416 -18.456  1.00  0.00     0.039 A 
ENDBRANCH  27  28
ENDBRANCH  26  27
ENDBRANCH  23  26
ENDBRANCH  20  22
ENDBRANCH   1  19
BRANCH   6  36
HETATM   36  O4  UNL     1      -5.895  50.520 -24.476  1.00  0.00    -0.389 OA
HETATM   37  H19 UNL     1      -5.410  51.206 -23.967  1.00  0.00     0.210 HD
ENDBRANCH   6  36
BRANCH   4  38
HETATM   38  O3  UNL     1      -8.385  49.667 -24.681  1.00  0.00    -0.395 OA
HETATM   39  H16 UNL     1      -7.634  50.291 -24.787  1.00  0.00     0.210 HD
ENDBRANCH   4  38
BRANCH  18  40
HETATM   40  O7  UNL     1      -2.397  52.144 -22.189  1.00  0.00    -0.389 OA
HETATM   41  H41 UNL     1      -2.152  52.415 -23.091  1.00  0.00     0.210 HD
ENDBRANCH  18  40
BRANCH  15  42
HETATM   42  C26 UNL     1      -0.039  51.589 -18.716  1.00  0.00    -0.045 A 
HETATM   43  C27 UNL     1      -0.073  50.620 -17.801  1.00  0.00     0.087 A 
HETATM   44  C28 UNL     1       0.736  51.058 -16.668  1.00  0.00     0.283 A 
HETATM   45  O5  UNL     1       0.884  50.431 -15.638  1.00  0.00    -0.260 OA
HETATM   46  O6  UNL     1       1.271  52.271 -16.947  1.00  0.00    -0.314 OA
HETATM   47  C29 UNL     1       0.820  52.698 -18.230  1.00  0.00     0.213 A 
ENDBRANCH  15  42
TORSDOF 9
ENDMDL
