MODEL 1
REMARK minimizedAffinity -6.96976471
REMARK CNNscore 0.672438145
REMARK CNNaffinity 6.11133718
REMARK  3 active torsions:
REMARK  status: ('A' for Active; 'I' for Inactive)
REMARK    1  A    between atoms: C7_7  and  C8_8 
REMARK    2  A    between atoms: C8_8  and  O2_10 
REMARK    3  A    between atoms: C21_23  and  O3_24 
ROOT
HETATM    1  C1  UNL     1     -17.232  46.586 -21.545  1.00  0.00     0.011 C 
HETATM    2  C2  UNL     1     -17.656  45.385 -22.415  1.00  0.00    -0.005 C 
HETATM    3  C3  UNL     1     -19.179  45.137 -22.282  1.00  0.00    -0.014 C 
HETATM    4  C4  UNL     1     -19.616  44.844 -20.841  1.00  0.00     0.010 C 
HETATM    5  C5  UNL     1     -19.638  43.984 -23.183  1.00  0.00     0.006 C 
HETATM    6  C6  UNL     1     -18.946  43.925 -24.543  1.00  0.00     0.021 C 
HETATM    7  C7  UNL     1     -18.248  45.235 -24.964  1.00  0.00     0.053 C 
HETATM    8  C9  UNL     1     -17.710  45.107 -26.415  1.00  0.00     0.022 C 
HETATM    9  C10 UNL     1     -16.258  45.555 -26.570  1.00  0.00     0.016 C 
HETATM   10  C11 UNL     1     -15.286  44.802 -25.626  1.00  0.00    -0.013 C 
HETATM   11  C12 UNL     1     -15.421  43.275 -25.931  1.00  0.00     0.021 C 
HETATM   12  C13 UNL     1     -15.730  45.006 -24.167  1.00  0.00    -0.069 C 
HETATM   13  C14 UNL     1     -14.819  44.812 -23.188  1.00  0.00    -0.022 C 
HETATM   14  C15 UNL     1     -13.355  44.520 -23.372  1.00  0.00     0.033 C 
HETATM   15  C16 UNL     1     -12.843  44.480 -24.830  1.00  0.00     0.007 C 
HETATM   16  C17 UNL     1     -11.271  44.653 -24.992  1.00  0.00    -0.035 C 
HETATM   17  C18 UNL     1     -10.787  46.046 -24.520  1.00  0.00     0.016 C 
HETATM   18  C19 UNL     1     -10.559  43.579 -24.116  1.00  0.00     0.012 C 
HETATM   19  C20 UNL     1      -9.068  43.426 -24.405  1.00  0.00     0.033 C 
HETATM   20  C21 UNL     1      -8.788  43.147 -25.879  1.00  0.00     0.126 C 
HETATM   21  C22 UNL     1      -9.407  44.199 -26.847  1.00  0.00    -0.017 C 
HETATM   22  C23 UNL     1      -8.622  45.525 -26.813  1.00  0.00     0.018 C 
HETATM   23  C24 UNL     1      -9.248  43.644 -28.290  1.00  0.00     0.018 C 
HETATM   24  C25 UNL     1     -10.935  44.351 -26.502  1.00  0.00     0.004 C 
HETATM   25  C26 UNL     1     -11.732  45.275 -27.446  1.00  0.00     0.007 C 
HETATM   26  C27 UNL     1     -13.246  45.105 -27.260  1.00  0.00     0.011 C 
HETATM   27  C28 UNL     1     -13.755  45.315 -25.807  1.00  0.00    -0.028 C 
HETATM   28  C29 UNL     1     -13.683  46.842 -25.511  1.00  0.00     0.016 C 
HETATM   29  C30 UNL     1     -17.149  45.595 -23.901  1.00  0.00     0.038 C 
ENDROOT
BRANCH   7  30
HETATM   30  C8  UNL     1     -19.262  46.388 -25.051  1.00  0.00     0.149 C 
HETATM   31  O1  UNL     1     -20.460  46.297 -25.267  1.00  0.00    -0.649 OA
BRANCH  30  32
HETATM   32  O2  UNL     1     -18.731  47.601 -24.791  1.00  0.00    -0.776 OA
HETATM   33  H13 UNL     1     -19.499  48.209 -24.850  1.00  0.00     0.167 HD
ENDBRANCH  30  32
ENDBRANCH   7  30
BRANCH  20  34
HETATM   34  O3  UNL     1      -7.376  43.063 -26.069  1.00  0.00    -0.395 OA
HETATM   35  H33 UNL     1      -7.039  42.367 -25.478  1.00  0.00     0.210 HD
ENDBRANCH  20  34
TORSDOF 3
ENDMDL
MODEL 2
REMARK minimizedAffinity -7.32492399
REMARK CNNscore 0.381472051
REMARK CNNaffinity 6.7045517
REMARK  3 active torsions:
REMARK  status: ('A' for Active; 'I' for Inactive)
REMARK    1  A    between atoms: C7_7  and  C8_8 
REMARK    2  A    between atoms: C8_8  and  O2_10 
REMARK    3  A    between atoms: C21_23  and  O3_24 
ROOT
HETATM    1  C1  UNL     1       1.538  55.177  -5.099  1.00  0.00     0.011 C 
HETATM    2  C2  UNL     1       1.990  56.148  -6.208  1.00  0.00    -0.005 C 
HETATM    3  C3  UNL     1       2.860  57.280  -5.608  1.00  0.00    -0.014 C 
HETATM    4  C4  UNL     1       2.123  58.103  -4.543  1.00  0.00     0.010 C 
HETATM    5  C5  UNL     1       3.374  58.228  -6.699  1.00  0.00     0.006 C 
HETATM    6  C6  UNL     1       3.766  57.541  -8.006  1.00  0.00     0.021 C 
HETATM    7  C7  UNL     1       4.002  56.021  -7.884  1.00  0.00     0.053 C 
HETATM    8  C9  UNL     1       4.536  55.459  -9.229  1.00  0.00     0.022 C 
HETATM    9  C10 UNL     1       3.796  54.210  -9.706  1.00  0.00     0.016 C 
HETATM   10  C11 UNL     1       2.268  54.426  -9.845  1.00  0.00    -0.013 C 
HETATM   11  C12 UNL     1       2.047  55.606 -10.847  1.00  0.00     0.021 C 
HETATM   12  C13 UNL     1       1.689  54.876  -8.492  1.00  0.00    -0.069 C 
HETATM   13  C14 UNL     1       0.366  54.709  -8.274  1.00  0.00    -0.022 C 
HETATM   14  C15 UNL     1      -0.610  54.013  -9.182  1.00  0.00     0.033 C 
HETATM   15  C16 UNL     1      -0.025  53.397 -10.473  1.00  0.00     0.007 C 
HETATM   16  C17 UNL     1      -0.933  52.285 -11.156  1.00  0.00    -0.035 C 
HETATM   17  C18 UNL     1      -1.105  51.039 -10.254  1.00  0.00     0.016 C 
HETATM   18  C19 UNL     1      -2.348  52.887 -11.411  1.00  0.00     0.012 C 
HETATM   19  C20 UNL     1      -3.228  52.045 -12.331  1.00  0.00     0.033 C 
HETATM   20  C21 UNL     1      -2.554  51.747 -13.667  1.00  0.00     0.126 C 
HETATM   21  C22 UNL     1      -1.150  51.085 -13.529  1.00  0.00    -0.017 C 
HETATM   22  C23 UNL     1      -1.265  49.607 -13.108  1.00  0.00     0.018 C 
HETATM   23  C24 UNL     1      -0.506  51.078 -14.944  1.00  0.00     0.018 C 
HETATM   24  C25 UNL     1      -0.282  51.963 -12.555  1.00  0.00     0.004 C 
HETATM   25  C26 UNL     1       1.184  51.511 -12.395  1.00  0.00     0.007 C 
HETATM   26  C27 UNL     1       2.040  52.592 -11.718  1.00  0.00     0.011 C 
HETATM   27  C28 UNL     1       1.512  53.074 -10.338  1.00  0.00    -0.028 C 
HETATM   28  C29 UNL     1       1.781  51.930  -9.317  1.00  0.00     0.016 C 
HETATM   29  C30 UNL     1       2.681  55.336  -7.380  1.00  0.00     0.038 C 
ENDROOT
BRANCH   7  30
HETATM   30  C8  UNL     1       5.136  55.724  -6.888  1.00  0.00     0.149 C 
HETATM   31  O1  UNL     1       5.160  54.840  -6.047  1.00  0.00    -0.649 OA
BRANCH  30  32
HETATM   32  O2  UNL     1       6.219  56.512  -7.046  1.00  0.00    -0.776 OA
HETATM   33  H13 UNL     1       6.851  56.178  -6.374  1.00  0.00     0.167 HD
ENDBRANCH  30  32
ENDBRANCH   7  30
BRANCH  20  34
HETATM   34  O3  UNL     1      -3.422  50.922 -14.444  1.00  0.00    -0.395 OA
HETATM   35  H33 UNL     1      -4.268  51.392 -14.540  1.00  0.00     0.210 HD
ENDBRANCH  20  34
TORSDOF 3
ENDMDL
MODEL 3
REMARK minimizedAffinity -7.5423398
REMARK CNNscore 0.347759008
REMARK CNNaffinity 5.62470865
REMARK  3 active torsions:
REMARK  status: ('A' for Active; 'I' for Inactive)
REMARK    1  A    between atoms: C7_7  and  C8_8 
REMARK    2  A    between atoms: C8_8  and  O2_10 
REMARK    3  A    between atoms: C21_23  and  O3_24 
ROOT
HETATM    1  C1  UNL     1      -7.649  46.088 -27.299  1.00  0.00     0.011 C 
HETATM    2  C2  UNL     1      -8.341  46.900 -28.413  1.00  0.00    -0.005 C 
HETATM    3  C3  UNL     1      -7.305  47.345 -29.474  1.00  0.00    -0.014 C 
HETATM    4  C4  UNL     1      -6.184  48.217 -28.893  1.00  0.00     0.010 C 
HETATM    5  C5  UNL     1      -7.977  48.105 -30.626  1.00  0.00     0.006 C 
HETATM    6  C6  UNL     1      -9.342  47.559 -31.038  1.00  0.00     0.021 C 
HETATM    7  C7  UNL     1      -9.627  46.120 -30.559  1.00  0.00     0.053 C 
HETATM    8  C9  UNL     1     -10.970  45.619 -31.156  1.00  0.00     0.022 C 
HETATM    9  C10 UNL     1     -11.902  44.990 -30.122  1.00  0.00     0.016 C 
HETATM   10  C11 UNL     1     -12.223  45.937 -28.937  1.00  0.00    -0.013 C 
HETATM   11  C12 UNL     1     -12.863  47.234 -29.531  1.00  0.00     0.021 C 
HETATM   12  C13 UNL     1     -10.912  46.362 -28.253  1.00  0.00    -0.069 C 
HETATM   13  C14 UNL     1     -10.971  46.818 -26.982  1.00  0.00    -0.022 C 
HETATM   14  C15 UNL     1     -12.190  46.853 -26.100  1.00  0.00     0.033 C 
HETATM   15  C16 UNL     1     -13.489  46.272 -26.703  1.00  0.00     0.007 C 
HETATM   16  C17 UNL     1     -14.603  45.879 -25.640  1.00  0.00    -0.035 C 
HETATM   17  C18 UNL     1     -14.140  44.732 -24.708  1.00  0.00     0.016 C 
HETATM   18  C19 UNL     1     -14.903  47.123 -24.751  1.00  0.00     0.012 C 
HETATM   19  C20 UNL     1     -16.158  46.989 -23.892  1.00  0.00     0.033 C 
HETATM   20  C21 UNL     1     -17.393  46.646 -24.720  1.00  0.00     0.126 C 
HETATM   21  C22 UNL     1     -17.223  45.377 -25.607  1.00  0.00    -0.017 C 
HETATM   22  C23 UNL     1     -17.271  44.089 -24.761  1.00  0.00     0.018 C 
HETATM   23  C24 UNL     1     -18.454  45.312 -26.554  1.00  0.00     0.018 C 
HETATM   24  C25 UNL     1     -15.908  45.538 -26.455  1.00  0.00     0.004 C 
HETATM   25  C26 UNL     1     -15.646  44.414 -27.479  1.00  0.00     0.007 C 
HETATM   26  C27 UNL     1     -14.555  44.808 -28.486  1.00  0.00     0.011 C 
HETATM   27  C28 UNL     1     -13.202  45.231 -27.850  1.00  0.00    -0.028 C 
HETATM   28  C29 UNL     1     -12.524  43.937 -27.309  1.00  0.00     0.016 C 
HETATM   29  C30 UNL     1      -9.567  46.079 -28.990  1.00  0.00     0.038 C 
ENDROOT
BRANCH   7  30
HETATM   30  C8  UNL     1      -8.586  45.141 -31.129  1.00  0.00     0.149 C 
HETATM   31  O1  UNL     1      -7.392  45.115 -30.882  1.00  0.00    -0.649 OA
BRANCH  30  32
HETATM   32  O2  UNL     1      -9.113  44.193 -31.931  1.00  0.00    -0.776 OA
HETATM   33  H13 UNL     1      -8.342  43.640 -32.177  1.00  0.00     0.167 HD
ENDBRANCH  30  32
ENDBRANCH   7  30
BRANCH  20  34
HETATM   34  O3  UNL     1     -18.507  46.496 -23.840  1.00  0.00    -0.395 OA
HETATM   35  H33 UNL     1     -18.602  47.324 -23.338  1.00  0.00     0.210 HD
ENDBRANCH  20  34
TORSDOF 3
ENDMDL
MODEL 4
REMARK minimizedAffinity -7.40173864
REMARK CNNscore 0.34203428
REMARK CNNaffinity 5.68283463
REMARK  3 active torsions:
REMARK  status: ('A' for Active; 'I' for Inactive)
REMARK    1  A    between atoms: C7_7  and  C8_8 
REMARK    2  A    between atoms: C8_8  and  O2_10 
REMARK    3  A    between atoms: C21_23  and  O3_24 
ROOT
HETATM    1  C1  UNL     1      -8.722  45.959 -24.032  1.00  0.00     0.011 C 
HETATM    2  C2  UNL     1      -8.933  46.499 -25.462  1.00  0.00    -0.005 C 
HETATM    3  C3  UNL     1      -7.568  46.793 -26.131  1.00  0.00    -0.014 C 
HETATM    4  C4  UNL     1      -6.732  47.826 -25.363  1.00  0.00     0.010 C 
HETATM    5  C5  UNL     1      -7.746  47.275 -27.576  1.00  0.00     0.006 C 
HETATM    6  C6  UNL     1      -8.867  46.579 -28.345  1.00  0.00     0.021 C 
HETATM    7  C7  UNL     1      -9.334  45.245 -27.728  1.00  0.00     0.053 C 
HETATM    8  C9  UNL     1     -10.364  44.559 -28.666  1.00  0.00     0.022 C 
HETATM    9  C10 UNL     1     -11.625  44.085 -27.946  1.00  0.00     0.016 C 
HETATM   10  C11 UNL     1     -12.351  45.221 -27.181  1.00  0.00    -0.013 C 
HETATM   11  C12 UNL     1     -12.701  46.339 -28.216  1.00  0.00     0.021 C 
HETATM   12  C13 UNL     1     -11.385  45.847 -26.159  1.00  0.00    -0.069 C 
HETATM   13  C14 UNL     1     -11.909  46.534 -25.120  1.00  0.00    -0.022 C 
HETATM   14  C15 UNL     1     -13.368  46.665 -24.778  1.00  0.00     0.033 C 
HETATM   15  C16 UNL     1     -14.356  45.902 -25.689  1.00  0.00     0.007 C 
HETATM   16  C17 UNL     1     -15.793  45.654 -25.058  1.00  0.00    -0.035 C 
HETATM   17  C18 UNL     1     -15.732  44.737 -23.812  1.00  0.00     0.016 C 
HETATM   18  C19 UNL     1     -16.384  47.025 -24.612  1.00  0.00     0.012 C 
HETATM   19  C20 UNL     1     -17.872  46.983 -24.270  1.00  0.00     0.033 C 
HETATM   20  C21 UNL     1     -18.712  46.414 -25.410  1.00  0.00     0.126 C 
HETATM   21  C22 UNL     1     -18.243  45.011 -25.897  1.00  0.00    -0.017 C 
HETATM   22  C23 UNL     1     -18.625  43.909 -24.889  1.00  0.00     0.018 C 
HETATM   23  C24 UNL     1     -19.030  44.691 -27.199  1.00  0.00     0.018 C 
HETATM   24  C25 UNL     1     -16.704  45.084 -26.212  1.00  0.00     0.004 C 
HETATM   25  C26 UNL     1     -16.096  43.803 -26.819  1.00  0.00     0.007 C 
HETATM   26  C27 UNL     1     -14.701  44.061 -27.407  1.00  0.00     0.011 C 
HETATM   27  C28 UNL     1     -13.677  44.679 -26.415  1.00  0.00    -0.028 C 
HETATM   28  C29 UNL     1     -13.273  43.556 -25.414  1.00  0.00     0.016 C 
HETATM   29  C30 UNL     1      -9.867  45.510 -26.274  1.00  0.00     0.038 C 
ENDROOT
BRANCH   7  30
HETATM   30  C8  UNL     1      -8.172  44.239 -27.664  1.00  0.00     0.149 C 
HETATM   31  O1  UNL     1      -7.256  44.125 -28.462  1.00  0.00    -0.649 OA
BRANCH  30  32
HETATM   32  O2  UNL     1      -8.181  43.467 -26.558  1.00  0.00    -0.776 OA
HETATM   33  H13 UNL     1      -7.374  42.918 -26.649  1.00  0.00     0.167 HD
ENDBRANCH  30  32
ENDBRANCH   7  30
BRANCH  20  34
HETATM   34  O3  UNL     1     -20.077  46.368 -24.993  1.00  0.00    -0.395 OA
HETATM   35  H33 UNL     1     -20.339  47.270 -24.739  1.00  0.00     0.210 HD
ENDBRANCH  20  34
TORSDOF 3
ENDMDL
MODEL 5
REMARK minimizedAffinity -6.96818399
REMARK CNNscore 0.334505737
REMARK CNNaffinity 5.92228842
REMARK  3 active torsions:
REMARK  status: ('A' for Active; 'I' for Inactive)
REMARK    1  A    between atoms: C7_7  and  C8_8 
REMARK    2  A    between atoms: C8_8  and  O2_10 
REMARK    3  A    between atoms: C21_23  and  O3_24 
ROOT
HETATM    1  C1  UNL     1      -9.453  44.643 -24.768  1.00  0.00     0.011 C 
HETATM    2  C2  UNL     1      -8.316  45.582 -25.218  1.00  0.00    -0.005 C 
HETATM    3  C3  UNL     1      -8.541  46.033 -26.682  1.00  0.00    -0.014 C 
HETATM    4  C4  UNL     1      -8.594  44.861 -27.671  1.00  0.00     0.010 C 
HETATM    5  C5  UNL     1      -7.454  47.017 -27.136  1.00  0.00     0.006 C 
HETATM    6  C6  UNL     1      -7.006  48.009 -26.066  1.00  0.00     0.021 C 
HETATM    7  C7  UNL     1      -7.985  48.160 -24.883  1.00  0.00     0.053 C 
HETATM    8  C9  UNL     1      -7.504  49.294 -23.938  1.00  0.00     0.022 C 
HETATM    9  C10 UNL     1      -7.486  48.895 -22.464  1.00  0.00     0.016 C 
HETATM   10  C11 UNL     1      -6.625  47.636 -22.186  1.00  0.00    -0.013 C 
HETATM   11  C12 UNL     1      -5.175  47.936 -22.688  1.00  0.00     0.021 C 
HETATM   12  C13 UNL     1      -7.152  46.460 -23.027  1.00  0.00    -0.069 C 
HETATM   13  C14 UNL     1      -6.843  45.204 -22.637  1.00  0.00    -0.022 C 
HETATM   14  C15 UNL     1      -6.117  44.811 -21.379  1.00  0.00     0.033 C 
HETATM   15  C16 UNL     1      -5.725  45.962 -20.426  1.00  0.00     0.007 C 
HETATM   16  C17 UNL     1      -5.412  45.518 -18.932  1.00  0.00    -0.035 C 
HETATM   17  C18 UNL     1      -6.656  44.927 -18.227  1.00  0.00     0.016 C 
HETATM   18  C19 UNL     1      -4.312  44.414 -18.962  1.00  0.00     0.012 C 
HETATM   19  C20 UNL     1      -3.695  44.110 -17.600  1.00  0.00     0.033 C 
HETATM   20  C21 UNL     1      -3.141  45.360 -16.922  1.00  0.00     0.126 C 
HETATM   21  C22 UNL     1      -4.180  46.513 -16.785  1.00  0.00    -0.017 C 
HETATM   22  C23 UNL     1      -5.213  46.212 -15.681  1.00  0.00     0.018 C 
HETATM   23  C24 UNL     1      -3.404  47.774 -16.312  1.00  0.00     0.018 C 
HETATM   24  C25 UNL     1      -4.814  46.779 -18.199  1.00  0.00     0.004 C 
HETATM   25  C26 UNL     1      -5.787  47.975 -18.268  1.00  0.00     0.007 C 
HETATM   26  C27 UNL     1      -6.090  48.376 -19.719  1.00  0.00     0.011 C 
HETATM   27  C28 UNL     1      -6.641  47.231 -20.612  1.00  0.00    -0.028 C 
HETATM   28  C29 UNL     1      -8.108  46.963 -20.164  1.00  0.00     0.016 C 
HETATM   29  C30 UNL     1      -8.158  46.767 -24.179  1.00  0.00     0.038 C 
ENDROOT
BRANCH   7  30
HETATM   30  C8  UNL     1      -9.359  48.652 -25.372  1.00  0.00     0.149 C 
HETATM   31  O1  UNL     1     -10.429  48.080 -25.246  1.00  0.00    -0.649 OA
BRANCH  30  32
HETATM   32  O2  UNL     1      -9.329  49.876 -25.937  1.00  0.00    -0.776 OA
HETATM   33  H13 UNL     1     -10.268  50.055 -26.158  1.00  0.00     0.167 HD
ENDBRANCH  30  32
ENDBRANCH   7  30
BRANCH  20  34
HETATM   34  O3  UNL     1      -2.626  44.996 -15.641  1.00  0.00    -0.395 OA
HETATM   35  H33 UNL     1      -1.953  44.307 -15.778  1.00  0.00     0.210 HD
ENDBRANCH  20  34
TORSDOF 3
ENDMDL
MODEL 6
REMARK minimizedAffinity -7.0449028
REMARK CNNscore 0.313994199
REMARK CNNaffinity 5.53659821
REMARK  3 active torsions:
REMARK  status: ('A' for Active; 'I' for Inactive)
REMARK    1  A    between atoms: C7_7  and  C8_8 
REMARK    2  A    between atoms: C8_8  and  O2_10 
REMARK    3  A    between atoms: C21_23  and  O3_24 
ROOT
HETATM    1  C1  UNL     1      -6.279  43.960 -31.104  1.00  0.00     0.011 C 
HETATM    2  C2  UNL     1      -6.682  45.415 -31.422  1.00  0.00    -0.005 C 
HETATM    3  C3  UNL     1      -5.913  45.924 -32.666  1.00  0.00    -0.014 C 
HETATM    4  C4  UNL     1      -4.390  45.894 -32.485  1.00  0.00     0.010 C 
HETATM    5  C5  UNL     1      -6.339  47.350 -33.041  1.00  0.00     0.006 C 
HETATM    6  C6  UNL     1      -7.829  47.636 -32.863  1.00  0.00     0.021 C 
HETATM    7  C7  UNL     1      -8.715  46.377 -32.767  1.00  0.00     0.053 C 
HETATM    8  C9  UNL     1     -10.213  46.785 -32.738  1.00  0.00     0.022 C 
HETATM    9  C10 UNL     1     -11.010  46.108 -31.624  1.00  0.00     0.016 C 
HETATM   10  C11 UNL     1     -10.414  46.356 -30.214  1.00  0.00    -0.013 C 
HETATM   11  C12 UNL     1     -10.365  47.902 -29.988  1.00  0.00     0.021 C 
HETATM   12  C13 UNL     1      -8.959  45.855 -30.179  1.00  0.00    -0.069 C 
HETATM   13  C14 UNL     1      -8.405  45.581 -28.977  1.00  0.00    -0.022 C 
HETATM   14  C15 UNL     1      -9.102  45.605 -27.644  1.00  0.00     0.033 C 
HETATM   15  C16 UNL     1     -10.611  45.937 -27.666  1.00  0.00     0.007 C 
HETATM   16  C17 UNL     1     -11.413  45.495 -26.367  1.00  0.00    -0.035 C 
HETATM   17  C18 UNL     1     -11.426  43.958 -26.184  1.00  0.00     0.016 C 
HETATM   18  C19 UNL     1     -10.718  46.117 -25.118  1.00  0.00     0.012 C 
HETATM   19  C20 UNL     1     -11.544  46.033 -23.837  1.00  0.00     0.033 C 
HETATM   20  C21 UNL     1     -12.933  46.643 -24.001  1.00  0.00     0.126 C 
HETATM   21  C22 UNL     1     -13.744  46.048 -25.191  1.00  0.00    -0.017 C 
HETATM   22  C23 UNL     1     -14.259  44.632 -24.868  1.00  0.00     0.018 C 
HETATM   23  C24 UNL     1     -15.009  46.933 -25.372  1.00  0.00     0.018 C 
HETATM   24  C25 UNL     1     -12.853  46.125 -26.486  1.00  0.00     0.004 C 
HETATM   25  C26 UNL     1     -13.548  45.679 -27.789  1.00  0.00     0.007 C 
HETATM   26  C27 UNL     1     -12.749  46.101 -29.030  1.00  0.00     0.011 C 
HETATM   27  C28 UNL     1     -11.275  45.609 -29.057  1.00  0.00    -0.028 C 
HETATM   28  C29 UNL     1     -11.307  44.079 -29.343  1.00  0.00     0.016 C 
HETATM   29  C30 UNL     1      -8.259  45.521 -31.532  1.00  0.00     0.038 C 
ENDROOT
BRANCH   7  30
HETATM   30  C8  UNL     1      -8.594  45.527 -34.043  1.00  0.00     0.149 C 
HETATM   31  O1  UNL     1      -8.640  44.309 -34.120  1.00  0.00    -0.649 OA
BRANCH  30  32
HETATM   32  O2  UNL     1      -8.489  46.254 -35.174  1.00  0.00    -0.776 OA
HETATM   33  H13 UNL     1      -8.458  45.578 -35.884  1.00  0.00     0.167 HD
ENDBRANCH  30  32
ENDBRANCH   7  30
BRANCH  20  34
HETATM   34  O3  UNL     1     -13.651  46.484 -22.778  1.00  0.00    -0.395 OA
HETATM   35  H33 UNL     1     -13.130  46.905 -22.073  1.00  0.00     0.210 HD
ENDBRANCH  20  34
TORSDOF 3
ENDMDL
MODEL 7
REMARK minimizedAffinity -7.54261351
REMARK CNNscore 0.282206208
REMARK CNNaffinity 5.68628645
REMARK  3 active torsions:
REMARK  status: ('A' for Active; 'I' for Inactive)
REMARK    1  A    between atoms: C7_7  and  C8_8 
REMARK    2  A    between atoms: C8_8  and  O2_10 
REMARK    3  A    between atoms: C21_23  and  O3_24 
ROOT
HETATM    1  C1  UNL     1      -7.050  43.363 -32.954  1.00  0.00     0.011 C 
HETATM    2  C2  UNL     1      -6.382  44.429 -32.062  1.00  0.00    -0.005 C 
HETATM    3  C3  UNL     1      -5.004  44.828 -32.646  1.00  0.00    -0.014 C 
HETATM    4  C4  UNL     1      -4.034  43.644 -32.761  1.00  0.00     0.010 C 
HETATM    5  C5  UNL     1      -4.342  45.932 -31.811  1.00  0.00     0.006 C 
HETATM    6  C6  UNL     1      -5.306  46.988 -31.274  1.00  0.00     0.021 C 
HETATM    7  C7  UNL     1      -6.670  47.033 -31.992  1.00  0.00     0.053 C 
HETATM    8  C9  UNL     1      -7.506  48.232 -31.466  1.00  0.00     0.022 C 
HETATM    9  C10 UNL     1      -8.938  47.859 -31.088  1.00  0.00     0.016 C 
HETATM   10  C11 UNL     1      -9.012  46.721 -30.038  1.00  0.00    -0.013 C 
HETATM   11  C12 UNL     1      -8.219  47.192 -28.775  1.00  0.00     0.021 C 
HETATM   12  C13 UNL     1      -8.287  45.477 -30.581  1.00  0.00    -0.069 C 
HETATM   13  C14 UNL     1      -8.588  44.274 -30.042  1.00  0.00    -0.022 C 
HETATM   14  C15 UNL     1      -9.659  43.993 -29.024  1.00  0.00     0.033 C 
HETATM   15  C16 UNL     1     -10.522  45.198 -28.586  1.00  0.00     0.007 C 
HETATM   16  C17 UNL     1     -11.910  44.817 -27.912  1.00  0.00    -0.035 C 
HETATM   17  C18 UNL     1     -12.856  44.087 -28.896  1.00  0.00     0.016 C 
HETATM   18  C19 UNL     1     -11.635  43.858 -26.715  1.00  0.00     0.012 C 
HETATM   19  C20 UNL     1     -12.833  43.652 -25.791  1.00  0.00     0.033 C 
HETATM   20  C21 UNL     1     -13.393  44.971 -25.266  1.00  0.00     0.126 C 
HETATM   21  C22 UNL     1     -13.761  45.988 -26.387  1.00  0.00    -0.017 C 
HETATM   22  C23 UNL     1     -15.054  45.577 -27.118  1.00  0.00     0.018 C 
HETATM   23  C24 UNL     1     -14.074  47.343 -25.692  1.00  0.00     0.018 C 
HETATM   24  C25 UNL     1     -12.515  46.153 -27.335  1.00  0.00     0.004 C 
HETATM   25  C26 UNL     1     -12.669  47.218 -28.441  1.00  0.00     0.007 C 
HETATM   26  C27 UNL     1     -11.319  47.558 -29.091  1.00  0.00     0.011 C 
HETATM   27  C28 UNL     1     -10.549  46.340 -29.672  1.00  0.00    -0.028 C 
HETATM   28  C29 UNL     1     -11.294  45.899 -30.966  1.00  0.00     0.016 C 
HETATM   29  C30 UNL     1      -7.378  45.640 -31.838  1.00  0.00     0.038 C 
ENDROOT
BRANCH   7  30
HETATM   30  C8  UNL     1      -6.488  47.343 -33.488  1.00  0.00     0.149 C 
HETATM   31  O1  UNL     1      -5.605  48.016 -33.995  1.00  0.00    -0.649 OA
BRANCH  30  32
HETATM   32  O2  UNL     1      -7.389  46.732 -34.284  1.00  0.00    -0.776 OA
HETATM   33  H13 UNL     1      -7.119  46.998 -35.189  1.00  0.00     0.167 HD
ENDBRANCH  30  32
ENDBRANCH   7  30
BRANCH  20  34
HETATM   34  O3  UNL     1     -14.532  44.693 -24.451  1.00  0.00    -0.395 OA
HETATM   35  H33 UNL     1     -14.247  44.090 -23.742  1.00  0.00     0.210 HD
ENDBRANCH  20  34
TORSDOF 3
ENDMDL
MODEL 8
REMARK minimizedAffinity -7.12825871
REMARK CNNscore 0.249898463
REMARK CNNaffinity 5.47188902
REMARK  3 active torsions:
REMARK  status: ('A' for Active; 'I' for Inactive)
REMARK    1  A    between atoms: C7_7  and  C8_8 
REMARK    2  A    between atoms: C8_8  and  O2_10 
REMARK    3  A    between atoms: C21_23  and  O3_24 
ROOT
HETATM    1  C1  UNL     1     -14.174  43.449 -28.147  1.00  0.00     0.011 C 
HETATM    2  C2  UNL     1     -13.998  44.875 -27.587  1.00  0.00    -0.005 C 
HETATM    3  C3  UNL     1     -15.030  45.141 -26.463  1.00  0.00    -0.014 C 
HETATM    4  C4  UNL     1     -16.483  45.003 -26.937  1.00  0.00     0.010 C 
HETATM    5  C5  UNL     1     -14.839  46.533 -25.847  1.00  0.00     0.006 C 
HETATM    6  C6  UNL     1     -13.382  46.968 -25.699  1.00  0.00     0.021 C 
HETATM    7  C7  UNL     1     -12.359  45.816 -25.771  1.00  0.00     0.053 C 
HETATM    8  C9  UNL     1     -10.935  46.352 -25.463  1.00  0.00     0.022 C 
HETATM    9  C10 UNL     1      -9.881  45.906 -26.475  1.00  0.00     0.016 C 
HETATM   10  C11 UNL     1     -10.238  46.292 -27.933  1.00  0.00    -0.013 C 
HETATM   11  C12 UNL     1     -10.416  47.845 -27.979  1.00  0.00     0.021 C 
HETATM   12  C13 UNL     1     -11.598  45.677 -28.307  1.00  0.00    -0.069 C 
HETATM   13  C14 UNL     1     -11.893  45.524 -29.617  1.00  0.00    -0.022 C 
HETATM   14  C15 UNL     1     -10.974  45.790 -30.778  1.00  0.00     0.033 C 
HETATM   15  C16 UNL     1      -9.540  46.246 -30.427  1.00  0.00     0.007 C 
HETATM   16  C17 UNL     1      -8.474  46.057 -31.590  1.00  0.00    -0.035 C 
HETATM   17  C18 UNL     1      -8.258  44.566 -31.948  1.00  0.00     0.016 C 
HETATM   18  C19 UNL     1      -8.997  46.782 -32.867  1.00  0.00     0.012 C 
HETATM   19  C20 UNL     1      -7.950  46.946 -33.966  1.00  0.00     0.033 C 
HETATM   20  C21 UNL     1      -6.689  47.646 -33.465  1.00  0.00     0.126 C 
HETATM   21  C22 UNL     1      -6.045  46.965 -32.220  1.00  0.00    -0.017 C 
HETATM   22  C23 UNL     1      -5.326  45.657 -32.603  1.00  0.00     0.018 C 
HETATM   23  C24 UNL     1      -4.939  47.923 -31.696  1.00  0.00     0.018 C 
HETATM   24  C25 UNL     1      -7.157  46.787 -31.122  1.00  0.00     0.004 C 
HETATM   25  C26 UNL     1      -6.662  46.229 -29.772  1.00  0.00     0.007 C 
HETATM   26  C27 UNL     1      -7.714  46.405 -28.666  1.00  0.00     0.011 C 
HETATM   27  C28 UNL     1      -9.105  45.788 -28.983  1.00  0.00    -0.028 C 
HETATM   28  C29 UNL     1      -8.956  44.242 -28.880  1.00  0.00     0.016 C 
HETATM   29  C30 UNL     1     -12.489  45.101 -27.164  1.00  0.00     0.038 C 
ENDROOT
BRANCH   7  30
HETATM   30  C8  UNL     1     -12.614  44.791 -24.653  1.00  0.00     0.149 C 
HETATM   31  O1  UNL     1     -13.115  45.007 -23.561  1.00  0.00    -0.649 OA
BRANCH  30  32
HETATM   32  O2  UNL     1     -12.287  43.527 -24.989  1.00  0.00    -0.776 OA
HETATM   33  H13 UNL     1     -12.539  43.003 -24.199  1.00  0.00     0.167 HD
ENDBRANCH  30  32
ENDBRANCH   7  30
BRANCH  20  34
HETATM   34  O3  UNL     1      -5.749  47.719 -34.537  1.00  0.00    -0.395 OA
HETATM   35  H33 UNL     1      -6.178  48.186 -35.275  1.00  0.00     0.210 HD
ENDBRANCH  20  34
TORSDOF 3
ENDMDL
MODEL 9
REMARK minimizedAffinity -7.35241461
REMARK CNNscore 0.235097945
REMARK CNNaffinity 5.54812479
REMARK  3 active torsions:
REMARK  status: ('A' for Active; 'I' for Inactive)
REMARK    1  A    between atoms: C7_7  and  C8_8 
REMARK    2  A    between atoms: C8_8  and  O2_10 
REMARK    3  A    between atoms: C21_23  and  O3_24 
ROOT
HETATM    1  C1  UNL     1     -16.558  43.859 -28.480  1.00  0.00     0.011 C 
HETATM    2  C2  UNL     1     -16.380  44.828 -27.294  1.00  0.00    -0.005 C 
HETATM    3  C3  UNL     1     -17.600  44.743 -26.344  1.00  0.00    -0.014 C 
HETATM    4  C4  UNL     1     -18.925  45.094 -27.035  1.00  0.00     0.010 C 
HETATM    5  C5  UNL     1     -17.422  45.655 -25.123  1.00  0.00     0.006 C 
HETATM    6  C6  UNL     1     -15.998  45.711 -24.574  1.00  0.00     0.021 C 
HETATM    7  C7  UNL     1     -15.090  44.550 -25.030  1.00  0.00     0.053 C 
HETATM    8  C9  UNL     1     -13.722  44.628 -24.298  1.00  0.00     0.022 C 
HETATM    9  C10 UNL     1     -12.521  44.500 -25.232  1.00  0.00     0.016 C 
HETATM   10  C11 UNL     1     -12.521  45.554 -26.369  1.00  0.00    -0.013 C 
HETATM   11  C12 UNL     1     -12.546  46.968 -25.702  1.00  0.00     0.021 C 
HETATM   12  C13 UNL     1     -13.819  45.424 -27.186  1.00  0.00    -0.069 C 
HETATM   13  C14 UNL     1     -13.840  45.927 -28.440  1.00  0.00    -0.022 C 
HETATM   14  C15 UNL     1     -12.674  46.515 -29.188  1.00  0.00     0.033 C 
HETATM   15  C16 UNL     1     -11.313  46.502 -28.455  1.00  0.00     0.007 C 
HETATM   16  C17 UNL     1     -10.044  46.666 -29.397  1.00  0.00    -0.035 C 
HETATM   17  C18 UNL     1      -9.891  45.480 -30.381  1.00  0.00     0.016 C 
HETATM   18  C19 UNL     1     -10.216  47.965 -30.241  1.00  0.00     0.012 C 
HETATM   19  C20 UNL     1      -8.947  48.412 -30.964  1.00  0.00     0.033 C 
HETATM   20  C21 UNL     1      -7.766  48.577 -30.013  1.00  0.00     0.126 C 
HETATM   21  C22 UNL     1      -7.466  47.310 -29.157  1.00  0.00    -0.017 C 
HETATM   22  C23 UNL     1      -6.801  46.205 -30.002  1.00  0.00     0.018 C 
HETATM   23  C24 UNL     1      -6.417  47.718 -28.086  1.00  0.00     0.018 C 
HETATM   24  C25 UNL     1      -8.799  46.862 -28.452  1.00  0.00     0.004 C 
HETATM   25  C26 UNL     1      -8.656  45.681 -27.469  1.00  0.00     0.007 C 
HETATM   26  C27 UNL     1      -9.899  45.530 -26.580  1.00  0.00     0.011 C 
HETATM   27  C28 UNL     1     -11.239  45.379 -27.352  1.00  0.00    -0.028 C 
HETATM   28  C29 UNL     1     -11.255  43.950 -27.971  1.00  0.00     0.016 C 
HETATM   29  C30 UNL     1     -14.981  44.568 -26.597  1.00  0.00     0.038 C 
ENDROOT
BRANCH   7  30
HETATM   30  C8  UNL     1     -15.668  43.197 -24.579  1.00  0.00     0.149 C 
HETATM   31  O1  UNL     1     -16.352  42.984 -23.592  1.00  0.00    -0.649 OA
BRANCH  30  32
HETATM   32  O2  UNL     1     -15.415  42.186 -25.435  1.00  0.00    -0.776 OA
HETATM   33  H13 UNL     1     -15.872  41.418 -25.030  1.00  0.00     0.167 HD
ENDBRANCH  30  32
ENDBRANCH   7  30
BRANCH  20  34
HETATM   34  O3  UNL     1      -6.616  48.952 -30.771  1.00  0.00    -0.395 OA
HETATM   35  H33 UNL     1      -6.834  49.768 -31.254  1.00  0.00     0.210 HD
ENDBRANCH  20  34
TORSDOF 3
ENDMDL
