MODEL 1
REMARK minimizedAffinity -8.6652422
REMARK CNNscore 0.330390632
REMARK CNNaffinity 6.84556437
REMARK  9 active torsions:
REMARK  status: ('A' for Active; 'I' for Inactive)
REMARK    1  A    between atoms: C13_13  and  S1_14 
REMARK    2  A    between atoms: C25_30  and  O5_31 
REMARK    3  A    between atoms: C31_37  and  C32_38 
REMARK    4  A    between atoms: C32_38  and  O6_39 
REMARK    5  A    between atoms: C40_47  and  C41_48 
REMARK    6  A    between atoms: C40_47  and  N1_57 
REMARK    7  A    between atoms: C41_48  and  C42_49 
REMARK    8  A    between atoms: C42_49  and  C43_50 
REMARK    9  A    between atoms: C43_50  and  O7_51 
REMARK       I    between atoms: C49_59  and  N2_60 
REMARK       I    between atoms: C49_59  and  N3_61 
ROOT
HETATM    1  C1  UNL     1      -6.823  40.239 -21.400  1.00  0.00     0.010 C 
HETATM    2  C2  UNL     1      -8.163  40.961 -21.202  1.00  0.00    -0.010 C 
HETATM    3  C3  UNL     1      -8.476  41.060 -19.670  1.00  0.00     0.009 C 
HETATM    4  C4  UNL     1      -8.687  42.484 -19.118  1.00  0.00     0.039 C 
HETATM    5  C5  UNL     1      -7.690  43.452 -19.699  1.00  0.00    -0.049 C 
HETATM    6  C6  UNL     1      -7.287  44.616 -19.048  1.00  0.00     0.044 C 
HETATM    7  C7  UNL     1      -6.481  45.521 -19.748  1.00  0.00     0.072 C 
HETATM    8  C8  UNL     1      -5.801  45.131 -20.896  1.00  0.00     0.037 C 
HETATM    9  C9  UNL     1      -6.229  43.989 -21.557  1.00  0.00     0.011 C 
HETATM   10  C10 UNL     1      -7.306  43.263 -21.035  1.00  0.00    -0.047 C 
HETATM   11  C11 UNL     1      -8.217  42.352 -21.858  1.00  0.00     0.024 C 
HETATM   12  C12 UNL     1      -8.035  42.546 -23.377  1.00  0.00     0.033 C 
HETATM   13  C13 UNL     1      -9.201  42.240 -24.350  1.00  0.00     0.139 C 
HETATM   14  C14 UNL     1     -10.668  42.772 -24.050  1.00  0.00     0.038 C 
HETATM   15  C15 UNL     1     -11.560  42.584 -25.301  1.00  0.00    -0.014 C 
HETATM   16  C16 UNL     1     -12.680  43.288 -25.566  1.00  0.00    -0.050 C 
HETATM   17  C17 UNL     1     -13.212  44.199 -24.517  1.00  0.00     0.042 C 
HETATM   18  C18 UNL     1     -12.020  45.098 -24.240  1.00  0.00     0.001 C 
HETATM   19  C19 UNL     1     -11.459  45.692 -25.576  1.00  0.00     0.038 C 
HETATM   20  C20 UNL     1     -12.530  45.966 -26.679  1.00  0.00     0.130 C 
HETATM   21  O4  UNL     1     -13.123  44.860 -27.399  1.00  0.00    -0.371 OA
HETATM   22  C21 UNL     1     -13.282  43.507 -26.930  1.00  0.00     0.185 C 
HETATM   23  C22 UNL     1     -12.856  42.482 -27.994  1.00  0.00    -0.006 A 
HETATM   24  C23 UNL     1     -13.485  41.218 -27.966  1.00  0.00     0.014 A 
HETATM   25  C24 UNL     1     -13.081  40.190 -28.818  1.00  0.00     0.037 A 
HETATM   26  C25 UNL     1     -12.036  40.406 -29.706  1.00  0.00     0.067 A 
HETATM   27  C26 UNL     1     -11.402  41.641 -29.771  1.00  0.00     0.057 A 
HETATM   28  C27 UNL     1     -11.806  42.676 -28.925  1.00  0.00     0.029 A 
HETATM   29  C28 UNL     1     -11.121  43.928 -29.016  1.00  0.00    -0.066 C 
HETATM   30  C29 UNL     1     -10.776  45.072 -28.899  1.00  0.00    -0.101 C 
HETATM   31  C30 UNL     1     -10.668  46.468 -28.466  1.00  0.00     0.103 C 
HETATM   32  C31 UNL     1     -11.987  46.939 -27.791  1.00  0.00     0.049 C 
HETATM   33  C33 UNL     1     -10.980  44.231 -23.424  1.00  0.00     0.030 C 
HETATM   34  C34 UNL     1     -10.013  45.167 -22.714  1.00  0.00    -0.057 A 
HETATM   35  C35 UNL     1      -8.973  45.855 -23.340  1.00  0.00     0.005 A 
HETATM   36  C36 UNL     1      -8.127  46.720 -22.610  1.00  0.00     0.010 A 
HETATM   37  C37 UNL     1      -8.307  46.934 -21.229  1.00  0.00    -0.007 A 
HETATM   38  C38 UNL     1      -9.432  46.333 -20.640  1.00  0.00     0.096 A 
HETATM   39  C39 UNL     1     -10.256  45.465 -21.361  1.00  0.00     0.092 A 
HETATM   40  C40 UNL     1      -7.319  47.727 -20.292  1.00  0.00     0.168 C 
HETATM   41  O8  UNL     1      -6.538  46.841 -19.385  1.00  0.00    -0.316 OA
HETATM   42 NA1  UNL     1      -9.070  45.561 -22.886  1.00  0.00    -0.355 Na
ATOM     43 1HA1 UNL     1      -8.903  45.744 -23.876  1.00  0.00     0.103 HD
ATOM     44 2HA1 UNL     1      -8.485  45.112 -23.591  1.00  0.00     0.103 HD
ENDROOT
BRANCH  40  45
HETATM   45  C41 UNL     1      -6.238  48.564 -21.059  1.00  0.00     0.070 C 
BRANCH  45  46
HETATM   46  C42 UNL     1      -6.702  49.652 -22.053  1.00  0.00     0.043 C 
BRANCH  46  47
HETATM   47  C43 UNL     1      -5.955  49.935 -23.380  1.00  0.00     0.058 C 
HETATM   48  C44 UNL     1      -4.961  48.847 -23.800  1.00  0.00     0.038 C 
HETATM   49  C45 UNL     1      -4.354  49.110 -25.184  1.00  0.00     0.003 C 
HETATM   50  C46 UNL     1      -3.921  50.557 -25.401  1.00  0.00     0.000 C 
HETATM   51  C47 UNL     1      -3.984  51.409 -24.140  1.00  0.00     0.003 C 
HETATM   52  C48 UNL     1      -5.350  51.350 -23.455  1.00  0.00     0.038 C 
BRANCH  47  53
HETATM   53  O7  UNL     1      -6.993  49.910 -24.402  1.00  0.00    -0.390 OA
HETATM   54  H44 UNL     1      -7.391  49.022 -24.385  1.00  0.00     0.210 HD
ENDBRANCH  47  53
ENDBRANCH  46  47
ENDBRANCH  45  46
ENDBRANCH  40  45
BRANCH  40  55
HETATM   55  N1  UNL     1      -8.119  48.684 -19.492  1.00  0.00    -0.336 N 
HETATM   56  C49 UNL     1      -8.137  48.762 -18.223  1.00  0.00     0.124 C 
HETATM   57  N2  UNL     1      -8.908  49.707 -17.639  1.00  0.00    -0.279 NA
HETATM   58  N3  UNL     1      -7.509  48.056 -17.258  1.00  0.00    -0.279 NA
HETATM   59  H55 UNL     1      -9.483  50.163 -18.345  1.00  0.00     0.126 HD
HETATM   60  H56 UNL     1      -9.492  49.325 -16.906  1.00  0.00     0.126 HD
HETATM   61  H57 UNL     1      -7.243  48.663 -16.491  1.00  0.00     0.126 HD
HETATM   62  H58 UNL     1      -6.681  47.573 -17.583  1.00  0.00     0.126 HD
ATOM     63  H1  UNL     1      -8.708  49.339 -20.005  1.00  0.00     0.165 HD
ENDBRANCH  40  55
BRANCH  13  64
HETATM   64  S1  UNL     1      -9.205  40.412 -24.718  1.00  0.00     0.106 S 
HETATM   65  O1  UNL     1      -9.745  40.304 -26.070  1.00  0.00    -0.595 OA
HETATM   66  O2  UNL     1      -7.802  40.008 -24.655  1.00  0.00    -0.595 OA
HETATM   67  O3  UNL     1     -10.046  39.835 -23.669  1.00  0.00    -0.595 OA
ENDBRANCH  13  64
BRANCH  32  68
HETATM   68  C32 UNL     1     -11.811  48.363 -27.251  1.00  0.00     0.172 C 
BRANCH  68  69
HETATM   69  O6  UNL     1     -10.432  48.718 -27.275  1.00  0.00    -0.400 OA
HETATM   70  H34 UNL     1     -10.360  49.614 -26.904  1.00  0.00     0.209 HD
ENDBRANCH  68  69
ENDBRANCH  32  68
BRANCH  26  71
HETATM   71  O5  UNL     1     -11.637  39.365 -30.493  1.00  0.00    -0.361 OA
HETATM   72  H27 UNL     1     -10.711  39.540 -30.746  1.00  0.00     0.217 HD
ENDBRANCH  26  71
TORSDOF 9
ENDMDL
MODEL 2
REMARK minimizedAffinity -9.84985733
REMARK CNNscore 0.166522235
REMARK CNNaffinity 7.8249073
REMARK  9 active torsions:
REMARK  status: ('A' for Active; 'I' for Inactive)
REMARK    1  A    between atoms: C13_13  and  S1_14 
REMARK    2  A    between atoms: C25_30  and  O5_31 
REMARK    3  A    between atoms: C31_37  and  C32_38 
REMARK    4  A    between atoms: C32_38  and  O6_39 
REMARK    5  A    between atoms: C40_47  and  C41_48 
REMARK    6  A    between atoms: C40_47  and  N1_57 
REMARK    7  A    between atoms: C41_48  and  C42_49 
REMARK    8  A    between atoms: C42_49  and  C43_50 
REMARK    9  A    between atoms: C43_50  and  O7_51 
REMARK       I    between atoms: C49_59  and  N2_60 
REMARK       I    between atoms: C49_59  and  N3_61 
ROOT
HETATM    1  C1  UNL     1       2.631  53.203 -15.795  1.00  0.00     0.010 C 
HETATM    2  C2  UNL     1       2.424  51.758 -16.272  1.00  0.00    -0.010 C 
HETATM    3  C3  UNL     1       3.283  50.793 -15.386  1.00  0.00     0.009 C 
HETATM    4  C4  UNL     1       2.506  49.680 -14.657  1.00  0.00     0.039 C 
HETATM    5  C5  UNL     1       1.211  50.196 -14.087  1.00  0.00    -0.049 C 
HETATM    6  C6  UNL     1       0.579  49.625 -12.984  1.00  0.00     0.044 C 
HETATM    7  C7  UNL     1      -0.697  50.084 -12.640  1.00  0.00     0.072 C 
HETATM    8  C8  UNL     1      -1.174  51.297 -13.125  1.00  0.00     0.037 C 
HETATM    9  C9  UNL     1      -0.561  51.843 -14.244  1.00  0.00     0.011 C 
HETATM   10  C10 UNL     1       0.522  51.172 -14.823  1.00  0.00    -0.047 C 
HETATM   11  C11 UNL     1       0.951  51.317 -16.283  1.00  0.00     0.024 C 
HETATM   12  C12 UNL     1      -0.109  52.033 -17.145  1.00  0.00     0.033 C 
HETATM   13  C13 UNL     1      -0.201  51.753 -18.666  1.00  0.00     0.139 C 
HETATM   14  C14 UNL     1      -0.173  50.264 -19.219  1.00  0.00     0.038 C 
HETATM   15  C15 UNL     1      -0.570  50.253 -20.715  1.00  0.00    -0.014 C 
HETATM   16  C16 UNL     1      -1.070  49.187 -21.376  1.00  0.00    -0.050 C 
HETATM   17  C17 UNL     1      -1.092  47.870 -20.686  1.00  0.00     0.042 C 
HETATM   18  C18 UNL     1      -1.877  48.183 -19.424  1.00  0.00     0.001 C 
HETATM   19  C19 UNL     1      -3.224  48.899 -19.780  1.00  0.00     0.038 C 
HETATM   20  C20 UNL     1      -3.870  48.459 -21.132  1.00  0.00     0.130 C 
HETATM   21  O4  UNL     1      -3.288  48.892 -22.384  1.00  0.00    -0.371 OA
HETATM   22  C21 UNL     1      -1.911  49.239 -22.625  1.00  0.00     0.185 C 
HETATM   23  C22 UNL     1      -1.785  50.541 -23.432  1.00  0.00    -0.006 A 
HETATM   24  C23 UNL     1      -0.642  50.692 -24.248  1.00  0.00     0.014 A 
HETATM   25  C24 UNL     1      -0.388  51.886 -24.924  1.00  0.00     0.037 A 
HETATM   26  C25 UNL     1      -1.269  52.951 -24.791  1.00  0.00     0.067 A 
HETATM   27  C26 UNL     1      -2.411  52.834 -24.007  1.00  0.00     0.057 A 
HETATM   28  C27 UNL     1      -2.673  51.640 -23.333  1.00  0.00     0.029 A 
HETATM   29  C28 UNL     1      -3.855  51.566 -22.529  1.00  0.00    -0.066 C 
HETATM   30  C29 UNL     1      -4.765  51.198 -21.837  1.00  0.00    -0.101 C 
HETATM   31  C30 UNL     1      -5.650  50.390 -20.995  1.00  0.00     0.103 C 
HETATM   32  C31 UNL     1      -5.386  48.873 -21.216  1.00  0.00     0.049 C 
HETATM   33  C33 UNL     1      -0.917  49.024 -18.492  1.00  0.00     0.030 C 
HETATM   34  C34 UNL     1      -1.440  48.959 -17.065  1.00  0.00    -0.057 A 
HETATM   35  C35 UNL     1      -2.546  49.669 -16.593  1.00  0.00     0.005 A 
HETATM   36  C36 UNL     1      -2.978  49.540 -15.254  1.00  0.00     0.010 A 
HETATM   37  C37 UNL     1      -2.323  48.684 -14.348  1.00  0.00    -0.007 A 
HETATM   38  C38 UNL     1      -1.292  47.884 -14.869  1.00  0.00     0.096 A 
HETATM   39  C39 UNL     1      -0.856  48.027 -16.189  1.00  0.00     0.092 A 
HETATM   40  C40 UNL     1      -2.607  48.604 -12.799  1.00  0.00     0.168 C 
HETATM   41  O8  UNL     1      -1.530  49.222 -11.976  1.00  0.00    -0.316 OA
HETATM   42 NA1  UNL     1      -2.034  49.541 -16.443  1.00  0.00    -0.355 Na
ATOM     43 1HA1 UNL     1      -2.778  50.015 -16.954  1.00  0.00     0.103 HD
ATOM     44 2HA1 UNL     1      -2.191  50.514 -16.706  1.00  0.00     0.103 HD
ENDROOT
BRANCH  40  45
HETATM   45  C41 UNL     1      -3.919  49.332 -12.348  1.00  0.00     0.070 C 
BRANCH  45  46
HETATM   46  C42 UNL     1      -4.012  49.876 -10.904  1.00  0.00     0.043 C 
BRANCH  46  47
HETATM   47  C43 UNL     1      -3.987  51.393 -10.587  1.00  0.00     0.058 C 
HETATM   48  C44 UNL     1      -3.817  52.300 -11.811  1.00  0.00     0.038 C 
HETATM   49  C45 UNL     1      -3.938  53.787 -11.458  1.00  0.00     0.003 C 
HETATM   50  C46 UNL     1      -3.178  54.186 -10.196  1.00  0.00     0.000 C 
HETATM   51  C47 UNL     1      -2.283  53.081  -9.650  1.00  0.00     0.003 C 
HETATM   52  C48 UNL     1      -3.032  51.765  -9.437  1.00  0.00     0.038 C 
BRANCH  47  53
HETATM   53  O7  UNL     1      -5.322  51.687 -10.084  1.00  0.00    -0.390 OA
HETATM   54  H44 UNL     1      -5.951  51.469 -10.794  1.00  0.00     0.210 HD
ENDBRANCH  47  53
ENDBRANCH  46  47
ENDBRANCH  45  46
ENDBRANCH  40  45
BRANCH  40  55
HETATM   55  N1  UNL     1      -2.758  47.175 -12.436  1.00  0.00    -0.336 N 
HETATM   56  C49 UNL     1      -3.734  46.425 -12.753  1.00  0.00     0.124 C 
HETATM   57  N2  UNL     1      -3.716  45.131 -12.360  1.00  0.00    -0.279 NA
HETATM   58  N3  UNL     1      -4.870  46.653 -13.446  1.00  0.00    -0.279 NA
HETATM   59  H55 UNL     1      -2.930  44.976 -11.730  1.00  0.00     0.126 HD
HETATM   60  H56 UNL     1      -4.580  44.855 -11.913  1.00  0.00     0.126 HD
HETATM   61  H57 UNL     1      -5.107  45.847 -14.013  1.00  0.00     0.126 HD
HETATM   62  H58 UNL     1      -4.821  47.463 -14.051  1.00  0.00     0.126 HD
ATOM     63  H1  UNL     1      -2.011  46.756 -11.882  1.00  0.00     0.165 HD
ENDBRANCH  40  55
BRANCH  13  64
HETATM   64  S1  UNL     1       1.046  52.826 -19.544  1.00  0.00     0.106 S 
HETATM   65  O1  UNL     1       1.370  52.097 -20.768  1.00  0.00    -0.595 OA
HETATM   66  O2  UNL     1       0.342  54.077 -19.823  1.00  0.00    -0.595 OA
HETATM   67  O3  UNL     1       2.147  52.953 -18.591  1.00  0.00    -0.595 OA
ENDBRANCH  13  64
BRANCH  32  68
HETATM   68  C32 UNL     1      -6.245  48.053 -20.247  1.00  0.00     0.172 C 
BRANCH  68  69
HETATM   69  O6  UNL     1      -6.640  48.868 -19.148  1.00  0.00    -0.400 OA
HETATM   70  H34 UNL     1      -7.160  48.308 -18.547  1.00  0.00     0.209 HD
ENDBRANCH  68  69
ENDBRANCH  32  68
BRANCH  26  71
HETATM   71  O5  UNL     1      -0.967  54.117 -25.431  1.00  0.00    -0.361 OA
HETATM   72  H27 UNL     1      -1.428  54.831 -24.951  1.00  0.00     0.217 HD
ENDBRANCH  26  71
TORSDOF 9
ENDMDL
MODEL 3
REMARK minimizedAffinity -8.11433506
REMARK CNNscore 0.156512216
REMARK CNNaffinity 6.85000181
REMARK  9 active torsions:
REMARK  status: ('A' for Active; 'I' for Inactive)
REMARK    1  A    between atoms: C13_13  and  S1_14 
REMARK    2  A    between atoms: C25_30  and  O5_31 
REMARK    3  A    between atoms: C31_37  and  C32_38 
REMARK    4  A    between atoms: C32_38  and  O6_39 
REMARK    5  A    between atoms: C40_47  and  C41_48 
REMARK    6  A    between atoms: C40_47  and  N1_57 
REMARK    7  A    between atoms: C41_48  and  C42_49 
REMARK    8  A    between atoms: C42_49  and  C43_50 
REMARK    9  A    between atoms: C43_50  and  O7_51 
REMARK       I    between atoms: C49_59  and  N2_60 
REMARK       I    between atoms: C49_59  and  N3_61 
ROOT
HETATM    1  C1  UNL     1      -8.929  39.510 -33.632  1.00  0.00     0.010 C 
HETATM    2  C2  UNL     1     -10.093  40.511 -33.661  1.00  0.00    -0.010 C 
HETATM    3  C3  UNL     1     -10.964  40.329 -32.371  1.00  0.00     0.009 C 
HETATM    4  C4  UNL     1     -11.128  41.582 -31.489  1.00  0.00     0.039 C 
HETATM    5  C5  UNL     1      -9.834  42.342 -31.365  1.00  0.00    -0.049 C 
HETATM    6  C6  UNL     1      -9.527  43.158 -30.279  1.00  0.00     0.044 C 
HETATM    7  C7  UNL     1      -8.369  43.940 -30.344  1.00  0.00     0.072 C 
HETATM    8  C8  UNL     1      -7.368  43.658 -31.267  1.00  0.00     0.037 C 
HETATM    9  C9  UNL     1      -7.689  42.871 -32.364  1.00  0.00     0.011 C 
HETATM   10  C10 UNL     1      -8.992  42.373 -32.487  1.00  0.00    -0.047 C 
HETATM   11  C11 UNL     1      -9.645  41.974 -33.810  1.00  0.00     0.024 C 
HETATM   12  C12 UNL     1      -8.848  42.463 -35.037  1.00  0.00     0.033 C 
HETATM   13  C13 UNL     1      -9.569  42.735 -36.382  1.00  0.00     0.139 C 
HETATM   14  C14 UNL     1     -10.920  43.569 -36.423  1.00  0.00     0.038 C 
HETATM   15  C15 UNL     1     -11.264  43.939 -37.886  1.00  0.00    -0.014 C 
HETATM   16  C16 UNL     1     -12.050  44.970 -38.260  1.00  0.00    -0.050 C 
HETATM   17  C17 UNL     1     -12.788  45.719 -37.207  1.00  0.00     0.042 C 
HETATM   18  C18 UNL     1     -11.669  46.157 -36.280  1.00  0.00     0.001 C 
HETATM   19  C19 UNL     1     -10.533  46.868 -37.091  1.00  0.00     0.038 C 
HETATM   20  C20 UNL     1     -11.017  47.683 -38.332  1.00  0.00     0.130 C 
HETATM   21  O4  UNL     1     -11.457  46.990 -39.523  1.00  0.00    -0.371 OA
HETATM   22  C21 UNL     1     -12.018  45.664 -39.596  1.00  0.00     0.185 C 
HETATM   23  C22 UNL     1     -11.389  44.843 -40.733  1.00  0.00    -0.006 A 
HETATM   24  C23 UNL     1     -12.184  43.836 -41.324  1.00  0.00     0.014 A 
HETATM   25  C24 UNL     1     -11.658  42.967 -42.280  1.00  0.00     0.037 A 
HETATM   26  C25 UNL     1     -10.328  43.085 -42.658  1.00  0.00     0.067 A 
HETATM   27  C26 UNL     1      -9.518  44.073 -42.108  1.00  0.00     0.057 A 
HETATM   28  C27 UNL     1     -10.040  44.949 -41.154  1.00  0.00     0.029 A 
HETATM   29  C28 UNL     1      -9.171  45.944 -40.606  1.00  0.00    -0.066 C 
HETATM   30  C29 UNL     1      -8.711  46.885 -40.019  1.00  0.00    -0.101 C 
HETATM   31  C30 UNL     1      -8.545  48.052 -39.148  1.00  0.00     0.103 C 
HETATM   32  C31 UNL     1      -9.922  48.699 -38.827  1.00  0.00     0.049 C 
HETATM   33  C33 UNL     1     -11.200  44.866 -35.497  1.00  0.00     0.030 C 
HETATM   34  C34 UNL     1     -10.447  45.299 -34.247  1.00  0.00    -0.057 A 
HETATM   35  C35 UNL     1      -9.143  45.796 -34.240  1.00  0.00     0.005 A 
HETATM   36  C36 UNL     1      -8.520  46.192 -33.036  1.00  0.00     0.010 A 
HETATM   37  C37 UNL     1      -9.191  46.115 -31.799  1.00  0.00    -0.007 A 
HETATM   38  C38 UNL     1     -10.542  45.732 -31.839  1.00  0.00     0.096 A 
HETATM   39  C39 UNL     1     -11.149  45.324 -33.028  1.00  0.00     0.092 A 
HETATM   40  C40 UNL     1      -8.533  46.356 -30.387  1.00  0.00     0.168 C 
HETATM   41  O8  UNL     1      -8.337  45.099 -29.613  1.00  0.00    -0.316 OA
HETATM   42 NA1  UNL     1      -9.460  45.443 -33.964  1.00  0.00    -0.355 Na
ATOM     43 1HA1 UNL     1      -8.887  45.800 -34.729  1.00  0.00     0.103 HD
ATOM     44 2HA1 UNL     1      -8.731  45.027 -34.544  1.00  0.00     0.103 HD
ENDROOT
BRANCH  40  45
HETATM   45  C41 UNL     1      -7.111  47.013 -30.444  1.00  0.00     0.070 C 
BRANCH  45  46
HETATM   46  C42 UNL     1      -6.747  48.097 -29.403  1.00  0.00     0.043 C 
BRANCH  46  47
HETATM   47  C43 UNL     1      -6.370  47.748 -27.942  1.00  0.00     0.058 C 
HETATM   48  C44 UNL     1      -7.354  48.263 -26.886  1.00  0.00     0.038 C 
HETATM   49  C45 UNL     1      -7.008  47.773 -25.475  1.00  0.00     0.003 C 
HETATM   50  C46 UNL     1      -5.524  47.870 -25.135  1.00  0.00     0.000 C 
HETATM   51  C47 UNL     1      -4.708  48.621 -26.179  1.00  0.00     0.003 C 
HETATM   52  C48 UNL     1      -4.904  48.070 -27.592  1.00  0.00     0.038 C 
BRANCH  47  53
HETATM   53  O7  UNL     1      -6.469  46.296 -27.871  1.00  0.00    -0.390 OA
HETATM   54  H44 UNL     1      -7.389  46.060 -28.080  1.00  0.00     0.210 HD
ENDBRANCH  47  53
ENDBRANCH  46  47
ENDBRANCH  45  46
ENDBRANCH  40  45
BRANCH  40  55
HETATM   55  N1  UNL     1      -9.407  47.281 -29.629  1.00  0.00    -0.336 N 
HETATM   56  C49 UNL     1     -10.210  46.954 -28.698  1.00  0.00     0.124 C 
HETATM   57  N2  UNL     1     -10.928  47.922 -28.086  1.00  0.00    -0.279 NA
HETATM   58  N3  UNL     1     -10.526  45.762 -28.146  1.00  0.00    -0.279 NA
HETATM   59  H55 UNL     1     -10.795  48.806 -28.575  1.00  0.00     0.126 HD
HETATM   60  H56 UNL     1     -11.912  47.695 -28.037  1.00  0.00     0.126 HD
HETATM   61  H57 UNL     1     -10.676  45.864 -27.149  1.00  0.00     0.126 HD
HETATM   62  H58 UNL     1      -9.823  45.049 -28.290  1.00  0.00     0.126 HD
ATOM     63  H1  UNL     1      -9.361  48.270 -29.875  1.00  0.00     0.165 HD
ENDBRANCH  40  55
BRANCH  13  64
HETATM   64  S1  UNL     1      -9.741  41.121 -37.301  1.00  0.00     0.106 S 
HETATM   65  O1  UNL     1      -8.616  40.309 -36.843  1.00  0.00    -0.595 OA
HETATM   66  O2  UNL     1     -11.024  40.572 -36.868  1.00  0.00    -0.595 OA
HETATM   67  O3  UNL     1      -9.693  41.503 -38.712  1.00  0.00    -0.595 OA
ENDBRANCH  13  64
BRANCH  32  68
HETATM   68  C32 UNL     1      -9.732  49.848 -37.829  1.00  0.00     0.172 C 
BRANCH  68  69
HETATM   69  O6  UNL     1     -11.003  50.356 -37.437  1.00  0.00    -0.400 OA
HETATM   70  H34 UNL     1     -10.840  51.095 -36.825  1.00  0.00     0.209 HD
ENDBRANCH  68  69
ENDBRANCH  32  68
BRANCH  26  71
HETATM   71  O5  UNL     1      -9.835  42.191 -43.563  1.00  0.00    -0.361 OA
HETATM   72  H27 UNL     1      -8.869  42.154 -43.428  1.00  0.00     0.217 HD
ENDBRANCH  26  71
TORSDOF 9
ENDMDL
MODEL 4
REMARK minimizedAffinity -9.56363201
REMARK CNNscore 0.138415739
REMARK CNNaffinity 7.22976923
REMARK  9 active torsions:
REMARK  status: ('A' for Active; 'I' for Inactive)
REMARK    1  A    between atoms: C13_13  and  S1_14 
REMARK    2  A    between atoms: C25_30  and  O5_31 
REMARK    3  A    between atoms: C31_37  and  C32_38 
REMARK    4  A    between atoms: C32_38  and  O6_39 
REMARK    5  A    between atoms: C40_47  and  C41_48 
REMARK    6  A    between atoms: C40_47  and  N1_57 
REMARK    7  A    between atoms: C41_48  and  C42_49 
REMARK    8  A    between atoms: C42_49  and  C43_50 
REMARK    9  A    between atoms: C43_50  and  O7_51 
REMARK       I    between atoms: C49_59  and  N2_60 
REMARK       I    between atoms: C49_59  and  N3_61 
ROOT
HETATM    1  C1  UNL     1      -3.059  44.661 -17.435  1.00  0.00     0.010 C 
HETATM    2  C2  UNL     1      -4.350  45.448 -17.700  1.00  0.00    -0.010 C 
HETATM    3  C3  UNL     1      -4.397  46.698 -16.757  1.00  0.00     0.009 C 
HETATM    4  C4  UNL     1      -4.520  48.065 -17.459  1.00  0.00     0.039 C 
HETATM    5  C5  UNL     1      -3.645  48.136 -18.682  1.00  0.00    -0.049 C 
HETATM    6  C6  UNL     1      -3.144  49.331 -19.195  1.00  0.00     0.044 C 
HETATM    7  C7  UNL     1      -2.477  49.296 -20.425  1.00  0.00     0.072 C 
HETATM    8  C8  UNL     1      -2.000  48.097 -20.944  1.00  0.00     0.037 C 
HETATM    9  C9  UNL     1      -2.527  46.912 -20.451  1.00  0.00     0.011 C 
HETATM   10  C10 UNL     1      -3.494  46.965 -19.439  1.00  0.00    -0.047 C 
HETATM   11  C11 UNL     1      -4.525  45.870 -19.169  1.00  0.00     0.024 C 
HETATM   12  C12 UNL     1      -4.608  44.837 -20.311  1.00  0.00     0.033 C 
HETATM   13  C13 UNL     1      -5.921  44.056 -20.567  1.00  0.00     0.139 C 
HETATM   14  C14 UNL     1      -7.319  44.810 -20.607  1.00  0.00     0.038 C 
HETATM   15  C15 UNL     1      -8.410  43.864 -21.161  1.00  0.00    -0.014 C 
HETATM   16  C16 UNL     1      -9.565  44.265 -21.735  1.00  0.00    -0.050 C 
HETATM   17  C17 UNL     1      -9.915  45.709 -21.691  1.00  0.00     0.042 C 
HETATM   18  C18 UNL     1      -8.700  46.354 -22.334  1.00  0.00     0.001 C 
HETATM   19  C19 UNL     1      -8.381  45.670 -23.707  1.00  0.00     0.038 C 
HETATM   20  C20 UNL     1      -9.626  45.158 -24.497  1.00  0.00     0.130 C 
HETATM   21  O4  UNL     1     -10.326  43.973 -24.050  1.00  0.00    -0.371 OA
HETATM   22  C21 UNL     1     -10.392  43.462 -22.704  1.00  0.00     0.185 C 
HETATM   23  C22 UNL     1     -10.148  41.945 -22.658  1.00  0.00    -0.006 A 
HETATM   24  C23 UNL     1     -10.754  41.221 -21.608  1.00  0.00     0.014 A 
HETATM   25  C24 UNL     1     -10.494  39.864 -21.421  1.00  0.00     0.037 A 
HETATM   26  C25 UNL     1      -9.618  39.208 -22.276  1.00  0.00     0.067 A 
HETATM   27  C26 UNL     1      -9.013  39.885 -23.328  1.00  0.00     0.057 A 
HETATM   28  C27 UNL     1      -9.274  41.243 -23.524  1.00  0.00     0.029 A 
HETATM   29  C28 UNL     1      -8.624  41.904 -24.613  1.00  0.00    -0.066 C 
HETATM   30  C29 UNL     1      -8.272  42.695 -25.446  1.00  0.00    -0.101 C 
HETATM   31  C30 UNL     1      -8.101  43.913 -26.241  1.00  0.00     0.103 C 
HETATM   32  C31 UNL     1      -9.289  44.891 -26.011  1.00  0.00     0.049 C 
HETATM   33  C33 UNL     1      -7.530  46.269 -21.275  1.00  0.00     0.030 C 
HETATM   34  C34 UNL     1      -6.462  47.288 -21.643  1.00  0.00    -0.057 A 
HETATM   35  C35 UNL     1      -5.549  47.137 -22.688  1.00  0.00     0.005 A 
HETATM   36  C36 UNL     1      -4.597  48.141 -22.976  1.00  0.00     0.010 A 
HETATM   37  C37 UNL     1      -4.539  49.336 -22.232  1.00  0.00    -0.007 A 
HETATM   38  C38 UNL     1      -5.543  49.527 -21.267  1.00  0.00     0.096 A 
HETATM   39  C39 UNL     1      -6.471  48.525 -20.974  1.00  0.00     0.092 A 
HETATM   40  C40 UNL     1      -3.411  50.430 -22.349  1.00  0.00     0.168 C 
HETATM   41  O8  UNL     1      -2.479  50.434 -21.187  1.00  0.00    -0.316 OA
HETATM   42 NA1  UNL     1      -5.564  47.298 -22.163  1.00  0.00    -0.355 Na
ATOM     43 1HA1 UNL     1      -5.571  46.656 -22.956  1.00  0.00     0.103 HD
ATOM     44 2HA1 UNL     1      -5.106  46.405 -22.342  1.00  0.00     0.103 HD
ENDROOT
BRANCH  40  45
HETATM   45  C41 UNL     1      -2.483  50.266 -23.601  1.00  0.00     0.070 C 
BRANCH  45  46
HETATM   46  C42 UNL     1      -1.211  51.138 -23.707  1.00  0.00     0.043 C 
BRANCH  46  47
HETATM   47  C43 UNL     1      -0.676  51.660 -25.064  1.00  0.00     0.058 C 
HETATM   48  C44 UNL     1      -0.991  50.763 -26.266  1.00  0.00     0.038 C 
HETATM   49  C45 UNL     1      -0.562  51.393 -27.596  1.00  0.00     0.003 C 
HETATM   50  C46 UNL     1       0.824  52.029 -27.558  1.00  0.00     0.000 C 
HETATM   51  C47 UNL     1       1.595  51.736 -26.278  1.00  0.00     0.003 C 
HETATM   52  C48 UNL     1       0.803  52.090 -25.018  1.00  0.00     0.038 C 
BRANCH  47  53
HETATM   53  O7  UNL     1      -1.422  52.888 -25.307  1.00  0.00    -0.390 OA
HETATM   54  H44 UNL     1      -2.364  52.648 -25.350  1.00  0.00     0.210 HD
ENDBRANCH  47  53
ENDBRANCH  46  47
ENDBRANCH  45  46
ENDBRANCH  40  45
BRANCH  40  55
HETATM   55  N1  UNL     1      -4.068  51.753 -22.469  1.00  0.00    -0.336 N 
HETATM   56  C49 UNL     1      -4.917  52.086 -23.355  1.00  0.00     0.124 C 
HETATM   57  N2  UNL     1      -5.444  53.331 -23.318  1.00  0.00    -0.279 NA
HETATM   58  N3  UNL     1      -5.448  51.420 -24.403  1.00  0.00    -0.279 NA
HETATM   59  H55 UNL     1      -4.962  53.885 -22.612  1.00  0.00     0.126 HD
HETATM   60  H56 UNL     1      -5.397  53.793 -24.217  1.00  0.00     0.126 HD
HETATM   61  H57 UNL     1      -6.424  51.666 -24.522  1.00  0.00     0.126 HD
HETATM   62  H58 UNL     1      -5.382  50.414 -24.320  1.00  0.00     0.126 HD
ATOM     63  H1  UNL     1      -3.817  52.460 -21.778  1.00  0.00     0.165 HD
ENDBRANCH  40  55
BRANCH  13  64
HETATM   64  S1  UNL     1      -5.975  42.590 -19.414  1.00  0.00     0.106 S 
HETATM   65  O1  UNL     1      -6.608  41.528 -20.191  1.00  0.00    -0.595 OA
HETATM   66  O2  UNL     1      -4.576  42.290 -19.114  1.00  0.00    -0.595 OA
HETATM   67  O3  UNL     1      -6.750  43.062 -18.267  1.00  0.00    -0.595 OA
ENDBRANCH  13  64
BRANCH  32  68
HETATM   68  C32 UNL     1      -9.033  46.201 -26.766  1.00  0.00     0.172 C 
BRANCH  68  69
HETATM   69  O6  UNL     1     -10.123  46.470 -27.641  1.00  0.00    -0.400 OA
HETATM   70  H34 UNL     1      -9.913  47.292 -28.117  1.00  0.00     0.209 HD
ENDBRANCH  68  69
ENDBRANCH  32  68
BRANCH  26  71
HETATM   71  O5  UNL     1      -9.353  37.891 -22.037  1.00  0.00    -0.361 OA
HETATM   72  H27 UNL     1      -8.485  37.700 -22.440  1.00  0.00     0.217 HD
ENDBRANCH  26  71
TORSDOF 9
ENDMDL
MODEL 5
REMARK minimizedAffinity -8.29537106
REMARK CNNscore 0.122102298
REMARK CNNaffinity 6.91203165
REMARK  9 active torsions:
REMARK  status: ('A' for Active; 'I' for Inactive)
REMARK    1  A    between atoms: C13_13  and  S1_14 
REMARK    2  A    between atoms: C25_30  and  O5_31 
REMARK    3  A    between atoms: C31_37  and  C32_38 
REMARK    4  A    between atoms: C32_38  and  O6_39 
REMARK    5  A    between atoms: C40_47  and  C41_48 
REMARK    6  A    between atoms: C40_47  and  N1_57 
REMARK    7  A    between atoms: C41_48  and  C42_49 
REMARK    8  A    between atoms: C42_49  and  C43_50 
REMARK    9  A    between atoms: C43_50  and  O7_51 
REMARK       I    between atoms: C49_59  and  N2_60 
REMARK       I    between atoms: C49_59  and  N3_61 
ROOT
HETATM    1  C1  UNL     1       2.600  50.695 -13.058  1.00  0.00     0.010 C 
HETATM    2  C2  UNL     1       1.639  51.848 -12.732  1.00  0.00    -0.010 C 
HETATM    3  C3  UNL     1       0.616  52.016 -13.908  1.00  0.00     0.009 C 
HETATM    4  C4  UNL     1      -0.872  51.900 -13.524  1.00  0.00     0.039 C 
HETATM    5  C5  UNL     1      -1.101  50.780 -12.543  1.00  0.00    -0.049 C 
HETATM    6  C6  UNL     1      -2.315  50.107 -12.422  1.00  0.00     0.044 C 
HETATM    7  C7  UNL     1      -2.465  49.196 -11.371  1.00  0.00     0.072 C 
HETATM    8  C8  UNL     1      -1.357  48.696 -10.696  1.00  0.00     0.037 C 
HETATM    9  C9  UNL     1      -0.160  49.390 -10.794  1.00  0.00     0.011 C 
HETATM   10  C10 UNL     1      -0.105  50.545 -11.584  1.00  0.00    -0.047 C 
HETATM   11  C11 UNL     1       0.903  51.678 -11.393  1.00  0.00     0.024 C 
HETATM   12  C12 UNL     1       1.659  51.580 -10.052  1.00  0.00     0.033 C 
HETATM   13  C13 UNL     1       2.222  52.855  -9.375  1.00  0.00     0.139 C 
HETATM   14  C14 UNL     1       1.328  54.161  -9.237  1.00  0.00     0.038 C 
HETATM   15  C15 UNL     1       2.013  55.167  -8.281  1.00  0.00    -0.014 C 
HETATM   16  C16 UNL     1       1.378  56.144  -7.600  1.00  0.00    -0.050 C 
HETATM   17  C17 UNL     1      -0.056  56.404  -7.901  1.00  0.00     0.042 C 
HETATM   18  C18 UNL     1      -0.684  55.041  -7.670  1.00  0.00     0.001 C 
HETATM   19  C19 UNL     1      -0.272  54.479  -6.267  1.00  0.00     0.038 C 
HETATM   20  C20 UNL     1      -0.074  55.557  -5.154  1.00  0.00     0.130 C 
HETATM   21  O4  UNL     1       1.095  56.409  -5.176  1.00  0.00    -0.371 OA
HETATM   22  C21 UNL     1       1.865  56.794  -6.331  1.00  0.00     0.185 C 
HETATM   23  C22 UNL     1       3.375  56.662  -6.078  1.00  0.00    -0.006 A 
HETATM   24  C23 UNL     1       4.232  57.523  -6.798  1.00  0.00     0.014 A 
HETATM   25  C24 UNL     1       5.619  57.396  -6.719  1.00  0.00     0.037 A 
HETATM   26  C25 UNL     1       6.173  56.401  -5.925  1.00  0.00     0.067 A 
HETATM   27  C26 UNL     1       5.361  55.543  -5.192  1.00  0.00     0.057 A 
HETATM   28  C27 UNL     1       3.972  55.670  -5.262  1.00  0.00     0.029 A 
HETATM   29  C28 UNL     1       3.172  54.761  -4.500  1.00  0.00    -0.066 C 
HETATM   30  C29 UNL     1       2.268  54.190  -3.953  1.00  0.00    -0.101 C 
HETATM   31  C30 UNL     1       0.936  53.776  -3.505  1.00  0.00     0.103 C 
HETATM   32  C31 UNL     1      -0.095  54.921  -3.715  1.00  0.00     0.049 C 
HETATM   33  C33 UNL     1      -0.252  54.131  -8.889  1.00  0.00     0.030 C 
HETATM   34  C34 UNL     1      -1.204  52.947  -8.977  1.00  0.00    -0.057 A 
HETATM   35  C35 UNL     1      -1.176  51.844  -8.123  1.00  0.00     0.005 A 
HETATM   36  C36 UNL     1      -2.107  50.790  -8.262  1.00  0.00     0.010 A 
HETATM   37  C37 UNL     1      -3.107  50.817  -9.254  1.00  0.00    -0.007 A 
HETATM   38  C38 UNL     1      -3.200  51.990 -10.023  1.00  0.00     0.096 A 
HETATM   39  C39 UNL     1      -2.267  53.021  -9.895  1.00  0.00     0.092 A 
HETATM   40  C40 UNL     1      -4.072  49.623  -9.610  1.00  0.00     0.168 C 
HETATM   41  O8  UNL     1      -3.731  48.963 -10.902  1.00  0.00    -0.316 OA
HETATM   42 NA1  UNL     1      -1.224  51.960  -8.657  1.00  0.00    -0.355 Na
ATOM     43 1HA1 UNL     1      -0.766  51.838  -7.754  1.00  0.00     0.103 HD
ATOM     44 2HA1 UNL     1      -0.343  51.532  -8.373  1.00  0.00     0.103 HD
ENDROOT
BRANCH  40  45
HETATM   45  C41 UNL     1      -4.073  48.461  -8.559  1.00  0.00     0.070 C 
BRANCH  45  46
HETATM   46  C42 UNL     1      -2.842  48.283  -7.641  1.00  0.00     0.043 C 
BRANCH  46  47
HETATM   47  C43 UNL     1      -2.940  47.628  -6.241  1.00  0.00     0.058 C 
HETATM   48  C44 UNL     1      -1.646  47.672  -5.421  1.00  0.00     0.038 C 
HETATM   49  C45 UNL     1      -1.837  47.137  -3.997  1.00  0.00     0.003 C 
HETATM   50  C46 UNL     1      -2.652  45.849  -3.926  1.00  0.00     0.000 C 
HETATM   51  C47 UNL     1      -2.941  45.235  -5.290  1.00  0.00     0.003 C 
HETATM   52  C48 UNL     1      -3.581  46.228  -6.261  1.00  0.00     0.038 C 
BRANCH  47  53
HETATM   53  O7  UNL     1      -3.879  48.466  -5.506  1.00  0.00    -0.390 OA
HETATM   54  H44 UNL     1      -3.496  49.361  -5.469  1.00  0.00     0.210 HD
ENDBRANCH  47  53
ENDBRANCH  46  47
ENDBRANCH  45  46
ENDBRANCH  40  45
BRANCH  40  55
HETATM   55  N1  UNL     1      -5.454  50.155  -9.669  1.00  0.00    -0.336 N 
HETATM   56  C49 UNL     1      -6.440  49.607 -10.256  1.00  0.00     0.124 C 
HETATM   57  N2  UNL     1      -7.649  50.210 -10.202  1.00  0.00    -0.279 NA
HETATM   58  N3  UNL     1      -6.553  48.469 -10.976  1.00  0.00    -0.279 NA
HETATM   59  H55 UNL     1      -7.553  51.129  -9.772  1.00  0.00     0.126 HD
HETATM   60  H56 UNL     1      -8.075  50.295 -11.115  1.00  0.00     0.126 HD
HETATM   61  H57 UNL     1      -7.443  48.022 -10.792  1.00  0.00     0.126 HD
HETATM   62  H58 UNL     1      -5.817  47.799 -10.794  1.00  0.00     0.126 HD
ATOM     63  H1  UNL     1      -5.631  51.041  -9.195  1.00  0.00     0.165 HD
ENDBRANCH  40  55
BRANCH  13  64
HETATM   64  S1  UNL     1       3.881  53.247 -10.132  1.00  0.00     0.106 S 
HETATM   65  O1  UNL     1       4.652  53.852  -9.049  1.00  0.00    -0.595 OA
HETATM   66  O2  UNL     1       4.429  51.954 -10.537  1.00  0.00    -0.595 OA
HETATM   67  O3  UNL     1       3.568  54.144 -11.243  1.00  0.00    -0.595 OA
ENDBRANCH  13  64
BRANCH  32  68
HETATM   68  C32 UNL     1      -1.498  54.427  -3.341  1.00  0.00     0.172 C 
BRANCH  68  69
HETATM   69  O6  UNL     1      -1.497  53.007  -3.249  1.00  0.00    -0.400 OA
HETATM   70  H34 UNL     1      -2.405  52.732  -3.035  1.00  0.00     0.209 HD
ENDBRANCH  68  69
ENDBRANCH  32  68
BRANCH  26  71
HETATM   71  O5  UNL     1       7.531  56.276  -5.905  1.00  0.00    -0.361 OA
HETATM   72  H27 UNL     1       7.727  55.356  -5.646  1.00  0.00     0.217 HD
ENDBRANCH  26  71
TORSDOF 9
ENDMDL
MODEL 6
REMARK minimizedAffinity -7.99259043
REMARK CNNscore 0.119616792
REMARK CNNaffinity 6.87761545
REMARK  9 active torsions:
REMARK  status: ('A' for Active; 'I' for Inactive)
REMARK    1  A    between atoms: C13_13  and  S1_14 
REMARK    2  A    between atoms: C25_30  and  O5_31 
REMARK    3  A    between atoms: C31_37  and  C32_38 
REMARK    4  A    between atoms: C32_38  and  O6_39 
REMARK    5  A    between atoms: C40_47  and  C41_48 
REMARK    6  A    between atoms: C40_47  and  N1_57 
REMARK    7  A    between atoms: C41_48  and  C42_49 
REMARK    8  A    between atoms: C42_49  and  C43_50 
REMARK    9  A    between atoms: C43_50  and  O7_51 
REMARK       I    between atoms: C49_59  and  N2_60 
REMARK       I    between atoms: C49_59  and  N3_61 
ROOT
HETATM    1  C1  UNL     1      -8.329  40.410 -20.425  1.00  0.00     0.010 C 
HETATM    2  C2  UNL     1      -9.216  41.654 -20.581  1.00  0.00    -0.010 C 
HETATM    3  C3  UNL     1      -9.575  42.213 -19.162  1.00  0.00     0.009 C 
HETATM    4  C4  UNL     1      -9.172  43.676 -18.895  1.00  0.00     0.039 C 
HETATM    5  C5  UNL     1      -7.803  43.979 -19.447  1.00  0.00    -0.049 C 
HETATM    6  C6  UNL     1      -6.977  44.977 -18.936  1.00  0.00     0.044 C 
HETATM    7  C7  UNL     1      -5.797  45.278 -19.626  1.00  0.00     0.072 C 
HETATM    8  C8  UNL     1      -5.272  44.394 -20.561  1.00  0.00     0.037 C 
HETATM    9  C9  UNL     1      -6.110  43.423 -21.090  1.00  0.00     0.011 C 
HETATM   10  C10 UNL     1      -7.437  43.354 -20.648  1.00  0.00    -0.047 C 
HETATM   11  C11 UNL     1      -8.588  42.753 -21.454  1.00  0.00     0.024 C 
HETATM   12  C12 UNL     1      -8.215  42.510 -22.931  1.00  0.00     0.033 C 
HETATM   13  C13 UNL     1      -9.311  42.516 -24.026  1.00  0.00     0.139 C 
HETATM   14  C14 UNL     1     -10.404  43.667 -24.073  1.00  0.00     0.038 C 
HETATM   15  C15 UNL     1     -11.181  43.600 -25.410  1.00  0.00    -0.014 C 
HETATM   16  C16 UNL     1     -11.842  44.632 -25.975  1.00  0.00    -0.050 C 
HETATM   17  C17 UNL     1     -11.994  45.890 -25.196  1.00  0.00     0.042 C 
HETATM   18  C18 UNL     1     -10.554  46.241 -24.869  1.00  0.00     0.001 C 
HETATM   19  C19 UNL     1      -9.679  46.230 -26.169  1.00  0.00     0.038 C 
HETATM   20  C20 UNL     1     -10.420  46.677 -27.469  1.00  0.00     0.130 C 
HETATM   21  O4  UNL     1     -11.384  45.793 -28.088  1.00  0.00    -0.371 OA
HETATM   22  C21 UNL     1     -12.169  44.775 -27.439  1.00  0.00     0.185 C 
HETATM   23  C22 UNL     1     -12.161  43.458 -28.232  1.00  0.00    -0.006 A 
HETATM   24  C23 UNL     1     -13.289  42.617 -28.106  1.00  0.00     0.014 A 
HETATM   25  C24 UNL     1     -13.318  41.354 -28.696  1.00  0.00     0.037 A 
HETATM   26  C25 UNL     1     -12.219  40.906 -29.415  1.00  0.00     0.067 A 
HETATM   27  C26 UNL     1     -11.096  41.711 -29.571  1.00  0.00     0.057 A 
HETATM   28  C27 UNL     1     -11.063  42.979 -28.988  1.00  0.00     0.029 A 
HETATM   29  C28 UNL     1      -9.885  43.771 -29.164  1.00  0.00    -0.066 C 
HETATM   30  C29 UNL     1      -9.076  44.659 -29.178  1.00  0.00    -0.101 C 
HETATM   31  C30 UNL     1      -8.391  45.937 -28.968  1.00  0.00     0.103 C 
HETATM   32  C31 UNL     1      -9.410  47.056 -28.615  1.00  0.00     0.049 C 
HETATM   33  C33 UNL     1     -10.082  45.221 -23.756  1.00  0.00     0.030 C 
HETATM   34  C34 UNL     1      -8.860  45.795 -23.054  1.00  0.00    -0.057 A 
HETATM   35  C35 UNL     1      -7.574  45.823 -23.597  1.00  0.00     0.005 A 
HETATM   36  C36 UNL     1      -6.494  46.389 -22.885  1.00  0.00     0.010 A 
HETATM   37  C37 UNL     1      -6.671  46.960 -21.609  1.00  0.00    -0.007 A 
HETATM   38  C38 UNL     1      -7.990  47.037 -21.131  1.00  0.00     0.096 A 
HETATM   39  C39 UNL     1      -9.053  46.460 -21.830  1.00  0.00     0.092 A 
HETATM   40  C40 UNL     1      -5.513  47.450 -20.659  1.00  0.00     0.168 C 
HETATM   41  O8  UNL     1      -5.287  46.544 -19.499  1.00  0.00    -0.316 OA
HETATM   42 NA1  UNL     1      -7.828  45.706 -23.124  1.00  0.00    -0.355 Na
ATOM     43 1HA1 UNL     1      -7.517  45.577 -24.087  1.00  0.00     0.103 HD
ATOM     44 2HA1 UNL     1      -7.451  44.908 -23.635  1.00  0.00     0.103 HD
ENDROOT
BRANCH  40  45
HETATM   45  C41 UNL     1      -4.113  47.560 -21.355  1.00  0.00     0.070 C 
BRANCH  45  46
HETATM   46  C42 UNL     1      -2.929  48.160 -20.562  1.00  0.00     0.043 C 
BRANCH  46  47
HETATM   47  C43 UNL     1      -2.249  49.490 -20.970  1.00  0.00     0.058 C 
HETATM   48  C44 UNL     1      -2.006  49.651 -22.475  1.00  0.00     0.038 C 
HETATM   49  C45 UNL     1      -1.460  51.038 -22.835  1.00  0.00     0.003 C 
HETATM   50  C46 UNL     1      -0.353  51.525 -21.904  1.00  0.00     0.000 C 
HETATM   51  C47 UNL     1       0.136  50.462 -20.930  1.00  0.00     0.003 C 
HETATM   52  C48 UNL     1      -1.002  49.826 -20.130  1.00  0.00     0.038 C 
BRANCH  47  53
HETATM   53  O7  UNL     1      -3.222  50.521 -20.635  1.00  0.00    -0.390 OA
HETATM   54  H44 UNL     1      -4.023  50.341 -21.158  1.00  0.00     0.210 HD
ENDBRANCH  47  53
ENDBRANCH  46  47
ENDBRANCH  45  46
ENDBRANCH  40  45
BRANCH  40  55
HETATM   55  N1  UNL     1      -5.863  48.806 -20.175  1.00  0.00    -0.336 N 
HETATM   56  C49 UNL     1      -6.070  49.828 -20.903  1.00  0.00     0.124 C 
HETATM   57  N2  UNL     1      -6.401  50.996 -20.309  1.00  0.00    -0.279 NA
HETATM   58  N3  UNL     1      -6.028  50.016 -22.240  1.00  0.00    -0.279 NA
HETATM   59  H55 UNL     1      -6.313  50.902 -19.298  1.00  0.00     0.126 HD
HETATM   60  H56 UNL     1      -5.835  51.767 -20.638  1.00  0.00     0.126 HD
HETATM   61  H57 UNL     1      -6.759  50.655 -22.530  1.00  0.00     0.126 HD
HETATM   62  H58 UNL     1      -6.123  49.161 -22.774  1.00  0.00     0.126 HD
ATOM     63  H1  UNL     1      -5.945  48.932 -19.166  1.00  0.00     0.165 HD
ENDBRANCH  40  55
BRANCH  13  64
HETATM   64  S1  UNL     1     -10.102  40.828 -24.085  1.00  0.00     0.106 S 
HETATM   65  O1  UNL     1     -10.426  40.616 -25.493  1.00  0.00    -0.595 OA
HETATM   66  O2  UNL     1      -9.068  39.907 -23.616  1.00  0.00    -0.595 OA
HETATM   67  O3  UNL     1     -11.258  40.940 -23.196  1.00  0.00    -0.595 OA
ENDBRANCH  13  64
BRANCH  32  68
HETATM   68  C32 UNL     1      -8.661  48.355 -28.293  1.00  0.00     0.172 C 
BRANCH  68  69
HETATM   69  O6  UNL     1      -8.853  49.293 -29.347  1.00  0.00    -0.400 OA
HETATM   70  H34 UNL     1      -8.345  50.090 -29.118  1.00  0.00     0.209 HD
ENDBRANCH  68  69
ENDBRANCH  32  68
BRANCH  26  71
HETATM   71  O5  UNL     1     -12.265  39.648 -29.942  1.00  0.00    -0.361 OA
HETATM   72  H27 UNL     1     -11.341  39.355 -30.057  1.00  0.00     0.217 HD
ENDBRANCH  26  71
TORSDOF 9
ENDMDL
MODEL 7
REMARK minimizedAffinity -9.88167572
REMARK CNNscore 0.117742836
REMARK CNNaffinity 7.18178034
REMARK  9 active torsions:
REMARK  status: ('A' for Active; 'I' for Inactive)
REMARK    1  A    between atoms: C13_13  and  S1_14 
REMARK    2  A    between atoms: C25_30  and  O5_31 
REMARK    3  A    between atoms: C31_37  and  C32_38 
REMARK    4  A    between atoms: C32_38  and  O6_39 
REMARK    5  A    between atoms: C40_47  and  C41_48 
REMARK    6  A    between atoms: C40_47  and  N1_57 
REMARK    7  A    between atoms: C41_48  and  C42_49 
REMARK    8  A    between atoms: C42_49  and  C43_50 
REMARK    9  A    between atoms: C43_50  and  O7_51 
REMARK       I    between atoms: C49_59  and  N2_60 
REMARK       I    between atoms: C49_59  and  N3_61 
ROOT
HETATM    1  C1  UNL     1      -1.023  47.866 -15.659  1.00  0.00     0.010 C 
HETATM    2  C2  UNL     1      -2.465  48.295 -15.970  1.00  0.00    -0.010 C 
HETATM    3  C3  UNL     1      -2.649  49.803 -15.588  1.00  0.00     0.009 C 
HETATM    4  C4  UNL     1      -3.112  50.733 -16.727  1.00  0.00     0.039 C 
HETATM    5  C5  UNL     1      -2.408  50.413 -18.019  1.00  0.00    -0.049 C 
HETATM    6  C6  UNL     1      -2.208  51.348 -19.033  1.00  0.00     0.044 C 
HETATM    7  C7  UNL     1      -1.686  50.902 -20.252  1.00  0.00     0.072 C 
HETATM    8  C8  UNL     1      -1.046  49.671 -20.347  1.00  0.00     0.037 C 
HETATM    9  C9  UNL     1      -1.275  48.733 -19.351  1.00  0.00     0.011 C 
HETATM   10  C10 UNL     1      -2.116  49.066 -18.282  1.00  0.00    -0.047 C 
HETATM   11  C11 UNL     1      -2.879  48.051 -17.431  1.00  0.00     0.024 C 
HETATM   12  C12 UNL     1      -2.884  46.640 -18.054  1.00  0.00     0.033 C 
HETATM   13  C13 UNL     1      -4.041  45.654 -17.750  1.00  0.00     0.139 C 
HETATM   14  C14 UNL     1      -5.554  46.132 -17.826  1.00  0.00     0.038 C 
HETATM   15  C15 UNL     1      -6.495  44.905 -17.769  1.00  0.00    -0.014 C 
HETATM   16  C16 UNL     1      -7.761  44.877 -18.236  1.00  0.00    -0.050 C 
HETATM   17  C17 UNL     1      -8.379  46.152 -18.689  1.00  0.00     0.042 C 
HETATM   18  C18 UNL     1      -7.391  46.632 -19.737  1.00  0.00     0.001 C 
HETATM   19  C19 UNL     1      -7.098  45.496 -20.775  1.00  0.00     0.038 C 
HETATM   20  C20 UNL     1      -8.299  44.543 -21.070  1.00  0.00     0.130 C 
HETATM   21  O4  UNL     1      -8.701  43.564 -20.084  1.00  0.00    -0.371 OA
HETATM   22  C21 UNL     1      -8.519  43.645 -18.657  1.00  0.00     0.185 C 
HETATM   23  C22 UNL     1      -7.981  42.328 -18.076  1.00  0.00    -0.006 A 
HETATM   24  C23 UNL     1      -8.315  42.024 -16.738  1.00  0.00     0.014 A 
HETATM   25  C24 UNL     1      -7.777  40.910 -16.093  1.00  0.00     0.037 A 
HETATM   26  C25 UNL     1      -6.890  40.085 -16.772  1.00  0.00     0.067 A 
HETATM   27  C26 UNL     1      -6.548  40.346 -18.094  1.00  0.00     0.057 A 
HETATM   28  C27 UNL     1      -7.088  41.456 -18.746  1.00  0.00     0.029 A 
HETATM   29  C28 UNL     1      -6.702  41.694 -20.103  1.00  0.00    -0.066 C 
HETATM   30  C29 UNL     1      -6.605  42.113 -21.224  1.00  0.00    -0.101 C 
HETATM   31  C30 UNL     1      -6.763  42.910 -22.443  1.00  0.00     0.103 C 
HETATM   32  C31 UNL     1      -8.085  43.728 -22.399  1.00  0.00     0.049 C 
HETATM   33  C33 UNL     1      -6.117  47.146 -18.954  1.00  0.00     0.030 C 
HETATM   34  C34 UNL     1      -5.315  48.058 -19.871  1.00  0.00    -0.057 A 
HETATM   35  C35 UNL     1      -4.511  47.616 -20.923  1.00  0.00     0.005 A 
HETATM   36  C36 UNL     1      -3.809  48.531 -21.739  1.00  0.00     0.010 A 
HETATM   37  C37 UNL     1      -3.904  49.922 -21.536  1.00  0.00    -0.007 A 
HETATM   38  C38 UNL     1      -4.813  50.355 -20.556  1.00  0.00     0.096 A 
HETATM   39  C39 UNL     1      -5.491  49.448 -19.738  1.00  0.00     0.092 A 
HETATM   40  C40 UNL     1      -3.029  51.013 -22.264  1.00  0.00     0.168 C 
HETATM   41  O8  UNL     1      -1.994  51.617 -21.380  1.00  0.00    -0.316 OA
HETATM   42 NA1  UNL     1      -4.499  47.974 -20.506  1.00  0.00    -0.355 Na
ATOM     43 1HA1 UNL     1      -4.468  47.069 -20.976  1.00  0.00     0.103 HD
ATOM     44 2HA1 UNL     1      -3.898  47.156 -20.407  1.00  0.00     0.103 HD
ENDROOT
BRANCH  40  45
HETATM   45  C41 UNL     1      -2.231  50.476 -23.501  1.00  0.00     0.070 C 
BRANCH  45  46
HETATM   46  C42 UNL     1      -0.857  51.103 -23.833  1.00  0.00     0.043 C 
BRANCH  46  47
HETATM   47  C43 UNL     1      -0.511  51.640 -25.244  1.00  0.00     0.058 C 
HETATM   48  C44 UNL     1      -0.936  50.726 -26.399  1.00  0.00     0.038 C 
HETATM   49  C45 UNL     1      -0.696  51.368 -27.771  1.00  0.00     0.003 C 
HETATM   50  C46 UNL     1       0.660  52.055 -27.902  1.00  0.00     0.000 C 
HETATM   51  C47 UNL     1       1.590  51.796 -26.724  1.00  0.00     0.003 C 
HETATM   52  C48 UNL     1       0.945  52.125 -25.378  1.00  0.00     0.038 C 
BRANCH  47  53
HETATM   53  O7  UNL     1      -1.327  52.838 -25.393  1.00  0.00    -0.390 OA
HETATM   54  H44 UNL     1      -2.258  52.562 -25.322  1.00  0.00     0.210 HD
ENDBRANCH  47  53
ENDBRANCH  46  47
ENDBRANCH  45  46
ENDBRANCH  40  45
BRANCH  40  55
HETATM   55  N1  UNL     1      -3.941  52.069 -22.763  1.00  0.00    -0.336 N 
HETATM   56  C49 UNL     1      -4.907  51.899 -23.571  1.00  0.00     0.124 C 
HETATM   57  N2  UNL     1      -5.663  52.966 -23.918  1.00  0.00    -0.279 NA
HETATM   58  N3  UNL     1      -5.381  50.806 -24.207  1.00  0.00    -0.279 NA
HETATM   59  H55 UNL     1      -5.243  53.817 -23.548  1.00  0.00     0.126 HD
HETATM   60  H56 UNL     1      -5.780  53.042 -24.920  1.00  0.00     0.126 HD
HETATM   61  H57 UNL     1      -6.393  50.837 -24.260  1.00  0.00     0.126 HD
HETATM   62  H58 UNL     1      -5.113  49.934 -23.769  1.00  0.00     0.126 HD
ATOM     63  H1  UNL     1      -3.777  53.019 -22.429  1.00  0.00     0.165 HD
ENDBRANCH  40  55
BRANCH  13  64
HETATM   64  S1  UNL     1      -3.682  44.796 -16.133  1.00  0.00     0.106 S 
HETATM   65  O1  UNL     1      -4.225  43.451 -16.296  1.00  0.00    -0.595 OA
HETATM   66  O2  UNL     1      -2.224  44.789 -16.022  1.00  0.00    -0.595 OA
HETATM   67  O3  UNL     1      -4.358  45.619 -15.131  1.00  0.00    -0.595 OA
ENDBRANCH  13  64
BRANCH  32  68
HETATM   68  C32 UNL     1      -8.173  44.635 -23.632  1.00  0.00     0.172 C 
BRANCH  68  69
HETATM   69  O6  UNL     1      -9.514  45.081 -23.803  1.00  0.00    -0.400 OA
HETATM   70  H34 UNL     1      -9.534  45.631 -24.605  1.00  0.00     0.209 HD
ENDBRANCH  68  69
ENDBRANCH  32  68
BRANCH  26  71
HETATM   71  O5  UNL     1      -6.349  39.030 -16.097  1.00  0.00    -0.361 OA
HETATM   72  H27 UNL     1      -5.510  38.809 -16.544  1.00  0.00     0.217 HD
ENDBRANCH  26  71
TORSDOF 9
ENDMDL
MODEL 8
REMARK minimizedAffinity -8.48891354
REMARK CNNscore 0.116459668
REMARK CNNaffinity 6.89792585
REMARK  9 active torsions:
REMARK  status: ('A' for Active; 'I' for Inactive)
REMARK    1  A    between atoms: C13_13  and  S1_14 
REMARK    2  A    between atoms: C25_30  and  O5_31 
REMARK    3  A    between atoms: C31_37  and  C32_38 
REMARK    4  A    between atoms: C32_38  and  O6_39 
REMARK    5  A    between atoms: C40_47  and  C41_48 
REMARK    6  A    between atoms: C40_47  and  N1_57 
REMARK    7  A    between atoms: C41_48  and  C42_49 
REMARK    8  A    between atoms: C42_49  and  C43_50 
REMARK    9  A    between atoms: C43_50  and  O7_51 
REMARK       I    between atoms: C49_59  and  N2_60 
REMARK       I    between atoms: C49_59  and  N3_61 
ROOT
HETATM    1  C1  UNL     1       3.140  58.465  -2.833  1.00  0.00     0.010 C 
HETATM    2  C2  UNL     1       3.869  58.519  -4.183  1.00  0.00    -0.010 C 
HETATM    3  C3  UNL     1       4.922  59.680  -4.155  1.00  0.00     0.009 C 
HETATM    4  C4  UNL     1       6.381  59.269  -4.435  1.00  0.00     0.039 C 
HETATM    5  C5  UNL     1       6.733  57.980  -3.741  1.00  0.00    -0.049 C 
HETATM    6  C6  UNL     1       8.033  57.642  -3.370  1.00  0.00     0.044 C 
HETATM    7  C7  UNL     1       8.267  56.353  -2.878  1.00  0.00     0.072 C 
HETATM    8  C8  UNL     1       7.218  55.561  -2.424  1.00  0.00     0.037 C 
HETATM    9  C9  UNL     1       5.930  55.885  -2.825  1.00  0.00     0.011 C 
HETATM   10  C10 UNL     1       5.731  57.003  -3.643  1.00  0.00    -0.047 C 
HETATM   11  C11 UNL     1       4.536  57.191  -4.578  1.00  0.00     0.024 C 
HETATM   12  C12 UNL     1       3.724  55.895  -4.771  1.00  0.00     0.033 C 
HETATM   13  C13 UNL     1       2.912  55.666  -6.070  1.00  0.00     0.139 C 
HETATM   14  C14 UNL     1       3.562  55.947  -7.492  1.00  0.00     0.038 C 
HETATM   15  C15 UNL     1       2.657  55.368  -8.607  1.00  0.00    -0.014 C 
HETATM   16  C16 UNL     1       3.074  55.031  -9.846  1.00  0.00    -0.050 C 
HETATM   17  C17 UNL     1       4.459  55.391 -10.252  1.00  0.00     0.042 C 
HETATM   18  C18 UNL     1       5.292  54.731  -9.167  1.00  0.00     0.001 C 
HETATM   19  C19 UNL     1       4.892  53.224  -9.010  1.00  0.00     0.038 C 
HETATM   20  C20 UNL     1       4.445  52.517 -10.328  1.00  0.00     0.130 C 
HETATM   21  O4  UNL     1       3.153  52.818 -10.905  1.00  0.00    -0.371 OA
HETATM   22  C21 UNL     1       2.404  54.041 -10.763  1.00  0.00     0.185 C 
HETATM   23  C22 UNL     1       0.925  53.769 -10.446  1.00  0.00    -0.006 A 
HETATM   24  C23 UNL     1      -0.018  54.733 -10.869  1.00  0.00     0.014 A 
HETATM   25  C24 UNL     1      -1.365  54.626 -10.524  1.00  0.00     0.037 A 
HETATM   26  C25 UNL     1      -1.793  53.558  -9.746  1.00  0.00     0.067 A 
HETATM   27  C26 UNL     1      -0.896  52.584  -9.324  1.00  0.00     0.057 A 
HETATM   28  C27 UNL     1       0.453  52.682  -9.670  1.00  0.00     0.029 A 
HETATM   29  C28 UNL     1       1.344  51.663  -9.206  1.00  0.00    -0.066 C 
HETATM   30  C29 UNL     1       2.294  50.957  -9.009  1.00  0.00    -0.101 C 
HETATM   31  C30 UNL     1       3.646  50.391  -9.004  1.00  0.00     0.103 C 
HETATM   32  C31 UNL     1       4.481  50.950 -10.191  1.00  0.00     0.049 C 
HETATM   33  C33 UNL     1       5.099  55.597  -7.859  1.00  0.00     0.030 C 
HETATM   34  C34 UNL     1       6.240  55.295  -6.899  1.00  0.00    -0.057 A 
HETATM   35  C35 UNL     1       6.344  54.133  -6.133  1.00  0.00     0.005 A 
HETATM   36  C36 UNL     1       7.447  53.921  -5.276  1.00  0.00     0.010 A 
HETATM   37  C37 UNL     1       8.490  54.863  -5.170  1.00  0.00    -0.007 A 
HETATM   38  C38 UNL     1       8.432  55.966  -6.038  1.00  0.00     0.096 A 
HETATM   39  C39 UNL     1       7.332  56.181  -6.871  1.00  0.00     0.092 A 
HETATM   40  C40 UNL     1       9.663  54.812  -4.119  1.00  0.00     0.168 C 
HETATM   41  O8  UNL     1       9.522  55.826  -3.037  1.00  0.00    -0.316 OA
HETATM   42 NA1  UNL     1       6.406  54.676  -6.083  1.00  0.00    -0.355 Na
ATOM     43 1HA1 UNL     1       5.919  53.784  -6.170  1.00  0.00     0.103 HD
ATOM     44 2HA1 UNL     1       5.594  54.275  -5.614  1.00  0.00     0.103 HD
ENDROOT
BRANCH  40  45
HETATM   45  C41 UNL     1       9.793  53.443  -3.366  1.00  0.00     0.070 C 
BRANCH  45  46
HETATM   46  C42 UNL     1       9.482  52.137  -4.132  1.00  0.00     0.043 C 
BRANCH  46  47
HETATM   47  C43 UNL     1      10.593  51.150  -4.571  1.00  0.00     0.058 C 
HETATM   48  C44 UNL     1      11.971  51.788  -4.778  1.00  0.00     0.038 C 
HETATM   49  C45 UNL     1      13.059  50.748  -5.074  1.00  0.00     0.003 C 
HETATM   50  C46 UNL     1      12.635  49.684  -6.082  1.00  0.00     0.000 C 
HETATM   51  C47 UNL     1      11.298  49.974  -6.751  1.00  0.00     0.003 C 
HETATM   52  C48 UNL     1      10.179  50.240  -5.743  1.00  0.00     0.038 C 
BRANCH  47  53
HETATM   53  O7  UNL     1      10.761  50.255  -3.434  1.00  0.00    -0.390 OA
HETATM   54  H44 UNL     1      11.032  50.801  -2.675  1.00  0.00     0.210 HD
ENDBRANCH  47  53
ENDBRANCH  46  47
ENDBRANCH  45  46
ENDBRANCH  40  45
BRANCH  40  55
HETATM   55  N1  UNL     1      10.936  55.028  -4.845  1.00  0.00    -0.336 N 
HETATM   56  C49 UNL     1      11.852  55.847  -4.517  1.00  0.00     0.124 C 
HETATM   57  N2  UNL     1      12.969  55.914  -5.275  1.00  0.00    -0.279 NA
HETATM   58  N3  UNL     1      11.963  56.730  -3.501  1.00  0.00    -0.279 NA
HETATM   59  H55 UNL     1      12.847  55.348  -6.114  1.00  0.00     0.126 HD
HETATM   60  H56 UNL     1      13.203  56.865  -5.528  1.00  0.00     0.126 HD
HETATM   61  H57 UNL     1      12.919  56.766  -3.166  1.00  0.00     0.126 HD
HETATM   62  H58 UNL     1      11.359  56.523  -2.715  1.00  0.00     0.126 HD
ATOM     63  H1  UNL     1      11.092  54.471  -5.685  1.00  0.00     0.165 HD
ENDBRANCH  40  55
BRANCH  13  64
HETATM   64  S1  UNL     1       1.262  56.518  -5.899  1.00  0.00     0.106 S 
HETATM   65  O1  UNL     1       1.455  57.831  -6.508  1.00  0.00    -0.595 OA
HETATM   66  O2  UNL     1       0.326  55.693  -6.662  1.00  0.00    -0.595 OA
HETATM   67  O3  UNL     1       1.013  56.536  -4.458  1.00  0.00    -0.595 OA
ENDBRANCH  13  64
BRANCH  32  68
HETATM   68  C32 UNL     1       5.920  50.428 -10.101  1.00  0.00     0.172 C 
BRANCH  68  69
HETATM   69  O6  UNL     1       6.285  49.815 -11.333  1.00  0.00    -0.400 OA
HETATM   70  H34 UNL     1       7.192  49.478 -11.228  1.00  0.00     0.209 HD
ENDBRANCH  68  69
ENDBRANCH  32  68
BRANCH  26  71
HETATM   71  O5  UNL     1      -3.109  53.508  -9.392  1.00  0.00    -0.361 OA
HETATM   72  H27 UNL     1      -3.164  52.970  -8.580  1.00  0.00     0.217 HD
ENDBRANCH  26  71
TORSDOF 9
ENDMDL
MODEL 9
REMARK minimizedAffinity -10.0767794
REMARK CNNscore 0.108609065
REMARK CNNaffinity 6.26271582
REMARK  9 active torsions:
REMARK  status: ('A' for Active; 'I' for Inactive)
REMARK    1  A    between atoms: C13_13  and  S1_14 
REMARK    2  A    between atoms: C25_30  and  O5_31 
REMARK    3  A    between atoms: C31_37  and  C32_38 
REMARK    4  A    between atoms: C32_38  and  O6_39 
REMARK    5  A    between atoms: C40_47  and  C41_48 
REMARK    6  A    between atoms: C40_47  and  N1_57 
REMARK    7  A    between atoms: C41_48  and  C42_49 
REMARK    8  A    between atoms: C42_49  and  C43_50 
REMARK    9  A    between atoms: C43_50  and  O7_51 
REMARK       I    between atoms: C49_59  and  N2_60 
REMARK       I    between atoms: C49_59  and  N3_61 
ROOT
HETATM    1  C1  UNL     1     -17.735  45.847 -22.798  1.00  0.00     0.010 C 
HETATM    2  C2  UNL     1     -16.889  44.652 -23.262  1.00  0.00    -0.010 C 
HETATM    3  C3  UNL     1     -17.570  43.322 -22.790  1.00  0.00     0.009 C 
HETATM    4  C4  UNL     1     -17.923  42.316 -23.904  1.00  0.00     0.039 C 
HETATM    5  C5  UNL     1     -18.493  43.011 -25.112  1.00  0.00    -0.049 C 
HETATM    6  C6  UNL     1     -19.356  42.391 -26.014  1.00  0.00     0.044 C 
HETATM    7  C7  UNL     1     -19.696  43.078 -27.185  1.00  0.00     0.072 C 
HETATM    8  C8  UNL     1     -19.496  44.450 -27.291  1.00  0.00     0.037 C 
HETATM    9  C9  UNL     1     -18.610  45.054 -26.411  1.00  0.00     0.011 C 
HETATM   10  C10 UNL     1     -17.974  44.273 -25.440  1.00  0.00    -0.047 C 
HETATM   11  C11 UNL     1     -16.641  44.625 -24.780  1.00  0.00     0.024 C 
HETATM   12  C12 UNL     1     -15.903  45.767 -25.507  1.00  0.00     0.033 C 
HETATM   13  C13 UNL     1     -14.358  45.871 -25.437  1.00  0.00     0.139 C 
HETATM   14  C14 UNL     1     -13.448  44.591 -25.675  1.00  0.00     0.038 C 
HETATM   15  C15 UNL     1     -11.971  45.020 -25.840  1.00  0.00    -0.014 C 
HETATM   16  C16 UNL     1     -11.020  44.299 -26.471  1.00  0.00    -0.050 C 
HETATM   17  C17 UNL     1     -11.348  42.913 -26.900  1.00  0.00     0.042 C 
HETATM   18  C18 UNL     1     -12.576  43.128 -27.767  1.00  0.00     0.001 C 
HETATM   19  C19 UNL     1     -12.300  44.232 -28.843  1.00  0.00     0.038 C 
HETATM   20  C20 UNL     1     -10.831  44.292 -29.369  1.00  0.00     0.130 C 
HETATM   21  O4  UNL     1      -9.785  44.828 -28.525  1.00  0.00    -0.371 OA
HETATM   22  C21 UNL     1      -9.759  44.849 -27.085  1.00  0.00     0.185 C 
HETATM   23  C22 UNL     1      -9.323  46.220 -26.543  1.00  0.00    -0.006 A 
HETATM   24  C23 UNL     1      -8.674  46.246 -25.289  1.00  0.00     0.014 A 
HETATM   25  C24 UNL     1      -8.348  47.453 -24.669  1.00  0.00     0.037 A 
HETATM   26  C25 UNL     1      -8.672  48.652 -25.287  1.00  0.00     0.067 A 
HETATM   27  C26 UNL     1      -9.300  48.665 -26.528  1.00  0.00     0.057 A 
HETATM   28  C27 UNL     1      -9.623  47.461 -27.156  1.00  0.00     0.029 A 
HETATM   29  C28 UNL     1     -10.277  47.518 -28.427  1.00  0.00    -0.066 C 
HETATM   30  C29 UNL     1     -10.773  47.255 -29.489  1.00  0.00    -0.101 C 
HETATM   31  C30 UNL     1     -11.303  46.538 -30.652  1.00  0.00     0.103 C 
HETATM   32  C31 UNL     1     -10.726  45.095 -30.718  1.00  0.00     0.049 C 
HETATM   33  C33 UNL     1     -13.770  43.458 -26.785  1.00  0.00     0.030 C 
HETATM   34  C34 UNL     1     -15.084  43.212 -27.512  1.00  0.00    -0.057 A 
HETATM   35  C35 UNL     1     -15.624  44.061 -28.480  1.00  0.00     0.005 A 
HETATM   36  C36 UNL     1     -16.844  43.752 -29.122  1.00  0.00     0.010 A 
HETATM   37  C37 UNL     1     -17.555  42.572 -28.823  1.00  0.00    -0.007 A 
HETATM   38  C38 UNL     1     -16.937  41.670 -27.941  1.00  0.00     0.096 A 
HETATM   39  C39 UNL     1     -15.740  41.987 -27.295  1.00  0.00     0.092 A 
HETATM   40  C40 UNL     1     -19.002  42.223 -29.341  1.00  0.00     0.168 C 
HETATM   41  O8  UNL     1     -20.044  42.337 -28.283  1.00  0.00    -0.316 OA
HETATM   42 NA1  UNL     1     -15.780  43.773 -28.039  1.00  0.00    -0.355 Na
ATOM     43 1HA1 UNL     1     -15.345  44.527 -28.570  1.00  0.00     0.103 HD
ATOM     44 2HA1 UNL     1     -15.761  44.786 -27.925  1.00  0.00     0.103 HD
ENDROOT
BRANCH  40  45
HETATM   45  C41 UNL     1     -19.511  43.148 -30.500  1.00  0.00     0.070 C 
BRANCH  45  46
HETATM   46  C42 UNL     1     -20.997  43.074 -30.917  1.00  0.00     0.043 C 
BRANCH  46  47
HETATM   47  C43 UNL     1     -21.467  43.361 -32.365  1.00  0.00     0.058 C 
HETATM   48  C44 UNL     1     -20.402  43.988 -33.272  1.00  0.00     0.038 C 
HETATM   49  C45 UNL     1     -20.874  44.122 -34.724  1.00  0.00     0.003 C 
HETATM   50  C46 UNL     1     -22.296  44.657 -34.863  1.00  0.00     0.000 C 
HETATM   51  C47 UNL     1     -22.894  45.147 -33.551  1.00  0.00     0.003 C 
HETATM   52  C48 UNL     1     -22.817  44.100 -32.439  1.00  0.00     0.038 C 
BRANCH  47  53
HETATM   53  O7  UNL     1     -21.721  42.046 -32.939  1.00  0.00    -0.390 OA
HETATM   54  H44 UNL     1     -20.881  41.555 -32.914  1.00  0.00     0.210 HD
ENDBRANCH  47  53
ENDBRANCH  46  47
ENDBRANCH  45  46
ENDBRANCH  40  45
BRANCH  40  55
HETATM   55  N1  UNL     1     -18.975  40.840 -29.872  1.00  0.00    -0.336 N 
HETATM   56  C49 UNL     1     -19.851  39.942 -29.658  1.00  0.00     0.124 C 
HETATM   57  N2  UNL     1     -19.693  38.728 -30.233  1.00  0.00    -0.279 NA
HETATM   58  N3  UNL     1     -20.988  39.935 -28.930  1.00  0.00    -0.279 NA
HETATM   59  H55 UNL     1     -18.779  38.678 -30.680  1.00  0.00     0.126 HD
HETATM   60  H56 UNL     1     -19.797  37.974 -29.566  1.00  0.00     0.126 HD
HETATM   61  H57 UNL     1     -21.704  39.391 -29.397  1.00  0.00     0.126 HD
HETATM   62  H58 UNL     1     -21.360  40.858 -28.748  1.00  0.00     0.126 HD
ATOM     63  H1  UNL     1     -18.183  40.584 -30.461  1.00  0.00     0.165 HD
ENDBRANCH  40  55
BRANCH  13  64
HETATM   64  S1  UNL     1     -13.892  46.750 -23.860  1.00  0.00     0.106 S 
HETATM   65  O1  UNL     1     -14.992  47.677 -23.610  1.00  0.00    -0.595 OA
HETATM   66  O2  UNL     1     -13.819  45.700 -22.846  1.00  0.00    -0.595 OA
HETATM   67  O3  UNL     1     -12.609  47.383 -24.166  1.00  0.00    -0.595 OA
ENDBRANCH  13  64
BRANCH  32  68
HETATM   68  C32 UNL     1     -11.377  44.331 -31.876  1.00  0.00     0.172 C 
BRANCH  68  69
HETATM   69  O6  UNL     1     -11.757  45.246 -32.900  1.00  0.00    -0.400 OA
HETATM   70  H34 UNL     1     -12.186  44.728 -33.603  1.00  0.00     0.209 HD
ENDBRANCH  68  69
ENDBRANCH  32  68
BRANCH  26  71
HETATM   71  O5  UNL     1      -8.379  49.813 -24.632  1.00  0.00    -0.361 OA
HETATM   72  H27 UNL     1      -8.984  50.495 -24.980  1.00  0.00     0.217 HD
ENDBRANCH  26  71
TORSDOF 9
ENDMDL
