MODEL 1
REMARK minimizedAffinity -9.01319122
REMARK CNNscore 0.546580195
REMARK CNNaffinity 7.30574656
REMARK  11 active torsions:
REMARK  status: ('A' for Active; 'I' for Inactive)
REMARK    1  A    between atoms: C3_4  and  O2_5 
REMARK    2  A    between atoms: O2_5  and  C4_6 
REMARK    3  A    between atoms: C7_9  and  C8_10 
REMARK    4  A    between atoms: N1_11  and  C9_13 
REMARK    5  A    between atoms: C9_13  and  C10_14 
REMARK    6  A    between atoms: C10_14  and  C11_15 
REMARK    7  A    between atoms: C22_26  and  C23_27 
REMARK    8  A    between atoms: C29_35  and  O5_36 
REMARK    9  A    between atoms: C33_40  and  O6_41 
REMARK   10  A    between atoms: C36_44  and  O7_45 
REMARK   11  A    between atoms: C37_46  and  O8_47 
ROOT
HETATM    1  C4  UNL     1       0.715  11.371  15.940  1.00  0.00     0.127 C 
HETATM    2  C5  UNL     1       0.977  10.863  14.517  1.00  0.00     0.033 C 
HETATM    3  C6  UNL     1      -0.267  10.232  13.911  1.00  0.00     0.021 C 
HETATM    4  C7  UNL     1      -0.689   8.935  14.661  1.00  0.00     0.026 C 
HETATM    5  C17 UNL     1      -2.198   8.622  14.380  1.00  0.00     0.009 C 
HETATM    6  C18 UNL     1      -2.630   8.663  12.903  1.00  0.00     0.007 C 
HETATM    7  C19 UNL     1      -4.141   8.454  12.780  1.00  0.00     0.013 C 
HETATM    8  C20 UNL     1      -4.643   7.112  13.385  1.00  0.00    -0.005 C 
HETATM    9  C21 UNL     1      -4.196   5.969  12.452  1.00  0.00     0.019 C 
HETATM   10  C22 UNL     1      -6.202   7.196  13.564  1.00  0.00     0.028 C 
HETATM   11  C27 UNL     1      -6.389   7.895  14.931  1.00  0.00     0.013 C 
HETATM   12  C28 UNL     1      -5.053   7.834  15.681  1.00  0.00     0.040 C 
HETATM   13  C29 UNL     1      -4.124   6.945  14.845  1.00  0.00     0.070 C 
HETATM   14  C30 UNL     1      -2.613   7.269  15.012  1.00  0.00     0.026 C 
HETATM   15  C31 UNL     1      -2.110   7.125  16.467  1.00  0.00     0.011 C 
HETATM   16  C32 UNL     1      -1.605   8.436  17.062  1.00  0.00     0.039 C 
HETATM   17  C33 UNL     1      -0.483   9.101  16.228  1.00  0.00     0.073 C 
HETATM   18  C34 UNL     1      -0.396  10.587  16.652  1.00  0.00     0.071 C 
ENDROOT
BRANCH   1  19
HETATM   19  O2  UNL     1       1.923  11.269  16.704  1.00  0.00    -0.356 OA
BRANCH  19  20
HETATM   20  C3  UNL     1       1.690  11.300  18.120  1.00  0.00     0.263 C 
HETATM   21  O1  UNL     1       2.340  10.153  18.664  1.00  0.00    -0.354 OA
HETATM   22  C2  UNL     1       2.823  10.292  19.999  1.00  0.00     0.151 C 
HETATM   23  C1  UNL     1       1.667  10.387  20.997  1.00  0.00     0.042 C 
HETATM   24  C37 UNL     1       3.903  11.396  20.086  1.00  0.00     0.175 C 
HETATM   25  C36 UNL     1       3.714  12.495  19.019  1.00  0.00     0.154 C 
HETATM   26  C35 UNL     1       2.253  12.631  18.623  1.00  0.00     0.095 C 
BRANCH  24  27
HETATM   27  O8  UNL     1       3.926  11.970  21.396  1.00  0.00    -0.390 OA
HETATM   28  H51 UNL     1       4.711  12.550  21.440  1.00  0.00     0.210 HD
ENDBRANCH  24  27
BRANCH  25  29
HETATM   29  O7  UNL     1       4.522  12.211  17.867  1.00  0.00    -0.393 OA
HETATM   30  H49 UNL     1       4.030  11.570  17.311  1.00  0.00     0.210 HD
ENDBRANCH  25  29
ENDBRANCH  19  20
ENDBRANCH   1  19
BRANCH  17  31
HETATM   31  O6  UNL     1       0.755   8.489  16.608  1.00  0.00    -0.389 OA
HETATM   32  H43 UNL     1       0.847   8.548  17.581  1.00  0.00     0.210 HD
ENDBRANCH  17  31
BRANCH   4  33
HETATM   33  C8  UNL     1       0.159   7.747  14.161  1.00  0.00     0.068 C 
HETATM   34  N1  UNL     1       0.781   7.740  13.024  1.00  0.00    -0.401 N 
ATOM     35  H1  UNL     1       0.794   8.521  12.368  1.00  0.00     0.158 HD
BRANCH  34  36
HETATM   36  C9  UNL     1       1.469   6.453  12.807  1.00  0.00     0.123 C 
BRANCH  36  37
HETATM   37  C10 UNL     1       2.658   6.656  11.870  1.00  0.00     0.058 C 
BRANCH  37  38
HETATM   38  C11 UNL     1       2.196   7.094  10.503  1.00  0.00    -0.057 A 
HETATM   39  C12 UNL     1       3.102   7.172   9.433  1.00  0.00     0.007 A 
HETATM   40  C13 UNL     1       2.683   7.628   8.179  1.00  0.00     0.001 A 
HETATM   41  C14 UNL     1       1.359   8.019   7.983  1.00  0.00     0.000 A 
HETATM   42  C15 UNL     1       0.453   7.955   9.042  1.00  0.00     0.001 A 
HETATM   43  C16 UNL     1       0.868   7.493  10.297  1.00  0.00     0.007 A 
ENDBRANCH  37  38
ENDBRANCH  36  37
ENDBRANCH  34  36
ENDBRANCH   4  33
BRANCH  13  44
HETATM   44  O5  UNL     1      -4.342   5.606  15.301  1.00  0.00    -0.389 OA
HETATM   45  H37 UNL     1      -3.733   5.014  14.828  1.00  0.00     0.210 HD
ENDBRANCH  13  44
BRANCH  10  46
HETATM   46  C23 UNL     1      -6.979   5.908  13.442  1.00  0.00    -0.045 A 
HETATM   47  C24 UNL     1      -6.650   4.675  13.825  1.00  0.00     0.087 A 
HETATM   48  C25 UNL     1      -7.725   3.788  13.390  1.00  0.00     0.283 A 
HETATM   49  O3  UNL     1      -7.720   2.581  13.491  1.00  0.00    -0.260 OA
HETATM   50  O4  UNL     1      -8.702   4.525  12.800  1.00  0.00    -0.314 OA
HETATM   51  C26 UNL     1      -8.317   5.894  12.805  1.00  0.00     0.213 A 
ENDBRANCH  10  46
TORSDOF 11
ENDMDL
MODEL 2
REMARK minimizedAffinity -8.26869774
REMARK CNNscore 0.515021205
REMARK CNNaffinity 6.60298157
REMARK  11 active torsions:
REMARK  status: ('A' for Active; 'I' for Inactive)
REMARK    1  A    between atoms: C3_4  and  O2_5 
REMARK    2  A    between atoms: O2_5  and  C4_6 
REMARK    3  A    between atoms: C7_9  and  C8_10 
REMARK    4  A    between atoms: N1_11  and  C9_13 
REMARK    5  A    between atoms: C9_13  and  C10_14 
REMARK    6  A    between atoms: C10_14  and  C11_15 
REMARK    7  A    between atoms: C22_26  and  C23_27 
REMARK    8  A    between atoms: C29_35  and  O5_36 
REMARK    9  A    between atoms: C33_40  and  O6_41 
REMARK   10  A    between atoms: C36_44  and  O7_45 
REMARK   11  A    between atoms: C37_46  and  O8_47 
ROOT
HETATM    1  C4  UNL     1       0.028   8.214  12.627  1.00  0.00     0.127 C 
HETATM    2  C5  UNL     1      -1.311   8.715  12.073  1.00  0.00     0.033 C 
HETATM    3  C6  UNL     1      -1.915   9.794  12.960  1.00  0.00     0.021 C 
HETATM    4  C7  UNL     1      -2.313   9.244  14.360  1.00  0.00     0.026 C 
HETATM    5  C17 UNL     1      -2.419  10.423  15.387  1.00  0.00     0.009 C 
HETATM    6  C18 UNL     1      -3.244  11.640  14.931  1.00  0.00     0.007 C 
HETATM    7  C19 UNL     1      -3.171  12.758  15.973  1.00  0.00     0.013 C 
HETATM    8  C20 UNL     1      -3.680  12.340  17.383  1.00  0.00    -0.005 C 
HETATM    9  C21 UNL     1      -5.214  12.210  17.320  1.00  0.00     0.019 C 
HETATM   10  C22 UNL     1      -3.187  13.405  18.428  1.00  0.00     0.028 C 
HETATM   11  C27 UNL     1      -1.757  12.943  18.794  1.00  0.00     0.013 C 
HETATM   12  C28 UNL     1      -1.594  11.491  18.327  1.00  0.00     0.040 C 
HETATM   13  C29 UNL     1      -2.976  11.029  17.848  1.00  0.00     0.070 C 
HETATM   14  C30 UNL     1      -2.935   9.922  16.759  1.00  0.00     0.026 C 
HETATM   15  C31 UNL     1      -2.215   8.633  17.219  1.00  0.00     0.011 C 
HETATM   16  C32 UNL     1      -0.964   8.319  16.404  1.00  0.00     0.039 C 
HETATM   17  C33 UNL     1      -1.231   8.205  14.883  1.00  0.00     0.073 C 
HETATM   18  C34 UNL     1       0.126   8.356  14.153  1.00  0.00     0.071 C 
ENDROOT
BRANCH   1  19
HETATM   19  O2  UNL     1       0.195   6.836  12.274  1.00  0.00    -0.356 OA
BRANCH  19  20
HETATM   20  C3  UNL     1       0.812   6.661  10.989  1.00  0.00     0.263 C 
HETATM   21  O1  UNL     1       1.253   7.952  10.572  1.00  0.00    -0.354 OA
HETATM   22  C2  UNL     1       2.410   7.969   9.738  1.00  0.00     0.151 C 
HETATM   23  C1  UNL     1       2.105   7.382   8.358  1.00  0.00     0.042 C 
HETATM   24  C37 UNL     1       3.637   7.389  10.480  1.00  0.00     0.175 C 
HETATM   25  C36 UNL     1       3.245   6.347  11.548  1.00  0.00     0.154 C 
HETATM   26  C35 UNL     1       1.944   5.651  11.185  1.00  0.00     0.095 C 
BRANCH  24  27
HETATM   27  O8  UNL     1       4.564   6.825   9.547  1.00  0.00    -0.390 OA
HETATM   28  H51 UNL     1       5.374   6.606  10.046  1.00  0.00     0.210 HD
ENDBRANCH  24  27
BRANCH  25  29
HETATM   29  O7  UNL     1       3.138   6.973  12.836  1.00  0.00    -0.393 OA
HETATM   30  H49 UNL     1       2.249   7.383  12.892  1.00  0.00     0.210 HD
ENDBRANCH  25  29
ENDBRANCH  19  20
ENDBRANCH   1  19
BRANCH  17  31
HETATM   31  O6  UNL     1      -1.693   6.873  14.627  1.00  0.00    -0.389 OA
HETATM   32  H43 UNL     1      -1.046   6.241  15.001  1.00  0.00     0.210 HD
ENDBRANCH  17  31
BRANCH   4  33
HETATM   33  C8  UNL     1      -3.685   8.546  14.272  1.00  0.00     0.068 C 
HETATM   34  N1  UNL     1      -4.392   8.490  13.188  1.00  0.00    -0.401 N 
ATOM     35  H1  UNL     1      -4.102   8.873  12.288  1.00  0.00     0.158 HD
BRANCH  34  36
HETATM   36  C9  UNL     1      -5.673   7.797  13.427  1.00  0.00     0.123 C 
BRANCH  36  37
HETATM   37  C10 UNL     1      -6.063   7.928  14.897  1.00  0.00     0.058 C 
BRANCH  37  38
HETATM   38  C11 UNL     1      -7.561   8.021  15.048  1.00  0.00    -0.057 A 
HETATM   39  C12 UNL     1      -8.354   6.863  15.034  1.00  0.00     0.007 A 
HETATM   40  C13 UNL     1      -9.747   6.955  15.121  1.00  0.00     0.001 A 
HETATM   41  C14 UNL     1     -10.362   8.203  15.214  1.00  0.00     0.000 A 
HETATM   42  C15 UNL     1      -9.583   9.361  15.219  1.00  0.00     0.001 A 
HETATM   43  C16 UNL     1      -8.188   9.272  15.137  1.00  0.00     0.007 A 
ENDBRANCH  37  38
ENDBRANCH  36  37
ENDBRANCH  34  36
ENDBRANCH   4  33
BRANCH  13  44
HETATM   44  O5  UNL     1      -3.634  10.493  19.000  1.00  0.00    -0.389 OA
HETATM   45  H37 UNL     1      -4.499  10.143  18.728  1.00  0.00     0.210 HD
ENDBRANCH  13  44
BRANCH  10  46
HETATM   46  C23 UNL     1      -4.063  13.642  19.633  1.00  0.00    -0.045 A 
HETATM   47  C24 UNL     1      -5.138  12.975  20.050  1.00  0.00     0.087 A 
HETATM   48  C25 UNL     1      -5.655  13.678  21.221  1.00  0.00     0.283 A 
HETATM   49  O3  UNL     1      -6.677  13.402  21.808  1.00  0.00    -0.260 OA
HETATM   50  O4  UNL     1      -4.839  14.726  21.508  1.00  0.00    -0.314 OA
HETATM   51  C26 UNL     1      -3.785  14.769  20.556  1.00  0.00     0.213 A 
ENDBRANCH  10  46
TORSDOF 11
ENDMDL
MODEL 3
REMARK minimizedAffinity -8.0764904
REMARK CNNscore 0.457915127
REMARK CNNaffinity 6.90916824
REMARK  11 active torsions:
REMARK  status: ('A' for Active; 'I' for Inactive)
REMARK    1  A    between atoms: C3_4  and  O2_5 
REMARK    2  A    between atoms: O2_5  and  C4_6 
REMARK    3  A    between atoms: C7_9  and  C8_10 
REMARK    4  A    between atoms: N1_11  and  C9_13 
REMARK    5  A    between atoms: C9_13  and  C10_14 
REMARK    6  A    between atoms: C10_14  and  C11_15 
REMARK    7  A    between atoms: C22_26  and  C23_27 
REMARK    8  A    between atoms: C29_35  and  O5_36 
REMARK    9  A    between atoms: C33_40  and  O6_41 
REMARK   10  A    between atoms: C36_44  and  O7_45 
REMARK   11  A    between atoms: C37_46  and  O8_47 
ROOT
HETATM    1  C4  UNL     1       4.091  11.400  16.499  1.00  0.00     0.127 C 
HETATM    2  C5  UNL     1       3.853  11.600  14.998  1.00  0.00     0.033 C 
HETATM    3  C6  UNL     1       2.387  11.418  14.635  1.00  0.00     0.021 C 
HETATM    4  C7  UNL     1       1.906   9.956  14.862  1.00  0.00     0.026 C 
HETATM    5  C17 UNL     1       0.344   9.921  14.995  1.00  0.00     0.009 C 
HETATM    6  C18 UNL     1      -0.440  10.681  13.910  1.00  0.00     0.007 C 
HETATM    7  C19 UNL     1      -1.938  10.664  14.222  1.00  0.00     0.013 C 
HETATM    8  C20 UNL     1      -2.543   9.235  14.334  1.00  0.00    -0.005 C 
HETATM    9  C21 UNL     1      -2.615   8.634  12.916  1.00  0.00     0.019 C 
HETATM   10  C22 UNL     1      -3.943   9.339  15.039  1.00  0.00     0.028 C 
HETATM   11  C27 UNL     1      -3.609   9.328  16.549  1.00  0.00     0.013 C 
HETATM   12  C28 UNL     1      -2.169   8.825  16.711  1.00  0.00     0.040 C 
HETATM   13  C29 UNL     1      -1.708   8.367  15.322  1.00  0.00     0.070 C 
HETATM   14  C30 UNL     1      -0.173   8.465  15.097  1.00  0.00     0.026 C 
HETATM   15  C31 UNL     1       0.650   7.619  16.095  1.00  0.00     0.011 C 
HETATM   16  C32 UNL     1       1.566   8.458  16.982  1.00  0.00     0.039 C 
HETATM   17  C33 UNL     1       2.547   9.353  16.184  1.00  0.00     0.073 C 
HETATM   18  C34 UNL     1       3.063  10.456  17.140  1.00  0.00     0.071 C 
ENDROOT
BRANCH   1  19
HETATM   19  O2  UNL     1       5.405  10.864  16.699  1.00  0.00    -0.356 OA
BRANCH  19  20
HETATM   20  C3  UNL     1       6.250  11.020  15.549  1.00  0.00     0.263 C 
HETATM   21  O1  UNL     1       7.242  11.982  15.902  1.00  0.00    -0.354 OA
HETATM   22  C2  UNL     1       8.506  11.828  15.261  1.00  0.00     0.151 C 
HETATM   23  C1  UNL     1       8.411  12.145  13.766  1.00  0.00     0.042 C 
HETATM   24  C37 UNL     1       9.160  10.478  15.640  1.00  0.00     0.175 C 
HETATM   25  C36 UNL     1       8.119   9.389  15.973  1.00  0.00     0.154 C 
HETATM   26  C35 UNL     1       6.814   9.633  15.234  1.00  0.00     0.095 C 
BRANCH  24  27
HETATM   27  O8  UNL     1      10.032  10.035  14.596  1.00  0.00    -0.390 OA
HETATM   28  H51 UNL     1      10.523   9.264  14.941  1.00  0.00     0.210 HD
ENDBRANCH  24  27
BRANCH  25  29
HETATM   29  O7  UNL     1       7.892   9.337  17.389  1.00  0.00    -0.393 OA
HETATM   30  H49 UNL     1       7.245  10.040  17.611  1.00  0.00     0.210 HD
ENDBRANCH  25  29
ENDBRANCH  19  20
ENDBRANCH   1  19
BRANCH  17  31
HETATM   31  O6  UNL     1       3.678   8.546  15.835  1.00  0.00    -0.389 OA
HETATM   32  H43 UNL     1       4.032   8.136  16.650  1.00  0.00     0.210 HD
ENDBRANCH  17  31
BRANCH   4  33
HETATM   33  C8  UNL     1       2.314   9.083  13.657  1.00  0.00     0.068 C 
HETATM   34  N1  UNL     1       2.145   7.799  13.613  1.00  0.00    -0.401 N 
ATOM     35  H1  UNL     1       1.706   7.248  14.351  1.00  0.00     0.158 HD
BRANCH  34  36
HETATM   36  C9  UNL     1       2.672   7.239  12.354  1.00  0.00     0.123 C 
BRANCH  36  37
HETATM   37  C10 UNL     1       1.543   6.571  11.574  1.00  0.00     0.058 C 
BRANCH  37  38
HETATM   38  C11 UNL     1       1.598   6.952  10.115  1.00  0.00    -0.057 A 
HETATM   39  C12 UNL     1       0.772   7.968   9.610  1.00  0.00     0.007 A 
HETATM   40  C13 UNL     1       0.787   8.284   8.247  1.00  0.00     0.001 A 
HETATM   41  C14 UNL     1       1.619   7.583   7.376  1.00  0.00     0.000 A 
HETATM   42  C15 UNL     1       2.437   6.565   7.866  1.00  0.00     0.001 A 
HETATM   43  C16 UNL     1       2.429   6.250   9.230  1.00  0.00     0.007 A 
ENDBRANCH  37  38
ENDBRANCH  36  37
ENDBRANCH  34  36
ENDBRANCH   4  33
BRANCH  13  44
HETATM   44  O5  UNL     1      -2.084   6.990  15.215  1.00  0.00    -0.389 OA
HETATM   45  H37 UNL     1      -1.764   6.647  14.364  1.00  0.00     0.210 HD
ENDBRANCH  13  44
BRANCH  10  46
HETATM   46  C23 UNL     1      -4.985   8.319  14.652  1.00  0.00    -0.045 A 
HETATM   47  C24 UNL     1      -5.724   7.522  15.423  1.00  0.00     0.087 A 
HETATM   48  C25 UNL     1      -6.508   6.669  14.534  1.00  0.00     0.283 A 
HETATM   49  O3  UNL     1      -7.227   5.762  14.890  1.00  0.00    -0.260 OA
HETATM   50  O4  UNL     1      -6.255   7.015  13.244  1.00  0.00    -0.314 OA
HETATM   51  C26 UNL     1      -5.307   8.074  13.226  1.00  0.00     0.213 A 
ENDBRANCH  10  46
TORSDOF 11
ENDMDL
MODEL 4
REMARK minimizedAffinity -11.0982113
REMARK CNNscore 0.363768607
REMARK CNNaffinity 6.98841667
REMARK  11 active torsions:
REMARK  status: ('A' for Active; 'I' for Inactive)
REMARK    1  A    between atoms: C3_4  and  O2_5 
REMARK    2  A    between atoms: O2_5  and  C4_6 
REMARK    3  A    between atoms: C7_9  and  C8_10 
REMARK    4  A    between atoms: N1_11  and  C9_13 
REMARK    5  A    between atoms: C9_13  and  C10_14 
REMARK    6  A    between atoms: C10_14  and  C11_15 
REMARK    7  A    between atoms: C22_26  and  C23_27 
REMARK    8  A    between atoms: C29_35  and  O5_36 
REMARK    9  A    between atoms: C33_40  and  O6_41 
REMARK   10  A    between atoms: C36_44  and  O7_45 
REMARK   11  A    between atoms: C37_46  and  O8_47 
ROOT
HETATM    1  C4  UNL     1      -4.974   6.669  13.668  1.00  0.00     0.127 C 
HETATM    2  C5  UNL     1      -4.644   8.166  13.649  1.00  0.00     0.033 C 
HETATM    3  C6  UNL     1      -3.337   8.441  12.919  1.00  0.00     0.021 C 
HETATM    4  C7  UNL     1      -2.113   7.833  13.664  1.00  0.00     0.026 C 
HETATM    5  C17 UNL     1      -0.913   7.665  12.669  1.00  0.00     0.009 C 
HETATM    6  C18 UNL     1      -0.577   8.893  11.806  1.00  0.00     0.007 C 
HETATM    7  C19 UNL     1       0.531   8.559  10.805  1.00  0.00     0.013 C 
HETATM    8  C20 UNL     1       1.850   8.068  11.467  1.00  0.00    -0.005 C 
HETATM    9  C21 UNL     1       2.529   9.280  12.137  1.00  0.00     0.019 C 
HETATM   10  C22 UNL     1       2.739   7.387  10.365  1.00  0.00     0.028 C 
HETATM   11  C27 UNL     1       2.217   5.932  10.303  1.00  0.00     0.013 C 
HETATM   12  C28 UNL     1       1.385   5.674  11.566  1.00  0.00     0.040 C 
HETATM   13  C29 UNL     1       1.560   6.905  12.463  1.00  0.00     0.070 C 
HETATM   14  C30 UNL     1       0.358   7.179  13.410  1.00  0.00     0.026 C 
HETATM   15  C31 UNL     1       0.061   6.012  14.379  1.00  0.00     0.011 C 
HETATM   16  C32 UNL     1      -1.317   5.391  14.169  1.00  0.00     0.039 C 
HETATM   17  C33 UNL     1      -2.477   6.412  14.274  1.00  0.00     0.073 C 
HETATM   18  C34 UNL     1      -3.720   5.786  13.599  1.00  0.00     0.071 C 
ENDROOT
BRANCH   1  19
HETATM   19  O2  UNL     1      -5.695   6.364  14.869  1.00  0.00    -0.356 OA
BRANCH  19  20
HETATM   20  C3  UNL     1      -7.107   6.226  14.650  1.00  0.00     0.263 C 
HETATM   21  O1  UNL     1      -7.330   6.476  13.264  1.00  0.00    -0.354 OA
HETATM   22  C2  UNL     1      -8.434   5.787  12.681  1.00  0.00     0.151 C 
HETATM   23  C1  UNL     1      -9.764   6.319  13.220  1.00  0.00     0.042 C 
HETATM   24  C37 UNL     1      -8.227   4.255  12.744  1.00  0.00     0.175 C 
HETATM   25  C36 UNL     1      -7.356   3.824  13.943  1.00  0.00     0.154 C 
HETATM   26  C35 UNL     1      -7.478   4.809  15.093  1.00  0.00     0.095 C 
BRANCH  24  27
HETATM   27  O8  UNL     1      -9.489   3.582  12.775  1.00  0.00    -0.390 OA
HETATM   28  H51 UNL     1      -9.307   2.628  12.669  1.00  0.00     0.210 HD
ENDBRANCH  24  27
BRANCH  25  29
HETATM   29  O7  UNL     1      -5.985   3.692  13.537  1.00  0.00    -0.393 OA
HETATM   30  H49 UNL     1      -5.585   4.587  13.553  1.00  0.00     0.210 HD
ENDBRANCH  25  29
ENDBRANCH  19  20
ENDBRANCH   1  19
BRANCH  17  31
HETATM   31  O6  UNL     1      -2.791   6.563  15.664  1.00  0.00    -0.389 OA
HETATM   32  H43 UNL     1      -2.960   5.676  16.043  1.00  0.00     0.210 HD
ENDBRANCH  17  31
BRANCH   4  33
HETATM   33  C8  UNL     1      -1.677   8.778  14.802  1.00  0.00     0.068 C 
HETATM   34  N1  UNL     1      -2.247   8.809  15.965  1.00  0.00    -0.401 N 
ATOM     35  H1  UNL     1      -3.014   8.199  16.249  1.00  0.00     0.158 HD
BRANCH  34  36
HETATM   36  C9  UNL     1      -1.639   9.843  16.825  1.00  0.00     0.123 C 
BRANCH  36  37
HETATM   37  C10 UNL     1      -2.387   9.913  18.154  1.00  0.00     0.058 C 
BRANCH  37  38
HETATM   38  C11 UNL     1      -2.560  11.345  18.597  1.00  0.00    -0.057 A 
HETATM   39  C12 UNL     1      -3.831  11.845  18.918  1.00  0.00     0.007 A 
HETATM   40  C13 UNL     1      -3.997  13.187  19.278  1.00  0.00     0.001 A 
HETATM   41  C14 UNL     1      -2.898  14.043  19.312  1.00  0.00     0.000 A 
HETATM   42  C15 UNL     1      -1.631  13.559  18.984  1.00  0.00     0.001 A 
HETATM   43  C16 UNL     1      -1.461  12.215  18.629  1.00  0.00     0.007 A 
ENDBRANCH  37  38
ENDBRANCH  36  37
ENDBRANCH  34  36
ENDBRANCH   4  33
BRANCH  13  44
HETATM   44  O5  UNL     1       2.711   6.644  13.272  1.00  0.00    -0.389 OA
HETATM   45  H37 UNL     1       2.827   7.384  13.893  1.00  0.00     0.210 HD
ENDBRANCH  13  44
BRANCH  10  46
HETATM   46  C23 UNL     1       4.235   7.475  10.537  1.00  0.00    -0.045 A 
HETATM   47  C24 UNL     1       5.101   6.552  10.954  1.00  0.00     0.087 A 
HETATM   48  C25 UNL     1       6.414   7.189  11.017  1.00  0.00     0.283 A 
HETATM   49  O3  UNL     1       7.423   6.671  11.440  1.00  0.00    -0.260 OA
HETATM   50  O4  UNL     1       6.309   8.473  10.582  1.00  0.00    -0.314 OA
HETATM   51  C26 UNL     1       4.955   8.736  10.238  1.00  0.00     0.213 A 
ENDBRANCH  10  46
TORSDOF 11
ENDMDL
MODEL 5
REMARK minimizedAffinity -8.52656555
REMARK CNNscore 0.338686764
REMARK CNNaffinity 6.19448042
REMARK  11 active torsions:
REMARK  status: ('A' for Active; 'I' for Inactive)
REMARK    1  A    between atoms: C3_4  and  O2_5 
REMARK    2  A    between atoms: O2_5  and  C4_6 
REMARK    3  A    between atoms: C7_9  and  C8_10 
REMARK    4  A    between atoms: N1_11  and  C9_13 
REMARK    5  A    between atoms: C9_13  and  C10_14 
REMARK    6  A    between atoms: C10_14  and  C11_15 
REMARK    7  A    between atoms: C22_26  and  C23_27 
REMARK    8  A    between atoms: C29_35  and  O5_36 
REMARK    9  A    between atoms: C33_40  and  O6_41 
REMARK   10  A    between atoms: C36_44  and  O7_45 
REMARK   11  A    between atoms: C37_46  and  O8_47 
ROOT
HETATM    1  C4  UNL     1      -0.931   8.798  14.043  1.00  0.00     0.127 C 
HETATM    2  C5  UNL     1      -0.697   8.471  15.523  1.00  0.00     0.033 C 
HETATM    3  C6  UNL     1      -1.605   9.290  16.427  1.00  0.00     0.021 C 
HETATM    4  C7  UNL     1      -1.278  10.811  16.361  1.00  0.00     0.026 C 
HETATM    5  C17 UNL     1      -2.512  11.644  16.852  1.00  0.00     0.009 C 
HETATM    6  C18 UNL     1      -3.142  11.193  18.181  1.00  0.00     0.007 C 
HETATM    7  C19 UNL     1      -4.398  12.013  18.484  1.00  0.00     0.013 C 
HETATM    8  C20 UNL     1      -4.145  13.545  18.573  1.00  0.00    -0.005 C 
HETATM    9  C21 UNL     1      -3.386  13.830  19.885  1.00  0.00     0.019 C 
HETATM   10  C22 UNL     1      -5.527  14.287  18.479  1.00  0.00     0.028 C 
HETATM   11  C27 UNL     1      -5.790  14.407  16.960  1.00  0.00     0.013 C 
HETATM   12  C28 UNL     1      -4.468  14.143  16.228  1.00  0.00     0.040 C 
HETATM   13  C29 UNL     1      -3.384  14.045  17.308  1.00  0.00     0.070 C 
HETATM   14  C30 UNL     1      -2.173  13.154  16.915  1.00  0.00     0.026 C 
HETATM   15  C31 UNL     1      -1.437  13.643  15.646  1.00  0.00     0.011 C 
HETATM   16  C32 UNL     1      -1.485  12.639  14.498  1.00  0.00     0.039 C 
HETATM   17  C33 UNL     1      -0.925  11.244  14.874  1.00  0.00     0.073 C 
HETATM   18  C34 UNL     1      -1.447  10.228  13.828  1.00  0.00     0.071 C 
ENDROOT
BRANCH   1  19
HETATM   19  O2  UNL     1       0.298   8.632  13.326  1.00  0.00    -0.356 OA
BRANCH  19  20
HETATM   20  C3  UNL     1       0.096   8.259  11.954  1.00  0.00     0.263 C 
HETATM   21  O1  UNL     1       1.169   8.838  11.214  1.00  0.00    -0.354 OA
HETATM   22  C2  UNL     1       1.573   8.120  10.050  1.00  0.00     0.151 C 
HETATM   23  C1  UNL     1       0.497   8.177   8.964  1.00  0.00     0.042 C 
HETATM   24  C37 UNL     1       2.106   6.717  10.422  1.00  0.00     0.175 C 
HETATM   25  C36 UNL     1       1.466   6.163  11.711  1.00  0.00     0.154 C 
HETATM   26  C35 UNL     1       0.071   6.730  11.920  1.00  0.00     0.095 C 
BRANCH  24  27
HETATM   27  O8  UNL     1       1.913   5.806   9.335  1.00  0.00    -0.390 OA
HETATM   28  H51 UNL     1       2.391   4.984   9.563  1.00  0.00     0.210 HD
ENDBRANCH  24  27
BRANCH  25  29
HETATM   29  O7  UNL     1       2.300   6.451  12.843  1.00  0.00    -0.393 OA
HETATM   30  H49 UNL     1       2.105   7.369  13.127  1.00  0.00     0.210 HD
ENDBRANCH  25  29
ENDBRANCH  19  20
ENDBRANCH   1  19
BRANCH  17  31
HETATM   31  O6  UNL     1       0.499  11.298  14.724  1.00  0.00    -0.389 OA
HETATM   32  H43 UNL     1       0.705  11.619  13.822  1.00  0.00     0.210 HD
ENDBRANCH  17  31
BRANCH   4  33
HETATM   33  C8  UNL     1      -0.079  11.124  17.279  1.00  0.00     0.068 C 
HETATM   34  N1  UNL     1       0.545  10.225  17.973  1.00  0.00    -0.401 N 
ATOM     35  H1  UNL     1       0.325   9.229  17.961  1.00  0.00     0.158 HD
BRANCH  34  36
HETATM   36  C9  UNL     1       1.617  10.834  18.784  1.00  0.00     0.123 C 
BRANCH  36  37
HETATM   37  C10 UNL     1       1.096  11.129  20.189  1.00  0.00     0.058 C 
BRANCH  37  38
HETATM   38  C11 UNL     1       2.107  10.726  21.233  1.00  0.00    -0.057 A 
HETATM   39  C12 UNL     1       2.195   9.394  21.665  1.00  0.00     0.007 A 
HETATM   40  C13 UNL     1       3.097   9.031  22.671  1.00  0.00     0.001 A 
HETATM   41  C14 UNL     1       3.913   9.996  23.260  1.00  0.00     0.000 A 
HETATM   42  C15 UNL     1       3.826  11.325  22.845  1.00  0.00     0.001 A 
HETATM   43  C16 UNL     1       2.928  11.690  21.834  1.00  0.00     0.007 A 
ENDBRANCH  37  38
ENDBRANCH  36  37
ENDBRANCH  34  36
ENDBRANCH   4  33
BRANCH  13  44
HETATM   44  O5  UNL     1      -2.905  15.379  17.510  1.00  0.00    -0.389 OA
HETATM   45  H37 UNL     1      -2.178  15.353  18.155  1.00  0.00     0.210 HD
ENDBRANCH  13  44
BRANCH  10  46
HETATM   46  C23 UNL     1      -5.654  15.600  19.211  1.00  0.00    -0.045 A 
HETATM   47  C24 UNL     1      -5.817  15.838  20.512  1.00  0.00     0.087 A 
HETATM   48  C25 UNL     1      -5.970  17.282  20.670  1.00  0.00     0.283 A 
HETATM   49  O3  UNL     1      -6.224  17.848  21.709  1.00  0.00    -0.260 OA
HETATM   50  O4  UNL     1      -5.842  17.880  19.457  1.00  0.00    -0.314 OA
HETATM   51  C26 UNL     1      -5.620  16.882  18.468  1.00  0.00     0.213 A 
ENDBRANCH  10  46
TORSDOF 11
ENDMDL
MODEL 6
REMARK minimizedAffinity -8.57720852
REMARK CNNscore 0.312977105
REMARK CNNaffinity 6.44716644
REMARK  11 active torsions:
REMARK  status: ('A' for Active; 'I' for Inactive)
REMARK    1  A    between atoms: C3_4  and  O2_5 
REMARK    2  A    between atoms: O2_5  and  C4_6 
REMARK    3  A    between atoms: C7_9  and  C8_10 
REMARK    4  A    between atoms: N1_11  and  C9_13 
REMARK    5  A    between atoms: C9_13  and  C10_14 
REMARK    6  A    between atoms: C10_14  and  C11_15 
REMARK    7  A    between atoms: C22_26  and  C23_27 
REMARK    8  A    between atoms: C29_35  and  O5_36 
REMARK    9  A    between atoms: C33_40  and  O6_41 
REMARK   10  A    between atoms: C36_44  and  O7_45 
REMARK   11  A    between atoms: C37_46  and  O8_47 
ROOT
HETATM    1  C4  UNL     1      -1.923  14.953  17.319  1.00  0.00     0.127 C 
HETATM    2  C5  UNL     1      -0.542  14.368  16.999  1.00  0.00     0.033 C 
HETATM    3  C6  UNL     1      -0.646  13.155  16.087  1.00  0.00     0.021 C 
HETATM    4  C7  UNL     1      -1.366  11.962  16.781  1.00  0.00     0.026 C 
HETATM    5  C17 UNL     1      -1.918  10.969  15.701  1.00  0.00     0.009 C 
HETATM    6  C18 UNL     1      -0.925  10.552  14.602  1.00  0.00     0.007 C 
HETATM    7  C19 UNL     1      -1.621   9.678  13.555  1.00  0.00     0.013 C 
HETATM    8  C20 UNL     1      -2.258   8.384  14.138  1.00  0.00    -0.005 C 
HETATM    9  C21 UNL     1      -1.119   7.411  14.501  1.00  0.00     0.019 C 
HETATM   10  C22 UNL     1      -3.261   7.801  13.078  1.00  0.00     0.028 C 
HETATM   11  C27 UNL     1      -4.575   8.576  13.334  1.00  0.00     0.013 C 
HETATM   12  C28 UNL     1      -4.469   9.246  14.709  1.00  0.00     0.040 C 
HETATM   13  C29 UNL     1      -3.176   8.728  15.349  1.00  0.00     0.070 C 
HETATM   14  C30 UNL     1      -2.529   9.710  16.365  1.00  0.00     0.026 C 
HETATM   15  C31 UNL     1      -3.454  10.064  17.552  1.00  0.00     0.011 C 
HETATM   16  C32 UNL     1      -3.812  11.546  17.614  1.00  0.00     0.039 C 
HETATM   17  C33 UNL     1      -2.577  12.478  17.670  1.00  0.00     0.073 C 
HETATM   18  C34 UNL     1      -3.039  13.899  17.263  1.00  0.00     0.071 C 
ENDROOT
BRANCH   1  19
HETATM   19  O2  UNL     1      -1.894  15.533  18.630  1.00  0.00    -0.356 OA
BRANCH  19  20
HETATM   20  C3  UNL     1      -3.205  15.740  19.175  1.00  0.00     0.263 C 
HETATM   21  O1  UNL     1      -3.252  15.019  20.405  1.00  0.00    -0.354 OA
HETATM   22  C2  UNL     1      -4.107  15.564  21.408  1.00  0.00     0.151 C 
HETATM   23  C1  UNL     1      -5.579  15.426  21.013  1.00  0.00     0.042 C 
HETATM   24  C37 UNL     1      -3.635  16.974  21.833  1.00  0.00     0.175 C 
HETATM   25  C36 UNL     1      -2.896  17.718  20.700  1.00  0.00     0.154 C 
HETATM   26  C35 UNL     1      -3.374  17.253  19.335  1.00  0.00     0.095 C 
BRANCH  24  27
HETATM   27  O8  UNL     1      -4.742  17.751  22.303  1.00  0.00    -0.390 OA
HETATM   28  H51 UNL     1      -4.373  18.569  22.689  1.00  0.00     0.210 HD
ENDBRANCH  24  27
BRANCH  25  29
HETATM   29  O7  UNL     1      -1.479  17.531  20.827  1.00  0.00    -0.393 OA
HETATM   30  H49 UNL     1      -1.257  16.667  20.421  1.00  0.00     0.210 HD
ENDBRANCH  25  29
ENDBRANCH  19  20
ENDBRANCH   1  19
BRANCH  17  31
HETATM   31  O6  UNL     1      -2.159  12.555  19.038  1.00  0.00    -0.389 OA
HETATM   32  H43 UNL     1      -2.926  12.821  19.585  1.00  0.00     0.210 HD
ENDBRANCH  17  31
BRANCH   4  33
HETATM   33  C8  UNL     1      -0.365  11.204  17.678  1.00  0.00     0.068 C 
HETATM   34  N1  UNL     1       0.796  11.674  18.011  1.00  0.00    -0.401 N 
ATOM     35  H1  UNL     1       1.148  12.592  17.740  1.00  0.00     0.158 HD
BRANCH  34  36
HETATM   36  C9  UNL     1       1.541  10.704  18.836  1.00  0.00     0.123 C 
BRANCH  36  37
HETATM   37  C10 UNL     1       0.976  10.693  20.255  1.00  0.00     0.058 C 
BRANCH  37  38
HETATM   38  C11 UNL     1       2.069  10.447  21.266  1.00  0.00    -0.057 A 
HETATM   39  C12 UNL     1       2.245   9.174  21.832  1.00  0.00     0.007 A 
HETATM   40  C13 UNL     1       3.224   8.960  22.808  1.00  0.00     0.001 A 
HETATM   41  C14 UNL     1       4.030  10.015  23.234  1.00  0.00     0.000 A 
HETATM   42  C15 UNL     1       3.856  11.285  22.685  1.00  0.00     0.001 A 
HETATM   43  C16 UNL     1       2.881  11.502  21.704  1.00  0.00     0.007 A 
ENDBRANCH  37  38
ENDBRANCH  36  37
ENDBRANCH  34  36
ENDBRANCH   4  33
BRANCH  13  44
HETATM   44  O5  UNL     1      -3.535   7.535  16.055  1.00  0.00    -0.389 OA
HETATM   45  H37 UNL     1      -2.748   7.200  16.518  1.00  0.00     0.210 HD
ENDBRANCH  13  44
BRANCH  10  46
HETATM   46  C23 UNL     1      -3.448   6.304  13.059  1.00  0.00    -0.045 A 
HETATM   47  C24 UNL     1      -2.658   5.353  12.562  1.00  0.00     0.087 A 
HETATM   48  C25 UNL     1      -3.355   4.081  12.731  1.00  0.00     0.283 A 
HETATM   49  O3  UNL     1      -2.970   3.012  12.312  1.00  0.00    -0.260 OA
HETATM   50  O4  UNL     1      -4.531   4.299  13.376  1.00  0.00    -0.314 OA
HETATM   51  C26 UNL     1      -4.665   5.689  13.641  1.00  0.00     0.213 A 
ENDBRANCH  10  46
TORSDOF 11
ENDMDL
MODEL 7
REMARK minimizedAffinity -9.32212353
REMARK CNNscore 0.284741998
REMARK CNNaffinity 6.49175024
REMARK  11 active torsions:
REMARK  status: ('A' for Active; 'I' for Inactive)
REMARK    1  A    between atoms: C3_4  and  O2_5 
REMARK    2  A    between atoms: O2_5  and  C4_6 
REMARK    3  A    between atoms: C7_9  and  C8_10 
REMARK    4  A    between atoms: N1_11  and  C9_13 
REMARK    5  A    between atoms: C9_13  and  C10_14 
REMARK    6  A    between atoms: C10_14  and  C11_15 
REMARK    7  A    between atoms: C22_26  and  C23_27 
REMARK    8  A    between atoms: C29_35  and  O5_36 
REMARK    9  A    between atoms: C33_40  and  O6_41 
REMARK   10  A    between atoms: C36_44  and  O7_45 
REMARK   11  A    between atoms: C37_46  and  O8_47 
ROOT
HETATM    1  C4  UNL     1       0.012   8.004  12.478  1.00  0.00     0.127 C 
HETATM    2  C5  UNL     1      -1.314   8.539  11.926  1.00  0.00     0.033 C 
HETATM    3  C6  UNL     1      -1.888   9.635  12.813  1.00  0.00     0.021 C 
HETATM    4  C7  UNL     1      -2.296   9.098  14.215  1.00  0.00     0.026 C 
HETATM    5  C17 UNL     1      -2.370  10.281  15.240  1.00  0.00     0.009 C 
HETATM    6  C18 UNL     1      -3.164  11.518  14.784  1.00  0.00     0.007 C 
HETATM    7  C19 UNL     1      -3.059  12.636  15.824  1.00  0.00     0.013 C 
HETATM    8  C20 UNL     1      -3.575  12.233  17.235  1.00  0.00    -0.005 C 
HETATM    9  C21 UNL     1      -5.113  12.144  17.175  1.00  0.00     0.019 C 
HETATM   10  C22 UNL     1      -3.053  13.287  18.277  1.00  0.00     0.028 C 
HETATM   11  C27 UNL     1      -1.634  12.788  18.641  1.00  0.00     0.013 C 
HETATM   12  C28 UNL     1      -1.511  11.332  18.176  1.00  0.00     0.040 C 
HETATM   13  C29 UNL     1      -2.905  10.906  17.701  1.00  0.00     0.070 C 
HETATM   14  C30 UNL     1      -2.895   9.796  16.614  1.00  0.00     0.026 C 
HETATM   15  C31 UNL     1      -2.208   8.490  17.075  1.00  0.00     0.011 C 
HETATM   16  C32 UNL     1      -0.968   8.141  16.258  1.00  0.00     0.039 C 
HETATM   17  C33 UNL     1      -1.241   8.032  14.737  1.00  0.00     0.073 C 
HETATM   18  C34 UNL     1       0.118   8.146  14.004  1.00  0.00     0.071 C 
ENDROOT
BRANCH   1  19
HETATM   19  O2  UNL     1       0.143   6.621  12.127  1.00  0.00    -0.356 OA
BRANCH  19  20
HETATM   20  C3  UNL     1       0.799   6.427  10.865  1.00  0.00     0.263 C 
HETATM   21  O1  UNL     1       1.180   7.721  10.402  1.00  0.00    -0.354 OA
HETATM   22  C2  UNL     1       2.353   7.767   9.593  1.00  0.00     0.151 C 
HETATM   23  C1  UNL     1       2.113   7.106   8.234  1.00  0.00     0.042 C 
HETATM   24  C37 UNL     1       3.592   7.286  10.385  1.00  0.00     0.175 C 
HETATM   25  C36 UNL     1       3.231   6.270  11.489  1.00  0.00     0.154 C 
HETATM   26  C35 UNL     1       1.978   5.489  11.129  1.00  0.00     0.095 C 
BRANCH  24  27
HETATM   27  O8  UNL     1       4.569   6.735   9.498  1.00  0.00    -0.390 OA
HETATM   28  H51 UNL     1       5.379   6.582  10.023  1.00  0.00     0.210 HD
ENDBRANCH  24  27
BRANCH  25  29
HETATM   29  O7  UNL     1       3.060   6.943  12.746  1.00  0.00    -0.393 OA
HETATM   30  H49 UNL     1       2.149   7.305  12.765  1.00  0.00     0.210 HD
ENDBRANCH  25  29
ENDBRANCH  19  20
ENDBRANCH   1  19
BRANCH  17  31
HETATM   31  O6  UNL     1      -1.739   6.712  14.484  1.00  0.00    -0.389 OA
HETATM   32  H43 UNL     1      -1.108   6.064  14.858  1.00  0.00     0.210 HD
ENDBRANCH  17  31
BRANCH   4  33
HETATM   33  C8  UNL     1      -3.687   8.436  14.131  1.00  0.00     0.068 C 
HETATM   34  N1  UNL     1      -4.514   8.628  13.152  1.00  0.00    -0.401 N 
ATOM     35  H1  UNL     1      -4.318   9.207  12.336  1.00  0.00     0.158 HD
BRANCH  34  36
HETATM   36  C9  UNL     1      -5.776   7.896  13.375  1.00  0.00     0.123 C 
BRANCH  36  37
HETATM   37  C10 UNL     1      -5.528   6.713  14.307  1.00  0.00     0.058 C 
BRANCH  37  38
HETATM   38  C11 UNL     1      -5.676   5.406  13.568  1.00  0.00    -0.057 A 
HETATM   39  C12 UNL     1      -4.577   4.825  12.917  1.00  0.00     0.007 A 
HETATM   40  C13 UNL     1      -4.728   3.640  12.188  1.00  0.00     0.001 A 
HETATM   41  C14 UNL     1      -5.979   3.031  12.094  1.00  0.00     0.000 A 
HETATM   42  C15 UNL     1      -7.080   3.607  12.729  1.00  0.00     0.001 A 
HETATM   43  C16 UNL     1      -6.931   4.789  13.465  1.00  0.00     0.007 A 
ENDBRANCH  37  38
ENDBRANCH  36  37
ENDBRANCH  34  36
ENDBRANCH   4  33
BRANCH  13  44
HETATM   44  O5  UNL     1      -3.574  10.389  18.856  1.00  0.00    -0.389 OA
HETATM   45  H37 UNL     1      -4.449  10.061  18.585  1.00  0.00     0.210 HD
ENDBRANCH  13  44
BRANCH  10  46
HETATM   46  C23 UNL     1      -3.919  13.549  19.484  1.00  0.00    -0.045 A 
HETATM   47  C24 UNL     1      -4.916  12.825  19.991  1.00  0.00     0.087 A 
HETATM   48  C25 UNL     1      -5.470  13.580  21.111  1.00  0.00     0.283 A 
HETATM   49  O3  UNL     1      -6.448  13.263  21.751  1.00  0.00    -0.260 OA
HETATM   50  O4  UNL     1      -4.752  14.721  21.281  1.00  0.00    -0.314 OA
HETATM   51  C26 UNL     1      -3.729  14.775  20.295  1.00  0.00     0.213 A 
ENDBRANCH  10  46
TORSDOF 11
ENDMDL
MODEL 8
REMARK minimizedAffinity -9.41371727
REMARK CNNscore 0.257729203
REMARK CNNaffinity 6.81473684
REMARK  11 active torsions:
REMARK  status: ('A' for Active; 'I' for Inactive)
REMARK    1  A    between atoms: C3_4  and  O2_5 
REMARK    2  A    between atoms: O2_5  and  C4_6 
REMARK    3  A    between atoms: C7_9  and  C8_10 
REMARK    4  A    between atoms: N1_11  and  C9_13 
REMARK    5  A    between atoms: C9_13  and  C10_14 
REMARK    6  A    between atoms: C10_14  and  C11_15 
REMARK    7  A    between atoms: C22_26  and  C23_27 
REMARK    8  A    between atoms: C29_35  and  O5_36 
REMARK    9  A    between atoms: C33_40  and  O6_41 
REMARK   10  A    between atoms: C36_44  and  O7_45 
REMARK   11  A    between atoms: C37_46  and  O8_47 
ROOT
HETATM    1  C4  UNL     1       4.392  10.782  15.275  1.00  0.00     0.127 C 
HETATM    2  C5  UNL     1       4.348  10.551  13.760  1.00  0.00     0.033 C 
HETATM    3  C6  UNL     1       2.957  10.142  13.297  1.00  0.00     0.021 C 
HETATM    4  C7  UNL     1       2.537   8.755  13.864  1.00  0.00     0.026 C 
HETATM    5  C17 UNL     1       0.976   8.612  13.823  1.00  0.00     0.009 C 
HETATM    6  C18 UNL     1       0.302   8.977  12.489  1.00  0.00     0.007 C 
HETATM    7  C19 UNL     1      -1.221   8.905  12.620  1.00  0.00     0.013 C 
HETATM    8  C20 UNL     1      -1.750   7.508  13.055  1.00  0.00    -0.005 C 
HETATM    9  C21 UNL     1      -1.595   6.545  11.861  1.00  0.00     0.019 C 
HETATM   10  C22 UNL     1      -3.236   7.665  13.539  1.00  0.00     0.028 C 
HETATM   11  C27 UNL     1      -3.109   8.089  15.021  1.00  0.00     0.013 C 
HETATM   12  C28 UNL     1      -1.677   7.785  15.479  1.00  0.00     0.040 C 
HETATM   13  C29 UNL     1      -1.006   7.018  14.333  1.00  0.00     0.070 C 
HETATM   14  C30 UNL     1       0.536   7.194  14.265  1.00  0.00     0.026 C 
HETATM   15  C31 UNL     1       1.265   6.727  15.546  1.00  0.00     0.011 C 
HETATM   16  C32 UNL     1       2.003   7.854  16.264  1.00  0.00     0.039 C 
HETATM   17  C33 UNL     1       3.027   8.591  15.366  1.00  0.00     0.073 C 
HETATM   18  C34 UNL     1       3.344   9.953  16.031  1.00  0.00     0.071 C 
ENDROOT
BRANCH   1  19
HETATM   19  O2  UNL     1       5.697  10.445  15.763  1.00  0.00    -0.356 OA
BRANCH  19  20
HETATM   20  C3  UNL     1       6.256  11.463  16.605  1.00  0.00     0.263 C 
HETATM   21  O1  UNL     1       5.867  11.146  17.940  1.00  0.00    -0.354 OA
HETATM   22  C2  UNL     1       6.777  11.551  18.961  1.00  0.00     0.151 C 
HETATM   23  C1  UNL     1       6.813  13.075  19.096  1.00  0.00     0.042 C 
HETATM   24  C37 UNL     1       8.141  10.839  18.802  1.00  0.00     0.175 C 
HETATM   25  C36 UNL     1       8.452  10.475  17.336  1.00  0.00     0.154 C 
HETATM   26  C35 UNL     1       7.769  11.433  16.375  1.00  0.00     0.095 C 
BRANCH  24  27
HETATM   27  O8  UNL     1       9.190  11.643  19.352  1.00  0.00    -0.390 OA
HETATM   28  H51 UNL     1       9.997  11.093  19.358  1.00  0.00     0.210 HD
ENDBRANCH  24  27
BRANCH  25  29
HETATM   29  O7  UNL     1       8.053   9.123  17.065  1.00  0.00    -0.393 OA
HETATM   30  H49 UNL     1       7.091   9.132  16.872  1.00  0.00     0.210 HD
ENDBRANCH  25  29
ENDBRANCH  19  20
ENDBRANCH   1  19
BRANCH  17  31
HETATM   31  O6  UNL     1       4.241   7.829  15.385  1.00  0.00    -0.389 OA
HETATM   32  H43 UNL     1       4.505   7.687  16.317  1.00  0.00     0.210 HD
ENDBRANCH  17  31
BRANCH   4  33
HETATM   33  C8  UNL     1       3.154   7.634  13.003  1.00  0.00     0.068 C 
HETATM   34  N1  UNL     1       3.573   7.811  11.790  1.00  0.00    -0.401 N 
ATOM     35  H1  UNL     1       3.562   8.706  11.300  1.00  0.00     0.158 HD
BRANCH  34  36
HETATM   36  C9  UNL     1       4.070   6.548  11.213  1.00  0.00     0.123 C 
BRANCH  36  37
HETATM   37  C10 UNL     1       2.897   5.731  10.675  1.00  0.00     0.058 C 
BRANCH  37  38
HETATM   38  C11 UNL     1       2.338   6.356   9.421  1.00  0.00    -0.057 A 
HETATM   39  C12 UNL     1       2.781   5.939   8.156  1.00  0.00     0.007 A 
HETATM   40  C13 UNL     1       2.300   6.556   6.996  1.00  0.00     0.001 A 
HETATM   41  C14 UNL     1       1.382   7.600   7.088  1.00  0.00     0.000 A 
HETATM   42  C15 UNL     1       0.943   8.030   8.341  1.00  0.00     0.001 A 
HETATM   43  C16 UNL     1       1.417   7.410   9.503  1.00  0.00     0.007 A 
ENDBRANCH  37  38
ENDBRANCH  36  37
ENDBRANCH  34  36
ENDBRANCH   4  33
BRANCH  13  44
HETATM   44  O5  UNL     1      -1.283   5.633  14.570  1.00  0.00    -0.389 OA
HETATM   45  H37 UNL     1      -0.832   5.106  13.889  1.00  0.00     0.210 HD
ENDBRANCH  13  44
BRANCH  10  46
HETATM   46  C23 UNL     1      -4.155   6.486  13.335  1.00  0.00    -0.045 A 
HETATM   47  C24 UNL     1      -3.881   5.258  12.896  1.00  0.00     0.087 A 
HETATM   48  C25 UNL     1      -5.150   4.540  12.806  1.00  0.00     0.283 A 
HETATM   49  O3  UNL     1      -5.290   3.424  12.359  1.00  0.00    -0.260 OA
HETATM   50  O4  UNL     1      -6.152   5.345  13.247  1.00  0.00    -0.314 OA
HETATM   51  C26 UNL     1      -5.605   6.602  13.623  1.00  0.00     0.213 A 
ENDBRANCH  10  46
TORSDOF 11
ENDMDL
MODEL 9
REMARK minimizedAffinity -8.66790199
REMARK CNNscore 0.25389719
REMARK CNNaffinity 6.34468317
REMARK  11 active torsions:
REMARK  status: ('A' for Active; 'I' for Inactive)
REMARK    1  A    between atoms: C3_4  and  O2_5 
REMARK    2  A    between atoms: O2_5  and  C4_6 
REMARK    3  A    between atoms: C7_9  and  C8_10 
REMARK    4  A    between atoms: N1_11  and  C9_13 
REMARK    5  A    between atoms: C9_13  and  C10_14 
REMARK    6  A    between atoms: C10_14  and  C11_15 
REMARK    7  A    between atoms: C22_26  and  C23_27 
REMARK    8  A    between atoms: C29_35  and  O5_36 
REMARK    9  A    between atoms: C33_40  and  O6_41 
REMARK   10  A    between atoms: C36_44  and  O7_45 
REMARK   11  A    between atoms: C37_46  and  O8_47 
ROOT
HETATM    1  C4  UNL     1       0.587   8.872  15.808  1.00  0.00     0.127 C 
HETATM    2  C5  UNL     1       1.246   7.524  15.495  1.00  0.00     0.033 C 
HETATM    3  C6  UNL     1       2.765   7.621  15.536  1.00  0.00     0.021 C 
HETATM    4  C7  UNL     1       3.321   8.540  14.410  1.00  0.00     0.026 C 
HETATM    5  C17 UNL     1       4.760   9.034  14.787  1.00  0.00     0.009 C 
HETATM    6  C18 UNL     1       5.744   7.947  15.256  1.00  0.00     0.007 C 
HETATM    7  C19 UNL     1       7.066   8.576  15.700  1.00  0.00     0.013 C 
HETATM    8  C20 UNL     1       7.771   9.409  14.590  1.00  0.00    -0.005 C 
HETATM    9  C21 UNL     1       8.343   8.429  13.546  1.00  0.00     0.019 C 
HETATM   10  C22 UNL     1       8.867  10.311  15.264  1.00  0.00     0.028 C 
HETATM   11  C27 UNL     1       8.091  11.566  15.728  1.00  0.00     0.013 C 
HETATM   12  C28 UNL     1       6.740  11.583  15.003  1.00  0.00     0.040 C 
HETATM   13  C29 UNL     1       6.782  10.445  13.977  1.00  0.00     0.070 C 
HETATM   14  C30 UNL     1       5.389   9.849  13.629  1.00  0.00     0.026 C 
HETATM   15  C31 UNL     1       4.406  10.887  13.042  1.00  0.00     0.011 C 
HETATM   16  C32 UNL     1       3.171  11.105  13.912  1.00  0.00     0.039 C 
HETATM   17  C33 UNL     1       2.383   9.804  14.203  1.00  0.00     0.073 C 
HETATM   18  C34 UNL     1       1.474  10.066  15.428  1.00  0.00     0.071 C 
ENDROOT
BRANCH   1  19
HETATM   19  O2  UNL     1      -0.653   8.964  15.096  1.00  0.00    -0.356 OA
BRANCH  19  20
HETATM   20  C3  UNL     1      -1.754   9.330  15.940  1.00  0.00     0.263 C 
HETATM   21  O1  UNL     1      -1.246  10.272  16.884  1.00  0.00    -0.354 OA
HETATM   22  C2  UNL     1      -2.182  11.240  17.354  1.00  0.00     0.151 C 
HETATM   23  C1  UNL     1      -3.250  10.593  18.238  1.00  0.00     0.042 C 
HETATM   24  C37 UNL     1      -2.690  12.128  16.194  1.00  0.00     0.175 C 
HETATM   25  C36 UNL     1      -2.675  11.395  14.836  1.00  0.00     0.154 C 
HETATM   26  C35 UNL     1      -2.838   9.896  15.020  1.00  0.00     0.095 C 
BRANCH  24  27
HETATM   27  O8  UNL     1      -4.002  12.622  16.482  1.00  0.00    -0.390 OA
HETATM   28  H51 UNL     1      -4.215  13.284  15.795  1.00  0.00     0.210 HD
ENDBRANCH  24  27
BRANCH  25  29
HETATM   29  O7  UNL     1      -1.460  11.687  14.130  1.00  0.00    -0.393 OA
HETATM   30  H49 UNL     1      -0.766  11.086  14.476  1.00  0.00     0.210 HD
ENDBRANCH  25  29
ENDBRANCH  19  20
ENDBRANCH   1  19
BRANCH  17  31
HETATM   31  O6  UNL     1       1.515   9.570  13.086  1.00  0.00    -0.389 OA
HETATM   32  H43 UNL     1       0.980  10.375  12.933  1.00  0.00     0.210 HD
ENDBRANCH  17  31
BRANCH   4  33
HETATM   33  C8  UNL     1       3.406   7.748  13.088  1.00  0.00     0.068 C 
HETATM   34  N1  UNL     1       2.553   6.835  12.745  1.00  0.00    -0.401 N 
ATOM     35  H1  UNL     1       1.736   6.571  13.296  1.00  0.00     0.158 HD
BRANCH  34  36
HETATM   36  C9  UNL     1       2.922   6.227  11.452  1.00  0.00     0.123 C 
BRANCH  36  37
HETATM   37  C10 UNL     1       3.549   7.285  10.546  1.00  0.00     0.058 C 
BRANCH  37  38
HETATM   38  C11 UNL     1       3.089   7.111   9.120  1.00  0.00    -0.057 A 
HETATM   39  C12 UNL     1       2.603   8.205   8.387  1.00  0.00     0.007 A 
HETATM   40  C13 UNL     1       2.128   8.033   7.083  1.00  0.00     0.001 A 
HETATM   41  C14 UNL     1       2.124   6.766   6.502  1.00  0.00     0.000 A 
HETATM   42  C15 UNL     1       2.594   5.669   7.225  1.00  0.00     0.001 A 
HETATM   43  C16 UNL     1       3.076   5.840   8.529  1.00  0.00     0.007 A 
ENDBRANCH  37  38
ENDBRANCH  36  37
ENDBRANCH  34  36
ENDBRANCH   4  33
BRANCH  13  44
HETATM   44  O5  UNL     1       7.332  11.010  12.782  1.00  0.00    -0.389 OA
HETATM   45  H37 UNL     1       7.329  10.330  12.087  1.00  0.00     0.210 HD
ENDBRANCH  13  44
BRANCH  10  46
HETATM   46  C23 UNL     1      10.089  10.638  14.442  1.00  0.00    -0.045 A 
HETATM   47  C24 UNL     1      10.267  10.588  13.123  1.00  0.00     0.087 A 
HETATM   48  C25 UNL     1      11.665  10.922  12.864  1.00  0.00     0.283 A 
HETATM   49  O3  UNL     1      12.202  10.888  11.779  1.00  0.00    -0.260 OA
HETATM   50  O4  UNL     1      12.280  11.216  14.039  1.00  0.00    -0.314 OA
HETATM   51  C26 UNL     1      11.343  11.078  15.100  1.00  0.00     0.213 A 
ENDBRANCH  10  46
TORSDOF 11
ENDMDL
