MODEL 1
REMARK minimizedAffinity -9.31597233
REMARK CNNscore 0.633528888
REMARK CNNaffinity 7.39850473
REMARK  7 active torsions:
REMARK  status: ('A' for Active; 'I' for Inactive)
REMARK    1  A    between atoms: C2_2  and  C30_32 
REMARK    2  A    between atoms: C3_3  and  C4_4 
REMARK    3  A    between atoms: C4_4  and  O1_5 
REMARK    4  A    between atoms: C4_4  and  C5_6 
REMARK    5  A    between atoms: C5_6  and  C6_7 
REMARK    6  A    between atoms: C6_7  and  C8_9 
REMARK    7  A    between atoms: C30_32  and  O4_34 
ROOT
HETATM    1  C8  UNL     1       0.082  51.345 -18.511  1.00  0.00    -0.002 C 
HETATM    2  C9  UNL     1      -1.312  50.680 -18.297  1.00  0.00     0.007 C 
HETATM    3  C10 UNL     1      -1.995  50.577 -19.673  1.00  0.00     0.015 C 
HETATM    4  C11 UNL     1      -0.875  50.870 -20.689  1.00  0.00    -0.013 C 
HETATM    5  C12 UNL     1      -0.118  49.521 -20.897  1.00  0.00     0.021 C 
HETATM    6  C13 UNL     1      -1.272  51.350 -22.078  1.00  0.00    -0.070 C 
HETATM    7  C14 UNL     1      -2.483  51.135 -22.624  1.00  0.00    -0.022 C 
HETATM    8  C15 UNL     1      -2.791  51.542 -24.034  1.00  0.00     0.034 C 
HETATM    9  C16 UNL     1      -1.557  51.260 -24.903  1.00  0.00     0.013 C 
HETATM   10  C17 UNL     1      -1.815  51.288 -26.442  1.00  0.00     0.018 C 
HETATM   11  C18 UNL     1      -2.457  49.957 -26.892  1.00  0.00     0.023 C 
HETATM   12  C19 UNL     1      -2.750  52.426 -26.890  1.00  0.00     0.023 C 
HETATM   13  C20 UNL     1      -0.475  51.393 -27.183  1.00  0.00     0.135 C 
HETATM   14  O2  UNL     1      -0.402  51.807 -28.341  1.00  0.00    -0.297 OA
HETATM   15  C21 UNL     1       0.760  50.866 -26.483  1.00  0.00     0.080 C 
HETATM   16  C22 UNL     1       0.924  51.333 -25.032  1.00  0.00     0.017 C 
HETATM   17  C23 UNL     1      -0.299  52.074 -24.429  1.00  0.00    -0.031 C 
HETATM   18  C24 UNL     1      -0.281  53.536 -24.954  1.00  0.00     0.016 C 
HETATM   19  C25 UNL     1      -0.246  52.196 -22.836  1.00  0.00     0.024 C 
HETATM   20  C26 UNL     1       1.175  52.148 -22.225  1.00  0.00     0.010 C 
HETATM   21  C27 UNL     1       1.257  52.263 -20.686  1.00  0.00     0.011 C 
HETATM   22  C28 UNL     1      -0.064  51.985 -19.934  1.00  0.00    -0.029 C 
HETATM   23  C29 UNL     1      -0.847  53.329 -19.791  1.00  0.00     0.016 C 
ENDROOT
BRANCH   1  24
HETATM   24  C6  UNL     1       0.504  52.228 -17.295  1.00  0.00    -0.011 C 
HETATM   25  C7  UNL     1       1.944  52.733 -17.428  1.00  0.00     0.010 C 
BRANCH  24  26
HETATM   26  C5  UNL     1       0.341  51.428 -15.968  1.00  0.00     0.040 C 
BRANCH  26  27
HETATM   27  C4  UNL     1       1.019  52.058 -14.737  1.00  0.00     0.142 C 
BRANCH  27  28
HETATM   28  C3  UNL     1       1.947  51.080 -14.074  1.00  0.00     0.018 C 
HETATM   29  C2  UNL     1       3.282  50.960 -14.234  1.00  0.00     0.010 C 
HETATM   30  C1  UNL     1       4.152  51.799 -15.119  1.00  0.00     0.055 C 
BRANCH  29  31
HETATM   31  C30 UNL     1       3.940  49.888 -13.442  1.00  0.00     0.171 C 
HETATM   32  O3  UNL     1       5.121  49.589 -13.461  1.00  0.00    -0.646 OA
BRANCH  31  33
HETATM   33  O4  UNL     1       3.078  49.239 -12.644  1.00  0.00    -0.773 OA
HETATM   34  H46 UNL     1       3.638  48.574 -12.194  1.00  0.00     0.167 HD
ENDBRANCH  31  33
ENDBRANCH  29  31
ENDBRANCH  27  28
BRANCH  27  35
HETATM   35  O1  UNL     1       0.037  52.434 -13.779  1.00  0.00    -0.392 OA
HETATM   36  H6  UNL     1      -0.434  51.630 -13.501  1.00  0.00     0.210 HD
ENDBRANCH  27  35
ENDBRANCH  26  27
ENDBRANCH  24  26
ENDBRANCH   1  24
TORSDOF 7
ENDMDL
MODEL 2
REMARK minimizedAffinity -8.28610134
REMARK CNNscore 0.294318467
REMARK CNNaffinity 6.32728243
REMARK  7 active torsions:
REMARK  status: ('A' for Active; 'I' for Inactive)
REMARK    1  A    between atoms: C2_2  and  C30_32 
REMARK    2  A    between atoms: C3_3  and  C4_4 
REMARK    3  A    between atoms: C4_4  and  O1_5 
REMARK    4  A    between atoms: C4_4  and  C5_6 
REMARK    5  A    between atoms: C5_6  and  C6_7 
REMARK    6  A    between atoms: C6_7  and  C8_9 
REMARK    7  A    between atoms: C30_32  and  O4_34 
ROOT
HETATM    1  C8  UNL     1      -6.390  49.107 -23.929  1.00  0.00    -0.002 C 
HETATM    2  C9  UNL     1      -7.300  49.726 -22.826  1.00  0.00     0.007 C 
HETATM    3  C10 UNL     1      -6.385  50.428 -21.807  1.00  0.00     0.015 C 
HETATM    4  C11 UNL     1      -5.009  50.494 -22.496  1.00  0.00    -0.013 C 
HETATM    5  C12 UNL     1      -5.048  51.752 -23.418  1.00  0.00     0.021 C 
HETATM    6  C13 UNL     1      -3.774  50.650 -21.620  1.00  0.00    -0.070 C 
HETATM    7  C14 UNL     1      -3.802  51.155 -20.373  1.00  0.00    -0.022 C 
HETATM    8  C15 UNL     1      -2.544  51.379 -19.589  1.00  0.00     0.034 C 
HETATM    9  C16 UNL     1      -1.461  51.900 -20.546  1.00  0.00     0.013 C 
HETATM   10  C17 UNL     1      -0.210  52.519 -19.848  1.00  0.00     0.018 C 
HETATM   11  C18 UNL     1      -0.521  53.961 -19.390  1.00  0.00     0.023 C 
HETATM   12  C19 UNL     1       0.259  51.732 -18.610  1.00  0.00     0.023 C 
HETATM   13  C20 UNL     1       0.939  52.628 -20.861  1.00  0.00     0.135 C 
HETATM   14  O2  UNL     1       2.115  52.716 -20.505  1.00  0.00    -0.297 OA
HETATM   15  C21 UNL     1       0.576  52.733 -22.328  1.00  0.00     0.080 C 
HETATM   16  C22 UNL     1      -0.455  51.707 -22.809  1.00  0.00     0.017 C 
HETATM   17  C23 UNL     1      -1.139  50.875 -21.692  1.00  0.00    -0.031 C 
HETATM   18  C24 UNL     1      -0.154  49.756 -21.256  1.00  0.00     0.016 C 
HETATM   19  C25 UNL     1      -2.456  50.113 -22.183  1.00  0.00     0.024 C 
HETATM   20  C26 UNL     1      -2.504  49.806 -23.699  1.00  0.00     0.010 C 
HETATM   21  C27 UNL     1      -3.767  49.069 -24.202  1.00  0.00     0.011 C 
HETATM   22  C28 UNL     1      -4.979  49.112 -23.246  1.00  0.00    -0.029 C 
HETATM   23  C29 UNL     1      -4.895  47.887 -22.281  1.00  0.00     0.016 C 
ENDROOT
BRANCH   1  24
HETATM   24  C6  UNL     1      -6.978  47.777 -24.499  1.00  0.00    -0.011 C 
HETATM   25  C7  UNL     1      -6.777  47.667 -26.014  1.00  0.00     0.010 C 
BRANCH  24  26
HETATM   26  C5  UNL     1      -8.494  47.669 -24.154  1.00  0.00     0.040 C 
BRANCH  26  27
HETATM   27  C4  UNL     1      -9.448  48.262 -25.206  1.00  0.00     0.142 C 
BRANCH  27  28
HETATM   28  C3  UNL     1      -9.390  47.478 -26.487  1.00  0.00     0.018 C 
HETATM   29  C2  UNL     1     -10.365  47.313 -27.406  1.00  0.00     0.010 C 
HETATM   30  C1  UNL     1     -11.745  47.894 -27.356  1.00  0.00     0.055 C 
BRANCH  29  31
HETATM   31  C30 UNL     1     -10.017  46.473 -28.582  1.00  0.00     0.171 C 
HETATM   32  O3  UNL     1      -9.215  46.743 -29.458  1.00  0.00    -0.646 OA
BRANCH  31  33
HETATM   33  O4  UNL     1     -10.690  45.313 -28.599  1.00  0.00    -0.773 OA
HETATM   34  H46 UNL     1     -10.368  44.872 -29.412  1.00  0.00     0.167 HD
ENDBRANCH  31  33
ENDBRANCH  29  31
ENDBRANCH  27  28
BRANCH  27  35
HETATM   35  O1  UNL     1      -9.072  49.601 -25.506  1.00  0.00    -0.392 OA
HETATM   36  H6  UNL     1      -8.172  49.585 -25.872  1.00  0.00     0.210 HD
ENDBRANCH  27  35
ENDBRANCH  26  27
ENDBRANCH  24  26
ENDBRANCH   1  24
TORSDOF 7
ENDMDL
MODEL 3
REMARK minimizedAffinity -8.48915958
REMARK CNNscore 0.272648066
REMARK CNNaffinity 5.89384222
REMARK  7 active torsions:
REMARK  status: ('A' for Active; 'I' for Inactive)
REMARK    1  A    between atoms: C2_2  and  C30_32 
REMARK    2  A    between atoms: C3_3  and  C4_4 
REMARK    3  A    between atoms: C4_4  and  O1_5 
REMARK    4  A    between atoms: C4_4  and  C5_6 
REMARK    5  A    between atoms: C5_6  and  C6_7 
REMARK    6  A    between atoms: C6_7  and  C8_9 
REMARK    7  A    between atoms: C30_32  and  O4_34 
ROOT
HETATM    1  C8  UNL     1      -6.574  48.239 -22.094  1.00  0.00    -0.002 C 
HETATM    2  C9  UNL     1      -7.329  48.995 -20.958  1.00  0.00     0.007 C 
HETATM    3  C10 UNL     1      -6.310  49.904 -20.247  1.00  0.00     0.015 C 
HETATM    4  C11 UNL     1      -5.080  49.914 -21.173  1.00  0.00    -0.013 C 
HETATM    5  C12 UNL     1      -5.370  50.993 -22.263  1.00  0.00     0.021 C 
HETATM    6  C13 UNL     1      -3.729  50.276 -20.571  1.00  0.00    -0.070 C 
HETATM    7  C14 UNL     1      -3.584  50.984 -19.437  1.00  0.00    -0.022 C 
HETATM    8  C15 UNL     1      -2.231  51.398 -18.940  1.00  0.00     0.034 C 
HETATM    9  C16 UNL     1      -1.370  51.798 -20.146  1.00  0.00     0.013 C 
HETATM   10  C17 UNL     1      -0.068  52.585 -19.794  1.00  0.00     0.018 C 
HETATM   11  C18 UNL     1      -0.407  54.068 -19.524  1.00  0.00     0.023 C 
HETATM   12  C19 UNL     1       0.663  52.044 -18.551  1.00  0.00     0.023 C 
HETATM   13  C20 UNL     1       0.879  52.572 -21.002  1.00  0.00     0.135 C 
HETATM   14  O2  UNL     1       2.089  52.774 -20.883  1.00  0.00    -0.297 OA
HETATM   15  C21 UNL     1       0.265  52.408 -22.377  1.00  0.00     0.080 C 
HETATM   16  C22 UNL     1      -0.751  51.267 -22.493  1.00  0.00     0.017 C 
HETATM   17  C23 UNL     1      -1.170  50.608 -21.152  1.00  0.00    -0.031 C 
HETATM   18  C24 UNL     1      -0.043  49.627 -20.728  1.00  0.00     0.016 C 
HETATM   19  C25 UNL     1      -2.489  49.712 -21.269  1.00  0.00     0.024 C 
HETATM   20  C26 UNL     1      -2.771  49.148 -22.682  1.00  0.00     0.010 C 
HETATM   21  C27 UNL     1      -4.041  48.278 -22.825  1.00  0.00     0.011 C 
HETATM   22  C28 UNL     1      -5.073  48.428 -21.686  1.00  0.00    -0.029 C 
HETATM   23  C29 UNL     1      -4.733  47.391 -20.568  1.00  0.00     0.016 C 
ENDROOT
BRANCH   1  24
HETATM   24  C6  UNL     1      -7.148  46.806 -22.327  1.00  0.00    -0.011 C 
HETATM   25  C7  UNL     1      -6.401  45.751 -21.504  1.00  0.00     0.010 C 
BRANCH  24  26
HETATM   26  C5  UNL     1      -7.086  46.442 -23.841  1.00  0.00     0.040 C 
BRANCH  26  27
HETATM   27  C4  UNL     1      -8.408  45.938 -24.447  1.00  0.00     0.142 C 
BRANCH  27  28
HETATM   28  C3  UNL     1      -9.272  47.086 -24.886  1.00  0.00     0.018 C 
HETATM   29  C2  UNL     1      -9.187  47.800 -26.029  1.00  0.00     0.010 C 
HETATM   30  C1  UNL     1      -8.200  47.597 -27.137  1.00  0.00     0.055 C 
BRANCH  29  31
HETATM   31  C30 UNL     1     -10.184  48.891 -26.190  1.00  0.00     0.171 C 
HETATM   32  O3  UNL     1     -11.375  48.763 -26.412  1.00  0.00    -0.646 OA
BRANCH  31  33
HETATM   33  O4  UNL     1      -9.637  50.109 -26.052  1.00  0.00    -0.773 OA
HETATM   34  H46 UNL     1     -10.394  50.717 -26.182  1.00  0.00     0.167 HD
ENDBRANCH  31  33
ENDBRANCH  29  31
ENDBRANCH  27  28
BRANCH  27  35
HETATM   35  O1  UNL     1      -9.139  45.199 -23.475  1.00  0.00    -0.392 OA
HETATM   36  H6  UNL     1      -9.341  45.796 -22.735  1.00  0.00     0.210 HD
ENDBRANCH  27  35
ENDBRANCH  26  27
ENDBRANCH  24  26
ENDBRANCH   1  24
TORSDOF 7
ENDMDL
MODEL 4
REMARK minimizedAffinity -8.84329414
REMARK CNNscore 0.271229953
REMARK CNNaffinity 6.25101805
REMARK  7 active torsions:
REMARK  status: ('A' for Active; 'I' for Inactive)
REMARK    1  A    between atoms: C2_2  and  C30_32 
REMARK    2  A    between atoms: C3_3  and  C4_4 
REMARK    3  A    between atoms: C4_4  and  O1_5 
REMARK    4  A    between atoms: C4_4  and  C5_6 
REMARK    5  A    between atoms: C5_6  and  C6_7 
REMARK    6  A    between atoms: C6_7  and  C8_9 
REMARK    7  A    between atoms: C30_32  and  O4_34 
ROOT
HETATM    1  C8  UNL     1      -5.146  49.030 -21.120  1.00  0.00    -0.002 C 
HETATM    2  C9  UNL     1      -4.456  49.804 -19.956  1.00  0.00     0.007 C 
HETATM    3  C10 UNL     1      -3.311  50.635 -20.563  1.00  0.00     0.015 C 
HETATM    4  C11 UNL     1      -3.560  50.593 -22.083  1.00  0.00    -0.013 C 
HETATM    5  C12 UNL     1      -4.608  51.711 -22.379  1.00  0.00     0.021 C 
HETATM    6  C13 UNL     1      -2.383  50.860 -23.011  1.00  0.00    -0.070 C 
HETATM    7  C14 UNL     1      -1.279  51.534 -22.641  1.00  0.00    -0.022 C 
HETATM    8  C15 UNL     1      -0.192  51.856 -23.622  1.00  0.00     0.034 C 
HETATM    9  C16 UNL     1      -0.841  52.231 -24.963  1.00  0.00     0.013 C 
HETATM   10  C17 UNL     1       0.112  52.931 -25.981  1.00  0.00     0.018 C 
HETATM   11  C18 UNL     1       0.264  54.425 -25.619  1.00  0.00     0.023 C 
HETATM   12  C19 UNL     1       1.525  52.321 -26.026  1.00  0.00     0.023 C 
HETATM   13  C20 UNL     1      -0.517  52.889 -27.381  1.00  0.00     0.135 C 
HETATM   14  O2  UNL     1       0.159  53.017 -28.404  1.00  0.00    -0.297 OA
HETATM   15  C21 UNL     1      -2.026  52.792 -27.472  1.00  0.00     0.080 C 
HETATM   16  C22 UNL     1      -2.655  51.716 -26.580  1.00  0.00     0.017 C 
HETATM   17  C23 UNL     1      -1.694  51.053 -25.557  1.00  0.00    -0.031 C 
HETATM   18  C24 UNL     1      -0.842  49.998 -26.315  1.00  0.00     0.016 C 
HETATM   19  C25 UNL     1      -2.452  50.240 -24.409  1.00  0.00     0.024 C 
HETATM   20  C26 UNL     1      -3.859  49.725 -24.794  1.00  0.00     0.010 C 
HETATM   21  C27 UNL     1      -4.616  48.935 -23.702  1.00  0.00     0.011 C 
HETATM   22  C28 UNL     1      -4.080  49.120 -22.265  1.00  0.00    -0.029 C 
HETATM   23  C29 UNL     1      -2.982  48.040 -22.001  1.00  0.00     0.016 C 
ENDROOT
BRANCH   1  24
HETATM   24  C6  UNL     1      -5.686  47.639 -20.662  1.00  0.00    -0.011 C 
HETATM   25  C7  UNL     1      -6.099  46.766 -21.852  1.00  0.00     0.010 C 
BRANCH  24  26
HETATM   26  C5  UNL     1      -6.893  47.824 -19.693  1.00  0.00     0.040 C 
BRANCH  26  27
HETATM   27  C4  UNL     1      -6.658  47.329 -18.254  1.00  0.00     0.142 C 
BRANCH  27  28
HETATM   28  C3  UNL     1      -7.957  47.199 -17.511  1.00  0.00     0.018 C 
HETATM   29  C2  UNL     1      -8.929  48.124 -17.366  1.00  0.00     0.010 C 
HETATM   30  C1  UNL     1      -8.931  49.510 -17.933  1.00  0.00     0.055 C 
BRANCH  29  31
HETATM   31  C30 UNL     1     -10.110  47.709 -16.565  1.00  0.00     0.171 C 
HETATM   32  O3  UNL     1     -11.261  47.621 -16.955  1.00  0.00    -0.646 OA
BRANCH  31  33
HETATM   33  O4  UNL     1      -9.788  47.407 -15.297  1.00  0.00    -0.773 OA
HETATM   34  H46 UNL     1     -10.646  47.157 -14.896  1.00  0.00     0.167 HD
ENDBRANCH  31  33
ENDBRANCH  29  31
ENDBRANCH  27  28
BRANCH  27  35
HETATM   35  O1  UNL     1      -5.849  48.259 -17.544  1.00  0.00    -0.392 OA
HETATM   36  H6  UNL     1      -6.326  49.106 -17.511  1.00  0.00     0.210 HD
ENDBRANCH  27  35
ENDBRANCH  26  27
ENDBRANCH  24  26
ENDBRANCH   1  24
TORSDOF 7
ENDMDL
MODEL 5
REMARK minimizedAffinity -8.53224564
REMARK CNNscore 0.253090888
REMARK CNNaffinity 6.32128191
REMARK  7 active torsions:
REMARK  status: ('A' for Active; 'I' for Inactive)
REMARK    1  A    between atoms: C2_2  and  C30_32 
REMARK    2  A    between atoms: C3_3  and  C4_4 
REMARK    3  A    between atoms: C4_4  and  O1_5 
REMARK    4  A    between atoms: C4_4  and  C5_6 
REMARK    5  A    between atoms: C5_6  and  C6_7 
REMARK    6  A    between atoms: C6_7  and  C8_9 
REMARK    7  A    between atoms: C30_32  and  O4_34 
ROOT
HETATM    1  C8  UNL     1      -4.616  47.657 -19.841  1.00  0.00    -0.002 C 
HETATM    2  C9  UNL     1      -4.618  46.447 -20.824  1.00  0.00     0.007 C 
HETATM    3  C10 UNL     1      -3.951  46.907 -22.132  1.00  0.00     0.015 C 
HETATM    4  C11 UNL     1      -3.282  48.249 -21.780  1.00  0.00    -0.013 C 
HETATM    5  C12 UNL     1      -1.907  47.890 -21.134  1.00  0.00     0.021 C 
HETATM    6  C13 UNL     1      -2.977  49.219 -22.913  1.00  0.00    -0.070 C 
HETATM    7  C14 UNL     1      -2.844  48.846 -24.198  1.00  0.00    -0.022 C 
HETATM    8  C15 UNL     1      -2.445  49.826 -25.261  1.00  0.00     0.034 C 
HETATM    9  C16 UNL     1      -1.383  50.770 -24.679  1.00  0.00     0.013 C 
HETATM   10  C17 UNL     1      -0.603  51.614 -25.736  1.00  0.00     0.018 C 
HETATM   11  C18 UNL     1       0.499  50.752 -26.389  1.00  0.00     0.023 C 
HETATM   12  C19 UNL     1      -1.493  52.162 -26.867  1.00  0.00     0.023 C 
HETATM   13  C20 UNL     1       0.116  52.774 -25.032  1.00  0.00     0.135 C 
HETATM   14  O2  UNL     1       0.475  53.784 -25.641  1.00  0.00    -0.297 OA
HETATM   15  C21 UNL     1       0.476  52.597 -23.571  1.00  0.00     0.080 C 
HETATM   16  C22 UNL     1      -0.663  52.073 -22.689  1.00  0.00     0.017 C 
HETATM   17  C23 UNL     1      -1.925  51.586 -23.451  1.00  0.00    -0.031 C 
HETATM   18  C24 UNL     1      -2.750  52.837 -23.860  1.00  0.00     0.016 C 
HETATM   19  C25 UNL     1      -2.909  50.705 -22.550  1.00  0.00     0.024 C 
HETATM   20  C26 UNL     1      -2.816  50.972 -21.029  1.00  0.00     0.010 C 
HETATM   21  C27 UNL     1      -3.757  50.134 -20.134  1.00  0.00     0.011 C 
HETATM   22  C28 UNL     1      -4.343  48.869 -20.798  1.00  0.00    -0.029 C 
HETATM   23  C29 UNL     1      -5.685  49.252 -21.500  1.00  0.00     0.016 C 
ENDROOT
BRANCH   1  24
HETATM   24  C6  UNL     1      -5.870  47.662 -18.911  1.00  0.00    -0.011 C 
HETATM   25  C7  UNL     1      -5.483  47.567 -17.431  1.00  0.00     0.010 C 
BRANCH  24  26
HETATM   26  C5  UNL     1      -6.823  46.488 -19.288  1.00  0.00     0.040 C 
BRANCH  26  27
HETATM   27  C4  UNL     1      -8.231  46.911 -19.745  1.00  0.00     0.142 C 
BRANCH  27  28
HETATM   28  C3  UNL     1      -9.181  46.964 -18.582  1.00  0.00     0.018 C 
HETATM   29  C2  UNL     1      -9.489  48.026 -17.807  1.00  0.00     0.010 C 
HETATM   30  C1  UNL     1      -8.948  49.416 -17.944  1.00  0.00     0.055 C 
BRANCH  29  31
HETATM   31  C30 UNL     1     -10.468  47.775 -16.717  1.00  0.00     0.171 C 
HETATM   32  O3  UNL     1     -11.665  47.586 -16.842  1.00  0.00    -0.646 OA
BRANCH  31  33
HETATM   33  O4  UNL     1      -9.892  47.760 -15.505  1.00  0.00    -0.773 OA
HETATM   34  H46 UNL     1     -10.640  47.590 -14.897  1.00  0.00     0.167 HD
ENDBRANCH  31  33
ENDBRANCH  29  31
ENDBRANCH  27  28
BRANCH  27  35
HETATM   35  O1  UNL     1      -8.746  45.966 -20.676  1.00  0.00    -0.392 OA
HETATM   36  H6  UNL     1      -8.806  45.106 -20.227  1.00  0.00     0.210 HD
ENDBRANCH  27  35
ENDBRANCH  26  27
ENDBRANCH  24  26
ENDBRANCH   1  24
TORSDOF 7
ENDMDL
MODEL 6
REMARK minimizedAffinity -8.33296394
REMARK CNNscore 0.241948441
REMARK CNNaffinity 5.58154154
REMARK  7 active torsions:
REMARK  status: ('A' for Active; 'I' for Inactive)
REMARK    1  A    between atoms: C2_2  and  C30_32 
REMARK    2  A    between atoms: C3_3  and  C4_4 
REMARK    3  A    between atoms: C4_4  and  O1_5 
REMARK    4  A    between atoms: C4_4  and  C5_6 
REMARK    5  A    between atoms: C5_6  and  C6_7 
REMARK    6  A    between atoms: C6_7  and  C8_9 
REMARK    7  A    between atoms: C30_32  and  O4_34 
ROOT
HETATM    1  C8  UNL     1       1.318  69.402 -39.465  1.00  0.00    -0.002 C 
HETATM    2  C9  UNL     1       0.024  69.096 -38.651  1.00  0.00     0.007 C 
HETATM    3  C10 UNL     1       0.406  68.128 -37.517  1.00  0.00     0.015 C 
HETATM    4  C11 UNL     1       1.946  68.148 -37.485  1.00  0.00    -0.013 C 
HETATM    5  C12 UNL     1       2.343  69.395 -36.635  1.00  0.00     0.021 C 
HETATM    6  C13 UNL     1       2.667  66.963 -36.860  1.00  0.00    -0.070 C 
HETATM    7  C14 UNL     1       2.099  66.127 -35.972  1.00  0.00    -0.022 C 
HETATM    8  C15 UNL     1       2.884  65.034 -35.311  1.00  0.00     0.034 C 
HETATM    9  C16 UNL     1       4.287  65.568 -34.990  1.00  0.00     0.013 C 
HETATM   10  C17 UNL     1       5.111  64.694 -33.992  1.00  0.00     0.018 C 
HETATM   11  C18 UNL     1       4.656  64.978 -32.544  1.00  0.00     0.023 C 
HETATM   12  C19 UNL     1       4.968  63.180 -34.234  1.00  0.00     0.023 C 
HETATM   13  C20 UNL     1       6.591  65.095 -34.065  1.00  0.00     0.135 C 
HETATM   14  O2  UNL     1       7.490  64.341 -33.688  1.00  0.00    -0.297 OA
HETATM   15  C21 UNL     1       6.918  66.503 -34.518  1.00  0.00     0.080 C 
HETATM   16  C22 UNL     1       6.188  66.954 -35.789  1.00  0.00     0.017 C 
HETATM   17  C23 UNL     1       5.065  66.005 -36.283  1.00  0.00    -0.031 C 
HETATM   18  C24 UNL     1       5.734  64.818 -37.029  1.00  0.00     0.016 C 
HETATM   19  C25 UNL     1       4.088  66.681 -37.354  1.00  0.00     0.024 C 
HETATM   20  C26 UNL     1       4.711  67.845 -38.160  1.00  0.00     0.010 C 
HETATM   21  C27 UNL     1       3.789  68.518 -39.203  1.00  0.00     0.011 C 
HETATM   22  C28 UNL     1       2.280  68.247 -39.019  1.00  0.00    -0.029 C 
HETATM   23  C29 UNL     1       1.904  66.958 -39.817  1.00  0.00     0.016 C 
ENDROOT
BRANCH   1  24
HETATM   24  C6  UNL     1       1.018  69.628 -40.981  1.00  0.00    -0.011 C 
HETATM   25  C7  UNL     1       1.700  70.893 -41.515  1.00  0.00     0.010 C 
BRANCH  24  26
HETATM   26  C5  UNL     1      -0.519  69.712 -41.218  1.00  0.00     0.040 C 
BRANCH  26  27
HETATM   27  C4  UNL     1      -1.010  69.104 -42.544  1.00  0.00     0.142 C 
BRANCH  27  28
HETATM   28  C3  UNL     1      -2.474  68.770 -42.474  1.00  0.00     0.018 C 
HETATM   29  C2  UNL     1      -3.523  69.618 -42.507  1.00  0.00     0.010 C 
HETATM   30  C1  UNL     1      -3.460  71.109 -42.632  1.00  0.00     0.055 C 
BRANCH  29  31
HETATM   31  C30 UNL     1      -4.869  68.993 -42.414  1.00  0.00     0.171 C 
HETATM   32  O3  UNL     1      -5.286  68.293 -41.509  1.00  0.00    -0.646 OA
BRANCH  31  33
HETATM   33  O4  UNL     1      -5.644  69.288 -43.470  1.00  0.00    -0.773 OA
HETATM   34  H46 UNL     1      -6.481  68.818 -43.278  1.00  0.00     0.167 HD
ENDBRANCH  31  33
ENDBRANCH  29  31
ENDBRANCH  27  28
BRANCH  27  35
HETATM   35  O1  UNL     1      -0.308  67.897 -42.817  1.00  0.00    -0.392 OA
HETATM   36  H6  UNL     1      -0.495  67.272 -42.097  1.00  0.00     0.210 HD
ENDBRANCH  27  35
ENDBRANCH  26  27
ENDBRANCH  24  26
ENDBRANCH   1  24
TORSDOF 7
ENDMDL
MODEL 7
REMARK minimizedAffinity -7.96075344
REMARK CNNscore 0.227961138
REMARK CNNaffinity 6.28328562
REMARK  7 active torsions:
REMARK  status: ('A' for Active; 'I' for Inactive)
REMARK    1  A    between atoms: C2_2  and  C30_32 
REMARK    2  A    between atoms: C3_3  and  C4_4 
REMARK    3  A    between atoms: C4_4  and  O1_5 
REMARK    4  A    between atoms: C4_4  and  C5_6 
REMARK    5  A    between atoms: C5_6  and  C6_7 
REMARK    6  A    between atoms: C6_7  and  C8_9 
REMARK    7  A    between atoms: C30_32  and  O4_34 
ROOT
HETATM    1  C8  UNL     1      -4.159  48.743 -20.606  1.00  0.00    -0.002 C 
HETATM    2  C9  UNL     1      -3.407  49.576 -19.524  1.00  0.00     0.007 C 
HETATM    3  C10 UNL     1      -2.418  50.503 -20.254  1.00  0.00     0.015 C 
HETATM    4  C11 UNL     1      -2.839  50.437 -21.734  1.00  0.00    -0.013 C 
HETATM    5  C12 UNL     1      -4.008  51.458 -21.896  1.00  0.00     0.021 C 
HETATM    6  C13 UNL     1      -1.807  50.805 -22.791  1.00  0.00    -0.070 C 
HETATM    7  C14 UNL     1      -0.730  51.573 -22.547  1.00  0.00    -0.022 C 
HETATM    8  C15 UNL     1       0.203  51.987 -23.646  1.00  0.00     0.034 C 
HETATM    9  C16 UNL     1      -0.629  52.301 -24.898  1.00  0.00     0.013 C 
HETATM   10  C17 UNL     1       0.133  53.081 -26.015  1.00  0.00     0.018 C 
HETATM   11  C18 UNL     1       0.195  54.583 -25.660  1.00  0.00     0.023 C 
HETATM   12  C19 UNL     1       1.579  52.596 -26.230  1.00  0.00     0.023 C 
HETATM   13  C20 UNL     1      -0.650  52.981 -27.332  1.00  0.00     0.135 C 
HETATM   14  O2  UNL     1      -0.112  53.166 -28.426  1.00  0.00    -0.297 OA
HETATM   15  C21 UNL     1      -2.145  52.752 -27.247  1.00  0.00     0.080 C 
HETATM   16  C22 UNL     1      -2.569  51.627 -26.297  1.00  0.00     0.017 C 
HETATM   17  C23 UNL     1      -1.440  51.053 -25.399  1.00  0.00    -0.031 C 
HETATM   18  C24 UNL     1      -0.594  50.075 -26.260  1.00  0.00     0.016 C 
HETATM   19  C25 UNL     1      -1.985  50.178 -24.177  1.00  0.00     0.024 C 
HETATM   20  C26 UNL     1      -3.377  49.541 -24.399  1.00  0.00     0.010 C 
HETATM   21  C27 UNL     1      -3.929  48.690 -23.233  1.00  0.00     0.011 C 
HETATM   22  C28 UNL     1      -3.246  48.924 -21.867  1.00  0.00    -0.029 C 
HETATM   23  C29 UNL     1      -2.035  47.945 -21.742  1.00  0.00     0.016 C 
ENDROOT
BRANCH   1  24
HETATM   24  C6  UNL     1      -4.518  47.310 -20.099  1.00  0.00    -0.011 C 
HETATM   25  C7  UNL     1      -3.286  46.562 -19.580  1.00  0.00     0.010 C 
BRANCH  24  26
HETATM   26  C5  UNL     1      -5.197  46.492 -21.238  1.00  0.00     0.040 C 
BRANCH  26  27
HETATM   27  C4  UNL     1      -6.595  45.940 -20.903  1.00  0.00     0.142 C 
BRANCH  27  28
HETATM   28  C3  UNL     1      -6.512  44.519 -20.424  1.00  0.00     0.018 C 
HETATM   29  C2  UNL     1      -6.554  43.389 -21.160  1.00  0.00     0.010 C 
HETATM   30  C1  UNL     1      -6.686  43.300 -22.650  1.00  0.00     0.055 C 
BRANCH  29  31
HETATM   31  C30 UNL     1      -6.452  42.113 -20.404  1.00  0.00     0.171 C 
HETATM   32  O3  UNL     1      -6.891  41.890 -19.289  1.00  0.00    -0.646 OA
BRANCH  31  33
HETATM   33  O4  UNL     1      -5.806  41.160 -21.092  1.00  0.00    -0.773 OA
HETATM   34  H46 UNL     1      -5.813  40.393 -20.484  1.00  0.00     0.167 HD
ENDBRANCH  31  33
ENDBRANCH  29  31
ENDBRANCH  27  28
BRANCH  27  35
HETATM   35  O1  UNL     1      -7.416  45.954 -22.065  1.00  0.00    -0.392 OA
HETATM   36  H6  UNL     1      -7.002  45.378 -22.730  1.00  0.00     0.210 HD
ENDBRANCH  27  35
ENDBRANCH  26  27
ENDBRANCH  24  26
ENDBRANCH   1  24
TORSDOF 7
ENDMDL
MODEL 8
REMARK minimizedAffinity -9.27630329
REMARK CNNscore 0.225370467
REMARK CNNaffinity 6.51776838
REMARK  7 active torsions:
REMARK  status: ('A' for Active; 'I' for Inactive)
REMARK    1  A    between atoms: C2_2  and  C30_32 
REMARK    2  A    between atoms: C3_3  and  C4_4 
REMARK    3  A    between atoms: C4_4  and  O1_5 
REMARK    4  A    between atoms: C4_4  and  C5_6 
REMARK    5  A    between atoms: C5_6  and  C6_7 
REMARK    6  A    between atoms: C6_7  and  C8_9 
REMARK    7  A    between atoms: C30_32  and  O4_34 
ROOT
HETATM    1  C8  UNL     1      -6.411  49.371 -23.966  1.00  0.00    -0.002 C 
HETATM    2  C9  UNL     1      -7.310  49.945 -22.829  1.00  0.00     0.007 C 
HETATM    3  C10 UNL     1      -6.383  50.592 -21.784  1.00  0.00     0.015 C 
HETATM    4  C11 UNL     1      -5.011  50.680 -22.478  1.00  0.00    -0.013 C 
HETATM    5  C12 UNL     1      -5.046  51.979 -23.341  1.00  0.00     0.021 C 
HETATM    6  C13 UNL     1      -3.769  50.785 -21.605  1.00  0.00    -0.070 C 
HETATM    7  C14 UNL     1      -3.786  51.232 -20.336  1.00  0.00    -0.022 C 
HETATM    8  C15 UNL     1      -2.521  51.410 -19.551  1.00  0.00     0.034 C 
HETATM    9  C16 UNL     1      -1.440  51.968 -20.489  1.00  0.00     0.013 C 
HETATM   10  C17 UNL     1      -0.179  52.544 -19.772  1.00  0.00     0.018 C 
HETATM   11  C18 UNL     1      -0.477  53.965 -19.245  1.00  0.00     0.023 C 
HETATM   12  C19 UNL     1       0.291  51.697 -18.575  1.00  0.00     0.023 C 
HETATM   13  C20 UNL     1       0.963  52.691 -20.787  1.00  0.00     0.135 C 
HETATM   14  O2  UNL     1       2.143  52.753 -20.435  1.00  0.00    -0.297 OA
HETATM   15  C21 UNL     1       0.592  52.867 -22.244  1.00  0.00     0.080 C 
HETATM   16  C22 UNL     1      -0.450  51.871 -22.766  1.00  0.00     0.017 C 
HETATM   17  C23 UNL     1      -1.133  50.994 -21.684  1.00  0.00    -0.031 C 
HETATM   18  C24 UNL     1      -0.154  49.849 -21.307  1.00  0.00     0.016 C 
HETATM   19  C25 UNL     1      -2.459  50.265 -22.201  1.00  0.00     0.024 C 
HETATM   20  C26 UNL     1      -2.519  50.029 -23.729  1.00  0.00     0.010 C 
HETATM   21  C27 UNL     1      -3.791  49.326 -24.257  1.00  0.00     0.011 C 
HETATM   22  C28 UNL     1      -4.997  49.334 -23.292  1.00  0.00    -0.029 C 
HETATM   23  C29 UNL     1      -4.916  48.064 -22.386  1.00  0.00     0.016 C 
ENDROOT
BRANCH   1  24
HETATM   24  C6  UNL     1      -7.014  48.073 -24.592  1.00  0.00    -0.011 C 
HETATM   25  C7  UNL     1      -6.926  46.882 -23.633  1.00  0.00     0.010 C 
BRANCH  24  26
HETATM   26  C5  UNL     1      -6.288  47.735 -25.929  1.00  0.00     0.040 C 
BRANCH  26  27
HETATM   27  C4  UNL     1      -7.217  47.454 -27.124  1.00  0.00     0.142 C 
BRANCH  27  28
HETATM   28  C3  UNL     1      -6.551  47.818 -28.421  1.00  0.00     0.018 C 
HETATM   29  C2  UNL     1      -5.265  48.175 -28.624  1.00  0.00     0.010 C 
HETATM   30  C1  UNL     1      -4.194  48.282 -27.582  1.00  0.00     0.055 C 
BRANCH  29  31
HETATM   31  C30 UNL     1      -4.889  48.485 -30.028  1.00  0.00     0.171 C 
HETATM   32  O3  UNL     1      -4.949  47.730 -30.982  1.00  0.00    -0.646 OA
BRANCH  31  33
HETATM   33  O4  UNL     1      -4.460  49.748 -30.176  1.00  0.00    -0.773 OA
HETATM   34  H46 UNL     1      -4.250  49.809 -31.130  1.00  0.00     0.167 HD
ENDBRANCH  31  33
ENDBRANCH  29  31
ENDBRANCH  27  28
BRANCH  27  35
HETATM   35  O1  UNL     1      -8.400  48.237 -27.016  1.00  0.00    -0.392 OA
HETATM   36  H6  UNL     1      -8.142  49.174 -27.033  1.00  0.00     0.210 HD
ENDBRANCH  27  35
ENDBRANCH  26  27
ENDBRANCH  24  26
ENDBRANCH   1  24
TORSDOF 7
ENDMDL
MODEL 9
REMARK minimizedAffinity -9.03959465
REMARK CNNscore 0.211613685
REMARK CNNaffinity 5.8871665
REMARK  7 active torsions:
REMARK  status: ('A' for Active; 'I' for Inactive)
REMARK    1  A    between atoms: C2_2  and  C30_32 
REMARK    2  A    between atoms: C3_3  and  C4_4 
REMARK    3  A    between atoms: C4_4  and  O1_5 
REMARK    4  A    between atoms: C4_4  and  C5_6 
REMARK    5  A    between atoms: C5_6  and  C6_7 
REMARK    6  A    between atoms: C6_7  and  C8_9 
REMARK    7  A    between atoms: C30_32  and  O4_34 
ROOT
HETATM    1  C8  UNL     1      -5.536  49.052 -21.502  1.00  0.00    -0.002 C 
HETATM    2  C9  UNL     1      -4.861  49.733 -20.272  1.00  0.00     0.007 C 
HETATM    3  C10 UNL     1      -3.649  50.530 -20.789  1.00  0.00     0.015 C 
HETATM    4  C11 UNL     1      -3.831  50.574 -22.318  1.00  0.00    -0.013 C 
HETATM    5  C12 UNL     1      -4.807  51.757 -22.602  1.00  0.00     0.021 C 
HETATM    6  C13 UNL     1      -2.602  50.822 -23.181  1.00  0.00    -0.070 C 
HETATM    7  C14 UNL     1      -1.483  51.418 -22.731  1.00  0.00    -0.022 C 
HETATM    8  C15 UNL     1      -0.338  51.729 -23.649  1.00  0.00     0.034 C 
HETATM    9  C16 UNL     1      -0.906  52.200 -24.995  1.00  0.00     0.013 C 
HETATM   10  C17 UNL     1       0.125  52.897 -25.937  1.00  0.00     0.018 C 
HETATM   11  C18 UNL     1       0.336  54.362 -25.495  1.00  0.00     0.023 C 
HETATM   12  C19 UNL     1       1.506  52.215 -25.951  1.00  0.00     0.023 C 
HETATM   13  C20 UNL     1      -0.442  52.954 -27.362  1.00  0.00     0.135 C 
HETATM   14  O2  UNL     1       0.285  53.094 -28.348  1.00  0.00    -0.297 OA
HETATM   15  C21 UNL     1      -1.948  52.941 -27.522  1.00  0.00     0.080 C 
HETATM   16  C22 UNL     1      -2.670  51.858 -26.712  1.00  0.00     0.017 C 
HETATM   17  C23 UNL     1      -1.790  51.099 -25.683  1.00  0.00    -0.031 C 
HETATM   18  C24 UNL     1      -0.959  50.037 -26.455  1.00  0.00     0.016 C 
HETATM   19  C25 UNL     1      -2.639  50.273 -24.609  1.00  0.00     0.024 C 
HETATM   20  C26 UNL     1      -4.052  49.852 -25.079  1.00  0.00     0.010 C 
HETATM   21  C27 UNL     1      -4.896  49.052 -24.060  1.00  0.00     0.011 C 
HETATM   22  C28 UNL     1      -4.416  49.140 -22.595  1.00  0.00    -0.029 C 
HETATM   23  C29 UNL     1      -3.387  47.993 -22.338  1.00  0.00     0.016 C 
ENDROOT
BRANCH   1  24
HETATM   24  C6  UNL     1      -6.166  47.671 -21.136  1.00  0.00    -0.011 C 
HETATM   25  C7  UNL     1      -5.170  46.765 -20.404  1.00  0.00     0.010 C 
BRANCH  24  26
HETATM   26  C5  UNL     1      -6.687  46.961 -22.421  1.00  0.00     0.040 C 
BRANCH  26  27
HETATM   27  C4  UNL     1      -8.181  47.176 -22.726  1.00  0.00     0.142 C 
BRANCH  27  28
HETATM   28  C3  UNL     1      -8.363  47.955 -23.998  1.00  0.00     0.018 C 
HETATM   29  C2  UNL     1      -9.375  47.869 -24.889  1.00  0.00     0.010 C 
HETATM   30  C1  UNL     1     -10.567  46.967 -24.799  1.00  0.00     0.055 C 
BRANCH  29  31
HETATM   31  C30 UNL     1      -9.284  48.770 -26.067  1.00  0.00     0.171 C 
HETATM   32  O3  UNL     1      -8.998  48.451 -27.208  1.00  0.00    -0.646 OA
BRANCH  31  33
HETATM   33  O4  UNL     1      -9.570  50.045 -25.760  1.00  0.00    -0.773 OA
HETATM   34  H46 UNL     1      -9.471  50.514 -26.613  1.00  0.00     0.167 HD
ENDBRANCH  31  33
ENDBRANCH  29  31
ENDBRANCH  27  28
BRANCH  27  35
HETATM   35  O1  UNL     1      -8.791  47.919 -21.678  1.00  0.00    -0.392 OA
HETATM   36  H6  UNL     1      -8.352  48.786 -21.630  1.00  0.00     0.210 HD
ENDBRANCH  27  35
ENDBRANCH  26  27
ENDBRANCH  24  26
ENDBRANCH   1  24
TORSDOF 7
ENDMDL
