MODEL 1
REMARK minimizedAffinity -7.02506876
REMARK CNNscore 0.728213668
REMARK CNNaffinity 7.30904961
REMARK  6 active torsions:
REMARK  status: ('A' for Active; 'I' for Inactive)
REMARK    1  A    between atoms: C2_2  and  C3_3 
REMARK    2  A    between atoms: C2_2  and  C9_10 
REMARK    3  A    between atoms: C3_3  and  C4_4 
REMARK    4  A    between atoms: C4_4  and  C5_5 
REMARK    5  A    between atoms: C17_18  and  C18_19 
REMARK    6  A    between atoms: C18_19  and  O2_22 
ROOT
HETATM    1  C9  UNL     1       3.364  55.355  -8.101  1.00  0.00    -0.002 C 
HETATM    2  C10 UNL     1       4.220  54.109  -8.492  1.00  0.00     0.006 C 
HETATM    3  C11 UNL     1       3.247  53.048  -9.060  1.00  0.00     0.011 C 
HETATM    4  C12 UNL     1       1.853  53.542  -8.638  1.00  0.00    -0.032 C 
HETATM    5  C13 UNL     1       1.695  53.115  -7.138  1.00  0.00     0.016 C 
HETATM    6  C14 UNL     1       0.659  53.028  -9.498  1.00  0.00     0.003 C 
HETATM    7  C15 UNL     1       0.505  51.499  -9.577  1.00  0.00     0.009 C 
HETATM    8  C16 UNL     1      -0.894  51.047 -10.005  1.00  0.00     0.042 C 
HETATM    9  C17 UNL     1      -1.694  51.975 -10.976  1.00  0.00     0.095 C 
HETATM   10  O3  UNL     1      -3.038  51.457 -10.841  1.00  0.00    -0.377 OA
HETATM   11  C21 UNL     1      -4.114  52.164 -11.437  1.00  0.00     0.169 C 
HETATM   12  C22 UNL     1      -3.998  53.676 -11.378  1.00  0.00     0.027 C 
HETATM   13  C23 UNL     1      -3.037  54.117 -10.296  1.00  0.00     0.010 C 
HETATM   14  C24 UNL     1      -1.640  53.472 -10.456  1.00  0.00     0.032 C 
HETATM   15  C25 UNL     1      -0.706  53.740  -9.187  1.00  0.00    -0.033 C 
HETATM   16  C26 UNL     1      -1.358  53.211  -7.874  1.00  0.00     0.016 C 
HETATM   17  C27 UNL     1      -0.519  55.296  -9.035  1.00  0.00     0.011 C 
HETATM   18  C28 UNL     1       0.750  55.782  -8.302  1.00  0.00     0.011 C 
HETATM   19  C29 UNL     1       2.018  55.103  -8.850  1.00  0.00    -0.032 C 
HETATM   20  C30 UNL     1       2.179  55.539 -10.338  1.00  0.00     0.016 C 
ENDROOT
BRANCH   1  21
HETATM   21  C2  UNL     1       4.145  56.706  -8.164  1.00  0.00    -0.014 C 
HETATM   22  C1  UNL     1       3.470  57.917  -7.510  1.00  0.00     0.010 C 
BRANCH  21  23
HETATM   23  C3  UNL     1       5.600  56.531  -7.666  1.00  0.00     0.007 C 
BRANCH  23  24
HETATM   24  C4  UNL     1       5.797  56.681  -6.151  1.00  0.00     0.035 C 
BRANCH  24  25
HETATM   25  C5  UNL     1       7.200  57.015  -5.753  1.00  0.00     0.156 A 
HETATM   26  O1  UNL     1       7.466  56.790  -4.355  1.00  0.00    -0.370 OA
HETATM   27  C6  UNL     1       8.224  55.993  -5.271  1.00  0.00     0.080 A 
HETATM   28  C7  UNL     1       7.908  54.532  -5.202  1.00  0.00     0.048 C 
HETATM   29  C8  UNL     1       9.675  56.358  -5.335  1.00  0.00     0.048 C 
ENDBRANCH  24  25
ENDBRANCH  23  24
ENDBRANCH  21  23
ENDBRANCH   1  21
BRANCH   9  30
HETATM   30  C18 UNL     1      -1.148  51.767 -12.481  1.00  0.00     0.082 C 
HETATM   31  C19 UNL     1      -0.275  50.500 -12.618  1.00  0.00     0.049 C 
HETATM   32  C20 UNL     1      -2.212  51.679 -13.589  1.00  0.00     0.049 C 
BRANCH  30  33
HETATM   33  O2  UNL     1      -0.347  52.893 -12.880  1.00  0.00    -0.388 OA
HETATM   34  H35 UNL     1       0.573  52.723 -12.610  1.00  0.00     0.210 HD
ENDBRANCH  30  33
ENDBRANCH   9  30
TORSDOF 6
ENDMDL
MODEL 2
REMARK minimizedAffinity -6.87133408
REMARK CNNscore 0.641791821
REMARK CNNaffinity 6.73594713
REMARK  6 active torsions:
REMARK  status: ('A' for Active; 'I' for Inactive)
REMARK    1  A    between atoms: C2_2  and  C3_3 
REMARK    2  A    between atoms: C2_2  and  C9_10 
REMARK    3  A    between atoms: C3_3  and  C4_4 
REMARK    4  A    between atoms: C4_4  and  C5_5 
REMARK    5  A    between atoms: C17_18  and  C18_19 
REMARK    6  A    between atoms: C18_19  and  O2_22 
ROOT
HETATM    1  C9  UNL     1       1.446  54.148 -10.628  1.00  0.00    -0.002 C 
HETATM    2  C10 UNL     1       2.597  53.330 -11.296  1.00  0.00     0.006 C 
HETATM    3  C11 UNL     1       3.897  53.657 -10.523  1.00  0.00     0.011 C 
HETATM    4  C12 UNL     1       3.549  54.911  -9.702  1.00  0.00    -0.032 C 
HETATM    5  C13 UNL     1       3.654  56.111 -10.705  1.00  0.00     0.016 C 
HETATM    6  C14 UNL     1       4.421  55.159  -8.435  1.00  0.00     0.003 C 
HETATM    7  C15 UNL     1       5.934  55.284  -8.682  1.00  0.00     0.009 C 
HETATM    8  C16 UNL     1       6.684  55.980  -7.543  1.00  0.00     0.042 C 
HETATM    9  C17 UNL     1       6.132  55.803  -6.092  1.00  0.00     0.095 C 
HETATM   10  O3  UNL     1       6.812  56.865  -5.384  1.00  0.00    -0.377 OA
HETATM   11  C21 UNL     1       6.433  57.161  -4.049  1.00  0.00     0.169 C 
HETATM   12  C22 UNL     1       4.946  57.048  -3.766  1.00  0.00     0.027 C 
HETATM   13  C23 UNL     1       4.132  57.126  -5.039  1.00  0.00     0.010 C 
HETATM   14  C24 UNL     1       4.568  56.064  -6.077  1.00  0.00     0.032 C 
HETATM   15  C25 UNL     1       3.882  56.301  -7.501  1.00  0.00    -0.033 C 
HETATM   16  C26 UNL     1       4.206  57.719  -8.063  1.00  0.00     0.016 C 
HETATM   17  C27 UNL     1       2.322  56.204  -7.318  1.00  0.00     0.011 C 
HETATM   18  C28 UNL     1       1.493  55.815  -8.560  1.00  0.00     0.011 C 
HETATM   19  C29 UNL     1       2.066  54.569  -9.260  1.00  0.00    -0.032 C 
HETATM   20  C30 UNL     1       1.949  53.376  -8.264  1.00  0.00     0.016 C 
ENDROOT
BRANCH   1  21
HETATM   21  C2  UNL     1       0.036  53.491 -10.770  1.00  0.00    -0.014 C 
HETATM   22  C1  UNL     1      -0.015  51.961 -10.697  1.00  0.00     0.010 C 
BRANCH  21  23
HETATM   23  C3  UNL     1      -0.979  54.139  -9.798  1.00  0.00     0.007 C 
BRANCH  23  24
HETATM   24  C4  UNL     1      -2.353  54.460 -10.402  1.00  0.00     0.035 C 
BRANCH  24  25
HETATM   25  C5  UNL     1      -3.391  53.416 -10.136  1.00  0.00     0.156 A 
HETATM   26  O1  UNL     1      -4.586  53.586 -10.922  1.00  0.00    -0.370 OA
HETATM   27  C6  UNL     1      -3.851  52.381 -11.158  1.00  0.00     0.080 A 
HETATM   28  C7  UNL     1      -3.249  52.300 -12.526  1.00  0.00     0.048 C 
HETATM   29  C8  UNL     1      -4.535  51.146 -10.658  1.00  0.00     0.048 C 
ENDBRANCH  24  25
ENDBRANCH  23  24
ENDBRANCH  21  23
ENDBRANCH   1  21
BRANCH   9  30
HETATM   30  C18 UNL     1       6.576  54.359  -5.524  1.00  0.00     0.082 C 
HETATM   31  C19 UNL     1       7.840  54.442  -4.638  1.00  0.00     0.049 C 
HETATM   32  C20 UNL     1       5.525  53.593  -4.703  1.00  0.00     0.049 C 
BRANCH  30  33
HETATM   33  O2  UNL     1       6.866  53.464  -6.612  1.00  0.00    -0.388 OA
HETATM   34  H35 UNL     1       7.803  53.568  -6.851  1.00  0.00     0.210 HD
ENDBRANCH  30  33
ENDBRANCH   9  30
TORSDOF 6
ENDMDL
MODEL 3
REMARK minimizedAffinity -6.74015427
REMARK CNNscore 0.58963114
REMARK CNNaffinity 7.16236115
REMARK  6 active torsions:
REMARK  status: ('A' for Active; 'I' for Inactive)
REMARK    1  A    between atoms: C2_2  and  C3_3 
REMARK    2  A    between atoms: C2_2  and  C9_10 
REMARK    3  A    between atoms: C3_3  and  C4_4 
REMARK    4  A    between atoms: C4_4  and  C5_5 
REMARK    5  A    between atoms: C17_18  and  C18_19 
REMARK    6  A    between atoms: C18_19  and  O2_22 
ROOT
HETATM    1  C9  UNL     1      -1.837  51.949 -10.747  1.00  0.00    -0.002 C 
HETATM    2  C10 UNL     1      -2.431  51.482  -9.381  1.00  0.00     0.006 C 
HETATM    3  C11 UNL     1      -1.526  52.062  -8.267  1.00  0.00     0.011 C 
HETATM    4  C12 UNL     1      -0.252  52.510  -9.005  1.00  0.00    -0.032 C 
HETATM    5  C13 UNL     1       0.585  51.204  -9.226  1.00  0.00     0.016 C 
HETATM    6  C14 UNL     1       0.595  53.608  -8.294  1.00  0.00     0.003 C 
HETATM    7  C15 UNL     1       1.087  53.257  -6.879  1.00  0.00     0.009 C 
HETATM    8  C16 UNL     1       2.270  54.111  -6.414  1.00  0.00     0.042 C 
HETATM    9  C17 UNL     1       2.361  55.579  -6.942  1.00  0.00     0.095 C 
HETATM   10  O3  UNL     1       3.733  55.921  -6.637  1.00  0.00    -0.377 OA
HETATM   11  C21 UNL     1       4.272  57.134  -7.136  1.00  0.00     0.169 C 
HETATM   12  C22 UNL     1       3.809  57.514  -8.531  1.00  0.00     0.027 C 
HETATM   13  C23 UNL     1       3.273  56.316  -9.283  1.00  0.00     0.010 C 
HETATM   14  C24 UNL     1       2.138  55.600  -8.512  1.00  0.00     0.032 C 
HETATM   15  C25 UNL     1       1.743  54.205  -9.184  1.00  0.00    -0.033 C 
HETATM   16  C26 UNL     1       2.970  53.248  -9.278  1.00  0.00     0.016 C 
HETATM   17  C27 UNL     1       1.244  54.489 -10.650  1.00  0.00     0.011 C 
HETATM   18  C28 UNL     1       0.288  53.453 -11.277  1.00  0.00     0.011 C 
HETATM   19  C29 UNL     1      -0.877  53.108 -10.333  1.00  0.00    -0.032 C 
HETATM   20  C30 UNL     1      -1.714  54.406 -10.124  1.00  0.00     0.016 C 
ENDROOT
BRANCH   1  21
HETATM   21  C2  UNL     1      -2.894  52.072 -11.890  1.00  0.00    -0.014 C 
HETATM   22  C1  UNL     1      -3.991  53.125 -11.694  1.00  0.00     0.010 C 
BRANCH  21  23
HETATM   23  C3  UNL     1      -2.207  52.220 -13.269  1.00  0.00     0.007 C 
BRANCH  23  24
HETATM   24  C4  UNL     1      -1.211  51.110 -13.628  1.00  0.00     0.035 C 
BRANCH  24  25
HETATM   25  C5  UNL     1      -0.010  51.592 -14.378  1.00  0.00     0.156 A 
HETATM   26  O1  UNL     1       1.120  50.704 -14.281  1.00  0.00    -0.370 OA
HETATM   27  C6  UNL     1       0.583  50.891 -15.595  1.00  0.00     0.080 A 
HETATM   28  C7  UNL     1      -0.036  49.657 -16.175  1.00  0.00     0.048 C 
HETATM   29  C8  UNL     1       1.473  51.680 -16.506  1.00  0.00     0.048 C 
ENDBRANCH  24  25
ENDBRANCH  23  24
ENDBRANCH  21  23
ENDBRANCH   1  21
BRANCH   9  30
HETATM   30  C18 UNL     1       1.340  56.510  -6.107  1.00  0.00     0.082 C 
HETATM   31  C19 UNL     1       2.057  57.691  -5.415  1.00  0.00     0.049 C 
HETATM   32  C20 UNL     1       0.169  57.121  -6.896  1.00  0.00     0.049 C 
BRANCH  30  33
HETATM   33  O2  UNL     1       0.685  55.738  -5.085  1.00  0.00    -0.388 OA
HETATM   34  H35 UNL     1       1.236  55.765  -4.284  1.00  0.00     0.210 HD
ENDBRANCH  30  33
ENDBRANCH   9  30
TORSDOF 6
ENDMDL
MODEL 4
REMARK minimizedAffinity -6.75820732
REMARK CNNscore 0.538283229
REMARK CNNaffinity 6.22050476
REMARK  6 active torsions:
REMARK  status: ('A' for Active; 'I' for Inactive)
REMARK    1  A    between atoms: C2_2  and  C3_3 
REMARK    2  A    between atoms: C2_2  and  C9_10 
REMARK    3  A    between atoms: C3_3  and  C4_4 
REMARK    4  A    between atoms: C4_4  and  C5_5 
REMARK    5  A    between atoms: C17_18  and  C18_19 
REMARK    6  A    between atoms: C18_19  and  O2_22 
ROOT
HETATM    1  C9  UNL     1     -11.914  45.956 -25.319  1.00  0.00    -0.002 C 
HETATM    2  C10 UNL     1     -10.654  45.732 -24.424  1.00  0.00     0.006 C 
HETATM    3  C11 UNL     1      -9.428  45.682 -25.367  1.00  0.00     0.011 C 
HETATM    4  C12 UNL     1     -10.032  45.496 -26.770  1.00  0.00    -0.032 C 
HETATM    5  C13 UNL     1     -10.378  43.971 -26.878  1.00  0.00     0.016 C 
HETATM    6  C14 UNL     1      -9.140  45.956 -27.962  1.00  0.00     0.003 C 
HETATM    7  C15 UNL     1      -7.760  45.284 -28.059  1.00  0.00     0.009 C 
HETATM    8  C16 UNL     1      -7.125  45.388 -29.449  1.00  0.00     0.042 C 
HETATM    9  C17 UNL     1      -7.451  46.654 -30.305  1.00  0.00     0.095 C 
HETATM   10  O3  UNL     1      -7.032  46.236 -31.625  1.00  0.00    -0.377 OA
HETATM   11  C21 UNL     1      -7.339  47.056 -32.741  1.00  0.00     0.169 C 
HETATM   12  C22 UNL     1      -8.694  47.736 -32.682  1.00  0.00     0.027 C 
HETATM   13  C23 UNL     1      -9.624  47.037 -31.715  1.00  0.00     0.010 C 
HETATM   14  C24 UNL     1      -9.014  46.920 -30.297  1.00  0.00     0.032 C 
HETATM   15  C25 UNL     1      -9.882  45.974 -29.346  1.00  0.00    -0.033 C 
HETATM   16  C26 UNL     1     -10.037  44.544 -29.948  1.00  0.00     0.016 C 
HETATM   17  C27 UNL     1     -11.323  46.596 -29.216  1.00  0.00     0.011 C 
HETATM   18  C28 UNL     1     -12.130  46.237 -27.951  1.00  0.00     0.011 C 
HETATM   19  C29 UNL     1     -11.302  46.439 -26.670  1.00  0.00    -0.032 C 
HETATM   20  C30 UNL     1     -10.970  47.958 -26.560  1.00  0.00     0.016 C 
ENDROOT
BRANCH   1  21
HETATM   21  C2  UNL     1     -13.085  46.691 -24.592  1.00  0.00    -0.014 C 
HETATM   22  C1  UNL     1     -14.491  46.462 -25.158  1.00  0.00     0.010 C 
BRANCH  21  23
HETATM   23  C3  UNL     1     -13.041  46.435 -23.066  1.00  0.00     0.007 C 
BRANCH  23  24
HETATM   24  C4  UNL     1     -14.059  47.230 -22.238  1.00  0.00     0.035 C 
BRANCH  24  25
HETATM   25  C5  UNL     1     -13.546  47.662 -20.900  1.00  0.00     0.156 A 
HETATM   26  O1  UNL     1     -14.160  48.873 -20.417  1.00  0.00    -0.370 OA
HETATM   27  C6  UNL     1     -14.388  47.700 -19.629  1.00  0.00     0.080 A 
HETATM   28  C7  UNL     1     -15.816  47.253 -19.614  1.00  0.00     0.048 C 
HETATM   29  C8  UNL     1     -13.680  47.710 -18.309  1.00  0.00     0.048 C 
ENDBRANCH  24  25
ENDBRANCH  23  24
ENDBRANCH  21  23
ENDBRANCH   1  21
BRANCH   9  30
HETATM   30  C18 UNL     1      -6.556  47.894 -29.786  1.00  0.00     0.082 C 
HETATM   31  C19 UNL     1      -5.701  47.523 -28.554  1.00  0.00     0.049 C 
HETATM   32  C20 UNL     1      -5.590  48.516 -30.809  1.00  0.00     0.049 C 
BRANCH  30  33
HETATM   33  O2  UNL     1      -7.402  48.996 -29.414  1.00  0.00    -0.388 OA
HETATM   34  H35 UNL     1      -7.649  48.888 -28.479  1.00  0.00     0.210 HD
ENDBRANCH  30  33
ENDBRANCH   9  30
TORSDOF 6
ENDMDL
MODEL 5
REMARK minimizedAffinity -6.75011921
REMARK CNNscore 0.500667572
REMARK CNNaffinity 6.34452772
REMARK  6 active torsions:
REMARK  status: ('A' for Active; 'I' for Inactive)
REMARK    1  A    between atoms: C2_2  and  C3_3 
REMARK    2  A    between atoms: C2_2  and  C9_10 
REMARK    3  A    between atoms: C3_3  and  C4_4 
REMARK    4  A    between atoms: C4_4  and  C5_5 
REMARK    5  A    between atoms: C17_18  and  C18_19 
REMARK    6  A    between atoms: C18_19  and  O2_22 
ROOT
HETATM    1  C9  UNL     1      -6.974  47.313 -22.861  1.00  0.00    -0.002 C 
HETATM    2  C10 UNL     1      -7.276  48.837 -23.014  1.00  0.00     0.006 C 
HETATM    3  C11 UNL     1      -8.150  49.004 -24.281  1.00  0.00     0.011 C 
HETATM    4  C12 UNL     1      -8.012  47.662 -25.020  1.00  0.00    -0.032 C 
HETATM    5  C13 UNL     1      -6.636  47.734 -25.766  1.00  0.00     0.016 C 
HETATM    6  C14 UNL     1      -9.167  47.304 -26.003  1.00  0.00     0.003 C 
HETATM    7  C15 UNL     1      -9.425  48.323 -27.126  1.00  0.00     0.009 C 
HETATM    8  C16 UNL     1     -10.203  47.744 -28.311  1.00  0.00     0.042 C 
HETATM    9  C17 UNL     1     -11.238  46.610 -28.018  1.00  0.00     0.095 C 
HETATM   10  O3  UNL     1     -11.464  46.066 -29.339  1.00  0.00    -0.377 OA
HETATM   11  C21 UNL     1     -12.219  44.873 -29.476  1.00  0.00     0.169 C 
HETATM   12  C22 UNL     1     -11.992  43.842 -28.386  1.00  0.00     0.027 C 
HETATM   13  C23 UNL     1     -10.681  44.076 -27.667  1.00  0.00     0.010 C 
HETATM   14  C24 UNL     1     -10.579  45.508 -27.089  1.00  0.00     0.032 C 
HETATM   15  C25 UNL     1      -9.110  45.832 -26.548  1.00  0.00    -0.033 C 
HETATM   16  C26 UNL     1      -8.038  45.662 -27.666  1.00  0.00     0.016 C 
HETATM   17  C27 UNL     1      -8.772  44.809 -25.400  1.00  0.00     0.011 C 
HETATM   18  C28 UNL     1      -7.726  45.249 -24.354  1.00  0.00     0.011 C 
HETATM   19  C29 UNL     1      -8.031  46.651 -23.799  1.00  0.00    -0.032 C 
HETATM   20  C30 UNL     1      -9.394  46.573 -23.048  1.00  0.00     0.016 C 
ENDROOT
BRANCH   1  21
HETATM   21  C2  UNL     1      -6.727  46.861 -21.386  1.00  0.00    -0.014 C 
HETATM   22  C1  UNL     1      -6.728  45.350 -21.126  1.00  0.00     0.010 C 
BRANCH  21  23
HETATM   23  C3  UNL     1      -5.463  47.535 -20.802  1.00  0.00     0.007 C 
BRANCH  23  24
HETATM   24  C4  UNL     1      -4.262  47.612 -21.753  1.00  0.00     0.035 C 
BRANCH  24  25
HETATM   25  C5  UNL     1      -2.940  47.691 -21.055  1.00  0.00     0.156 A 
HETATM   26  O1  UNL     1      -1.845  47.194 -21.848  1.00  0.00    -0.370 OA
HETATM   27  C6  UNL     1      -1.785  48.581 -21.500  1.00  0.00     0.080 A 
HETATM   28  C7  UNL     1      -1.905  49.503 -22.674  1.00  0.00     0.048 C 
HETATM   29  C8  UNL     1      -0.717  48.910 -20.503  1.00  0.00     0.048 C 
ENDBRANCH  24  25
ENDBRANCH  23  24
ENDBRANCH  21  23
ENDBRANCH   1  21
BRANCH   9  30
HETATM   30  C18 UNL     1     -12.591  47.263 -27.428  1.00  0.00     0.082 C 
HETATM   31  C19 UNL     1     -13.857  46.724 -28.132  1.00  0.00     0.049 C 
HETATM   32  C20 UNL     1     -12.832  47.092 -25.919  1.00  0.00     0.049 C 
BRANCH  30  33
HETATM   33  O2  UNL     1     -12.572  48.691 -27.602  1.00  0.00    -0.388 OA
HETATM   34  H35 UNL     1     -12.949  48.897 -28.475  1.00  0.00     0.210 HD
ENDBRANCH  30  33
ENDBRANCH   9  30
TORSDOF 6
ENDMDL
MODEL 6
REMARK minimizedAffinity -6.41860771
REMARK CNNscore 0.493918568
REMARK CNNaffinity 6.06477165
REMARK  6 active torsions:
REMARK  status: ('A' for Active; 'I' for Inactive)
REMARK    1  A    between atoms: C2_2  and  C3_3 
REMARK    2  A    between atoms: C2_2  and  C9_10 
REMARK    3  A    between atoms: C3_3  and  C4_4 
REMARK    4  A    between atoms: C4_4  and  C5_5 
REMARK    5  A    between atoms: C17_18  and  C18_19 
REMARK    6  A    between atoms: C18_19  and  O2_22 
ROOT
HETATM    1  C9  UNL     1     -14.379  44.607 -26.320  1.00  0.00    -0.002 C 
HETATM    2  C10 UNL     1     -13.485  44.201 -25.105  1.00  0.00     0.006 C 
HETATM    3  C11 UNL     1     -12.012  44.399 -25.536  1.00  0.00     0.011 C 
HETATM    4  C12 UNL     1     -12.077  44.539 -27.067  1.00  0.00    -0.032 C 
HETATM    5  C13 UNL     1     -12.208  43.077 -27.616  1.00  0.00     0.016 C 
HETATM    6  C14 UNL     1     -10.883  45.285 -27.734  1.00  0.00     0.003 C 
HETATM    7  C15 UNL     1      -9.492  44.682 -27.474  1.00  0.00     0.009 C 
HETATM    8  C16 UNL     1      -8.434  45.124 -28.489  1.00  0.00     0.042 C 
HETATM    9  C17 UNL     1      -8.574  46.550 -29.112  1.00  0.00     0.095 C 
HETATM   10  O3  UNL     1      -7.688  46.464 -30.252  1.00  0.00    -0.377 OA
HETATM   11  C21 UNL     1      -7.676  47.519 -31.201  1.00  0.00     0.169 C 
HETATM   12  C22 UNL     1      -9.031  48.140 -31.484  1.00  0.00     0.027 C 
HETATM   13  C23 UNL     1     -10.160  47.214 -31.087  1.00  0.00     0.010 C 
HETATM   14  C24 UNL     1     -10.063  46.777 -29.605  1.00  0.00     0.032 C 
HETATM   15  C25 UNL     1     -11.104  45.617 -29.253  1.00  0.00    -0.033 C 
HETATM   16  C26 UNL     1     -10.897  44.367 -30.162  1.00  0.00     0.016 C 
HETATM   17  C27 UNL     1     -12.557  46.163 -29.515  1.00  0.00     0.011 C 
HETATM   18  C28 UNL     1     -13.708  45.499 -28.730  1.00  0.00     0.011 C 
HETATM   19  C29 UNL     1     -13.393  45.408 -27.226  1.00  0.00    -0.032 C 
HETATM   20  C30 UNL     1     -13.275  46.863 -26.682  1.00  0.00     0.016 C 
ENDROOT
BRANCH   1  21
HETATM   21  C2  UNL     1     -15.796  45.127 -25.919  1.00  0.00    -0.014 C 
HETATM   22  C1  UNL     1     -15.851  46.485 -25.210  1.00  0.00     0.010 C 
BRANCH  21  23
HETATM   23  C3  UNL     1     -16.768  45.077 -27.122  1.00  0.00     0.007 C 
BRANCH  23  24
HETATM   24  C4  UNL     1     -17.126  43.670 -27.618  1.00  0.00     0.035 C 
BRANCH  24  25
HETATM   25  C5  UNL     1     -17.498  43.614 -29.067  1.00  0.00     0.156 A 
HETATM   26  O1  UNL     1     -17.859  42.293 -29.513  1.00  0.00    -0.370 OA
HETATM   27  C6  UNL     1     -18.894  43.280 -29.583  1.00  0.00     0.080 A 
HETATM   28  C7  UNL     1     -20.038  43.020 -28.654  1.00  0.00     0.048 C 
HETATM   29  C8  UNL     1     -19.250  43.687 -30.980  1.00  0.00     0.048 C 
ENDBRANCH  24  25
ENDBRANCH  23  24
ENDBRANCH  21  23
ENDBRANCH   1  21
BRANCH   9  30
HETATM   30  C18 UNL     1      -8.042  47.649 -28.055  1.00  0.00     0.082 C 
HETATM   31  C19 UNL     1      -9.193  48.482 -27.448  1.00  0.00     0.049 C 
HETATM   32  C20 UNL     1      -7.224  47.115 -26.867  1.00  0.00     0.049 C 
BRANCH  30  33
HETATM   33  O2  UNL     1      -7.136  48.561 -28.699  1.00  0.00    -0.388 OA
HETATM   34  H35 UNL     1      -7.656  49.293 -29.075  1.00  0.00     0.210 HD
ENDBRANCH  30  33
ENDBRANCH   9  30
TORSDOF 6
ENDMDL
MODEL 7
REMARK minimizedAffinity -6.85834122
REMARK CNNscore 0.472849667
REMARK CNNaffinity 6.0649581
REMARK  6 active torsions:
REMARK  status: ('A' for Active; 'I' for Inactive)
REMARK    1  A    between atoms: C2_2  and  C3_3 
REMARK    2  A    between atoms: C2_2  and  C9_10 
REMARK    3  A    between atoms: C3_3  and  C4_4 
REMARK    4  A    between atoms: C4_4  and  C5_5 
REMARK    5  A    between atoms: C17_18  and  C18_19 
REMARK    6  A    between atoms: C18_19  and  O2_22 
ROOT
HETATM    1  C9  UNL     1     -13.007  46.377 -27.416  1.00  0.00    -0.002 C 
HETATM    2  C10 UNL     1     -13.574  45.380 -28.476  1.00  0.00     0.006 C 
HETATM    3  C11 UNL     1     -12.540  45.297 -29.624  1.00  0.00     0.011 C 
HETATM    4  C12 UNL     1     -11.613  46.503 -29.392  1.00  0.00    -0.032 C 
HETATM    5  C13 UNL     1     -12.385  47.741 -29.964  1.00  0.00     0.016 C 
HETATM    6  C14 UNL     1     -10.187  46.394 -30.011  1.00  0.00     0.003 C 
HETATM    7  C15 UNL     1     -10.136  46.173 -31.532  1.00  0.00     0.009 C 
HETATM    8  C16 UNL     1      -8.788  46.540 -32.159  1.00  0.00     0.042 C 
HETATM    9  C17 UNL     1      -7.504  46.349 -31.289  1.00  0.00     0.095 C 
HETATM   10  O3  UNL     1      -6.532  47.132 -32.019  1.00  0.00    -0.377 OA
HETATM   11  C21 UNL     1      -5.257  47.367 -31.441  1.00  0.00     0.169 C 
HETATM   12  C22 UNL     1      -5.266  47.590 -29.941  1.00  0.00     0.027 C 
HETATM   13  C23 UNL     1      -6.638  47.998 -29.449  1.00  0.00     0.010 C 
HETATM   14  C24 UNL     1      -7.731  46.980 -29.852  1.00  0.00     0.032 C 
HETATM   15  C25 UNL     1      -9.202  47.527 -29.549  1.00  0.00    -0.033 C 
HETATM   16  C26 UNL     1      -9.473  48.875 -30.283  1.00  0.00     0.016 C 
HETATM   17  C27 UNL     1      -9.318  47.793 -28.002  1.00  0.00     0.011 C 
HETATM   18  C28 UNL     1     -10.734  47.752 -27.388  1.00  0.00     0.011 C 
HETATM   19  C29 UNL     1     -11.501  46.486 -27.811  1.00  0.00    -0.032 C 
HETATM   20  C30 UNL     1     -10.737  45.258 -27.231  1.00  0.00     0.016 C 
ENDROOT
BRANCH   1  21
HETATM   21  C2  UNL     1     -13.498  46.102 -25.960  1.00  0.00    -0.014 C 
HETATM   22  C1  UNL     1     -12.699  46.766 -24.833  1.00  0.00     0.010 C 
BRANCH  21  23
HETATM   23  C3  UNL     1     -15.013  46.384 -25.821  1.00  0.00     0.007 C 
BRANCH  23  24
HETATM   24  C4  UNL     1     -15.837  45.250 -25.197  1.00  0.00     0.035 C 
BRANCH  24  25
HETATM   25  C5  UNL     1     -16.321  45.545 -23.812  1.00  0.00     0.156 A 
HETATM   26  O1  UNL     1     -16.273  46.944 -23.475  1.00  0.00    -0.370 OA
HETATM   27  C6  UNL     1     -17.575  46.351 -23.492  1.00  0.00     0.080 A 
HETATM   28  C7  UNL     1     -18.466  46.885 -24.570  1.00  0.00     0.048 C 
HETATM   29  C8  UNL     1     -18.191  46.199 -22.135  1.00  0.00     0.048 C 
ENDBRANCH  24  25
ENDBRANCH  23  24
ENDBRANCH  21  23
ENDBRANCH   1  21
BRANCH   9  30
HETATM   30  C18 UNL     1      -7.093  44.788 -31.280  1.00  0.00     0.082 C 
HETATM   31  C19 UNL     1      -5.685  44.550 -31.869  1.00  0.00     0.049 C 
HETATM   32  C20 UNL     1      -7.112  44.083 -29.913  1.00  0.00     0.049 C 
BRANCH  30  33
HETATM   33  O2  UNL     1      -8.027  44.023 -32.062  1.00  0.00    -0.388 OA
HETATM   34  H35 UNL     1      -7.718  44.016 -32.984  1.00  0.00     0.210 HD
ENDBRANCH  30  33
ENDBRANCH   9  30
TORSDOF 6
ENDMDL
MODEL 8
REMARK minimizedAffinity -6.75130081
REMARK CNNscore 0.45160982
REMARK CNNaffinity 6.88779879
REMARK  6 active torsions:
REMARK  status: ('A' for Active; 'I' for Inactive)
REMARK    1  A    between atoms: C2_2  and  C3_3 
REMARK    2  A    between atoms: C2_2  and  C9_10 
REMARK    3  A    between atoms: C3_3  and  C4_4 
REMARK    4  A    between atoms: C4_4  and  C5_5 
REMARK    5  A    between atoms: C17_18  and  C18_19 
REMARK    6  A    between atoms: C18_19  and  O2_22 
ROOT
HETATM    1  C9  UNL     1       3.720  55.658  -8.450  1.00  0.00    -0.002 C 
HETATM    2  C10 UNL     1       5.041  54.949  -8.886  1.00  0.00     0.006 C 
HETATM    3  C11 UNL     1       4.643  53.745  -9.772  1.00  0.00     0.011 C 
HETATM    4  C12 UNL     1       3.136  53.564  -9.516  1.00  0.00    -0.032 C 
HETATM    5  C13 UNL     1       3.032  52.799  -8.152  1.00  0.00     0.016 C 
HETATM    6  C14 UNL     1       2.339  52.829 -10.635  1.00  0.00     0.003 C 
HETATM    7  C15 UNL     1       2.831  51.413 -10.983  1.00  0.00     0.009 C 
HETATM    8  C16 UNL     1       1.783  50.563 -11.707  1.00  0.00     0.042 C 
HETATM    9  C17 UNL     1       0.765  51.297 -12.637  1.00  0.00     0.095 C 
HETATM   10  O3  UNL     1      -0.257  50.289 -12.815  1.00  0.00    -0.377 OA
HETATM   11  C21 UNL     1      -1.470  50.639 -13.461  1.00  0.00     0.169 C 
HETATM   12  C22 UNL     1      -1.987  52.029 -13.143  1.00  0.00     0.027 C 
HETATM   13  C23 UNL     1      -1.392  52.562 -11.858  1.00  0.00     0.010 C 
HETATM   14  C24 UNL     1       0.156  52.552 -11.883  1.00  0.00     0.032 C 
HETATM   15  C25 UNL     1       0.780  52.880 -10.448  1.00  0.00    -0.033 C 
HETATM   16  C26 UNL     1       0.287  51.873  -9.366  1.00  0.00     0.016 C 
HETATM   17  C27 UNL     1       0.301  54.317 -10.020  1.00  0.00     0.011 C 
HETATM   18  C28 UNL     1       1.189  55.082  -9.017  1.00  0.00     0.011 C 
HETATM   19  C29 UNL     1       2.667  55.076  -9.445  1.00  0.00    -0.032 C 
HETATM   20  C30 UNL     1       2.768  55.847 -10.795  1.00  0.00     0.016 C 
ENDROOT
BRANCH   1  21
HETATM   21  C2  UNL     1       3.883  57.184  -8.164  1.00  0.00    -0.014 C 
HETATM   22  C1  UNL     1       2.754  57.855  -7.373  1.00  0.00     0.010 C 
BRANCH  21  23
HETATM   23  C3  UNL     1       5.267  57.489  -7.544  1.00  0.00     0.007 C 
BRANCH  23  24
HETATM   24  C4  UNL     1       5.458  57.011  -6.098  1.00  0.00     0.035 C 
BRANCH  24  25
HETATM   25  C5  UNL     1       6.878  57.057  -5.627  1.00  0.00     0.156 A 
HETATM   26  O1  UNL     1       7.088  56.371  -4.378  1.00  0.00    -0.370 OA
HETATM   27  C6  UNL     1       7.784  55.836  -5.509  1.00  0.00     0.080 A 
HETATM   28  C7  UNL     1       7.323  54.469  -5.909  1.00  0.00     0.048 C 
HETATM   29  C8  UNL     1       9.265  56.053  -5.466  1.00  0.00     0.048 C 
ENDBRANCH  24  25
ENDBRANCH  23  24
ENDBRANCH  21  23
ENDBRANCH   1  21
BRANCH   9  30
HETATM   30  C18 UNL     1       1.480  51.642 -14.043  1.00  0.00     0.082 C 
HETATM   31  C19 UNL     1       3.012  51.778 -13.902  1.00  0.00     0.049 C 
HETATM   32  C20 UNL     1       1.240  50.651 -15.194  1.00  0.00     0.049 C 
BRANCH  30  33
HETATM   33  O2  UNL     1       0.978  52.885 -14.565  1.00  0.00    -0.388 OA
HETATM   34  H35 UNL     1       1.521  53.608 -14.204  1.00  0.00     0.210 HD
ENDBRANCH  30  33
ENDBRANCH   9  30
TORSDOF 6
ENDMDL
MODEL 9
REMARK minimizedAffinity -7.10752678
REMARK CNNscore 0.451249778
REMARK CNNaffinity 5.92681456
REMARK  6 active torsions:
REMARK  status: ('A' for Active; 'I' for Inactive)
REMARK    1  A    between atoms: C2_2  and  C3_3 
REMARK    2  A    between atoms: C2_2  and  C9_10 
REMARK    3  A    between atoms: C3_3  and  C4_4 
REMARK    4  A    between atoms: C4_4  and  C5_5 
REMARK    5  A    between atoms: C17_18  and  C18_19 
REMARK    6  A    between atoms: C18_19  and  O2_22 
ROOT
HETATM    1  C9  UNL     1     -12.974  45.547 -26.897  1.00  0.00    -0.002 C 
HETATM    2  C10 UNL     1     -12.181  46.202 -25.723  1.00  0.00     0.006 C 
HETATM    3  C11 UNL     1     -10.729  46.414 -26.215  1.00  0.00     0.011 C 
HETATM    4  C12 UNL     1     -10.625  45.550 -27.483  1.00  0.00    -0.032 C 
HETATM    5  C13 UNL     1     -10.408  44.083 -26.974  1.00  0.00     0.016 C 
HETATM    6  C14 UNL     1      -9.518  45.962 -28.500  1.00  0.00     0.003 C 
HETATM    7  C15 UNL     1      -8.083  45.986 -27.947  1.00  0.00     0.009 C 
HETATM    8  C16 UNL     1      -7.007  45.924 -29.035  1.00  0.00     0.042 C 
HETATM    9  C17 UNL     1      -7.333  46.571 -30.420  1.00  0.00     0.095 C 
HETATM   10  O3  UNL     1      -6.310  45.995 -31.265  1.00  0.00    -0.377 OA
HETATM   11  C21 UNL     1      -6.377  46.196 -32.668  1.00  0.00     0.169 C 
HETATM   12  C22 UNL     1      -7.778  46.179 -33.250  1.00  0.00     0.027 C 
HETATM   13  C23 UNL     1      -8.754  45.479 -32.329  1.00  0.00     0.010 C 
HETATM   14  C24 UNL     1      -8.765  46.097 -30.911  1.00  0.00     0.032 C 
HETATM   15  C25 UNL     1      -9.604  45.212 -29.877  1.00  0.00    -0.033 C 
HETATM   16  C26 UNL     1      -9.052  43.758 -29.789  1.00  0.00     0.016 C 
HETATM   17  C27 UNL     1     -11.089  45.130 -30.394  1.00  0.00     0.011 C 
HETATM   18  C28 UNL     1     -12.184  44.863 -29.340  1.00  0.00     0.011 C 
HETATM   19  C29 UNL     1     -12.050  45.803 -28.128  1.00  0.00    -0.032 C 
HETATM   20  C30 UNL     1     -12.278  47.259 -28.637  1.00  0.00     0.016 C 
ENDROOT
BRANCH   1  21
HETATM   21  C2  UNL     1     -14.503  45.865 -26.886  1.00  0.00    -0.014 C 
HETATM   22  C1  UNL     1     -15.323  45.320 -28.060  1.00  0.00     0.010 C 
BRANCH  21  23
HETATM   23  C3  UNL     1     -15.139  45.488 -25.527  1.00  0.00     0.007 C 
BRANCH  23  24
HETATM   24  C4  UNL     1     -16.210  46.460 -25.012  1.00  0.00     0.035 C 
BRANCH  24  25
HETATM   25  C5  UNL     1     -17.608  46.066 -25.369  1.00  0.00     0.156 A 
HETATM   26  O1  UNL     1     -18.030  44.834 -24.753  1.00  0.00    -0.370 OA
HETATM   27  C6  UNL     1     -18.764  46.003 -24.376  1.00  0.00     0.080 A 
HETATM   28  C7  UNL     1     -18.592  46.386 -22.939  1.00  0.00     0.048 C 
HETATM   29  C8  UNL     1     -20.162  46.040 -24.911  1.00  0.00     0.048 C 
ENDBRANCH  24  25
ENDBRANCH  23  24
ENDBRANCH  21  23
ENDBRANCH   1  21
BRANCH   9  30
HETATM   30  C18 UNL     1      -7.156  48.172 -30.315  1.00  0.00     0.082 C 
HETATM   31  C19 UNL     1      -5.788  48.646 -30.854  1.00  0.00     0.049 C 
HETATM   32  C20 UNL     1      -8.218  49.026 -31.027  1.00  0.00     0.049 C 
BRANCH  30  33
HETATM   33  O2  UNL     1      -7.253  48.595 -28.943  1.00  0.00    -0.388 OA
HETATM   34  H35 UNL     1      -6.366  48.552 -28.548  1.00  0.00     0.210 HD
ENDBRANCH  30  33
ENDBRANCH   9  30
TORSDOF 6
ENDMDL
