MODEL 1
REMARK minimizedAffinity -10.4438
REMARK  5 active torsions:
REMARK  status: ('A' for Active; 'I' for Inactive)
REMARK    1  A    between atoms: C3_3  and  C4_4 
REMARK    2  A    between atoms: C4_4  and  C5_5 
REMARK    3  A    between atoms: C5_5  and  C6_6 
REMARK       I    between atoms: C6_6  and  N1_8 
REMARK    4  A    between atoms: N1_8  and  C7_9 
REMARK    5  A    between atoms: C7_9  and  C8_10 
ROOT
HETATM    1  C1  UNL     1      -1.078   3.459  11.817  1.00  0.00     0.050 C 
HETATM    2  C2  UNL     1      -1.329   4.880  12.260  1.00  0.00    -0.037 A 
HETATM    3  C3  UNL     1      -0.361   5.817  12.362  1.00  0.00     0.025 A 
HETATM    4  C13 UNL     1      -0.655   7.193  12.860  1.00  0.00     0.295 A 
HETATM    5  O2  UNL     1       0.234   8.025  13.009  1.00  0.00    -0.259 OA
HETATM    6  O3  UNL     1      -1.967   7.492  13.173  1.00  0.00    -0.274 OA
HETATM    7  C14 UNL     1      -2.984   6.536  13.052  1.00  0.00     0.093 A 
HETATM    8  C15 UNL     1      -4.267   6.958  13.404  1.00  0.00     0.075 A 
HETATM    9  C16 UNL     1      -5.329   6.066  13.314  1.00  0.00     0.079 A 
HETATM   10  C17 UNL     1      -5.113   4.769  12.848  1.00  0.00    -0.024 A 
HETATM   11  C18 UNL     1      -3.808   4.365  12.508  1.00  0.00     0.024 A 
HETATM   12  C19 UNL     1      -2.718   5.245  12.608  1.00  0.00     0.005 A 
HETATM   13  C20 UNL     1      -6.249   3.797  12.733  1.00  0.00     0.044 C 
HETATM   14  C21 UNL     1      -7.583   4.529  12.762  1.00  0.00     0.043 C 
HETATM   15  C22 UNL     1      -7.618   5.600  13.866  1.00  0.00     0.068 C 
HETATM   16  C23 UNL     1      -8.942   6.400  13.730  1.00  0.00     0.038 C 
HETATM   17  C24 UNL     1      -9.449   7.022  15.037  1.00  0.00     0.003 C 
HETATM   18  C25 UNL     1      -8.327   7.335  16.014  1.00  0.00     0.000 C 
HETATM   19  C26 UNL     1      -7.533   6.082  16.382  1.00  0.00     0.003 C 
HETATM   20  C27 UNL     1      -7.527   5.007  15.287  1.00  0.00     0.038 C 
HETATM   21  O4  UNL     1      -6.551   6.555  13.679  1.00  0.00    -0.340 OA
ENDROOT
BRANCH   3  22
HETATM   22  C4  UNL     1       1.091   5.608  11.976  1.00  0.00     0.055 C 
BRANCH  22  23
HETATM   23  C5  UNL     1       1.867   6.925  11.936  1.00  0.00     0.107 C 
BRANCH  23  24
HETATM   24  C6  UNL     1       2.457   7.185  10.565  1.00  0.00     0.218 C 
HETATM   25  O1  UNL     1       3.432   7.903  10.371  1.00  0.00    -0.274 OA
HETATM   26  N1  UNL     1       1.753   6.573   9.552  1.00  0.00    -0.357 N 
HETATM   27  H8  UNL     1       1.086   5.852   9.795  1.00  0.00     0.162 HD
BRANCH  26  28
HETATM   28  C7  UNL     1       2.208   6.626   8.180  1.00  0.00     0.162 C 
BRANCH  28  29
HETATM   29  C8  UNL     1       2.986   5.396   7.818  1.00  0.00    -0.025 A 
HETATM   30  C9  UNL     1       3.054   4.929   6.502  1.00  0.00     0.011 A 
HETATM   31  C10 UNL     1       3.776   3.772   6.217  1.00  0.00     0.018 A 
HETATM   32  C11 UNL     1       4.404   3.115   7.263  1.00  0.00     0.087 A 
HETATM   33  N2  UNL     1       4.356   3.531   8.546  1.00  0.00    -0.375 N 
HETATM   34  C12 UNL     1       3.643   4.654   8.797  1.00  0.00     0.096 A 
ATOM     35  H2  UNL     1       4.833   3.023   9.291  1.00  0.00     0.164 HD
ENDBRANCH  28  29
ENDBRANCH  26  28
ENDBRANCH  23  24
ENDBRANCH  22  23
ENDBRANCH   3  22
TORSDOF 5
ENDMDL
MODEL 2
REMARK minimizedAffinity -10.3149357
REMARK  5 active torsions:
REMARK  status: ('A' for Active; 'I' for Inactive)
REMARK    1  A    between atoms: C3_3  and  C4_4 
REMARK    2  A    between atoms: C4_4  and  C5_5 
REMARK    3  A    between atoms: C5_5  and  C6_6 
REMARK       I    between atoms: C6_6  and  N1_8 
REMARK    4  A    between atoms: N1_8  and  C7_9 
REMARK    5  A    between atoms: C7_9  and  C8_10 
ROOT
HETATM    1  C1  UNL     1      -1.410   4.952  12.820  1.00  0.00     0.050 C 
HETATM    2  C2  UNL     1      -1.966   6.354  12.870  1.00  0.00    -0.037 A 
HETATM    3  C3  UNL     1      -1.212   7.466  12.728  1.00  0.00     0.025 A 
HETATM    4  C13 UNL     1      -1.804   8.831  12.844  1.00  0.00     0.295 A 
HETATM    5  O2  UNL     1      -1.110   9.841  12.775  1.00  0.00    -0.259 OA
HETATM    6  O3  UNL     1      -3.166   8.921  13.059  1.00  0.00    -0.274 OA
HETATM    7  C14 UNL     1      -3.963   7.775  13.186  1.00  0.00     0.093 A 
HETATM    8  C15 UNL     1      -5.323   7.995  13.406  1.00  0.00     0.075 A 
HETATM    9  C16 UNL     1      -6.179   6.910  13.548  1.00  0.00     0.079 A 
HETATM   10  C17 UNL     1      -5.680   5.610  13.442  1.00  0.00    -0.024 A 
HETATM   11  C18 UNL     1      -4.302   5.414  13.229  1.00  0.00     0.024 A 
HETATM   12  C19 UNL     1      -3.418   6.499  13.101  1.00  0.00     0.005 A 
HETATM   13  C20 UNL     1      -6.590   4.426  13.580  1.00  0.00     0.044 C 
HETATM   14  C21 UNL     1      -8.042   4.846  13.405  1.00  0.00     0.043 C 
HETATM   15  C22 UNL     1      -8.358   6.134  14.188  1.00  0.00     0.068 C 
HETATM   16  C23 UNL     1      -9.804   6.577  13.837  1.00  0.00     0.038 C 
HETATM   17  C24 UNL     1     -10.504   7.394  14.930  1.00  0.00     0.003 C 
HETATM   18  C25 UNL     1      -9.529   8.174  15.797  1.00  0.00     0.000 C 
HETATM   19  C26 UNL     1      -8.526   7.251  16.488  1.00  0.00     0.003 C 
HETATM   20  C27 UNL     1      -8.238   5.958  15.716  1.00  0.00     0.038 C 
HETATM   21  O4  UNL     1      -7.494   7.209  13.763  1.00  0.00    -0.340 OA
ENDROOT
BRANCH   3  22
HETATM   22  C4  UNL     1       0.274   7.474  12.421  1.00  0.00     0.055 C 
BRANCH  22  23
HETATM   23  C5  UNL     1       0.939   6.146  12.781  1.00  0.00     0.107 C 
BRANCH  23  24
HETATM   24  C6  UNL     1       1.760   5.601  11.629  1.00  0.00     0.218 C 
HETATM   25  O1  UNL     1       1.483   4.570  11.027  1.00  0.00    -0.274 OA
HETATM   26  N1  UNL     1       2.879   6.358  11.362  1.00  0.00    -0.357 N 
HETATM   27  H8  UNL     1       2.941   7.285  11.762  1.00  0.00     0.162 HD
BRANCH  26  28
HETATM   28  C7  UNL     1       3.743   6.055  10.243  1.00  0.00     0.162 C 
BRANCH  28  29
HETATM   29  C8  UNL     1       3.124   6.485   8.946  1.00  0.00    -0.025 A 
HETATM   30  C9  UNL     1       2.686   7.797   8.739  1.00  0.00     0.011 A 
HETATM   31  C10 UNL     1       2.102   8.145   7.523  1.00  0.00     0.018 A 
HETATM   32  C11 UNL     1       1.969   7.164   6.553  1.00  0.00     0.087 A 
HETATM   33  N2  UNL     1       2.372   5.888   6.719  1.00  0.00    -0.375 N 
HETATM   34  C12 UNL     1       2.930   5.573   7.911  1.00  0.00     0.096 A 
ATOM     35  H2  UNL     1       2.260   5.192   5.981  1.00  0.00     0.164 HD
ENDBRANCH  28  29
ENDBRANCH  26  28
ENDBRANCH  23  24
ENDBRANCH  22  23
ENDBRANCH   3  22
TORSDOF 5
ENDMDL
MODEL 3
REMARK minimizedAffinity -10.090229
REMARK  5 active torsions:
REMARK  status: ('A' for Active; 'I' for Inactive)
REMARK    1  A    between atoms: C3_3  and  C4_4 
REMARK    2  A    between atoms: C4_4  and  C5_5 
REMARK    3  A    between atoms: C5_5  and  C6_6 
REMARK       I    between atoms: C6_6  and  N1_8 
REMARK    4  A    between atoms: N1_8  and  C7_9 
REMARK    5  A    between atoms: C7_9  and  C8_10 
ROOT
HETATM    1  C1  UNL     1      -0.914   3.191  11.648  1.00  0.00     0.050 C 
HETATM    2  C2  UNL     1      -1.136   4.618  12.087  1.00  0.00    -0.037 A 
HETATM    3  C3  UNL     1      -0.151   5.540  12.170  1.00  0.00     0.025 A 
HETATM    4  C13 UNL     1      -0.415   6.923  12.665  1.00  0.00     0.295 A 
HETATM    5  O2  UNL     1       0.490   7.741  12.797  1.00  0.00    -0.259 OA
HETATM    6  O3  UNL     1      -1.717   7.244  12.997  1.00  0.00    -0.274 OA
HETATM    7  C14 UNL     1      -2.751   6.305  12.895  1.00  0.00     0.093 A 
HETATM    8  C15 UNL     1      -4.022   6.749  13.265  1.00  0.00     0.075 A 
HETATM    9  C16 UNL     1      -5.100   5.874  13.196  1.00  0.00     0.079 A 
HETATM   10  C17 UNL     1      -4.911   4.571  12.733  1.00  0.00    -0.024 A 
HETATM   11  C18 UNL     1      -3.618   4.144  12.375  1.00  0.00     0.024 A 
HETATM   12  C19 UNL     1      -2.513   5.008  12.454  1.00  0.00     0.005 A 
HETATM   13  C20 UNL     1      -6.064   3.617  12.640  1.00  0.00     0.044 C 
HETATM   14  C21 UNL     1      -7.386   4.371  12.685  1.00  0.00     0.043 C 
HETATM   15  C22 UNL     1      -7.386   5.448  13.785  1.00  0.00     0.068 C 
HETATM   16  C23 UNL     1      -8.700   6.268  13.664  1.00  0.00     0.038 C 
HETATM   17  C24 UNL     1      -9.177   6.905  14.976  1.00  0.00     0.003 C 
HETATM   18  C25 UNL     1      -8.035   7.204  15.934  1.00  0.00     0.000 C 
HETATM   19  C26 UNL     1      -7.256   5.940  16.297  1.00  0.00     0.003 C 
HETATM   20  C27 UNL     1      -7.283   4.860  15.207  1.00  0.00     0.038 C 
HETATM   21  O4  UNL     1      -6.307   6.384  13.577  1.00  0.00    -0.340 OA
ENDROOT
BRANCH   3  22
HETATM   22  C4  UNL     1       1.292   5.306  11.763  1.00  0.00     0.055 C 
BRANCH  22  23
HETATM   23  C5  UNL     1       1.589   5.855  10.368  1.00  0.00     0.107 C 
BRANCH  23  24
HETATM   24  C6  UNL     1       3.066   5.774  10.038  1.00  0.00     0.218 C 
HETATM   25  O1  UNL     1       3.498   5.439   8.941  1.00  0.00    -0.274 OA
HETATM   26  N1  UNL     1       3.874   6.067  11.114  1.00  0.00    -0.357 N 
HETATM   27  H8  UNL     1       3.460   6.516  11.921  1.00  0.00     0.162 HD
BRANCH  26  28
HETATM   28  C7  UNL     1       5.312   6.132  10.980  1.00  0.00     0.162 C 
BRANCH  28  29
HETATM   29  C8  UNL     1       5.824   7.511  11.277  1.00  0.00    -0.025 A 
HETATM   30  C9  UNL     1       5.427   8.621  10.525  1.00  0.00     0.011 A 
HETATM   31  C10 UNL     1       5.943   9.879  10.828  1.00  0.00     0.018 A 
HETATM   32  C11 UNL     1       6.847   9.984  11.874  1.00  0.00     0.087 A 
HETATM   33  N2  UNL     1       7.259   8.936  12.616  1.00  0.00    -0.375 N 
HETATM   34  C12 UNL     1       6.748   7.724  12.297  1.00  0.00     0.096 A 
ATOM     35  H2  UNL     1       7.925   9.051  13.381  1.00  0.00     0.164 HD
ENDBRANCH  28  29
ENDBRANCH  26  28
ENDBRANCH  23  24
ENDBRANCH  22  23
ENDBRANCH   3  22
TORSDOF 5
ENDMDL
MODEL 4
REMARK minimizedAffinity -10.0123091
REMARK  5 active torsions:
REMARK  status: ('A' for Active; 'I' for Inactive)
REMARK    1  A    between atoms: C3_3  and  C4_4 
REMARK    2  A    between atoms: C4_4  and  C5_5 
REMARK    3  A    between atoms: C5_5  and  C6_6 
REMARK       I    between atoms: C6_6  and  N1_8 
REMARK    4  A    between atoms: N1_8  and  C7_9 
REMARK    5  A    between atoms: C7_9  and  C8_10 
ROOT
HETATM    1  C1  UNL     1      -0.960   3.293  11.762  1.00  0.00     0.050 C 
HETATM    2  C2  UNL     1      -1.198   4.722  12.184  1.00  0.00    -0.037 A 
HETATM    3  C3  UNL     1      -0.223   5.654  12.262  1.00  0.00     0.025 A 
HETATM    4  C13 UNL     1      -0.503   7.040  12.741  1.00  0.00     0.295 A 
HETATM    5  O2  UNL     1       0.393   7.869  12.868  1.00  0.00    -0.259 OA
HETATM    6  O3  UNL     1      -1.809   7.353  13.062  1.00  0.00    -0.274 OA
HETATM    7  C14 UNL     1      -2.834   6.402  12.966  1.00  0.00     0.093 A 
HETATM    8  C15 UNL     1      -4.111   6.837  13.324  1.00  0.00     0.075 A 
HETATM    9  C16 UNL     1      -5.180   5.952  13.259  1.00  0.00     0.079 A 
HETATM   10  C17 UNL     1      -4.976   4.645  12.811  1.00  0.00    -0.024 A 
HETATM   11  C18 UNL     1      -3.677   4.227  12.465  1.00  0.00     0.024 A 
HETATM   12  C19 UNL     1      -2.581   5.103  12.540  1.00  0.00     0.005 A 
HETATM   13  C20 UNL     1      -6.120   3.679  12.723  1.00  0.00     0.044 C 
HETATM   14  C21 UNL     1      -7.449   4.420  12.753  1.00  0.00     0.043 C 
HETATM   15  C22 UNL     1      -7.465   5.509  13.841  1.00  0.00     0.068 C 
HETATM   16  C23 UNL     1      -8.786   6.315  13.705  1.00  0.00     0.038 C 
HETATM   17  C24 UNL     1      -9.276   6.961  15.006  1.00  0.00     0.003 C 
HETATM   18  C25 UNL     1      -8.142   7.282  15.967  1.00  0.00     0.000 C 
HETATM   19  C26 UNL     1      -7.353   6.030  16.348  1.00  0.00     0.003 C 
HETATM   20  C27 UNL     1      -7.364   4.938  15.270  1.00  0.00     0.038 C 
HETATM   21  O4  UNL     1      -6.395   6.453  13.628  1.00  0.00    -0.340 OA
ENDROOT
BRANCH   3  22
HETATM   22  C4  UNL     1       1.224   5.431  11.865  1.00  0.00     0.055 C 
BRANCH  22  23
HETATM   23  C5  UNL     1       1.484   5.811  10.408  1.00  0.00     0.107 C 
BRANCH  23  24
HETATM   24  C6  UNL     1       2.961   6.004  10.134  1.00  0.00     0.218 C 
HETATM   25  O1  UNL     1       3.461   5.920   9.018  1.00  0.00    -0.274 OA
HETATM   26  N1  UNL     1       3.694   6.233  11.278  1.00  0.00    -0.357 N 
HETATM   27  H8  UNL     1       3.200   6.478  12.126  1.00  0.00     0.162 HD
BRANCH  26  28
HETATM   28  C7  UNL     1       5.108   6.531  11.219  1.00  0.00     0.162 C 
BRANCH  28  29
HETATM   29  C8  UNL     1       5.576   7.200  12.477  1.00  0.00    -0.025 A 
HETATM   30  C9  UNL     1       6.866   7.006  12.979  1.00  0.00     0.011 A 
HETATM   31  C10 UNL     1       7.249   7.636  14.160  1.00  0.00     0.018 A 
HETATM   32  C11 UNL     1       6.323   8.439  14.806  1.00  0.00     0.087 A 
HETATM   33  N2  UNL     1       5.067   8.645  14.358  1.00  0.00    -0.375 N 
HETATM   34  C12 UNL     1       4.718   8.017  13.211  1.00  0.00     0.096 A 
ATOM     35  H2  UNL     1       4.412   9.246  14.859  1.00  0.00     0.164 HD
ENDBRANCH  28  29
ENDBRANCH  26  28
ENDBRANCH  23  24
ENDBRANCH  22  23
ENDBRANCH   3  22
TORSDOF 5
ENDMDL
MODEL 5
REMARK minimizedAffinity -9.91616535
REMARK  5 active torsions:
REMARK  status: ('A' for Active; 'I' for Inactive)
REMARK    1  A    between atoms: C3_3  and  C4_4 
REMARK    2  A    between atoms: C4_4  and  C5_5 
REMARK    3  A    between atoms: C5_5  and  C6_6 
REMARK       I    between atoms: C6_6  and  N1_8 
REMARK    4  A    between atoms: N1_8  and  C7_9 
REMARK    5  A    between atoms: C7_9  and  C8_10 
ROOT
HETATM    1  C1  UNL     1      -4.027   6.307  14.034  1.00  0.00     0.050 C 
HETATM    2  C2  UNL     1      -5.132   5.466  13.442  1.00  0.00    -0.037 A 
HETATM    3  C3  UNL     1      -4.917   4.358  12.700  1.00  0.00     0.025 A 
HETATM    4  C13 UNL     1      -6.045   3.595  12.090  1.00  0.00     0.295 A 
HETATM    5  O2  UNL     1      -5.848   2.624  11.367  1.00  0.00    -0.259 OA
HETATM    6  O3  UNL     1      -7.328   4.038  12.348  1.00  0.00    -0.274 OA
HETATM    7  C14 UNL     1      -7.567   5.173  13.133  1.00  0.00     0.093 A 
HETATM    8  C15 UNL     1      -8.905   5.522  13.317  1.00  0.00     0.075 A 
HETATM    9  C16 UNL     1      -9.223   6.639  14.081  1.00  0.00     0.079 A 
HETATM   10  C17 UNL     1      -8.207   7.385  14.680  1.00  0.00    -0.024 A 
HETATM   11  C18 UNL     1      -6.864   7.018  14.472  1.00  0.00     0.024 A 
HETATM   12  C19 UNL     1      -6.522   5.903  13.690  1.00  0.00     0.005 A 
HETATM   13  C20 UNL     1      -8.531   8.587  15.518  1.00  0.00     0.044 C 
HETATM   14  C21 UNL     1      -9.996   8.569  15.932  1.00  0.00     0.043 C 
HETATM   15  C22 UNL     1     -10.914   8.204  14.752  1.00  0.00     0.068 C 
HETATM   16  C23 UNL     1     -12.364   8.057  15.288  1.00  0.00     0.038 C 
HETATM   17  C24 UNL     1     -13.459   8.335  14.251  1.00  0.00     0.003 C 
HETATM   18  C25 UNL     1     -13.011   8.040  12.829  1.00  0.00     0.000 C 
HETATM   19  C26 UNL     1     -11.790   8.871  12.437  1.00  0.00     0.003 C 
HETATM   20  C27 UNL     1     -10.894   9.254  13.623  1.00  0.00     0.038 C 
HETATM   21  O4  UNL     1     -10.554   6.916  14.210  1.00  0.00    -0.340 OA
ENDROOT
BRANCH   3  22
HETATM   22  C4  UNL     1      -3.554   3.753  12.419  1.00  0.00     0.055 C 
BRANCH  22  23
HETATM   23  C5  UNL     1      -2.971   4.246  11.096  1.00  0.00     0.107 C 
BRANCH  23  24
HETATM   24  C6  UNL     1      -1.455   4.239  11.115  1.00  0.00     0.218 C 
HETATM   25  O1  UNL     1      -0.780   3.234  10.925  1.00  0.00    -0.274 OA
HETATM   26  N1  UNL     1      -0.916   5.469  11.421  1.00  0.00    -0.357 N 
HETATM   27  H8  UNL     1      -1.515   6.283  11.376  1.00  0.00     0.162 HD
BRANCH  26  28
HETATM   28  C7  UNL     1       0.513   5.691  11.401  1.00  0.00     0.162 C 
BRANCH  28  29
HETATM   29  C8  UNL     1       0.919   6.513  10.214  1.00  0.00    -0.025 A 
HETATM   30  C9  UNL     1       2.053   6.203   9.457  1.00  0.00     0.011 A 
HETATM   31  C10 UNL     1       2.400   7.007   8.373  1.00  0.00     0.018 A 
HETATM   32  C11 UNL     1       1.600   8.101   8.085  1.00  0.00     0.087 A 
HETATM   33  N2  UNL     1       0.503   8.436   8.795  1.00  0.00    -0.375 N 
HETATM   34  C12 UNL     1       0.192   7.643   9.847  1.00  0.00     0.096 A 
ATOM     35  H2  UNL     1      -0.064   9.248   8.552  1.00  0.00     0.164 HD
ENDBRANCH  28  29
ENDBRANCH  26  28
ENDBRANCH  23  24
ENDBRANCH  22  23
ENDBRANCH   3  22
TORSDOF 5
ENDMDL
MODEL 6
REMARK minimizedAffinity -9.8595686
REMARK  5 active torsions:
REMARK  status: ('A' for Active; 'I' for Inactive)
REMARK    1  A    between atoms: C3_3  and  C4_4 
REMARK    2  A    between atoms: C4_4  and  C5_5 
REMARK    3  A    between atoms: C5_5  and  C6_6 
REMARK       I    between atoms: C6_6  and  N1_8 
REMARK    4  A    between atoms: N1_8  and  C7_9 
REMARK    5  A    between atoms: C7_9  and  C8_10 
ROOT
HETATM    1  C1  UNL     1      -1.447   4.697  12.453  1.00  0.00     0.050 C 
HETATM    2  C2  UNL     1      -1.957   6.115  12.538  1.00  0.00    -0.037 A 
HETATM    3  C3  UNL     1      -1.185   7.204  12.327  1.00  0.00     0.025 A 
HETATM    4  C13 UNL     1      -1.727   8.587  12.480  1.00  0.00     0.295 A 
HETATM    5  O2  UNL     1      -1.011   9.575  12.348  1.00  0.00    -0.259 OA
HETATM    6  O3  UNL     1      -3.063   8.717  12.803  1.00  0.00    -0.274 OA
HETATM    7  C14 UNL     1      -3.880   7.596  13.002  1.00  0.00     0.093 A 
HETATM    8  C15 UNL     1      -5.212   7.857  13.328  1.00  0.00     0.075 A 
HETATM    9  C16 UNL     1      -6.084   6.798  13.546  1.00  0.00     0.079 A 
HETATM   10  C17 UNL     1      -5.633   5.484  13.410  1.00  0.00    -0.024 A 
HETATM   11  C18 UNL     1      -4.283   5.247  13.089  1.00  0.00     0.024 A 
HETATM   12  C19 UNL     1      -3.381   6.304  12.882  1.00  0.00     0.005 A 
HETATM   13  C20 UNL     1      -6.563   4.328  13.629  1.00  0.00     0.044 C 
HETATM   14  C21 UNL     1      -8.012   4.790  13.568  1.00  0.00     0.043 C 
HETATM   15  C22 UNL     1      -8.226   6.090  14.364  1.00  0.00     0.068 C 
HETATM   16  C23 UNL     1      -9.683   6.574  14.127  1.00  0.00     0.038 C 
HETATM   17  C24 UNL     1     -10.269   7.416  15.266  1.00  0.00     0.003 C 
HETATM   18  C25 UNL     1      -9.205   8.171  16.047  1.00  0.00     0.000 C 
HETATM   19  C26 UNL     1      -8.177   7.223  16.662  1.00  0.00     0.003 C 
HETATM   20  C27 UNL     1      -7.989   5.918  15.878  1.00  0.00     0.038 C 
HETATM   21  O4  UNL     1      -7.368   7.137  13.864  1.00  0.00    -0.340 OA
ENDROOT
BRANCH   3  22
HETATM   22  C4  UNL     1       0.271   7.167  11.902  1.00  0.00     0.055 C 
BRANCH  22  23
HETATM   23  C5  UNL     1       0.421   7.002  10.390  1.00  0.00     0.107 C 
BRANCH  23  24
HETATM   24  C6  UNL     1       1.838   6.625  10.006  1.00  0.00     0.218 C 
HETATM   25  O1  UNL     1       2.147   5.531   9.547  1.00  0.00    -0.274 OA
HETATM   26  N1  UNL     1       2.750   7.620  10.276  1.00  0.00    -0.357 N 
HETATM   27  H8  UNL     1       2.405   8.551  10.471  1.00  0.00     0.162 HD
BRANCH  26  28
HETATM   28  C7  UNL     1       4.140   7.489   9.899  1.00  0.00     0.162 C 
BRANCH  28  29
HETATM   29  C8  UNL     1       5.024   7.391  11.107  1.00  0.00    -0.025 A 
HETATM   30  C9  UNL     1       6.400   7.168  10.997  1.00  0.00     0.011 A 
HETATM   31  C10 UNL     1       7.177   7.067  12.149  1.00  0.00     0.018 A 
HETATM   32  C11 UNL     1       6.549   7.188  13.377  1.00  0.00     0.087 A 
HETATM   33  N2  UNL     1       5.224   7.395  13.525  1.00  0.00    -0.375 N 
HETATM   34  C12 UNL     1       4.490   7.483  12.391  1.00  0.00     0.096 A 
ATOM     35  H2  UNL     1       4.795   7.482  14.447  1.00  0.00     0.164 HD
ENDBRANCH  28  29
ENDBRANCH  26  28
ENDBRANCH  23  24
ENDBRANCH  22  23
ENDBRANCH   3  22
TORSDOF 5
ENDMDL
MODEL 7
REMARK minimizedAffinity -9.51560688
REMARK  5 active torsions:
REMARK  status: ('A' for Active; 'I' for Inactive)
REMARK    1  A    between atoms: C3_3  and  C4_4 
REMARK    2  A    between atoms: C4_4  and  C5_5 
REMARK    3  A    between atoms: C5_5  and  C6_6 
REMARK       I    between atoms: C6_6  and  N1_8 
REMARK    4  A    between atoms: N1_8  and  C7_9 
REMARK    5  A    between atoms: C7_9  and  C8_10 
ROOT
HETATM    1  C1  UNL     1       0.282   8.190  11.044  1.00  0.00     0.050 C 
HETATM    2  C2  UNL     1      -0.040   6.768  11.430  1.00  0.00    -0.037 A 
HETATM    3  C3  UNL     1       0.713   5.704  11.075  1.00  0.00     0.025 A 
HETATM    4  C13 UNL     1       0.317   4.311  11.436  1.00  0.00     0.295 A 
HETATM    5  O2  UNL     1       0.968   3.341  11.062  1.00  0.00    -0.259 OA
HETATM    6  O3  UNL     1      -0.830   4.147  12.188  1.00  0.00    -0.274 OA
HETATM    7  C14 UNL     1      -1.609   5.244  12.582  1.00  0.00     0.093 A 
HETATM    8  C15 UNL     1      -2.747   4.950  13.335  1.00  0.00     0.075 A 
HETATM    9  C16 UNL     1      -3.573   5.983  13.760  1.00  0.00     0.079 A 
HETATM   10  C17 UNL     1      -3.247   7.306  13.456  1.00  0.00    -0.024 A 
HETATM   11  C18 UNL     1      -2.098   7.576  12.687  1.00  0.00     0.024 A 
HETATM   12  C19 UNL     1      -1.260   6.544  12.234  1.00  0.00     0.005 A 
HETATM   13  C20 UNL     1      -4.120   8.435  13.916  1.00  0.00     0.044 C 
HETATM   14  C21 UNL     1      -5.047   7.973  15.031  1.00  0.00     0.043 C 
HETATM   15  C22 UNL     1      -5.686   6.610  14.708  1.00  0.00     0.068 C 
HETATM   16  C23 UNL     1      -6.489   6.140  15.952  1.00  0.00     0.038 C 
HETATM   17  C24 UNL     1      -7.662   5.203  15.637  1.00  0.00     0.003 C 
HETATM   18  C25 UNL     1      -7.443   4.391  14.370  1.00  0.00     0.000 C 
HETATM   19  C26 UNL     1      -7.236   5.290  13.152  1.00  0.00     0.003 C 
HETATM   20  C27 UNL     1      -6.625   6.657  13.486  1.00  0.00     0.038 C 
HETATM   21  O4  UNL     1      -4.667   5.612  14.488  1.00  0.00    -0.340 OA
ENDROOT
BRANCH   3  22
HETATM   22  C4  UNL     1       2.022   5.784  10.312  1.00  0.00     0.055 C 
BRANCH  22  23
HETATM   23  C5  UNL     1       1.902   6.652   9.060  1.00  0.00     0.107 C 
BRANCH  23  24
HETATM   24  C6  UNL     1       3.005   7.687   8.989  1.00  0.00     0.218 C 
HETATM   25  O1  UNL     1       3.131   8.483   8.065  1.00  0.00    -0.274 OA
HETATM   26  N1  UNL     1       3.885   7.609  10.046  1.00  0.00    -0.357 N 
HETATM   27  H8  UNL     1       3.616   7.068  10.858  1.00  0.00     0.162 HD
BRANCH  26  28
HETATM   28  C7  UNL     1       4.954   8.568  10.209  1.00  0.00     0.162 C 
BRANCH  28  29
HETATM   29  C8  UNL     1       5.746   8.295  11.453  1.00  0.00    -0.025 A 
HETATM   30  C9  UNL     1       6.823   9.102  11.832  1.00  0.00     0.011 A 
HETATM   31  C10 UNL     1       7.539   8.798  12.988  1.00  0.00     0.018 A 
HETATM   32  C11 UNL     1       7.155   7.690  13.726  1.00  0.00     0.087 A 
HETATM   33  N2  UNL     1       6.127   6.884  13.389  1.00  0.00    -0.375 N 
HETATM   34  C12 UNL     1       5.452   7.197  12.258  1.00  0.00     0.096 A 
ATOM     35  H2  UNL     1       5.871   6.077  13.958  1.00  0.00     0.164 HD
ENDBRANCH  28  29
ENDBRANCH  26  28
ENDBRANCH  23  24
ENDBRANCH  22  23
ENDBRANCH   3  22
TORSDOF 5
ENDMDL
MODEL 8
REMARK minimizedAffinity -9.44344425
REMARK  5 active torsions:
REMARK  status: ('A' for Active; 'I' for Inactive)
REMARK    1  A    between atoms: C3_3  and  C4_4 
REMARK    2  A    between atoms: C4_4  and  C5_5 
REMARK    3  A    between atoms: C5_5  and  C6_6 
REMARK       I    between atoms: C6_6  and  N1_8 
REMARK    4  A    between atoms: N1_8  and  C7_9 
REMARK    5  A    between atoms: C7_9  and  C8_10 
ROOT
HETATM    1  C1  UNL     1      -4.077   6.046  13.927  1.00  0.00     0.050 C 
HETATM    2  C2  UNL     1      -5.237   5.238  13.400  1.00  0.00    -0.037 A 
HETATM    3  C3  UNL     1      -5.096   4.093  12.696  1.00  0.00     0.025 A 
HETATM    4  C13 UNL     1      -6.277   3.363  12.148  1.00  0.00     0.295 A 
HETATM    5  O2  UNL     1      -6.147   2.356  11.459  1.00  0.00    -0.259 OA
HETATM    6  O3  UNL     1      -7.530   3.876  12.424  1.00  0.00    -0.274 OA
HETATM    7  C14 UNL     1      -7.691   5.050  13.171  1.00  0.00     0.093 A 
HETATM    8  C15 UNL     1      -9.005   5.471  13.378  1.00  0.00     0.075 A 
HETATM    9  C16 UNL     1      -9.248   6.629  14.106  1.00  0.00     0.079 A 
HETATM   10  C17 UNL     1      -8.181   7.348  14.647  1.00  0.00    -0.024 A 
HETATM   11  C18 UNL     1      -6.863   6.909  14.416  1.00  0.00     0.024 A 
HETATM   12  C19 UNL     1      -6.597   5.750  13.669  1.00  0.00     0.005 A 
HETATM   13  C20 UNL     1      -8.423   8.595  15.445  1.00  0.00     0.044 C 
HETATM   14  C21 UNL     1      -9.874   8.663  15.900  1.00  0.00     0.043 C 
HETATM   15  C22 UNL     1     -10.843   8.298  14.761  1.00  0.00     0.068 C 
HETATM   16  C23 UNL     1     -12.281   8.242  15.344  1.00  0.00     0.038 C 
HETATM   17  C24 UNL     1     -13.393   8.533  14.327  1.00  0.00     0.003 C 
HETATM   18  C25 UNL     1     -13.001   8.163  12.906  1.00  0.00     0.000 C 
HETATM   19  C26 UNL     1     -11.754   8.918  12.448  1.00  0.00     0.003 C 
HETATM   20  C27 UNL     1     -10.807   9.303  13.592  1.00  0.00     0.038 C 
HETATM   21  O4  UNL     1     -10.559   6.974  14.261  1.00  0.00    -0.340 OA
ENDROOT
BRANCH   3  22
HETATM   22  C4  UNL     1      -3.773   3.413  12.402  1.00  0.00     0.055 C 
BRANCH  22  23
HETATM   23  C5  UNL     1      -3.123   3.953  11.128  1.00  0.00     0.107 C 
BRANCH  23  24
HETATM   24  C6  UNL     1      -1.620   4.071  11.274  1.00  0.00     0.218 C 
HETATM   25  O1  UNL     1      -0.834   3.195  10.931  1.00  0.00    -0.274 OA
HETATM   26  N1  UNL     1      -1.229   5.245  11.880  1.00  0.00    -0.357 N 
HETATM   27  H8  UNL     1      -1.904   5.994  11.959  1.00  0.00     0.162 HD
BRANCH  26  28
HETATM   28  C7  UNL     1       0.168   5.587  12.028  1.00  0.00     0.162 C 
BRANCH  28  29
HETATM   29  C8  UNL     1       0.434   6.220  13.362  1.00  0.00    -0.025 A 
HETATM   30  C9  UNL     1       1.588   6.971  13.603  1.00  0.00     0.011 A 
HETATM   31  C10 UNL     1       1.800   7.525  14.864  1.00  0.00     0.018 A 
HETATM   32  C11 UNL     1       0.848   7.304  15.846  1.00  0.00     0.087 A 
HETATM   33  N2  UNL     1      -0.274   6.580  15.654  1.00  0.00    -0.375 N 
HETATM   34  C12 UNL     1      -0.452   6.047  14.423  1.00  0.00     0.096 A 
ATOM     35  H2  UNL     1      -0.955   6.440  16.401  1.00  0.00     0.164 HD
ENDBRANCH  28  29
ENDBRANCH  26  28
ENDBRANCH  23  24
ENDBRANCH  22  23
ENDBRANCH   3  22
TORSDOF 5
ENDMDL
MODEL 9
REMARK minimizedAffinity -9.33150768
REMARK  5 active torsions:
REMARK  status: ('A' for Active; 'I' for Inactive)
REMARK    1  A    between atoms: C3_3  and  C4_4 
REMARK    2  A    between atoms: C4_4  and  C5_5 
REMARK    3  A    between atoms: C5_5  and  C6_6 
REMARK       I    between atoms: C6_6  and  N1_8 
REMARK    4  A    between atoms: N1_8  and  C7_9 
REMARK    5  A    between atoms: C7_9  and  C8_10 
ROOT
HETATM    1  C1  UNL     1      -6.475   4.221  12.829  1.00  0.00     0.050 C 
HETATM    2  C2  UNL     1      -5.940   5.555  13.291  1.00  0.00    -0.037 A 
HETATM    3  C3  UNL     1      -6.705   6.518  13.851  1.00  0.00     0.025 A 
HETATM    4  C13 UNL     1      -6.135   7.842  14.238  1.00  0.00     0.295 A 
HETATM    5  O2  UNL     1      -6.841   8.737  14.691  1.00  0.00    -0.259 OA
HETATM    6  O3  UNL     1      -4.781   8.035  14.044  1.00  0.00    -0.274 OA
HETATM    7  C14 UNL     1      -3.972   7.037  13.484  1.00  0.00     0.093 A 
HETATM    8  C15 UNL     1      -2.621   7.354  13.334  1.00  0.00     0.075 A 
HETATM    9  C16 UNL     1      -1.755   6.418  12.783  1.00  0.00     0.079 A 
HETATM   10  C17 UNL     1      -2.233   5.161  12.409  1.00  0.00    -0.024 A 
HETATM   11  C18 UNL     1      -3.602   4.869  12.562  1.00  0.00     0.024 A 
HETATM   12  C19 UNL     1      -4.497   5.808  13.101  1.00  0.00     0.005 A 
HETATM   13  C20 UNL     1      -1.311   4.134  11.823  1.00  0.00     0.044 C 
HETATM   14  C21 UNL     1       0.140   4.493  12.111  1.00  0.00     0.043 C 
HETATM   15  C22 UNL     1       0.416   5.985  11.856  1.00  0.00     0.068 C 
HETATM   16  C23 UNL     1       1.865   6.300  12.317  1.00  0.00     0.038 C 
HETATM   17  C24 UNL     1       2.524   7.479  11.591  1.00  0.00     0.003 C 
HETATM   18  C25 UNL     1       1.515   8.503  11.095  1.00  0.00     0.000 C 
HETATM   19  C26 UNL     1       0.505   7.879  10.132  1.00  0.00     0.003 C 
HETATM   20  C27 UNL     1       0.257   6.385  10.375  1.00  0.00     0.038 C 
HETATM   21  O4  UNL     1      -0.451   6.806  12.667  1.00  0.00    -0.340 OA
ENDROOT
BRANCH   3  22
HETATM   22  C4  UNL     1      -8.182   6.377  14.169  1.00  0.00     0.055 C 
BRANCH  22  23
HETATM   23  C5  UNL     1      -8.562   7.113  15.454  1.00  0.00     0.107 C 
BRANCH  23  24
HETATM   24  C6  UNL     1     -10.039   7.451  15.488  1.00  0.00     0.218 C 
HETATM   25  O1  UNL     1     -10.516   8.336  16.189  1.00  0.00    -0.274 OA
HETATM   26  N1  UNL     1     -10.798   6.625  14.688  1.00  0.00    -0.357 N 
HETATM   27  H8  UNL     1     -10.326   6.052  14.001  1.00  0.00     0.162 HD
BRANCH  26  28
HETATM   28  C7  UNL     1     -12.217   6.842  14.515  1.00  0.00     0.162 C 
BRANCH  28  29
HETATM   29  C8  UNL     1     -12.483   8.063  13.686  1.00  0.00    -0.025 A 
HETATM   30  C9  UNL     1     -13.558   8.916  13.955  1.00  0.00     0.011 A 
HETATM   31  C10 UNL     1     -13.774  10.030  13.146  1.00  0.00     0.018 A 
HETATM   32  C11 UNL     1     -12.908  10.250  12.087  1.00  0.00     0.087 A 
HETATM   33  N2  UNL     1     -11.866   9.447  11.791  1.00  0.00    -0.375 N 
HETATM   34  C12 UNL     1     -11.681   8.368  12.588  1.00  0.00     0.096 A 
ATOM     35  H2  UNL     1     -11.247   9.642  11.004  1.00  0.00     0.164 HD
ENDBRANCH  28  29
ENDBRANCH  26  28
ENDBRANCH  23  24
ENDBRANCH  22  23
ENDBRANCH   3  22
TORSDOF 5
ENDMDL
