MODEL 1
REMARK minimizedAffinity -7.32525158
REMARK CNNscore 0.589981616
REMARK CNNaffinity 6.97138166
REMARK  20 active torsions:
REMARK  status: ('A' for Active; 'I' for Inactive)
REMARK    1  A    between atoms: C2_2  and  C18_24 
REMARK    2  A    between atoms: C3_3  and  C4_4 
REMARK    3  A    between atoms: C4_4  and  O2_6 
REMARK    4  A    between atoms: O2_6  and  C5_7 
REMARK    5  A    between atoms: C5_7  and  C6_8 
REMARK    6  A    between atoms: C6_8  and  C7_9 
REMARK    7  A    between atoms: C7_9  and  C8_10 
REMARK    8  A    between atoms: C8_10  and  C9_11 
REMARK    9  A    between atoms: C9_11  and  C10_12 
REMARK   10  A    between atoms: C10_12  and  C11_13 
REMARK   11  A    between atoms: C11_13  and  C12_14 
REMARK       I    between atoms: C12_14  and  N1_16 
REMARK   12  A    between atoms: N1_16  and  C13_17 
REMARK   13  A    between atoms: C18_24  and  C19_25 
REMARK   14  A    between atoms: C21_28  and  C22_29 
REMARK   15  A    between atoms: C22_29  and  C23_30 
REMARK   16  A    between atoms: C24_31  and  C25_32 
REMARK   17  A    between atoms: C25_32  and  C27_34 
REMARK   18  A    between atoms: C27_34  and  O6_36 
REMARK   19  A    between atoms: C29_37  and  O7_38 
REMARK   20  A    between atoms: C30_39  and  O8_40 
ROOT
HETATM    1  C1  UNL     1      -5.786   1.657  10.925  1.00  0.00     0.043 C 
HETATM    2  C2  UNL     1      -5.445   3.036  11.430  1.00  0.00    -0.075 C 
HETATM    3  C3  UNL     1      -6.217   3.759  12.268  1.00  0.00     0.084 C 
ENDROOT
BRANCH   3   4
HETATM    4  C4  UNL     1      -7.579   3.442  12.755  1.00  0.00     0.283 C 
HETATM    5  O1  UNL     1      -7.874   2.349  13.216  1.00  0.00    -0.260 OA
BRANCH   4   6
HETATM    6  O2  UNL     1      -8.369   4.540  12.729  1.00  0.00    -0.318 OA
BRANCH   6   7
HETATM    7  C5  UNL     1      -7.698   5.772  13.025  1.00  0.00     0.179 C 
BRANCH   7   8
HETATM    8  C6  UNL     1      -7.611   5.890  14.542  1.00  0.00     0.027 C 
BRANCH   8   9
HETATM    9  C7  UNL     1      -6.269   6.421  15.043  1.00  0.00     0.002 C 
BRANCH   9  10
HETATM   10  C8  UNL     1      -6.349   7.881  15.501  1.00  0.00     0.000 C 
BRANCH  10  11
HETATM   11  C9  UNL     1      -5.298   8.781  14.848  1.00  0.00     0.000 C 
BRANCH  11  12
HETATM   12  C10 UNL     1      -4.966   8.478  13.383  1.00  0.00     0.009 C 
BRANCH  12  13
HETATM   13  C11 UNL     1      -3.509   8.126  13.088  1.00  0.00     0.103 C 
BRANCH  13  14
HETATM   14  C12 UNL     1      -2.535   9.273  13.293  1.00  0.00     0.218 C 
HETATM   15  O3  UNL     1      -1.698   9.620  12.470  1.00  0.00    -0.274 OA
HETATM   16  N1  UNL     1      -2.670   9.874  14.528  1.00  0.00    -0.348 N 
HETATM   17  H19 UNL     1      -3.545   9.726  15.020  1.00  0.00     0.163 HD
BRANCH  16  18
HETATM   18  C13 UNL     1      -1.943  11.101  14.837  1.00  0.00     0.176 C 
HETATM   19  C14 UNL     1      -0.614  10.859  15.561  1.00  0.00     0.036 C 
HETATM   20  C15 UNL     1      -0.779  10.338  16.992  1.00  0.00     0.022 C 
HETATM   21  C16 UNL     1      -2.140  10.644  17.603  1.00  0.00     0.122 C 
HETATM   22  N2  UNL     1      -2.739  11.836  17.055  1.00  0.00    -0.359 N 
HETATM   23  C17 UNL     1      -2.838  12.009  15.694  1.00  0.00     0.240 C 
HETATM   24  H27 UNL     1      -3.441  12.338  17.586  1.00  0.00     0.162 HD
HETATM   25  O4  UNL     1      -3.684  12.763  15.219  1.00  0.00    -0.271 OA
ENDBRANCH  16  18
ENDBRANCH  13  14
ENDBRANCH  12  13
ENDBRANCH  11  12
ENDBRANCH  10  11
ENDBRANCH   9  10
ENDBRANCH   8   9
ENDBRANCH   7   8
ENDBRANCH   6   7
ENDBRANCH   4   6
ENDBRANCH   3   4
BRANCH   2  26
HETATM   26  C18 UNL     1      -4.115   3.599  10.949  1.00  0.00     0.068 C 
BRANCH  26  27
HETATM   27  C19 UNL     1      -3.007   3.483  12.015  1.00  0.00     0.156 C 
HETATM   28  O5  UNL     1      -2.958   4.732  12.743  1.00  0.00    -0.382 OA
HETATM   29  C20 UNL     1      -1.798   4.816  13.572  1.00  0.00     0.175 C 
HETATM   30  C21 UNL     1      -0.555   5.040  12.698  1.00  0.00     0.044 C 
HETATM   31  C29 UNL     1      -0.774   4.438  11.294  1.00  0.00     0.155 C 
HETATM   32  C30 UNL     1      -1.641   3.173  11.365  1.00  0.00     0.176 C 
BRANCH  30  33
HETATM   33  C22 UNL     1      -0.209   6.540  12.579  1.00  0.00     0.036 C 
BRANCH  33  34
HETATM   34  C23 UNL     1       0.358   6.896  11.228  1.00  0.00    -0.030 C 
HETATM   35  C24 UNL     1       1.398   7.727  11.045  1.00  0.00    -0.024 C 
BRANCH  35  36
HETATM   36  C25 UNL     1       2.031   8.131   9.724  1.00  0.00     0.032 C 
HETATM   37  C26 UNL     1       3.410   7.517   9.443  1.00  0.00     0.017 C 
BRANCH  36  38
HETATM   38  C27 UNL     1       1.045   7.919   8.545  1.00  0.00     0.121 C 
HETATM   39  C28 UNL     1       1.714   7.619   7.208  1.00  0.00     0.040 C 
BRANCH  38  40
HETATM   40  O6  UNL     1       0.221   9.076   8.367  1.00  0.00    -0.395 OA
HETATM   41  H46 UNL     1      -0.238   9.237   9.208  1.00  0.00     0.210 HD
ENDBRANCH  38  40
ENDBRANCH  36  38
ENDBRANCH  35  36
ENDBRANCH  33  34
ENDBRANCH  30  33
BRANCH  31  42
HETATM   42  O7  UNL     1       0.494   4.070  10.728  1.00  0.00    -0.392 OA
HETATM   43  H48 UNL     1       0.980   4.892  10.538  1.00  0.00     0.210 HD
ENDBRANCH  31  42
BRANCH  32  44
HETATM   44  O8  UNL     1      -0.944   2.200  12.167  1.00  0.00    -0.390 OA
HETATM   45  H50 UNL     1      -0.037   2.175  11.799  1.00  0.00     0.210 HD
ENDBRANCH  32  44
ENDBRANCH  26  27
ENDBRANCH   2  26
TORSDOF 20
ENDMDL
MODEL 2
REMARK minimizedAffinity -7.16028547
REMARK CNNscore 0.530022502
REMARK CNNaffinity 6.62781286
REMARK  20 active torsions:
REMARK  status: ('A' for Active; 'I' for Inactive)
REMARK    1  A    between atoms: C2_2  and  C18_24 
REMARK    2  A    between atoms: C3_3  and  C4_4 
REMARK    3  A    between atoms: C4_4  and  O2_6 
REMARK    4  A    between atoms: O2_6  and  C5_7 
REMARK    5  A    between atoms: C5_7  and  C6_8 
REMARK    6  A    between atoms: C6_8  and  C7_9 
REMARK    7  A    between atoms: C7_9  and  C8_10 
REMARK    8  A    between atoms: C8_10  and  C9_11 
REMARK    9  A    between atoms: C9_11  and  C10_12 
REMARK   10  A    between atoms: C10_12  and  C11_13 
REMARK   11  A    between atoms: C11_13  and  C12_14 
REMARK       I    between atoms: C12_14  and  N1_16 
REMARK   12  A    between atoms: N1_16  and  C13_17 
REMARK   13  A    between atoms: C18_24  and  C19_25 
REMARK   14  A    between atoms: C21_28  and  C22_29 
REMARK   15  A    between atoms: C22_29  and  C23_30 
REMARK   16  A    between atoms: C24_31  and  C25_32 
REMARK   17  A    between atoms: C25_32  and  C27_34 
REMARK   18  A    between atoms: C27_34  and  O6_36 
REMARK   19  A    between atoms: C29_37  and  O7_38 
REMARK   20  A    between atoms: C30_39  and  O8_40 
ROOT
HETATM    1  C1  UNL     1      -4.330   2.766  11.540  1.00  0.00     0.043 C 
HETATM    2  C2  UNL     1      -4.267   3.944  12.478  1.00  0.00    -0.075 C 
HETATM    3  C3  UNL     1      -5.327   4.464  13.129  1.00  0.00     0.084 C 
ENDROOT
BRANCH   3   4
HETATM    4  C4  UNL     1      -6.756   4.106  12.976  1.00  0.00     0.283 C 
HETATM    5  O1  UNL     1      -7.120   3.081  12.418  1.00  0.00    -0.260 OA
BRANCH   4   6
HETATM    6  O2  UNL     1      -7.548   4.985  13.633  1.00  0.00    -0.318 OA
BRANCH   6   7
HETATM    7  C5  UNL     1      -8.364   5.808  12.789  1.00  0.00     0.179 C 
BRANCH   7   8
HETATM    8  C6  UNL     1      -9.446   6.426  13.667  1.00  0.00     0.027 C 
BRANCH   8   9
HETATM    9  C7  UNL     1     -10.659   6.930  12.888  1.00  0.00     0.002 C 
BRANCH   9  10
HETATM   10  C8  UNL     1     -11.882   7.155  13.784  1.00  0.00     0.000 C 
BRANCH  10  11
HETATM   11  C9  UNL     1     -13.195   7.259  13.005  1.00  0.00     0.000 C 
BRANCH  11  12
HETATM   12  C10 UNL     1     -14.427   6.642  13.675  1.00  0.00     0.009 C 
BRANCH  12  13
HETATM   13  C11 UNL     1     -14.281   6.300  15.157  1.00  0.00     0.103 C 
BRANCH  13  14
HETATM   14  C12 UNL     1     -15.278   7.004  16.061  1.00  0.00     0.218 C 
HETATM   15  O3  UNL     1     -16.351   7.454  15.682  1.00  0.00    -0.274 OA
HETATM   16  N1  UNL     1     -14.832   7.116  17.363  1.00  0.00    -0.348 N 
HETATM   17  H19 UNL     1     -14.091   6.489  17.651  1.00  0.00     0.163 HD
BRANCH  16  18
HETATM   18  C13 UNL     1     -15.724   7.607  18.410  1.00  0.00     0.176 C 
HETATM   19  C14 UNL     1     -15.172   8.820  19.164  1.00  0.00     0.036 C 
HETATM   20  C15 UNL     1     -13.959   8.500  20.043  1.00  0.00     0.022 C 
HETATM   21  C16 UNL     1     -13.847   7.028  20.421  1.00  0.00     0.122 C 
HETATM   22  N2  UNL     1     -15.128   6.367  20.459  1.00  0.00    -0.359 N 
HETATM   23  C17 UNL     1     -16.002   6.466  19.401  1.00  0.00     0.240 C 
HETATM   24  H27 UNL     1     -15.245   5.525  21.011  1.00  0.00     0.162 HD
HETATM   25  O4  UNL     1     -16.866   5.612  19.221  1.00  0.00    -0.271 OA
ENDBRANCH  16  18
ENDBRANCH  13  14
ENDBRANCH  12  13
ENDBRANCH  11  12
ENDBRANCH  10  11
ENDBRANCH   9  10
ENDBRANCH   8   9
ENDBRANCH   7   8
ENDBRANCH   6   7
ENDBRANCH   4   6
ENDBRANCH   3   4
BRANCH   2  26
HETATM   26  C18 UNL     1      -2.882   4.540  12.690  1.00  0.00     0.068 C 
BRANCH  26  27
HETATM   27  C19 UNL     1      -2.925   5.871  13.465  1.00  0.00     0.156 C 
HETATM   28  O5  UNL     1      -2.426   6.911  12.593  1.00  0.00    -0.382 OA
HETATM   29  C20 UNL     1      -2.186   8.127  13.302  1.00  0.00     0.175 C 
HETATM   30  C21 UNL     1      -0.932   7.975  14.176  1.00  0.00     0.044 C 
HETATM   31  C29 UNL     1      -0.735   6.497  14.573  1.00  0.00     0.155 C 
HETATM   32  C30 UNL     1      -2.085   5.789  14.758  1.00  0.00     0.176 C 
BRANCH  30  33
HETATM   33  C22 UNL     1       0.329   8.499  13.454  1.00  0.00     0.036 C 
BRANCH  33  34
HETATM   34  C23 UNL     1       0.187   8.472  11.953  1.00  0.00    -0.030 C 
HETATM   35  C24 UNL     1       0.722   7.525  11.166  1.00  0.00    -0.024 C 
BRANCH  35  36
HETATM   36  C25 UNL     1       0.622   7.423   9.653  1.00  0.00     0.032 C 
HETATM   37  C26 UNL     1      -0.132   8.570   8.966  1.00  0.00     0.017 C 
BRANCH  36  38
HETATM   38  C27 UNL     1       2.015   7.175   9.017  1.00  0.00     0.121 C 
HETATM   39  C28 UNL     1       2.226   7.858   7.670  1.00  0.00     0.040 C 
BRANCH  38  40
HETATM   40  O6  UNL     1       2.238   5.773   8.831  1.00  0.00    -0.395 OA
HETATM   41  H46 UNL     1       2.148   5.347   9.699  1.00  0.00     0.210 HD
ENDBRANCH  38  40
ENDBRANCH  36  38
ENDBRANCH  35  36
ENDBRANCH  33  34
ENDBRANCH  30  33
BRANCH  31  42
HETATM   42  O7  UNL     1      -0.028   6.427  15.821  1.00  0.00    -0.392 OA
HETATM   43  H48 UNL     1       0.883   6.731  15.660  1.00  0.00     0.210 HD
ENDBRANCH  31  42
BRANCH  32  44
HETATM   44  O8  UNL     1      -2.791   6.451  15.826  1.00  0.00    -0.390 OA
HETATM   45  H50 UNL     1      -2.142   6.509  16.558  1.00  0.00     0.210 HD
ENDBRANCH  32  44
ENDBRANCH  26  27
ENDBRANCH   2  26
TORSDOF 20
ENDMDL
MODEL 3
REMARK minimizedAffinity -7.53372574
REMARK CNNscore 0.516911149
REMARK CNNaffinity 6.97183943
REMARK  20 active torsions:
REMARK  status: ('A' for Active; 'I' for Inactive)
REMARK    1  A    between atoms: C2_2  and  C18_24 
REMARK    2  A    between atoms: C3_3  and  C4_4 
REMARK    3  A    between atoms: C4_4  and  O2_6 
REMARK    4  A    between atoms: O2_6  and  C5_7 
REMARK    5  A    between atoms: C5_7  and  C6_8 
REMARK    6  A    between atoms: C6_8  and  C7_9 
REMARK    7  A    between atoms: C7_9  and  C8_10 
REMARK    8  A    between atoms: C8_10  and  C9_11 
REMARK    9  A    between atoms: C9_11  and  C10_12 
REMARK   10  A    between atoms: C10_12  and  C11_13 
REMARK   11  A    between atoms: C11_13  and  C12_14 
REMARK       I    between atoms: C12_14  and  N1_16 
REMARK   12  A    between atoms: N1_16  and  C13_17 
REMARK   13  A    between atoms: C18_24  and  C19_25 
REMARK   14  A    between atoms: C21_28  and  C22_29 
REMARK   15  A    between atoms: C22_29  and  C23_30 
REMARK   16  A    between atoms: C24_31  and  C25_32 
REMARK   17  A    between atoms: C25_32  and  C27_34 
REMARK   18  A    between atoms: C27_34  and  O6_36 
REMARK   19  A    between atoms: C29_37  and  O7_38 
REMARK   20  A    between atoms: C30_39  and  O8_40 
ROOT
HETATM    1  C1  UNL     1      -5.591   3.472   9.322  1.00  0.00     0.043 C 
HETATM    2  C2  UNL     1      -4.685   3.455  10.527  1.00  0.00    -0.075 C 
HETATM    3  C3  UNL     1      -5.074   3.122  11.775  1.00  0.00     0.084 C 
ENDROOT
BRANCH   3   4
HETATM    4  C4  UNL     1      -6.446   2.844  12.258  1.00  0.00     0.283 C 
HETATM    5  O1  UNL     1      -6.971   1.745  12.148  1.00  0.00    -0.260 OA
BRANCH   4   6
HETATM    6  O2  UNL     1      -6.949   3.909  12.923  1.00  0.00    -0.318 OA
BRANCH   6   7
HETATM    7  C5  UNL     1      -8.310   4.228  12.607  1.00  0.00     0.179 C 
BRANCH   7   8
HETATM    8  C6  UNL     1      -8.380   5.732  12.366  1.00  0.00     0.027 C 
BRANCH   8   9
HETATM    9  C7  UNL     1      -9.656   6.383  12.897  1.00  0.00     0.002 C 
BRANCH   9  10
HETATM   10  C8  UNL     1      -9.721   6.385  14.428  1.00  0.00     0.000 C 
BRANCH  10  11
HETATM   11  C9  UNL     1      -9.754   7.790  15.033  1.00  0.00     0.000 C 
BRANCH  11  12
HETATM   12  C10 UNL     1      -8.420   8.328  15.563  1.00  0.00     0.009 C 
BRANCH  12  13
HETATM   13  C11 UNL     1      -7.610   7.366  16.431  1.00  0.00     0.103 C 
BRANCH  13  14
HETATM   14  C12 UNL     1      -6.343   6.848  15.772  1.00  0.00     0.218 C 
HETATM   15  O3  UNL     1      -6.192   5.697  15.383  1.00  0.00    -0.274 OA
HETATM   16  N1  UNL     1      -5.355   7.808  15.684  1.00  0.00    -0.348 N 
HETATM   17  H19 UNL     1      -5.646   8.776  15.761  1.00  0.00     0.163 HD
BRANCH  16  18
HETATM   18  C13 UNL     1      -4.135   7.546  14.927  1.00  0.00     0.176 C 
HETATM   19  C14 UNL     1      -2.888   7.405  15.806  1.00  0.00     0.036 C 
HETATM   20  C15 UNL     1      -2.454   8.714  16.473  1.00  0.00     0.022 C 
HETATM   21  C16 UNL     1      -2.972   9.962  15.770  1.00  0.00     0.122 C 
HETATM   22  N2  UNL     1      -3.188   9.753  14.360  1.00  0.00    -0.359 N 
HETATM   23  C17 UNL     1      -3.924   8.681  13.913  1.00  0.00     0.240 C 
HETATM   24  H27 UNL     1      -3.190  10.546  13.727  1.00  0.00     0.162 HD
HETATM   25  O4  UNL     1      -4.468   8.710  12.812  1.00  0.00    -0.271 OA
ENDBRANCH  16  18
ENDBRANCH  13  14
ENDBRANCH  12  13
ENDBRANCH  11  12
ENDBRANCH  10  11
ENDBRANCH   9  10
ENDBRANCH   8   9
ENDBRANCH   7   8
ENDBRANCH   6   7
ENDBRANCH   4   6
ENDBRANCH   3   4
BRANCH   2  26
HETATM   26  C18 UNL     1      -3.233   3.826  10.260  1.00  0.00     0.068 C 
BRANCH  26  27
HETATM   27  C19 UNL     1      -2.356   3.720  11.523  1.00  0.00     0.156 C 
HETATM   28  O5  UNL     1      -2.456   4.972  12.240  1.00  0.00    -0.382 OA
HETATM   29  C20 UNL     1      -1.483   5.065  13.281  1.00  0.00     0.175 C 
HETATM   30  C21 UNL     1      -0.093   5.292  12.669  1.00  0.00     0.044 C 
HETATM   31  C29 UNL     1      -0.028   4.682  11.252  1.00  0.00     0.155 C 
HETATM   32  C30 UNL     1      -0.888   3.413  11.157  1.00  0.00     0.176 C 
BRANCH  30  33
HETATM   33  C22 UNL     1       0.264   6.793  12.612  1.00  0.00     0.036 C 
BRANCH  33  34
HETATM   34  C23 UNL     1       1.503   7.061  11.796  1.00  0.00    -0.030 C 
HETATM   35  C24 UNL     1       1.494   7.661  10.594  1.00  0.00    -0.024 C 
BRANCH  35  36
HETATM   36  C25 UNL     1       2.693   7.973   9.714  1.00  0.00     0.032 C 
HETATM   37  C26 UNL     1       3.911   7.061   9.916  1.00  0.00     0.017 C 
BRANCH  36  38
HETATM   38  C27 UNL     1       2.278   8.072   8.221  1.00  0.00     0.121 C 
HETATM   39  C28 UNL     1       2.343   6.753   7.459  1.00  0.00     0.040 C 
BRANCH  38  40
HETATM   40  O6  UNL     1       3.108   9.012   7.532  1.00  0.00    -0.395 OA
HETATM   41  H46 UNL     1       3.028   9.863   7.995  1.00  0.00     0.210 HD
ENDBRANCH  38  40
ENDBRANCH  36  38
ENDBRANCH  35  36
ENDBRANCH  33  34
ENDBRANCH  30  33
BRANCH  31  42
HETATM   42  O7  UNL     1       1.328   4.318  10.950  1.00  0.00    -0.392 OA
HETATM   43  H48 UNL     1       1.838   5.141  10.854  1.00  0.00     0.210 HD
ENDBRANCH  31  42
BRANCH  32  44
HETATM   44  O8  UNL     1      -0.358   2.447  12.086  1.00  0.00    -0.390 OA
HETATM   45  H50 UNL     1       0.603   2.425  11.905  1.00  0.00     0.210 HD
ENDBRANCH  32  44
ENDBRANCH  26  27
ENDBRANCH   2  26
TORSDOF 20
ENDMDL
MODEL 4
REMARK minimizedAffinity -7.30242491
REMARK CNNscore 0.506840289
REMARK CNNaffinity 6.75342941
REMARK  20 active torsions:
REMARK  status: ('A' for Active; 'I' for Inactive)
REMARK    1  A    between atoms: C2_2  and  C18_24 
REMARK    2  A    between atoms: C3_3  and  C4_4 
REMARK    3  A    between atoms: C4_4  and  O2_6 
REMARK    4  A    between atoms: O2_6  and  C5_7 
REMARK    5  A    between atoms: C5_7  and  C6_8 
REMARK    6  A    between atoms: C6_8  and  C7_9 
REMARK    7  A    between atoms: C7_9  and  C8_10 
REMARK    8  A    between atoms: C8_10  and  C9_11 
REMARK    9  A    between atoms: C9_11  and  C10_12 
REMARK   10  A    between atoms: C10_12  and  C11_13 
REMARK   11  A    between atoms: C11_13  and  C12_14 
REMARK       I    between atoms: C12_14  and  N1_16 
REMARK   12  A    between atoms: N1_16  and  C13_17 
REMARK   13  A    between atoms: C18_24  and  C19_25 
REMARK   14  A    between atoms: C21_28  and  C22_29 
REMARK   15  A    between atoms: C22_29  and  C23_30 
REMARK   16  A    between atoms: C24_31  and  C25_32 
REMARK   17  A    between atoms: C25_32  and  C27_34 
REMARK   18  A    between atoms: C27_34  and  O6_36 
REMARK   19  A    between atoms: C29_37  and  O7_38 
REMARK   20  A    between atoms: C30_39  and  O8_40 
ROOT
HETATM    1  C1  UNL     1      -5.168   3.003  11.412  1.00  0.00     0.043 C 
HETATM    2  C2  UNL     1      -5.046   4.036  12.502  1.00  0.00    -0.075 C 
HETATM    3  C3  UNL     1      -6.034   4.369  13.358  1.00  0.00     0.084 C 
ENDROOT
BRANCH   3   4
HETATM    4  C4  UNL     1      -7.445   3.920  13.340  1.00  0.00     0.283 C 
HETATM    5  O1  UNL     1      -7.759   2.738  13.346  1.00  0.00    -0.260 OA
BRANCH   4   6
HETATM    6  O2  UNL     1      -8.289   4.972  13.443  1.00  0.00    -0.318 OA
BRANCH   6   7
HETATM    7  C5  UNL     1      -8.553   5.655  12.211  1.00  0.00     0.179 C 
BRANCH   7   8
HETATM    8  C6  UNL     1      -9.802   6.504  12.421  1.00  0.00     0.027 C 
BRANCH   8   9
HETATM    9  C7  UNL     1     -10.175   6.698  13.890  1.00  0.00     0.002 C 
BRANCH   9  10
HETATM   10  C8  UNL     1     -10.619   8.132  14.199  1.00  0.00     0.000 C 
BRANCH  10  11
HETATM   11  C9  UNL     1     -11.998   8.476  13.632  1.00  0.00     0.000 C 
BRANCH  11  12
HETATM   12  C10 UNL     1     -12.711   7.357  12.865  1.00  0.00     0.009 C 
BRANCH  12  13
HETATM   13  C11 UNL     1     -14.067   6.925  13.422  1.00  0.00     0.103 C 
BRANCH  13  14
HETATM   14  C12 UNL     1     -15.247   7.700  12.860  1.00  0.00     0.218 C 
HETATM   15  O3  UNL     1     -15.420   7.920  11.669  1.00  0.00    -0.274 OA
HETATM   16  N1  UNL     1     -16.098   8.164  13.843  1.00  0.00    -0.348 N 
HETATM   17  H19 UNL     1     -16.046   7.712  14.749  1.00  0.00     0.163 HD
BRANCH  16  18
HETATM   18  C13 UNL     1     -17.374   8.777  13.487  1.00  0.00     0.176 C 
HETATM   19  C14 UNL     1     -18.434   8.666  14.586  1.00  0.00     0.036 C 
HETATM   20  C15 UNL     1     -18.936   7.237  14.815  1.00  0.00     0.022 C 
HETATM   21  C16 UNL     1     -18.715   6.312  13.625  1.00  0.00     0.122 C 
HETATM   22  N2  UNL     1     -18.696   7.020  12.369  1.00  0.00    -0.359 N 
HETATM   23  C17 UNL     1     -17.898   8.126  12.198  1.00  0.00     0.240 C 
HETATM   24  H27 UNL     1     -18.905   6.526  11.508  1.00  0.00     0.162 HD
HETATM   25  O4  UNL     1     -17.544   8.475  11.074  1.00  0.00    -0.271 OA
ENDBRANCH  16  18
ENDBRANCH  13  14
ENDBRANCH  12  13
ENDBRANCH  11  12
ENDBRANCH  10  11
ENDBRANCH   9  10
ENDBRANCH   8   9
ENDBRANCH   7   8
ENDBRANCH   6   7
ENDBRANCH   4   6
ENDBRANCH   3   4
BRANCH   2  26
HETATM   26  C18 UNL     1      -3.685   4.708  12.619  1.00  0.00     0.068 C 
BRANCH  26  27
HETATM   27  C19 UNL     1      -3.709   5.927  13.564  1.00  0.00     0.156 C 
HETATM   28  O5  UNL     1      -3.366   7.098  12.788  1.00  0.00    -0.382 OA
HETATM   29  C20 UNL     1      -3.109   8.228  13.622  1.00  0.00     0.175 C 
HETATM   30  C21 UNL     1      -1.758   8.050  14.331  1.00  0.00     0.044 C 
HETATM   31  C29 UNL     1      -1.442   6.550  14.507  1.00  0.00     0.155 C 
HETATM   32  C30 UNL     1      -2.724   5.739  14.739  1.00  0.00     0.176 C 
BRANCH  30  33
HETATM   33  C22 UNL     1      -0.616   8.742  13.555  1.00  0.00     0.036 C 
BRANCH  33  34
HETATM   34  C23 UNL     1      -0.707   8.513  12.068  1.00  0.00    -0.030 C 
HETATM   35  C24 UNL     1       0.235   7.886  11.345  1.00  0.00    -0.024 C 
BRANCH  35  36
HETATM   36  C25 UNL     1       0.217   7.610   9.851  1.00  0.00     0.032 C 
HETATM   37  C26 UNL     1      -0.432   8.704   8.991  1.00  0.00     0.017 C 
BRANCH  36  38
HETATM   38  C27 UNL     1       1.629   7.223   9.338  1.00  0.00     0.121 C 
HETATM   39  C28 UNL     1       1.874   7.533   7.865  1.00  0.00     0.040 C 
BRANCH  38  40
HETATM   40  O6  UNL     1       1.867   5.825   9.532  1.00  0.00    -0.395 OA
HETATM   41  H46 UNL     1       1.755   5.641  10.480  1.00  0.00     0.210 HD
ENDBRANCH  38  40
ENDBRANCH  36  38
ENDBRANCH  35  36
ENDBRANCH  33  34
ENDBRANCH  30  33
BRANCH  31  42
HETATM   42  O7  UNL     1      -0.596   6.371  15.654  1.00  0.00    -0.392 OA
HETATM   43  H48 UNL     1       0.274   6.752  15.439  1.00  0.00     0.210 HD
ENDBRANCH  31  42
BRANCH  32  44
HETATM   44  O8  UNL     1      -3.338   6.213  15.953  1.00  0.00    -0.390 OA
HETATM   45  H50 UNL     1      -2.615   6.222  16.613  1.00  0.00     0.210 HD
ENDBRANCH  32  44
ENDBRANCH  26  27
ENDBRANCH   2  26
TORSDOF 20
ENDMDL
MODEL 5
REMARK minimizedAffinity -8.08994675
REMARK CNNscore 0.443726659
REMARK CNNaffinity 6.68786478
REMARK  20 active torsions:
REMARK  status: ('A' for Active; 'I' for Inactive)
REMARK    1  A    between atoms: C2_2  and  C18_24 
REMARK    2  A    between atoms: C3_3  and  C4_4 
REMARK    3  A    between atoms: C4_4  and  O2_6 
REMARK    4  A    between atoms: O2_6  and  C5_7 
REMARK    5  A    between atoms: C5_7  and  C6_8 
REMARK    6  A    between atoms: C6_8  and  C7_9 
REMARK    7  A    between atoms: C7_9  and  C8_10 
REMARK    8  A    between atoms: C8_10  and  C9_11 
REMARK    9  A    between atoms: C9_11  and  C10_12 
REMARK   10  A    between atoms: C10_12  and  C11_13 
REMARK   11  A    between atoms: C11_13  and  C12_14 
REMARK       I    between atoms: C12_14  and  N1_16 
REMARK   12  A    between atoms: N1_16  and  C13_17 
REMARK   13  A    between atoms: C18_24  and  C19_25 
REMARK   14  A    between atoms: C21_28  and  C22_29 
REMARK   15  A    between atoms: C22_29  and  C23_30 
REMARK   16  A    between atoms: C24_31  and  C25_32 
REMARK   17  A    between atoms: C25_32  and  C27_34 
REMARK   18  A    between atoms: C27_34  and  O6_36 
REMARK   19  A    between atoms: C29_37  and  O7_38 
REMARK   20  A    between atoms: C30_39  and  O8_40 
ROOT
HETATM    1  C1  UNL     1      -2.112   9.191  12.748  1.00  0.00     0.043 C 
HETATM    2  C2  UNL     1      -2.225   9.307  14.247  1.00  0.00    -0.075 C 
HETATM    3  C3  UNL     1      -3.318   8.971  14.963  1.00  0.00     0.084 C 
ENDROOT
BRANCH   3   4
HETATM    4  C4  UNL     1      -4.648   8.561  14.457  1.00  0.00     0.283 C 
HETATM    5  O1  UNL     1      -4.949   8.625  13.273  1.00  0.00    -0.260 OA
BRANCH   4   6
HETATM    6  O2  UNL     1      -5.391   8.010  15.444  1.00  0.00    -0.318 OA
BRANCH   6   7
HETATM    7  C5  UNL     1      -5.115   6.628  15.706  1.00  0.00     0.179 C 
BRANCH   7   8
HETATM    8  C6  UNL     1      -6.456   5.913  15.828  1.00  0.00     0.027 C 
BRANCH   8   9
HETATM    9  C7  UNL     1      -7.658   6.855  15.844  1.00  0.00     0.002 C 
BRANCH   9  10
HETATM   10  C8  UNL     1      -8.623   6.597  14.682  1.00  0.00     0.000 C 
BRANCH  10  11
HETATM   11  C9  UNL     1      -7.938   6.592  13.313  1.00  0.00     0.000 C 
BRANCH  11  12
HETATM   12  C10 UNL     1      -8.101   5.317  12.481  1.00  0.00     0.009 C 
BRANCH  12  13
HETATM   13  C11 UNL     1      -8.129   4.006  13.266  1.00  0.00     0.103 C 
BRANCH  13  14
HETATM   14  C12 UNL     1      -7.378   2.865  12.602  1.00  0.00     0.218 C 
HETATM   15  O3  UNL     1      -7.584   1.680  12.832  1.00  0.00    -0.274 OA
HETATM   16  N1  UNL     1      -6.407   3.303  11.725  1.00  0.00    -0.348 N 
HETATM   17  H19 UNL     1      -6.489   4.254  11.383  1.00  0.00     0.163 HD
BRANCH  16  18
HETATM   18  C13 UNL     1      -5.703   2.356  10.866  1.00  0.00     0.176 C 
HETATM   19  C14 UNL     1      -4.597   1.580  11.587  1.00  0.00     0.036 C 
HETATM   20  C15 UNL     1      -3.397   2.445  11.985  1.00  0.00     0.022 C 
HETATM   21  C16 UNL     1      -3.269   3.727  11.171  1.00  0.00     0.122 C 
HETATM   22  N2  UNL     1      -3.832   3.602   9.849  1.00  0.00    -0.359 N 
HETATM   23  C17 UNL     1      -5.105   3.115   9.671  1.00  0.00     0.240 C 
HETATM   24  H27 UNL     1      -3.520   4.220   9.108  1.00  0.00     0.162 HD
HETATM   25  O4  UNL     1      -5.744   3.387   8.658  1.00  0.00    -0.271 OA
ENDBRANCH  16  18
ENDBRANCH  13  14
ENDBRANCH  12  13
ENDBRANCH  11  12
ENDBRANCH  10  11
ENDBRANCH   9  10
ENDBRANCH   8   9
ENDBRANCH   7   8
ENDBRANCH   6   7
ENDBRANCH   4   6
ENDBRANCH   3   4
BRANCH   2  26
HETATM   26  C18 UNL     1      -0.983   9.825  14.958  1.00  0.00     0.068 C 
BRANCH  26  27
HETATM   27  C19 UNL     1       0.139   8.769  15.028  1.00  0.00     0.156 C 
HETATM   28  O5  UNL     1       0.680   8.607  13.696  1.00  0.00    -0.382 OA
HETATM   29  C20 UNL     1       1.541   7.471  13.610  1.00  0.00     0.175 C 
HETATM   30  C21 UNL     1       0.703   6.185  13.647  1.00  0.00     0.044 C 
HETATM   31  C29 UNL     1      -0.608   6.424  14.426  1.00  0.00     0.155 C 
HETATM   32  C30 UNL     1      -0.395   7.425  15.570  1.00  0.00     0.176 C 
BRANCH  30  33
HETATM   33  C22 UNL     1       0.384   5.675  12.225  1.00  0.00     0.036 C 
BRANCH  33  34
HETATM   34  C23 UNL     1       1.520   5.906  11.261  1.00  0.00    -0.030 C 
HETATM   35  C24 UNL     1       1.383   6.510  10.070  1.00  0.00    -0.024 C 
BRANCH  35  36
HETATM   36  C25 UNL     1       2.473   6.787   9.047  1.00  0.00     0.032 C 
HETATM   37  C26 UNL     1       3.095   5.542   8.399  1.00  0.00     0.017 C 
BRANCH  36  38
HETATM   38  C27 UNL     1       1.998   7.820   7.991  1.00  0.00     0.121 C 
HETATM   39  C28 UNL     1       1.557   7.211   6.665  1.00  0.00     0.040 C 
BRANCH  38  40
HETATM   40  O6  UNL     1       3.038   8.763   7.711  1.00  0.00    -0.395 OA
HETATM   41  H46 UNL     1       3.285   9.181   8.552  1.00  0.00     0.210 HD
ENDBRANCH  38  40
ENDBRANCH  36  38
ENDBRANCH  35  36
ENDBRANCH  33  34
ENDBRANCH  30  33
BRANCH  31  42
HETATM   42  O7  UNL     1      -1.054   5.187  15.002  1.00  0.00    -0.392 OA
HETATM   43  H48 UNL     1      -1.339   4.609  14.272  1.00  0.00     0.210 HD
ENDBRANCH  31  42
BRANCH  32  44
HETATM   44  O8  UNL     1       0.571   6.863  16.479  1.00  0.00    -0.390 OA
HETATM   45  H50 UNL     1       0.254   5.953  16.652  1.00  0.00     0.210 HD
ENDBRANCH  32  44
ENDBRANCH  26  27
ENDBRANCH   2  26
TORSDOF 20
ENDMDL
MODEL 6
REMARK minimizedAffinity -7.77421474
REMARK CNNscore 0.412698269
REMARK CNNaffinity 6.77455711
REMARK  20 active torsions:
REMARK  status: ('A' for Active; 'I' for Inactive)
REMARK    1  A    between atoms: C2_2  and  C18_24 
REMARK    2  A    between atoms: C3_3  and  C4_4 
REMARK    3  A    between atoms: C4_4  and  O2_6 
REMARK    4  A    between atoms: O2_6  and  C5_7 
REMARK    5  A    between atoms: C5_7  and  C6_8 
REMARK    6  A    between atoms: C6_8  and  C7_9 
REMARK    7  A    between atoms: C7_9  and  C8_10 
REMARK    8  A    between atoms: C8_10  and  C9_11 
REMARK    9  A    between atoms: C9_11  and  C10_12 
REMARK   10  A    between atoms: C10_12  and  C11_13 
REMARK   11  A    between atoms: C11_13  and  C12_14 
REMARK       I    between atoms: C12_14  and  N1_16 
REMARK   12  A    between atoms: N1_16  and  C13_17 
REMARK   13  A    between atoms: C18_24  and  C19_25 
REMARK   14  A    between atoms: C21_28  and  C22_29 
REMARK   15  A    between atoms: C22_29  and  C23_30 
REMARK   16  A    between atoms: C24_31  and  C25_32 
REMARK   17  A    between atoms: C25_32  and  C27_34 
REMARK   18  A    between atoms: C27_34  and  O6_36 
REMARK   19  A    between atoms: C29_37  and  O7_38 
REMARK   20  A    between atoms: C30_39  and  O8_40 
ROOT
HETATM    1  C1  UNL     1      -3.136   3.315  10.135  1.00  0.00     0.043 C 
HETATM    2  C2  UNL     1      -2.957   3.826  11.542  1.00  0.00    -0.075 C 
HETATM    3  C3  UNL     1      -3.924   3.843  12.482  1.00  0.00     0.084 C 
ENDROOT
BRANCH   3   4
HETATM    4  C4  UNL     1      -5.358   3.510  12.320  1.00  0.00     0.283 C 
HETATM    5  O1  UNL     1      -5.750   2.366  12.136  1.00  0.00    -0.260 OA
BRANCH   4   6
HETATM    6  O2  UNL     1      -6.133   4.599  12.527  1.00  0.00    -0.318 OA
BRANCH   6   7
HETATM    7  C5  UNL     1      -7.535   4.389  12.317  1.00  0.00     0.179 C 
BRANCH   7   8
HETATM    8  C6  UNL     1      -8.279   5.454  13.115  1.00  0.00     0.027 C 
BRANCH   8   9
HETATM    9  C7  UNL     1      -7.369   6.316  13.989  1.00  0.00     0.002 C 
BRANCH   9  10
HETATM   10  C8  UNL     1      -8.156   7.271  14.893  1.00  0.00     0.000 C 
BRANCH  10  11
HETATM   11  C9  UNL     1      -9.666   7.029  14.864  1.00  0.00     0.000 C 
BRANCH  11  12
HETATM   12  C10 UNL     1     -10.399   7.489  13.599  1.00  0.00     0.009 C 
BRANCH  12  13
HETATM   13  C11 UNL     1     -11.920   7.591  13.708  1.00  0.00     0.103 C 
BRANCH  13  14
HETATM   14  C12 UNL     1     -12.536   8.675  12.840  1.00  0.00     0.218 C 
HETATM   15  O3  UNL     1     -11.926   9.298  11.982  1.00  0.00    -0.274 OA
HETATM   16  N1  UNL     1     -13.863   8.911  13.142  1.00  0.00    -0.348 N 
HETATM   17  H19 UNL     1     -14.357   8.183  13.645  1.00  0.00     0.163 HD
BRANCH  16  18
HETATM   18  C13 UNL     1     -14.667   9.791  12.300  1.00  0.00     0.176 C 
HETATM   19  C14 UNL     1     -15.031  11.117  12.974  1.00  0.00     0.036 C 
HETATM   20  C15 UNL     1     -16.018  10.967  14.136  1.00  0.00     0.022 C 
HETATM   21  C16 UNL     1     -16.837   9.684  14.083  1.00  0.00     0.122 C 
HETATM   22  N2  UNL     1     -17.023   9.200  12.737  1.00  0.00    -0.359 N 
HETATM   23  C17 UNL     1     -15.950   9.052  11.890  1.00  0.00     0.240 C 
HETATM   24  H27 UNL     1     -17.804   8.589  12.524  1.00  0.00     0.162 HD
HETATM   25  O4  UNL     1     -16.006   8.276  10.939  1.00  0.00    -0.271 OA
ENDBRANCH  16  18
ENDBRANCH  13  14
ENDBRANCH  12  13
ENDBRANCH  11  12
ENDBRANCH  10  11
ENDBRANCH   9  10
ENDBRANCH   8   9
ENDBRANCH   7   8
ENDBRANCH   6   7
ENDBRANCH   4   6
ENDBRANCH   3   4
BRANCH   2  26
HETATM   26  C18 UNL     1      -1.560   4.326  11.884  1.00  0.00     0.068 C 
BRANCH  26  27
HETATM   27  C19 UNL     1      -1.581   5.476  12.911  1.00  0.00     0.156 C 
HETATM   28  O5  UNL     1      -1.603   6.724  12.181  1.00  0.00    -0.382 OA
HETATM   29  C20 UNL     1      -1.364   7.842  13.037  1.00  0.00     0.175 C 
HETATM   30  C21 UNL     1       0.117   7.871  13.445  1.00  0.00     0.044 C 
HETATM   31  C29 UNL     1       0.702   6.443  13.431  1.00  0.00     0.155 C 
HETATM   32  C30 UNL     1      -0.354   5.409  13.846  1.00  0.00     0.176 C 
BRANCH  30  33
HETATM   33  C22 UNL     1       0.943   8.788  12.516  1.00  0.00     0.036 C 
BRANCH  33  34
HETATM   34  C23 UNL     1       1.319   8.110  11.223  1.00  0.00    -0.030 C 
HETATM   35  C24 UNL     1       2.538   8.181  10.666  1.00  0.00    -0.024 C 
BRANCH  35  36
HETATM   36  C25 UNL     1       2.999   7.526   9.374  1.00  0.00     0.032 C 
HETATM   37  C26 UNL     1       2.802   6.005   9.303  1.00  0.00     0.017 C 
BRANCH  36  38
HETATM   38  C27 UNL     1       2.403   8.251   8.138  1.00  0.00     0.121 C 
HETATM   39  C28 UNL     1       2.004   7.325   6.994  1.00  0.00     0.040 C 
BRANCH  38  40
HETATM   40  O6  UNL     1       3.336   9.204   7.619  1.00  0.00    -0.395 OA
HETATM   41  H46 UNL     1       3.553   9.819   8.339  1.00  0.00     0.210 HD
ENDBRANCH  38  40
ENDBRANCH  36  38
ENDBRANCH  35  36
ENDBRANCH  33  34
ENDBRANCH  30  33
BRANCH  31  42
HETATM   42  O7  UNL     1       1.788   6.362  14.367  1.00  0.00    -0.392 OA
HETATM   43  H48 UNL     1       2.520   6.899  14.015  1.00  0.00     0.210 HD
ENDBRANCH  31  42
BRANCH  32  44
HETATM   44  O8  UNL     1      -0.767   5.711  15.193  1.00  0.00    -0.390 OA
HETATM   45  H50 UNL     1       0.068   5.816  15.694  1.00  0.00     0.210 HD
ENDBRANCH  32  44
ENDBRANCH  26  27
ENDBRANCH   2  26
TORSDOF 20
ENDMDL
MODEL 7
REMARK minimizedAffinity -7.28960419
REMARK CNNscore 0.387061566
REMARK CNNaffinity 6.30109549
REMARK  20 active torsions:
REMARK  status: ('A' for Active; 'I' for Inactive)
REMARK    1  A    between atoms: C2_2  and  C18_24 
REMARK    2  A    between atoms: C3_3  and  C4_4 
REMARK    3  A    between atoms: C4_4  and  O2_6 
REMARK    4  A    between atoms: O2_6  and  C5_7 
REMARK    5  A    between atoms: C5_7  and  C6_8 
REMARK    6  A    between atoms: C6_8  and  C7_9 
REMARK    7  A    between atoms: C7_9  and  C8_10 
REMARK    8  A    between atoms: C8_10  and  C9_11 
REMARK    9  A    between atoms: C9_11  and  C10_12 
REMARK   10  A    between atoms: C10_12  and  C11_13 
REMARK   11  A    between atoms: C11_13  and  C12_14 
REMARK       I    between atoms: C12_14  and  N1_16 
REMARK   12  A    between atoms: N1_16  and  C13_17 
REMARK   13  A    between atoms: C18_24  and  C19_25 
REMARK   14  A    between atoms: C21_28  and  C22_29 
REMARK   15  A    between atoms: C22_29  and  C23_30 
REMARK   16  A    between atoms: C24_31  and  C25_32 
REMARK   17  A    between atoms: C25_32  and  C27_34 
REMARK   18  A    between atoms: C27_34  and  O6_36 
REMARK   19  A    between atoms: C29_37  and  O7_38 
REMARK   20  A    between atoms: C30_39  and  O8_40 
ROOT
HETATM    1  C1  UNL     1      -9.658   7.270  14.748  1.00  0.00     0.043 C 
HETATM    2  C2  UNL     1     -10.049   6.913  13.336  1.00  0.00    -0.075 C 
HETATM    3  C3  UNL     1     -11.233   7.217  12.767  1.00  0.00     0.084 C 
ENDROOT
BRANCH   3   4
HETATM    4  C4  UNL     1     -12.424   7.820  13.408  1.00  0.00     0.283 C 
HETATM    5  O1  UNL     1     -12.339   8.685  14.269  1.00  0.00    -0.260 OA
BRANCH   4   6
HETATM    6  O2  UNL     1     -13.562   7.379  12.825  1.00  0.00    -0.318 OA
BRANCH   6   7
HETATM    7  C5  UNL     1     -14.750   8.078  13.218  1.00  0.00     0.179 C 
BRANCH   7   8
HETATM    8  C6  UNL     1     -15.860   7.043  13.363  1.00  0.00     0.027 C 
BRANCH   8   9
HETATM    9  C7  UNL     1     -15.494   5.872  14.274  1.00  0.00     0.002 C 
BRANCH   9  10
HETATM   10  C8  UNL     1     -16.704   4.997  14.620  1.00  0.00     0.000 C 
BRANCH  10  11
HETATM   11  C9  UNL     1     -16.331   3.709  15.356  1.00  0.00     0.000 C 
BRANCH  11  12
HETATM   12  C10 UNL     1     -15.197   2.883  14.741  1.00  0.00     0.009 C 
BRANCH  12  13
HETATM   13  C11 UNL     1     -15.545   1.442  14.369  1.00  0.00     0.103 C 
BRANCH  13  14
HETATM   14  C12 UNL     1     -15.057   0.406  15.367  1.00  0.00     0.218 C 
HETATM   15  O3  UNL     1     -14.221   0.626  16.234  1.00  0.00    -0.274 OA
HETATM   16  N1  UNL     1     -15.633  -0.834  15.175  1.00  0.00    -0.348 N 
HETATM   17  H19 UNL     1     -16.496  -0.863  14.644  1.00  0.00     0.163 HD
BRANCH  16  18
HETATM   18  C13 UNL     1     -15.419  -1.906  16.142  1.00  0.00     0.176 C 
HETATM   19  C14 UNL     1     -15.455  -3.306  15.521  1.00  0.00     0.036 C 
HETATM   20  C15 UNL     1     -16.845  -3.727  15.033  1.00  0.00     0.022 C 
HETATM   21  C16 UNL     1     -17.985  -2.962  15.693  1.00  0.00     0.122 C 
HETATM   22  N2  UNL     1     -17.649  -2.501  17.017  1.00  0.00    -0.359 N 
HETATM   23  C17 UNL     1     -16.486  -1.804  17.244  1.00  0.00     0.240 C 
HETATM   24  H27 UNL     1     -18.386  -2.299  17.683  1.00  0.00     0.162 HD
HETATM   25  O4  UNL     1     -16.381  -1.059  18.215  1.00  0.00    -0.271 OA
ENDBRANCH  16  18
ENDBRANCH  13  14
ENDBRANCH  12  13
ENDBRANCH  11  12
ENDBRANCH  10  11
ENDBRANCH   9  10
ENDBRANCH   8   9
ENDBRANCH   7   8
ENDBRANCH   6   7
ENDBRANCH   4   6
ENDBRANCH   3   4
BRANCH   2  26
HETATM   26  C18 UNL     1      -8.987   6.177  12.530  1.00  0.00     0.068 C 
BRANCH  26  27
HETATM   27  C19 UNL     1      -7.990   5.415  13.426  1.00  0.00     0.156 C 
HETATM   28  O5  UNL     1      -6.681   5.995  13.227  1.00  0.00    -0.382 OA
HETATM   29  C20 UNL     1      -5.653   5.196  13.813  1.00  0.00     0.175 C 
HETATM   30  C21 UNL     1      -5.444   3.927  12.972  1.00  0.00     0.044 C 
HETATM   31  C29 UNL     1      -6.750   3.550  12.243  1.00  0.00     0.155 C 
HETATM   32  C30 UNL     1      -7.979   3.908  13.090  1.00  0.00     0.176 C 
BRANCH  30  33
HETATM   33  C22 UNL     1      -4.303   4.108  11.948  1.00  0.00     0.036 C 
BRANCH  33  34
HETATM   34  C23 UNL     1      -3.227   5.042  12.441  1.00  0.00    -0.030 C 
HETATM   35  C24 UNL     1      -1.933   4.948  12.093  1.00  0.00    -0.024 C 
BRANCH  35  36
HETATM   36  C25 UNL     1      -0.793   5.849  12.539  1.00  0.00     0.032 C 
HETATM   37  C26 UNL     1      -0.346   5.668  13.996  1.00  0.00     0.017 C 
BRANCH  36  38
HETATM   38  C27 UNL     1       0.399   5.771  11.547  1.00  0.00     0.121 C 
HETATM   39  C28 UNL     1       0.423   6.880  10.501  1.00  0.00     0.040 C 
BRANCH  38  40
HETATM   40  O6  UNL     1       0.391   4.520  10.853  1.00  0.00    -0.395 OA
HETATM   41  H46 UNL     1       0.421   3.816  11.522  1.00  0.00     0.210 HD
ENDBRANCH  38  40
ENDBRANCH  36  38
ENDBRANCH  35  36
ENDBRANCH  33  34
ENDBRANCH  30  33
BRANCH  31  42
HETATM   42  O7  UNL     1      -6.776   2.133  12.011  1.00  0.00    -0.392 OA
HETATM   43  H48 UNL     1      -6.092   1.932  11.347  1.00  0.00     0.210 HD
ENDBRANCH  31  42
BRANCH  32  44
HETATM   44  O8  UNL     1      -7.913   3.150  14.314  1.00  0.00    -0.390 OA
HETATM   45  H50 UNL     1      -7.742   2.228  14.030  1.00  0.00     0.210 HD
ENDBRANCH  32  44
ENDBRANCH  26  27
ENDBRANCH   2  26
TORSDOF 20
ENDMDL
MODEL 8
REMARK minimizedAffinity -7.11905909
REMARK CNNscore 0.370490432
REMARK CNNaffinity 6.42799902
REMARK  20 active torsions:
REMARK  status: ('A' for Active; 'I' for Inactive)
REMARK    1  A    between atoms: C2_2  and  C18_24 
REMARK    2  A    between atoms: C3_3  and  C4_4 
REMARK    3  A    between atoms: C4_4  and  O2_6 
REMARK    4  A    between atoms: O2_6  and  C5_7 
REMARK    5  A    between atoms: C5_7  and  C6_8 
REMARK    6  A    between atoms: C6_8  and  C7_9 
REMARK    7  A    between atoms: C7_9  and  C8_10 
REMARK    8  A    between atoms: C8_10  and  C9_11 
REMARK    9  A    between atoms: C9_11  and  C10_12 
REMARK   10  A    between atoms: C10_12  and  C11_13 
REMARK   11  A    between atoms: C11_13  and  C12_14 
REMARK       I    between atoms: C12_14  and  N1_16 
REMARK   12  A    between atoms: N1_16  and  C13_17 
REMARK   13  A    between atoms: C18_24  and  C19_25 
REMARK   14  A    between atoms: C21_28  and  C22_29 
REMARK   15  A    between atoms: C22_29  and  C23_30 
REMARK   16  A    between atoms: C24_31  and  C25_32 
REMARK   17  A    between atoms: C25_32  and  C27_34 
REMARK   18  A    between atoms: C27_34  and  O6_36 
REMARK   19  A    between atoms: C29_37  and  O7_38 
REMARK   20  A    between atoms: C30_39  and  O8_40 
ROOT
HETATM    1  C1  UNL     1      -5.954   3.400  12.567  1.00  0.00     0.043 C 
HETATM    2  C2  UNL     1      -5.489   4.688  13.196  1.00  0.00    -0.075 C 
HETATM    3  C3  UNL     1      -6.150   5.352  14.166  1.00  0.00     0.084 C 
ENDROOT
BRANCH   3   4
HETATM    4  C4  UNL     1      -7.493   5.059  14.717  1.00  0.00     0.283 C 
HETATM    5  O1  UNL     1      -7.660   4.642  15.854  1.00  0.00    -0.260 OA
BRANCH   4   6
HETATM    6  O2  UNL     1      -8.463   5.433  13.850  1.00  0.00    -0.318 OA
BRANCH   6   7
HETATM    7  C5  UNL     1      -8.978   6.754  14.056  1.00  0.00     0.179 C 
BRANCH   7   8
HETATM    8  C6  UNL     1     -10.378   6.795  13.452  1.00  0.00     0.027 C 
BRANCH   8   9
HETATM    9  C7  UNL     1     -11.491   6.950  14.487  1.00  0.00     0.002 C 
BRANCH   9  10
HETATM   10  C8  UNL     1     -12.852   6.484  13.960  1.00  0.00     0.000 C 
BRANCH  10  11
HETATM   11  C9  UNL     1     -14.019   6.856  14.878  1.00  0.00     0.000 C 
BRANCH  11  12
HETATM   12  C10 UNL     1     -15.210   5.892  14.880  1.00  0.00     0.009 C 
BRANCH  12  13
HETATM   13  C11 UNL     1     -14.868   4.407  14.761  1.00  0.00     0.103 C 
BRANCH  13  14
HETATM   14  C12 UNL     1     -16.069   3.508  14.526  1.00  0.00     0.218 C 
HETATM   15  O3  UNL     1     -17.033   3.815  13.838  1.00  0.00    -0.274 OA
HETATM   16  N1  UNL     1     -15.978   2.307  15.201  1.00  0.00    -0.348 N 
HETATM   17  H19 UNL     1     -15.055   2.018  15.504  1.00  0.00     0.163 HD
BRANCH  16  18
HETATM   18  C13 UNL     1     -16.952   1.247  14.959  1.00  0.00     0.176 C 
HETATM   19  C14 UNL     1     -17.372   0.500  16.228  1.00  0.00     0.036 C 
HETATM   20  C15 UNL     1     -16.258  -0.361  16.833  1.00  0.00     0.022 C 
HETATM   21  C16 UNL     1     -15.165  -0.736  15.840  1.00  0.00     0.122 C 
HETATM   22  N2  UNL     1     -15.647  -0.793  14.482  1.00  0.00    -0.359 N 
HETATM   23  C17 UNL     1     -16.363   0.252  13.946  1.00  0.00     0.240 C 
HETATM   24  H27 UNL     1     -15.150  -1.347  13.793  1.00  0.00     0.162 HD
HETATM   25  O4  UNL     1     -16.411   0.420  12.730  1.00  0.00    -0.271 OA
ENDBRANCH  16  18
ENDBRANCH  13  14
ENDBRANCH  12  13
ENDBRANCH  11  12
ENDBRANCH  10  11
ENDBRANCH   9  10
ENDBRANCH   8   9
ENDBRANCH   7   8
ENDBRANCH   6   7
ENDBRANCH   4   6
ENDBRANCH   3   4
BRANCH   2  26
HETATM   26  C18 UNL     1      -4.161   5.226  12.680  1.00  0.00     0.068 C 
BRANCH  26  27
HETATM   27  C19 UNL     1      -3.611   6.373  13.553  1.00  0.00     0.156 C 
HETATM   28  O5  UNL     1      -2.837   7.248  12.701  1.00  0.00    -0.382 OA
HETATM   29  C20 UNL     1      -2.079   8.190  13.460  1.00  0.00     0.175 C 
HETATM   30  C21 UNL     1      -0.902   7.475  14.141  1.00  0.00     0.044 C 
HETATM   31  C29 UNL     1      -1.253   5.994  14.396  1.00  0.00     0.155 C 
HETATM   32  C30 UNL     1      -2.746   5.826  14.709  1.00  0.00     0.176 C 
BRANCH  30  33
HETATM   33  C22 UNL     1       0.387   7.573  13.296  1.00  0.00     0.036 C 
BRANCH  33  34
HETATM   34  C23 UNL     1       0.119   7.442  11.818  1.00  0.00    -0.030 C 
HETATM   35  C24 UNL     1       1.013   7.744  10.864  1.00  0.00    -0.024 C 
BRANCH  35  36
HETATM   36  C25 UNL     1       0.826   7.635   9.359  1.00  0.00     0.032 C 
HETATM   37  C26 UNL     1      -0.252   8.552   8.765  1.00  0.00     0.017 C 
BRANCH  36  38
HETATM   38  C27 UNL     1       2.182   7.768   8.617  1.00  0.00     0.121 C 
HETATM   39  C28 UNL     1       3.407   7.713   9.524  1.00  0.00     0.040 C 
BRANCH  38  40
HETATM   40  O6  UNL     1       2.236   8.999   7.890  1.00  0.00    -0.395 OA
HETATM   41  H46 UNL     1       1.479   9.009   7.281  1.00  0.00     0.210 HD
ENDBRANCH  38  40
ENDBRANCH  36  38
ENDBRANCH  35  36
ENDBRANCH  33  34
ENDBRANCH  30  33
BRANCH  31  42
HETATM   42  O7  UNL     1      -0.510   5.514  15.528  1.00  0.00    -0.392 OA
HETATM   43  H48 UNL     1       0.427   5.472  15.267  1.00  0.00     0.210 HD
ENDBRANCH  31  42
BRANCH  32  44
HETATM   44  O8  UNL     1      -3.035   6.568  15.910  1.00  0.00    -0.390 OA
HETATM   45  H50 UNL     1      -2.347   6.290  16.549  1.00  0.00     0.210 HD
ENDBRANCH  32  44
ENDBRANCH  26  27
ENDBRANCH   2  26
TORSDOF 20
ENDMDL
MODEL 9
REMARK minimizedAffinity -7.32894468
REMARK CNNscore 0.353167355
REMARK CNNaffinity 6.06796837
REMARK  20 active torsions:
REMARK  status: ('A' for Active; 'I' for Inactive)
REMARK    1  A    between atoms: C2_2  and  C18_24 
REMARK    2  A    between atoms: C3_3  and  C4_4 
REMARK    3  A    between atoms: C4_4  and  O2_6 
REMARK    4  A    between atoms: O2_6  and  C5_7 
REMARK    5  A    between atoms: C5_7  and  C6_8 
REMARK    6  A    between atoms: C6_8  and  C7_9 
REMARK    7  A    between atoms: C7_9  and  C8_10 
REMARK    8  A    between atoms: C8_10  and  C9_11 
REMARK    9  A    between atoms: C9_11  and  C10_12 
REMARK   10  A    between atoms: C10_12  and  C11_13 
REMARK   11  A    between atoms: C11_13  and  C12_14 
REMARK       I    between atoms: C12_14  and  N1_16 
REMARK   12  A    between atoms: N1_16  and  C13_17 
REMARK   13  A    between atoms: C18_24  and  C19_25 
REMARK   14  A    between atoms: C21_28  and  C22_29 
REMARK   15  A    between atoms: C22_29  and  C23_30 
REMARK   16  A    between atoms: C24_31  and  C25_32 
REMARK   17  A    between atoms: C25_32  and  C27_34 
REMARK   18  A    between atoms: C27_34  and  O6_36 
REMARK   19  A    between atoms: C29_37  and  O7_38 
REMARK   20  A    between atoms: C30_39  and  O8_40 
ROOT
HETATM    1  C1  UNL     1      -0.524  11.289  18.901  1.00  0.00     0.043 C 
HETATM    2  C2  UNL     1       0.001  10.603  17.667  1.00  0.00    -0.075 C 
HETATM    3  C3  UNL     1       1.293  10.274  17.462  1.00  0.00     0.084 C 
ENDROOT
BRANCH   3   4
HETATM    4  C4  UNL     1       2.464  10.619  18.300  1.00  0.00     0.283 C 
HETATM    5  O1  UNL     1       3.167  11.594  18.078  1.00  0.00    -0.260 OA
BRANCH   4   6
HETATM    6  O2  UNL     1       2.549   9.798  19.373  1.00  0.00    -0.318 OA
BRANCH   6   7
HETATM    7  C5  UNL     1       3.314  10.317  20.469  1.00  0.00     0.179 C 
BRANCH   7   8
HETATM    8  C6  UNL     1       2.326  10.750  21.546  1.00  0.00     0.027 C 
BRANCH   8   9
HETATM    9  C7  UNL     1       2.977  11.475  22.723  1.00  0.00     0.002 C 
BRANCH   9  10
HETATM   10  C8  UNL     1       4.446  11.085  22.914  1.00  0.00     0.000 C 
BRANCH  10  11
HETATM   11  C9  UNL     1       5.385  12.288  23.024  1.00  0.00     0.000 C 
BRANCH  11  12
HETATM   12  C10 UNL     1       6.718  12.174  22.277  1.00  0.00     0.009 C 
BRANCH  12  13
HETATM   13  C11 UNL     1       7.423  13.493  21.963  1.00  0.00     0.103 C 
BRANCH  13  14
HETATM   14  C12 UNL     1       8.210  14.072  23.126  1.00  0.00     0.218 C 
HETATM   15  O3  UNL     1       9.101  13.476  23.717  1.00  0.00    -0.274 OA
HETATM   16  N1  UNL     1       7.793  15.341  23.475  1.00  0.00    -0.348 N 
HETATM   17  H19 UNL     1       7.268  15.860  22.781  1.00  0.00     0.163 HD
BRANCH  16  18
HETATM   18  C13 UNL     1       8.544  16.123  24.452  1.00  0.00     0.176 C 
HETATM   19  C14 UNL     1       7.656  16.891  25.434  1.00  0.00     0.036 C 
HETATM   20  C15 UNL     1       6.874  18.041  24.789  1.00  0.00     0.022 C 
HETATM   21  C16 UNL     1       7.484  18.540  23.485  1.00  0.00     0.122 C 
HETATM   22  N2  UNL     1       8.910  18.338  23.427  1.00  0.00    -0.359 N 
HETATM   23  C17 UNL     1       9.458  17.108  23.705  1.00  0.00     0.240 C 
HETATM   24  H27 UNL     1       9.476  18.911  22.810  1.00  0.00     0.162 HD
HETATM   25  O4  UNL     1      10.564  16.801  23.267  1.00  0.00    -0.271 OA
ENDBRANCH  16  18
ENDBRANCH  13  14
ENDBRANCH  12  13
ENDBRANCH  11  12
ENDBRANCH  10  11
ENDBRANCH   9  10
ENDBRANCH   8   9
ENDBRANCH   7   8
ENDBRANCH   6   7
ENDBRANCH   4   6
ENDBRANCH   3   4
BRANCH   2  26
HETATM   26  C18 UNL     1      -1.044  10.257  16.615  1.00  0.00     0.068 C 
BRANCH  26  27
HETATM   27  C19 UNL     1      -0.626   9.056  15.742  1.00  0.00     0.156 C 
HETATM   28  O5  UNL     1      -1.053   9.322  14.386  1.00  0.00    -0.382 OA
HETATM   29  C20 UNL     1      -0.943   8.163  13.560  1.00  0.00     0.175 C 
HETATM   30  C21 UNL     1      -2.047   7.161  13.928  1.00  0.00     0.044 C 
HETATM   31  C29 UNL     1      -2.454   7.335  15.407  1.00  0.00     0.155 C 
HETATM   32  C30 UNL     1      -1.250   7.745  16.266  1.00  0.00     0.176 C 
BRANCH  30  33
HETATM   33  C22 UNL     1      -3.285   7.322  13.019  1.00  0.00     0.036 C 
BRANCH  33  34
HETATM   34  C23 UNL     1      -4.262   6.183  13.167  1.00  0.00    -0.030 C 
HETATM   35  C24 UNL     1      -4.158   5.015  12.513  1.00  0.00    -0.024 C 
BRANCH  35  36
HETATM   36  C25 UNL     1      -5.092   3.820  12.610  1.00  0.00     0.032 C 
HETATM   37  C26 UNL     1      -6.461   4.107  13.243  1.00  0.00     0.017 C 
BRANCH  36  38
HETATM   38  C27 UNL     1      -5.221   3.100  11.241  1.00  0.00     0.121 C 
HETATM   39  C28 UNL     1      -5.518   1.608  11.338  1.00  0.00     0.040 C 
BRANCH  38  40
HETATM   40  O6  UNL     1      -4.019   3.254  10.480  1.00  0.00    -0.395 OA
HETATM   41  H46 UNL     1      -3.858   4.208  10.382  1.00  0.00     0.210 HD
ENDBRANCH  38  40
ENDBRANCH  36  38
ENDBRANCH  35  36
ENDBRANCH  33  34
ENDBRANCH  30  33
BRANCH  31  42
HETATM   42  O7  UNL     1      -2.953   6.088  15.915  1.00  0.00    -0.392 OA
HETATM   43  H48 UNL     1      -3.803   5.911  15.476  1.00  0.00     0.210 HD
ENDBRANCH  31  42
BRANCH  32  44
HETATM   44  O8  UNL     1      -0.270   6.690  16.192  1.00  0.00    -0.390 OA
HETATM   45  H50 UNL     1      -0.771   5.869  16.375  1.00  0.00     0.210 HD
ENDBRANCH  32  44
ENDBRANCH  26  27
ENDBRANCH   2  26
TORSDOF 20
ENDMDL
