MODEL 1
REMARK minimizedAffinity -9.71646118
REMARK  4 active torsions:
REMARK  status: ('A' for Active; 'I' for Inactive)
REMARK    1  A    between atoms: C2_2  and  C3_3 
REMARK    2  A    between atoms: C2_2  and  C9_9 
REMARK    3  A    between atoms: C3_3  and  C4_4 
REMARK    4  A    between atoms: C4_4  and  C5_5 
ROOT
HETATM    1  C9  UNL     1      -0.288  50.507 -18.633  1.00  0.00     0.018 C 
HETATM    2  C10 UNL     1      -1.008  49.214 -18.194  1.00  0.00     0.010 C 
HETATM    3  C11 UNL     1      -2.110  48.936 -19.235  1.00  0.00     0.011 C 
HETATM    4  C12 UNL     1      -1.757  49.804 -20.471  1.00  0.00    -0.032 C 
HETATM    5  C13 UNL     1      -0.661  49.024 -21.253  1.00  0.00     0.016 C 
HETATM    6  C14 UNL     1      -1.211  51.054 -19.747  1.00  0.00     0.002 C 
HETATM    7  C15 UNL     1      -0.584  52.069 -20.682  1.00  0.00     0.006 C 
HETATM    8  C16 UNL     1      -1.168  52.064 -22.094  1.00  0.00     0.006 C 
HETATM    9  C17 UNL     1      -2.617  51.519 -22.292  1.00  0.00     0.003 C 
HETATM   10  C18 UNL     1      -2.995  51.373 -23.833  1.00  0.00    -0.035 C 
HETATM   11  C19 UNL     1      -4.541  51.428 -23.993  1.00  0.00     0.016 C 
HETATM   12  C20 UNL     1      -2.411  52.539 -24.677  1.00  0.00     0.017 C 
HETATM   13  C21 UNL     1      -2.792  52.482 -26.149  1.00  0.00     0.080 C 
HETATM   14  C22 UNL     1      -2.921  51.070 -26.675  1.00  0.00     0.135 C 
HETATM   15  O1  UNL     1      -3.542  50.874 -27.723  1.00  0.00    -0.297 OA
HETATM   16  C23 UNL     1      -2.197  49.938 -25.931  1.00  0.00     0.017 C 
HETATM   17  C24 UNL     1      -0.698  50.075 -26.294  1.00  0.00     0.023 C 
HETATM   18  C25 UNL     1      -2.664  48.590 -26.520  1.00  0.00     0.023 C 
HETATM   19  C26 UNL     1      -2.379  50.042 -24.360  1.00  0.00     0.009 C 
HETATM   20  C27 UNL     1      -3.022  48.823 -23.681  1.00  0.00     0.007 C 
HETATM   21  C28 UNL     1      -3.487  49.005 -22.234  1.00  0.00     0.011 C 
HETATM   22  C29 UNL     1      -2.974  50.230 -21.412  1.00  0.00    -0.032 C 
HETATM   23  C30 UNL     1      -4.215  50.646 -20.542  1.00  0.00     0.016 C 
ENDROOT
BRANCH   1  24
HETATM   24  C2  UNL     1       0.080  51.418 -17.470  1.00  0.00    -0.084 C 
HETATM   25  C1  UNL     1       0.729  52.590 -17.592  1.00  0.00     0.014 C 
BRANCH  24  26
HETATM   26  C3  UNL     1      -0.263  50.905 -16.079  1.00  0.00     0.037 C 
BRANCH  26  27
HETATM   27  C4  UNL     1       0.928  50.920 -15.113  1.00  0.00     0.031 C 
BRANCH  27  28
HETATM   28  C5  UNL     1       2.097  51.668 -15.697  1.00  0.00    -0.024 C 
HETATM   29  C6  UNL     1       3.392  51.567 -15.339  1.00  0.00    -0.091 C 
HETATM   30  C7  UNL     1       3.912  50.701 -14.224  1.00  0.00     0.042 C 
HETATM   31  C8  UNL     1       4.454  52.366 -16.052  1.00  0.00     0.042 C 
ENDBRANCH  27  28
ENDBRANCH  26  27
ENDBRANCH  24  26
ENDBRANCH   1  24
TORSDOF 4
ENDMDL
MODEL 2
REMARK minimizedAffinity -9.1669426
REMARK  4 active torsions:
REMARK  status: ('A' for Active; 'I' for Inactive)
REMARK    1  A    between atoms: C2_2  and  C3_3 
REMARK    2  A    between atoms: C2_2  and  C9_9 
REMARK    3  A    between atoms: C3_3  and  C4_4 
REMARK    4  A    between atoms: C4_4  and  C5_5 
ROOT
HETATM    1  C9  UNL     1      -0.061  51.769 -22.043  1.00  0.00     0.018 C 
HETATM    2  C10 UNL     1       0.556  50.940 -20.896  1.00  0.00     0.010 C 
HETATM    3  C11 UNL     1      -0.606  50.226 -20.180  1.00  0.00     0.011 C 
HETATM    4  C12 UNL     1      -1.814  50.300 -21.151  1.00  0.00    -0.032 C 
HETATM    5  C13 UNL     1      -1.606  49.163 -22.193  1.00  0.00     0.016 C 
HETATM    6  C14 UNL     1      -1.575  51.709 -21.735  1.00  0.00     0.002 C 
HETATM    7  C15 UNL     1      -2.496  52.049 -22.891  1.00  0.00     0.006 C 
HETATM    8  C16 UNL     1      -3.850  51.344 -22.840  1.00  0.00     0.006 C 
HETATM    9  C17 UNL     1      -4.381  50.862 -21.454  1.00  0.00     0.003 C 
HETATM   10  C18 UNL     1      -5.685  49.956 -21.595  1.00  0.00    -0.035 C 
HETATM   11  C19 UNL     1      -6.498  50.012 -20.270  1.00  0.00     0.016 C 
HETATM   12  C20 UNL     1      -6.620  50.476 -22.722  1.00  0.00     0.017 C 
HETATM   13  C21 UNL     1      -7.911  49.682 -22.861  1.00  0.00     0.080 C 
HETATM   14  C22 UNL     1      -7.743  48.214 -22.542  1.00  0.00     0.135 C 
HETATM   15  O1  UNL     1      -8.743  47.537 -22.284  1.00  0.00    -0.297 OA
HETATM   16  C23 UNL     1      -6.341  47.594 -22.637  1.00  0.00     0.017 C 
HETATM   17  C24 UNL     1      -6.044  47.434 -24.149  1.00  0.00     0.023 C 
HETATM   18  C25 UNL     1      -6.397  46.168 -22.053  1.00  0.00     0.023 C 
HETATM   19  C26 UNL     1      -5.235  48.512 -21.970  1.00  0.00     0.009 C 
HETATM   20  C27 UNL     1      -4.430  47.867 -20.832  1.00  0.00     0.007 C 
HETATM   21  C28 UNL     1      -3.577  48.803 -19.972  1.00  0.00     0.011 C 
HETATM   22  C29 UNL     1      -3.264  50.244 -20.487  1.00  0.00    -0.032 C 
HETATM   23  C30 UNL     1      -3.302  51.125 -19.186  1.00  0.00     0.016 C 
ENDROOT
BRANCH   1  24
HETATM   24  C2  UNL     1       0.599  53.129 -22.227  1.00  0.00    -0.084 C 
HETATM   25  C1  UNL     1       1.027  53.913 -21.220  1.00  0.00     0.014 C 
BRANCH  24  26
HETATM   26  C3  UNL     1       0.705  53.639 -23.657  1.00  0.00     0.037 C 
BRANCH  26  27
HETATM   27  C4  UNL     1       0.292  52.599 -24.706  1.00  0.00     0.031 C 
BRANCH  27  28
HETATM   28  C5  UNL     1       1.447  52.234 -25.601  1.00  0.00    -0.024 C 
HETATM   29  C6  UNL     1       1.399  51.927 -26.912  1.00  0.00    -0.091 C 
HETATM   30  C7  UNL     1       0.138  51.839 -27.730  1.00  0.00     0.042 C 
HETATM   31  C8  UNL     1       2.659  51.617 -27.678  1.00  0.00     0.042 C 
ENDBRANCH  27  28
ENDBRANCH  26  27
ENDBRANCH  24  26
ENDBRANCH   1  24
TORSDOF 4
ENDMDL
MODEL 3
REMARK minimizedAffinity -9.0288868
REMARK  4 active torsions:
REMARK  status: ('A' for Active; 'I' for Inactive)
REMARK    1  A    between atoms: C2_2  and  C3_3 
REMARK    2  A    between atoms: C2_2  and  C9_9 
REMARK    3  A    between atoms: C3_3  and  C4_4 
REMARK    4  A    between atoms: C4_4  and  C5_5 
ROOT
HETATM    1  C9  UNL     1      -1.586  51.615 -24.549  1.00  0.00     0.018 C 
HETATM    2  C10 UNL     1      -2.655  52.455 -25.280  1.00  0.00     0.010 C 
HETATM    3  C11 UNL     1      -4.008  51.750 -25.065  1.00  0.00     0.011 C 
HETATM    4  C12 UNL     1      -3.793  50.767 -23.884  1.00  0.00    -0.032 C 
HETATM    5  C13 UNL     1      -3.898  51.617 -22.584  1.00  0.00     0.016 C 
HETATM    6  C14 UNL     1      -2.349  50.317 -24.198  1.00  0.00     0.002 C 
HETATM    7  C15 UNL     1      -1.731  49.463 -23.108  1.00  0.00     0.006 C 
HETATM    8  C16 UNL     1      -2.742  48.652 -22.300  1.00  0.00     0.006 C 
HETATM    9  C17 UNL     1      -4.113  48.309 -22.962  1.00  0.00     0.003 C 
HETATM   10  C18 UNL     1      -5.133  47.659 -21.923  1.00  0.00    -0.035 C 
HETATM   11  C19 UNL     1      -6.183  46.809 -22.694  1.00  0.00     0.016 C 
HETATM   12  C20 UNL     1      -4.409  46.701 -20.938  1.00  0.00     0.017 C 
HETATM   13  C21 UNL     1      -5.345  46.005 -19.960  1.00  0.00     0.080 C 
HETATM   14  C22 UNL     1      -6.527  46.860 -19.560  1.00  0.00     0.135 C 
HETATM   15  O1  UNL     1      -7.518  46.320 -19.061  1.00  0.00    -0.297 OA
HETATM   16  C23 UNL     1      -6.416  48.385 -19.705  1.00  0.00     0.017 C 
HETATM   17  C24 UNL     1      -5.509  48.863 -18.543  1.00  0.00     0.023 C 
HETATM   18  C25 UNL     1      -7.807  49.002 -19.450  1.00  0.00     0.023 C 
HETATM   19  C26 UNL     1      -5.776  48.809 -21.092  1.00  0.00     0.009 C 
HETATM   20  C27 UNL     1      -6.643  49.719 -21.976  1.00  0.00     0.007 C 
HETATM   21  C28 UNL     1      -6.196  49.898 -23.428  1.00  0.00     0.011 C 
HETATM   22  C29 UNL     1      -4.746  49.489 -23.841  1.00  0.00    -0.032 C 
HETATM   23  C30 UNL     1      -4.920  48.889 -25.284  1.00  0.00     0.016 C 
ENDROOT
BRANCH   1  24
HETATM   24  C2  UNL     1      -0.273  51.513 -25.312  1.00  0.00    -0.084 C 
HETATM   25  C1  UNL     1      -0.056  50.689 -26.354  1.00  0.00     0.014 C 
BRANCH  24  26
HETATM   26  C3  UNL     1       0.876  52.366 -24.793  1.00  0.00     0.037 C 
BRANCH  26  27
HETATM   27  C4  UNL     1       0.508  53.195 -23.557  1.00  0.00     0.031 C 
BRANCH  27  28
HETATM   28  C5  UNL     1       0.286  52.317 -22.354  1.00  0.00    -0.024 C 
HETATM   29  C6  UNL     1       0.414  52.661 -21.057  1.00  0.00    -0.091 C 
HETATM   30  C7  UNL     1       0.865  54.010 -20.565  1.00  0.00     0.042 C 
HETATM   31  C8  UNL     1       0.118  51.668 -19.963  1.00  0.00     0.042 C 
ENDBRANCH  27  28
ENDBRANCH  26  27
ENDBRANCH  24  26
ENDBRANCH   1  24
TORSDOF 4
ENDMDL
MODEL 4
REMARK minimizedAffinity -8.9563303
REMARK  4 active torsions:
REMARK  status: ('A' for Active; 'I' for Inactive)
REMARK    1  A    between atoms: C2_2  and  C3_3 
REMARK    2  A    between atoms: C2_2  and  C9_9 
REMARK    3  A    between atoms: C3_3  and  C4_4 
REMARK    4  A    between atoms: C4_4  and  C5_5 
ROOT
HETATM    1  C9  UNL     1      -0.610  52.584 -21.233  1.00  0.00     0.018 C 
HETATM    2  C10 UNL     1       0.150  52.124 -22.497  1.00  0.00     0.010 C 
HETATM    3  C11 UNL     1      -0.418  50.746 -22.887  1.00  0.00     0.011 C 
HETATM    4  C12 UNL     1      -1.761  50.607 -22.125  1.00  0.00    -0.032 C 
HETATM    5  C13 UNL     1      -2.815  51.403 -22.950  1.00  0.00     0.016 C 
HETATM    6  C14 UNL     1      -1.370  51.308 -20.805  1.00  0.00     0.002 C 
HETATM    7  C15 UNL     1      -2.539  51.522 -19.865  1.00  0.00     0.006 C 
HETATM    8  C16 UNL     1      -3.655  50.487 -20.006  1.00  0.00     0.006 C 
HETATM    9  C17 UNL     1      -3.294  49.088 -20.595  1.00  0.00     0.003 C 
HETATM   10  C18 UNL     1      -4.591  48.208 -20.885  1.00  0.00    -0.035 C 
HETATM   11  C19 UNL     1      -4.205  46.701 -20.874  1.00  0.00     0.016 C 
HETATM   12  C20 UNL     1      -5.670  48.407 -19.786  1.00  0.00     0.017 C 
HETATM   13  C21 UNL     1      -6.909  47.544 -19.980  1.00  0.00     0.080 C 
HETATM   14  C22 UNL     1      -7.248  47.311 -21.435  1.00  0.00     0.135 C 
HETATM   15  O1  UNL     1      -7.996  46.377 -21.736  1.00  0.00    -0.297 OA
HETATM   16  C23 UNL     1      -6.719  48.302 -22.483  1.00  0.00     0.017 C 
HETATM   17  C24 UNL     1      -7.591  49.575 -22.348  1.00  0.00     0.023 C 
HETATM   18  C25 UNL     1      -7.005  47.728 -23.886  1.00  0.00     0.023 C 
HETATM   19  C26 UNL     1      -5.196  48.669 -22.244  1.00  0.00     0.009 C 
HETATM   20  C27 UNL     1      -4.245  48.361 -23.411  1.00  0.00     0.007 C 
HETATM   21  C28 UNL     1      -2.745  48.416 -23.111  1.00  0.00     0.011 C 
HETATM   22  C29 UNL     1      -2.249  49.121 -21.809  1.00  0.00    -0.032 C 
HETATM   23  C30 UNL     1      -1.035  48.237 -21.341  1.00  0.00     0.016 C 
ENDROOT
BRANCH   1  24
HETATM   24  C2  UNL     1       0.280  53.286 -20.217  1.00  0.00    -0.084 C 
HETATM   25  C1  UNL     1       1.418  53.937 -20.518  1.00  0.00     0.014 C 
BRANCH  24  26
HETATM   26  C3  UNL     1      -0.140  53.166 -18.758  1.00  0.00     0.037 C 
BRANCH  26  27
HETATM   27  C4  UNL     1       0.604  52.059 -18.000  1.00  0.00     0.031 C 
BRANCH  27  28
HETATM   28  C5  UNL     1       1.955  52.530 -17.530  1.00  0.00    -0.024 C 
HETATM   29  C6  UNL     1       2.542  52.272 -16.344  1.00  0.00    -0.091 C 
HETATM   30  C7  UNL     1       1.913  51.488 -15.225  1.00  0.00     0.042 C 
HETATM   31  C8  UNL     1       3.923  52.792 -16.039  1.00  0.00     0.042 C 
ENDBRANCH  27  28
ENDBRANCH  26  27
ENDBRANCH  24  26
ENDBRANCH   1  24
TORSDOF 4
ENDMDL
MODEL 5
REMARK minimizedAffinity -8.90326023
REMARK  4 active torsions:
REMARK  status: ('A' for Active; 'I' for Inactive)
REMARK    1  A    between atoms: C2_2  and  C3_3 
REMARK    2  A    between atoms: C2_2  and  C9_9 
REMARK    3  A    between atoms: C3_3  and  C4_4 
REMARK    4  A    between atoms: C4_4  and  C5_5 
ROOT
HETATM    1  C9  UNL     1      -2.695  50.587 -25.208  1.00  0.00     0.018 C 
HETATM    2  C10 UNL     1      -3.396  51.959 -25.112  1.00  0.00     0.010 C 
HETATM    3  C11 UNL     1      -4.087  52.017 -23.735  1.00  0.00     0.011 C 
HETATM    4  C12 UNL     1      -3.446  50.887 -22.889  1.00  0.00    -0.032 C 
HETATM    5  C13 UNL     1      -2.093  51.449 -22.362  1.00  0.00     0.016 C 
HETATM    6  C14 UNL     1      -3.269  49.821 -23.993  1.00  0.00     0.002 C 
HETATM    7  C15 UNL     1      -2.477  48.610 -23.544  1.00  0.00     0.006 C 
HETATM    8  C16 UNL     1      -2.587  48.308 -22.050  1.00  0.00     0.006 C 
HETATM    9  C17 UNL     1      -3.845  48.823 -21.283  1.00  0.00     0.003 C 
HETATM   10  C18 UNL     1      -3.707  48.626 -19.708  1.00  0.00    -0.035 C 
HETATM   11  C19 UNL     1      -5.124  48.566 -19.069  1.00  0.00     0.016 C 
HETATM   12  C20 UNL     1      -2.997  47.288 -19.361  1.00  0.00     0.017 C 
HETATM   13  C21 UNL     1      -2.891  47.020 -17.867  1.00  0.00     0.080 C 
HETATM   14  C22 UNL     1      -2.720  48.280 -17.048  1.00  0.00     0.135 C 
HETATM   15  O1  UNL     1      -2.961  48.247 -15.838  1.00  0.00    -0.297 OA
HETATM   16  C23 UNL     1      -2.165  49.536 -17.735  1.00  0.00     0.017 C 
HETATM   17  C24 UNL     1      -0.647  49.291 -17.917  1.00  0.00     0.023 C 
HETATM   18  C25 UNL     1      -2.299  50.725 -16.761  1.00  0.00     0.023 C 
HETATM   19  C26 UNL     1      -2.838  49.792 -19.147  1.00  0.00     0.009 C 
HETATM   20  C27 UNL     1      -3.548  51.144 -19.313  1.00  0.00     0.007 C 
HETATM   21  C28 UNL     1      -4.456  51.302 -20.534  1.00  0.00     0.011 C 
HETATM   22  C29 UNL     1      -4.340  50.284 -21.713  1.00  0.00    -0.032 C 
HETATM   23  C30 UNL     1      -5.824  50.098 -22.198  1.00  0.00     0.016 C 
ENDROOT
BRANCH   1  24
HETATM   24  C2  UNL     1      -2.795  49.954 -26.589  1.00  0.00    -0.084 C 
HETATM   25  C1  UNL     1      -3.304  48.734 -26.836  1.00  0.00     0.014 C 
BRANCH  24  26
HETATM   26  C3  UNL     1      -2.206  50.757 -27.741  1.00  0.00     0.037 C 
BRANCH  26  27
HETATM   27  C4  UNL     1      -1.330  51.929 -27.281  1.00  0.00     0.031 C 
BRANCH  27  28
HETATM   28  C5  UNL     1       0.130  51.559 -27.292  1.00  0.00    -0.024 C 
HETATM   29  C6  UNL     1       1.005  51.655 -26.272  1.00  0.00    -0.091 C 
HETATM   30  C7  UNL     1       0.683  52.214 -24.912  1.00  0.00     0.042 C 
HETATM   31  C8  UNL     1       2.434  51.206 -26.436  1.00  0.00     0.042 C 
ENDBRANCH  27  28
ENDBRANCH  26  27
ENDBRANCH  24  26
ENDBRANCH   1  24
TORSDOF 4
ENDMDL
MODEL 6
REMARK minimizedAffinity -8.83398628
REMARK  4 active torsions:
REMARK  status: ('A' for Active; 'I' for Inactive)
REMARK    1  A    between atoms: C2_2  and  C3_3 
REMARK    2  A    between atoms: C2_2  and  C9_9 
REMARK    3  A    between atoms: C3_3  and  C4_4 
REMARK    4  A    between atoms: C4_4  and  C5_5 
ROOT
HETATM    1  C9  UNL     1      -0.040  50.371 -18.519  1.00  0.00     0.018 C 
HETATM    2  C10 UNL     1      -0.933  49.206 -18.038  1.00  0.00     0.010 C 
HETATM    3  C11 UNL     1      -2.092  49.082 -19.045  1.00  0.00     0.011 C 
HETATM    4  C12 UNL     1      -1.649  49.871 -20.305  1.00  0.00    -0.032 C 
HETATM    5  C13 UNL     1      -0.704  48.925 -21.101  1.00  0.00     0.016 C 
HETATM    6  C14 UNL     1      -0.902  51.035 -19.617  1.00  0.00     0.002 C 
HETATM    7  C15 UNL     1      -0.158  51.932 -20.586  1.00  0.00     0.006 C 
HETATM    8  C16 UNL     1      -0.777  51.995 -21.982  1.00  0.00     0.006 C 
HETATM    9  C17 UNL     1      -2.295  51.670 -22.133  1.00  0.00     0.003 C 
HETATM   10  C18 UNL     1      -2.735  51.560 -23.661  1.00  0.00    -0.035 C 
HETATM   11  C19 UNL     1      -4.259  51.844 -23.782  1.00  0.00     0.016 C 
HETATM   12  C20 UNL     1      -2.007  52.615 -24.540  1.00  0.00     0.017 C 
HETATM   13  C21 UNL     1      -2.434  52.596 -26.000  1.00  0.00     0.080 C 
HETATM   14  C22 UNL     1      -2.787  51.212 -26.497  1.00  0.00     0.135 C 
HETATM   15  O1  UNL     1      -3.459  51.096 -27.526  1.00  0.00    -0.297 OA
HETATM   16  C23 UNL     1      -2.219  49.994 -25.752  1.00  0.00     0.017 C 
HETATM   17  C24 UNL     1      -0.726  49.901 -26.157  1.00  0.00     0.023 C 
HETATM   18  C25 UNL     1      -2.897  48.724 -26.306  1.00  0.00     0.023 C 
HETATM   19  C26 UNL     1      -2.339  50.145 -24.179  1.00  0.00     0.009 C 
HETATM   20  C27 UNL     1      -3.137  49.046 -23.463  1.00  0.00     0.007 C 
HETATM   21  C28 UNL     1      -3.528  49.314 -22.008  1.00  0.00     0.011 C 
HETATM   22  C29 UNL     1      -2.815  50.460 -21.221  1.00  0.00    -0.032 C 
HETATM   23  C30 UNL     1      -3.956  51.069 -20.327  1.00  0.00     0.016 C 
ENDROOT
BRANCH   1  24
HETATM   24  C2  UNL     1       0.492  51.232 -17.381  1.00  0.00    -0.084 C 
HETATM   25  C1  UNL     1       0.851  52.523 -17.503  1.00  0.00     0.014 C 
BRANCH  24  26
HETATM   26  C3  UNL     1       0.684  50.535 -16.042  1.00  0.00     0.037 C 
BRANCH  26  27
HETATM   27  C4  UNL     1       0.065  51.298 -14.864  1.00  0.00     0.031 C 
BRANCH  27  28
HETATM   28  C5  UNL     1      -0.909  50.438 -14.104  1.00  0.00    -0.024 C 
HETATM   29  C6  UNL     1      -2.213  50.241 -14.381  1.00  0.00    -0.091 C 
HETATM   30  C7  UNL     1      -2.965  50.906 -15.502  1.00  0.00     0.042 C 
HETATM   31  C8  UNL     1      -3.049  49.313 -13.536  1.00  0.00     0.042 C 
ENDBRANCH  27  28
ENDBRANCH  26  27
ENDBRANCH  24  26
ENDBRANCH   1  24
TORSDOF 4
ENDMDL
MODEL 7
REMARK minimizedAffinity -8.62581253
REMARK  4 active torsions:
REMARK  status: ('A' for Active; 'I' for Inactive)
REMARK    1  A    between atoms: C2_2  and  C3_3 
REMARK    2  A    between atoms: C2_2  and  C9_9 
REMARK    3  A    between atoms: C3_3  and  C4_4 
REMARK    4  A    between atoms: C4_4  and  C5_5 
ROOT
HETATM    1  C9  UNL     1      -2.664  50.745 -25.309  1.00  0.00     0.018 C 
HETATM    2  C10 UNL     1      -3.311  52.141 -25.176  1.00  0.00     0.010 C 
HETATM    3  C11 UNL     1      -3.999  52.189 -23.798  1.00  0.00     0.011 C 
HETATM    4  C12 UNL     1      -3.403  51.011 -22.982  1.00  0.00    -0.032 C 
HETATM    5  C13 UNL     1      -2.030  51.507 -22.442  1.00  0.00     0.016 C 
HETATM    6  C14 UNL     1      -3.268  49.970 -24.116  1.00  0.00     0.002 C 
HETATM    7  C15 UNL     1      -2.524  48.717 -23.699  1.00  0.00     0.006 C 
HETATM    8  C16 UNL     1      -2.647  48.380 -22.214  1.00  0.00     0.006 C 
HETATM    9  C17 UNL     1      -3.884  48.922 -21.433  1.00  0.00     0.003 C 
HETATM   10  C18 UNL     1      -3.755  48.678 -19.863  1.00  0.00    -0.035 C 
HETATM   11  C19 UNL     1      -5.173  48.656 -19.226  1.00  0.00     0.016 C 
HETATM   12  C20 UNL     1      -3.098  47.305 -19.553  1.00  0.00     0.017 C 
HETATM   13  C21 UNL     1      -3.004  46.992 -18.067  1.00  0.00     0.080 C 
HETATM   14  C22 UNL     1      -2.784  48.221 -17.214  1.00  0.00     0.135 C 
HETATM   15  O1  UNL     1      -3.027  48.166 -16.005  1.00  0.00    -0.297 OA
HETATM   16  C23 UNL     1      -2.180  49.473 -17.868  1.00  0.00     0.017 C 
HETATM   17  C24 UNL     1      -0.672  49.174 -18.057  1.00  0.00     0.023 C 
HETATM   18  C25 UNL     1      -2.268  50.640 -16.862  1.00  0.00     0.023 C 
HETATM   19  C26 UNL     1      -2.842  49.793 -19.272  1.00  0.00     0.009 C 
HETATM   20  C27 UNL     1      -3.497  51.177 -19.401  1.00  0.00     0.007 C 
HETATM   21  C28 UNL     1      -4.398  51.403 -20.617  1.00  0.00     0.011 C 
HETATM   22  C29 UNL     1      -4.321  50.413 -21.823  1.00  0.00    -0.032 C 
HETATM   23  C30 UNL     1      -5.811  50.298 -22.312  1.00  0.00     0.016 C 
ENDROOT
BRANCH   1  24
HETATM   24  C2  UNL     1      -2.787  50.155 -26.707  1.00  0.00    -0.084 C 
HETATM   25  C1  UNL     1      -2.717  50.867 -27.846  1.00  0.00     0.014 C 
BRANCH  24  26
HETATM   26  C3  UNL     1      -3.077  48.662 -26.785  1.00  0.00     0.037 C 
BRANCH  26  27
HETATM   27  C4  UNL     1      -4.573  48.337 -26.874  1.00  0.00     0.031 C 
BRANCH  27  28
HETATM   28  C5  UNL     1      -4.979  48.009 -28.287  1.00  0.00    -0.024 C 
HETATM   29  C6  UNL     1      -6.122  47.423 -28.693  1.00  0.00    -0.091 C 
HETATM   30  C7  UNL     1      -7.208  46.927 -27.776  1.00  0.00     0.042 C 
HETATM   31  C8  UNL     1      -6.394  47.196 -30.158  1.00  0.00     0.042 C 
ENDBRANCH  27  28
ENDBRANCH  26  27
ENDBRANCH  24  26
ENDBRANCH   1  24
TORSDOF 4
ENDMDL
MODEL 8
REMARK minimizedAffinity -8.57035923
REMARK  4 active torsions:
REMARK  status: ('A' for Active; 'I' for Inactive)
REMARK    1  A    between atoms: C2_2  and  C3_3 
REMARK    2  A    between atoms: C2_2  and  C9_9 
REMARK    3  A    between atoms: C3_3  and  C4_4 
REMARK    4  A    between atoms: C4_4  and  C5_5 
ROOT
HETATM    1  C9  UNL     1      -0.686  51.288 -22.818  1.00  0.00     0.018 C 
HETATM    2  C10 UNL     1      -0.360  51.989 -21.481  1.00  0.00     0.010 C 
HETATM    3  C11 UNL     1      -1.467  51.594 -20.484  1.00  0.00     0.011 C 
HETATM    4  C12 UNL     1      -2.176  50.360 -21.101  1.00  0.00    -0.032 C 
HETATM    5  C13 UNL     1      -1.279  49.131 -20.769  1.00  0.00     0.016 C 
HETATM    6  C14 UNL     1      -2.122  50.764 -22.591  1.00  0.00     0.002 C 
HETATM    7  C15 UNL     1      -2.579  49.666 -23.532  1.00  0.00     0.006 C 
HETATM    8  C16 UNL     1      -3.599  48.705 -22.924  1.00  0.00     0.006 C 
HETATM    9  C17 UNL     1      -4.472  49.210 -21.734  1.00  0.00     0.003 C 
HETATM   10  C18 UNL     1      -5.320  48.033 -21.072  1.00  0.00    -0.035 C 
HETATM   11  C19 UNL     1      -6.564  48.633 -20.356  1.00  0.00     0.016 C 
HETATM   12  C20 UNL     1      -5.849  47.041 -22.143  1.00  0.00     0.017 C 
HETATM   13  C21 UNL     1      -6.716  45.928 -21.573  1.00  0.00     0.080 C 
HETATM   14  C22 UNL     1      -6.292  45.496 -20.187  1.00  0.00     0.135 C 
HETATM   15  O1  UNL     1      -7.088  44.866 -19.484  1.00  0.00    -0.297 OA
HETATM   16  C23 UNL     1      -4.851  45.777 -19.736  1.00  0.00     0.017 C 
HETATM   17  C24 UNL     1      -3.961  44.746 -20.473  1.00  0.00     0.023 C 
HETATM   18  C25 UNL     1      -4.738  45.451 -18.232  1.00  0.00     0.023 C 
HETATM   19  C26 UNL     1      -4.385  47.247 -20.105  1.00  0.00     0.009 C 
HETATM   20  C27 UNL     1      -3.941  48.122 -18.924  1.00  0.00     0.007 C 
HETATM   21  C28 UNL     1      -3.777  49.619 -19.197  1.00  0.00     0.011 C 
HETATM   22  C29 UNL     1      -3.694  50.124 -20.673  1.00  0.00    -0.032 C 
HETATM   23  C30 UNL     1      -4.472  51.491 -20.648  1.00  0.00     0.016 C 
ENDROOT
BRANCH   1  24
HETATM   24  C2  UNL     1      -0.404  52.155 -24.037  1.00  0.00    -0.084 C 
HETATM   25  C1  UNL     1       0.496  53.155 -24.072  1.00  0.00     0.014 C 
BRANCH  24  26
HETATM   26  C3  UNL     1      -1.265  51.892 -25.265  1.00  0.00     0.037 C 
BRANCH  26  27
HETATM   27  C4  UNL     1      -0.764  50.722 -26.120  1.00  0.00     0.031 C 
BRANCH  27  28
HETATM   28  C5  UNL     1       0.700  50.865 -26.441  1.00  0.00    -0.024 C 
HETATM   29  C6  UNL     1       1.257  51.654 -27.381  1.00  0.00    -0.091 C 
HETATM   30  C7  UNL     1       0.489  52.521 -28.342  1.00  0.00     0.042 C 
HETATM   31  C8  UNL     1       2.753  51.710 -27.554  1.00  0.00     0.042 C 
ENDBRANCH  27  28
ENDBRANCH  26  27
ENDBRANCH  24  26
ENDBRANCH   1  24
TORSDOF 4
ENDMDL
MODEL 9
REMARK minimizedAffinity -8.54915619
REMARK  4 active torsions:
REMARK  status: ('A' for Active; 'I' for Inactive)
REMARK    1  A    between atoms: C2_2  and  C3_3 
REMARK    2  A    between atoms: C2_2  and  C9_9 
REMARK    3  A    between atoms: C3_3  and  C4_4 
REMARK    4  A    between atoms: C4_4  and  C5_5 
ROOT
HETATM    1  C9  UNL     1      -1.990  51.473 -23.867  1.00  0.00     0.018 C 
HETATM    2  C10 UNL     1      -3.062  52.527 -24.219  1.00  0.00     0.010 C 
HETATM    3  C11 UNL     1      -4.431  51.913 -23.868  1.00  0.00     0.011 C 
HETATM    4  C12 UNL     1      -4.131  50.706 -22.940  1.00  0.00    -0.032 C 
HETATM    5  C13 UNL     1      -3.902  51.296 -21.518  1.00  0.00     0.016 C 
HETATM    6  C14 UNL     1      -2.830  50.203 -23.604  1.00  0.00     0.002 C 
HETATM    7  C15 UNL     1      -2.137  49.106 -22.820  1.00  0.00     0.006 C 
HETATM    8  C16 UNL     1      -3.080  48.244 -21.981  1.00  0.00     0.006 C 
HETATM    9  C17 UNL     1      -4.577  48.153 -22.411  1.00  0.00     0.003 C 
HETATM   10  C18 UNL     1      -5.469  47.406 -21.322  1.00  0.00    -0.035 C 
HETATM   11  C19 UNL     1      -6.733  46.814 -22.007  1.00  0.00     0.016 C 
HETATM   12  C20 UNL     1      -4.703  46.218 -20.678  1.00  0.00     0.017 C 
HETATM   13  C21 UNL     1      -5.529  45.431 -19.671  1.00  0.00     0.080 C 
HETATM   14  C22 UNL     1      -6.510  46.290 -18.905  1.00  0.00     0.135 C 
HETATM   15  O1  UNL     1      -7.455  45.751 -18.323  1.00  0.00    -0.297 OA
HETATM   16  C23 UNL     1      -6.243  47.800 -18.804  1.00  0.00     0.017 C 
HETATM   17  C24 UNL     1      -5.095  47.965 -17.777  1.00  0.00     0.023 C 
HETATM   18  C25 UNL     1      -7.483  48.473 -18.179  1.00  0.00     0.023 C 
HETATM   19  C26 UNL     1      -5.812  48.426 -20.194  1.00  0.00     0.009 C 
HETATM   20  C27 UNL     1      -6.705  49.559 -20.721  1.00  0.00     0.007 C 
HETATM   21  C28 UNL     1      -6.503  49.975 -22.180  1.00  0.00     0.011 C 
HETATM   22  C29 UNL     1      -5.209  49.530 -22.932  1.00  0.00    -0.032 C 
HETATM   23  C30 UNL     1      -5.706  49.236 -24.395  1.00  0.00     0.016 C 
ENDROOT
BRANCH   1  24
HETATM   24  C2  UNL     1      -0.854  51.407 -24.879  1.00  0.00    -0.084 C 
HETATM   25  C1  UNL     1       0.332  52.026 -24.737  1.00  0.00     0.014 C 
BRANCH  24  26
HETATM   26  C3  UNL     1      -1.138  50.636 -26.160  1.00  0.00     0.037 C 
BRANCH  26  27
HETATM   27  C4  UNL     1      -2.029  51.400 -27.146  1.00  0.00     0.031 C 
BRANCH  27  28
HETATM   28  C5  UNL     1      -3.065  50.497 -27.763  1.00  0.00    -0.024 C 
HETATM   29  C6  UNL     1      -3.375  49.239 -27.393  1.00  0.00    -0.091 C 
HETATM   30  C7  UNL     1      -2.686  48.468 -26.299  1.00  0.00     0.042 C 
HETATM   31  C8  UNL     1      -4.469  48.476 -28.095  1.00  0.00     0.042 C 
ENDBRANCH  27  28
ENDBRANCH  26  27
ENDBRANCH  24  26
ENDBRANCH   1  24
TORSDOF 4
ENDMDL
