MODEL 1
REMARK minimizedAffinity -9.27812862
REMARK CNNscore 0.477732688
REMARK CNNaffinity 7.44324493
REMARK  18 active torsions:
REMARK  status: ('A' for Active; 'I' for Inactive)
REMARK    1  A    between atoms: C2_2  and  C4_4 
REMARK    2  A    between atoms: C4_4  and  N1_5 
REMARK    3  A    between atoms: C4_4  and  C30_38 
REMARK       I    between atoms: N1_5  and  C5_6 
REMARK    4  A    between atoms: C5_6  and  C6_8 
REMARK    5  A    between atoms: C6_8  and  C7_9 
REMARK    6  A    between atoms: C7_9  and  C8_10 
REMARK    7  A    between atoms: C8_10  and  O3_12 
REMARK    8  A    between atoms: O3_12  and  C9_13 
REMARK    9  A    between atoms: C9_13  and  C10_14 
REMARK   10  A    between atoms: C10_14  and  C11_16 
REMARK   11  A    between atoms: C11_16  and  O5_17 
REMARK   12  A    between atoms: C26_33  and  O7_34 
REMARK       I    between atoms: C30_38  and  N2_40 
REMARK   13  A    between atoms: N2_40  and  C31_41 
REMARK   14  A    between atoms: C31_41  and  C32_42 
REMARK   15  A    between atoms: C32_42  and  C33_43 
REMARK   16  A    between atoms: C32_42  and  C35_47 
REMARK   17  A    between atoms: C33_43  and  C34_44 
REMARK   18  A    between atoms: C34_44  and  O10_46 
ROOT
HETATM    1  C8  UNL     1      -3.154   3.450  11.760  1.00  0.00     0.259 C 
HETATM    2  O2  UNL     1      -2.793   2.287  11.863  1.00  0.00    -0.265 OA
ENDROOT
BRANCH   1   3
HETATM    3  C7  UNL     1      -4.563   3.941  11.955  1.00  0.00     0.120 C 
BRANCH   3   4
HETATM    4  C6  UNL     1      -5.541   2.779  12.080  1.00  0.00     0.112 C 
BRANCH   4   5
HETATM    5  C5  UNL     1      -6.742   3.145  12.922  1.00  0.00     0.218 C 
HETATM    6  N1  UNL     1      -6.517   4.244  13.720  1.00  0.00    -0.347 N 
HETATM    7  H9  UNL     1      -5.627   4.715  13.635  1.00  0.00     0.163 HD
HETATM    8  O1  UNL     1      -7.799   2.536  12.890  1.00  0.00    -0.274 OA
BRANCH   6   9
HETATM    9  C4  UNL     1      -7.601   4.913  14.461  1.00  0.00     0.179 C 
BRANCH   9  10
HETATM   10  C2  UNL     1      -7.032   5.567  15.738  1.00  0.00     0.009 C 
HETATM   11  C1  UNL     1      -5.664   6.225  15.505  1.00  0.00     0.012 C 
HETATM   12  C3  UNL     1      -8.000   6.632  16.273  1.00  0.00     0.012 C 
ENDBRANCH   9  10
BRANCH   9  13
HETATM   13  C30 UNL     1      -8.299   5.954  13.548  1.00  0.00     0.240 C 
HETATM   14  O8  UNL     1      -7.691   6.601  12.694  1.00  0.00    -0.271 OA
HETATM   15  N2  UNL     1      -9.680   5.985  13.656  1.00  0.00    -0.359 N 
HETATM   16  H43 UNL     1     -10.138   5.213  14.111  1.00  0.00     0.162 HD
BRANCH  15  17
HETATM   17  C31 UNL     1     -10.490   6.738  12.709  1.00  0.00     0.132 C 
BRANCH  17  18
HETATM   18  C32 UNL     1     -11.460   7.705  13.418  1.00  0.00     0.046 C 
BRANCH  18  19
HETATM   19  C33 UNL     1     -10.894   8.270  14.736  1.00  0.00     0.120 C 
BRANCH  19  20
HETATM   20  C34 UNL     1     -10.964   9.761  14.905  1.00  0.00     0.140 C 
HETATM   21  O9  UNL     1     -10.957  10.399  15.946  1.00  0.00    -0.650 OA
BRANCH  20  22
HETATM   22  O10 UNL     1     -10.947  10.406  13.721  1.00  0.00    -0.776 OA
HETATM   23  H49 UNL     1     -10.937  11.359  13.962  1.00  0.00     0.167 HD
ENDBRANCH  20  22
ENDBRANCH  19  20
ENDBRANCH  18  19
BRANCH  18  24
HETATM   24  C35 UNL     1     -12.875   7.161  13.565  1.00  0.00    -0.052 A 
HETATM   25  C36 UNL     1     -13.190   6.103  14.427  1.00  0.00     0.007 A 
HETATM   26  C37 UNL     1     -14.497   5.612  14.506  1.00  0.00     0.001 A 
HETATM   27  C38 UNL     1     -15.502   6.173  13.723  1.00  0.00     0.000 A 
HETATM   28  C39 UNL     1     -15.206   7.235  12.875  1.00  0.00     0.001 A 
HETATM   29  C40 UNL     1     -13.907   7.731  12.804  1.00  0.00     0.007 A 
ENDBRANCH  18  24
ENDBRANCH  17  18
ENDBRANCH  15  17
ENDBRANCH   9  13
ENDBRANCH   6   9
ENDBRANCH   4   5
ENDBRANCH   3   4
ENDBRANCH   1   3
BRANCH   1  30
HETATM   30  O3  UNL     1      -2.336   4.498  11.466  1.00  0.00    -0.314 OA
BRANCH  30  31
HETATM   31  C9  UNL     1      -1.606   4.980  12.594  1.00  0.00     0.260 C 
BRANCH  31  32
HETATM   32  C10 UNL     1      -2.136   6.358  12.959  1.00  0.00     0.185 C 
HETATM   33  O4  UNL     1      -3.142   6.787  12.392  1.00  0.00    -0.292 OA
BRANCH  32  34
HETATM   34  C11 UNL     1      -1.312   7.199  13.966  1.00  0.00     0.128 C 
HETATM   35  C12 UNL     1      -0.244   6.269  14.574  1.00  0.00     0.047 C 
HETATM   36  C13 UNL     1       0.901   7.196  14.958  1.00  0.00     0.009 C 
HETATM   37  C14 UNL     1       0.984   8.189  13.788  1.00  0.00     0.002 C 
HETATM   38  C15 UNL     1       1.884   7.619  12.657  1.00  0.00    -0.002 C 
HETATM   39  C28 UNL     1      -0.511   8.479  13.451  1.00  0.00     0.001 C 
HETATM   40  C16 UNL     1       3.363   7.828  13.071  1.00  0.00     0.010 C 
HETATM   41  C25 UNL     1       1.648   8.239  11.261  1.00  0.00     0.031 C 
HETATM   42  C17 UNL     1       4.390   7.644  11.952  1.00  0.00     0.035 C 
HETATM   43  C18 UNL     1       3.807   6.894  10.797  1.00  0.00    -0.068 C 
HETATM   44  C19 UNL     1       4.350   5.727  10.413  1.00  0.00     0.053 C 
HETATM   45  C23 UNL     1       2.563   7.524  10.155  1.00  0.00    -0.014 C 
HETATM   46  C20 UNL     1       3.787   4.930   9.300  1.00  0.00     0.149 C 
HETATM   47  O6  UNL     1       4.254   3.826   9.048  1.00  0.00    -0.293 OA
HETATM   48  C21 UNL     1       2.677   5.545   8.486  1.00  0.00     0.084 C 
HETATM   49  C22 UNL     1       1.793   6.411   9.380  1.00  0.00     0.022 C 
HETATM   50  C24 UNL     1       3.037   8.595   9.131  1.00  0.00     0.020 C 
HETATM   51  C26 UNL     1       0.146   8.229  10.926  1.00  0.00     0.124 C 
HETATM   52  C27 UNL     1      -0.706   8.910  11.987  1.00  0.00     0.045 C 
HETATM   53  C29 UNL     1      -0.933   9.731  14.286  1.00  0.00     0.019 C 
BRANCH  34  54
HETATM   54  O5  UNL     1      -2.155   7.556  15.071  1.00  0.00    -0.381 OA
HETATM   55  H16 UNL     1      -2.890   8.111  14.744  1.00  0.00     0.211 HD
ENDBRANCH  34  54
BRANCH  51  56
HETATM   56  O7  UNL     1      -0.078   8.916   9.696  1.00  0.00    -0.395 OA
HETATM   57  H37 UNL     1      -1.011   8.749   9.441  1.00  0.00     0.210 HD
ENDBRANCH  51  56
ENDBRANCH  32  34
ENDBRANCH  31  32
ENDBRANCH  30  31
ENDBRANCH   1  30
TORSDOF 18
ENDMDL
MODEL 2
REMARK minimizedAffinity -8.33286667
REMARK CNNscore 0.319681734
REMARK CNNaffinity 6.6606636
REMARK  18 active torsions:
REMARK  status: ('A' for Active; 'I' for Inactive)
REMARK    1  A    between atoms: C2_2  and  C4_4 
REMARK    2  A    between atoms: C4_4  and  N1_5 
REMARK    3  A    between atoms: C4_4  and  C30_38 
REMARK       I    between atoms: N1_5  and  C5_6 
REMARK    4  A    between atoms: C5_6  and  C6_8 
REMARK    5  A    between atoms: C6_8  and  C7_9 
REMARK    6  A    between atoms: C7_9  and  C8_10 
REMARK    7  A    between atoms: C8_10  and  O3_12 
REMARK    8  A    between atoms: O3_12  and  C9_13 
REMARK    9  A    between atoms: C9_13  and  C10_14 
REMARK   10  A    between atoms: C10_14  and  C11_16 
REMARK   11  A    between atoms: C11_16  and  O5_17 
REMARK   12  A    between atoms: C26_33  and  O7_34 
REMARK       I    between atoms: C30_38  and  N2_40 
REMARK   13  A    between atoms: N2_40  and  C31_41 
REMARK   14  A    between atoms: C31_41  and  C32_42 
REMARK   15  A    between atoms: C32_42  and  C33_43 
REMARK   16  A    between atoms: C32_42  and  C35_47 
REMARK   17  A    between atoms: C33_43  and  C34_44 
REMARK   18  A    between atoms: C34_44  and  O10_46 
ROOT
HETATM    1  C8  UNL     1     -15.543   6.884  12.385  1.00  0.00     0.259 C 
HETATM    2  O2  UNL     1     -15.722   7.180  11.213  1.00  0.00    -0.265 OA
ENDROOT
BRANCH   1   3
HETATM    3  C7  UNL     1     -14.494   7.484  13.281  1.00  0.00     0.120 C 
BRANCH   3   4
HETATM    4  C6  UNL     1     -13.333   6.521  13.496  1.00  0.00     0.112 C 
BRANCH   4   5
HETATM    5  C5  UNL     1     -11.997   7.193  13.270  1.00  0.00     0.218 C 
HETATM    6  N1  UNL     1     -10.979   6.604  13.987  1.00  0.00    -0.347 N 
HETATM    7  H9  UNL     1     -11.199   5.783  14.532  1.00  0.00     0.163 HD
HETATM    8  O1  UNL     1     -11.839   8.147  12.526  1.00  0.00    -0.274 OA
BRANCH   6   9
HETATM    9  C4  UNL     1      -9.563   6.945  13.765  1.00  0.00     0.179 C 
BRANCH   9  10
HETATM   10  C2  UNL     1      -8.925   7.409  15.091  1.00  0.00     0.009 C 
HETATM   11  C1  UNL     1      -8.516   6.235  15.992  1.00  0.00     0.012 C 
HETATM   12  C3  UNL     1      -7.683   8.269  14.817  1.00  0.00     0.012 C 
ENDBRANCH   9  10
BRANCH   9  13
HETATM   13  C30 UNL     1      -8.815   5.724  13.167  1.00  0.00     0.240 C 
HETATM   14  O8  UNL     1      -8.634   5.585  11.957  1.00  0.00    -0.271 OA
HETATM   15  N2  UNL     1      -8.229   4.889  14.104  1.00  0.00    -0.359 N 
HETATM   16  H43 UNL     1      -8.122   5.230  15.045  1.00  0.00     0.162 HD
BRANCH  15  17
HETATM   17  C31 UNL     1      -7.308   3.837  13.700  1.00  0.00     0.132 C 
BRANCH  17  18
HETATM   18  C32 UNL     1      -6.176   4.372  12.800  1.00  0.00     0.046 C 
BRANCH  18  19
HETATM   19  C33 UNL     1      -5.740   3.367  11.715  1.00  0.00     0.120 C 
BRANCH  19  20
HETATM   20  C34 UNL     1      -6.465   2.052  11.697  1.00  0.00     0.140 C 
HETATM   21  O9  UNL     1      -6.165   1.038  11.084  1.00  0.00    -0.650 OA
BRANCH  20  22
HETATM   22  O10 UNL     1      -7.513   2.040  12.545  1.00  0.00    -0.776 OA
HETATM   23  H49 UNL     1      -7.863   1.123  12.488  1.00  0.00     0.167 HD
ENDBRANCH  20  22
ENDBRANCH  19  20
ENDBRANCH  18  19
BRANCH  18  24
HETATM   24  C35 UNL     1      -5.001   4.960  13.570  1.00  0.00    -0.052 A 
HETATM   25  C36 UNL     1      -5.164   5.923  14.573  1.00  0.00     0.007 A 
HETATM   26  C37 UNL     1      -4.054   6.462  15.232  1.00  0.00     0.001 A 
HETATM   27  C38 UNL     1      -2.771   6.043  14.894  1.00  0.00     0.000 A 
HETATM   28  C39 UNL     1      -2.596   5.075  13.911  1.00  0.00     0.001 A 
HETATM   29  C40 UNL     1      -3.701   4.531  13.262  1.00  0.00     0.007 A 
ENDBRANCH  18  24
ENDBRANCH  17  18
ENDBRANCH  15  17
ENDBRANCH   9  13
ENDBRANCH   6   9
ENDBRANCH   4   5
ENDBRANCH   3   4
ENDBRANCH   1   3
BRANCH   1  30
HETATM   30  O3  UNL     1     -16.277   5.970  13.078  1.00  0.00    -0.314 OA
BRANCH  30  31
HETATM   31  C9  UNL     1     -17.643   5.912  12.668  1.00  0.00     0.260 C 
BRANCH  31  32
HETATM   32  C10 UNL     1     -18.277   4.670  13.275  1.00  0.00     0.185 C 
HETATM   33  O4  UNL     1     -19.348   4.257  12.826  1.00  0.00    -0.292 OA
BRANCH  32  34
HETATM   34  C11 UNL     1     -17.582   4.041  14.509  1.00  0.00     0.128 C 
HETATM   35  C12 UNL     1     -18.669   3.813  15.579  1.00  0.00     0.047 C 
HETATM   36  C13 UNL     1     -18.158   2.640  16.403  1.00  0.00     0.009 C 
HETATM   37  C14 UNL     1     -17.560   1.683  15.359  1.00  0.00     0.002 C 
HETATM   38  C15 UNL     1     -18.663   0.746  14.792  1.00  0.00    -0.002 C 
HETATM   39  C28 UNL     1     -16.836   2.640  14.363  1.00  0.00     0.001 C 
HETATM   40  C16 UNL     1     -18.914  -0.379  15.826  1.00  0.00     0.010 C 
HETATM   41  C25 UNL     1     -18.340   0.118  13.416  1.00  0.00     0.031 C 
HETATM   42  C17 UNL     1     -19.710  -1.579  15.311  1.00  0.00     0.035 C 
HETATM   43  C18 UNL     1     -20.443  -1.244  14.051  1.00  0.00    -0.068 C 
HETATM   44  C19 UNL     1     -21.783  -1.339  14.009  1.00  0.00     0.053 C 
HETATM   45  C23 UNL     1     -19.573  -0.759  12.884  1.00  0.00    -0.014 C 
HETATM   46  C20 UNL     1     -22.556  -0.984  12.798  1.00  0.00     0.149 C 
HETATM   47  O6  UNL     1     -23.780  -0.992  12.836  1.00  0.00    -0.293 OA
HETATM   48  C21 UNL     1     -21.786  -0.669  11.541  1.00  0.00     0.084 C 
HETATM   49  C22 UNL     1     -20.478   0.034  11.892  1.00  0.00     0.022 C 
HETATM   50  C24 UNL     1     -19.013  -2.008  12.145  1.00  0.00     0.020 C 
HETATM   51  C26 UNL     1     -17.883   1.209  12.432  1.00  0.00     0.124 C 
HETATM   52  C27 UNL     1     -16.714   2.032  12.954  1.00  0.00     0.045 C 
HETATM   53  C29 UNL     1     -15.359   2.780  14.856  1.00  0.00     0.019 C 
BRANCH  34  54
HETATM   54  O5  UNL     1     -16.700   5.013  15.089  1.00  0.00    -0.381 OA
HETATM   55  H16 UNL     1     -16.008   5.243  14.438  1.00  0.00     0.211 HD
ENDBRANCH  34  54
BRANCH  51  56
HETATM   56  O7  UNL     1     -17.465   0.608  11.207  1.00  0.00    -0.395 OA
HETATM   57  H37 UNL     1     -17.337   1.336  10.561  1.00  0.00     0.210 HD
ENDBRANCH  51  56
ENDBRANCH  32  34
ENDBRANCH  31  32
ENDBRANCH  30  31
ENDBRANCH   1  30
TORSDOF 18
ENDMDL
MODEL 3
REMARK minimizedAffinity -8.76676464
REMARK CNNscore 0.263104945
REMARK CNNaffinity 7.02922058
REMARK  18 active torsions:
REMARK  status: ('A' for Active; 'I' for Inactive)
REMARK    1  A    between atoms: C2_2  and  C4_4 
REMARK    2  A    between atoms: C4_4  and  N1_5 
REMARK    3  A    between atoms: C4_4  and  C30_38 
REMARK       I    between atoms: N1_5  and  C5_6 
REMARK    4  A    between atoms: C5_6  and  C6_8 
REMARK    5  A    between atoms: C6_8  and  C7_9 
REMARK    6  A    between atoms: C7_9  and  C8_10 
REMARK    7  A    between atoms: C8_10  and  O3_12 
REMARK    8  A    between atoms: O3_12  and  C9_13 
REMARK    9  A    between atoms: C9_13  and  C10_14 
REMARK   10  A    between atoms: C10_14  and  C11_16 
REMARK   11  A    between atoms: C11_16  and  O5_17 
REMARK   12  A    between atoms: C26_33  and  O7_34 
REMARK       I    between atoms: C30_38  and  N2_40 
REMARK   13  A    between atoms: N2_40  and  C31_41 
REMARK   14  A    between atoms: C31_41  and  C32_42 
REMARK   15  A    between atoms: C32_42  and  C33_43 
REMARK   16  A    between atoms: C32_42  and  C35_47 
REMARK   17  A    between atoms: C33_43  and  C34_44 
REMARK   18  A    between atoms: C34_44  and  O10_46 
ROOT
HETATM    1  C8  UNL     1      -4.440   3.979  12.108  1.00  0.00     0.259 C 
HETATM    2  O2  UNL     1      -4.010   3.905  10.967  1.00  0.00    -0.265 OA
ENDROOT
BRANCH   1   3
HETATM    3  C7  UNL     1      -5.728   3.368  12.590  1.00  0.00     0.120 C 
BRANCH   3   4
HETATM    4  C6  UNL     1      -6.914   4.280  12.305  1.00  0.00     0.112 C 
BRANCH   4   5
HETATM    5  C5  UNL     1      -7.522   4.825  13.577  1.00  0.00     0.218 C 
HETATM    6  N1  UNL     1      -8.177   6.021  13.383  1.00  0.00    -0.347 N 
HETATM    7  H9  UNL     1      -8.233   6.381  12.441  1.00  0.00     0.163 HD
HETATM    8  O1  UNL     1      -7.447   4.260  14.656  1.00  0.00    -0.274 OA
BRANCH   6   9
HETATM    9  C4  UNL     1      -9.025   6.631  14.422  1.00  0.00     0.179 C 
BRANCH   9  10
HETATM   10  C2  UNL     1      -8.407   7.968  14.880  1.00  0.00     0.009 C 
HETATM   11  C1  UNL     1      -9.465   8.974  15.358  1.00  0.00     0.012 C 
HETATM   12  C3  UNL     1      -7.406   7.734  16.020  1.00  0.00     0.012 C 
ENDBRANCH   9  10
BRANCH   9  13
HETATM   13  C30 UNL     1     -10.466   6.822  13.880  1.00  0.00     0.240 C 
HETATM   14  O8  UNL     1     -10.698   7.212  12.735  1.00  0.00    -0.271 OA
HETATM   15  N2  UNL     1     -11.467   6.370  14.725  1.00  0.00    -0.359 N 
HETATM   16  H43 UNL     1     -11.209   5.762  15.485  1.00  0.00     0.162 HD
BRANCH  15  17
HETATM   17  C31 UNL     1     -12.846   6.270  14.269  1.00  0.00     0.132 C 
BRANCH  17  18
HETATM   18  C32 UNL     1     -13.722   7.414  14.817  1.00  0.00     0.046 C 
BRANCH  18  19
HETATM   19  C33 UNL     1     -14.667   6.962  15.948  1.00  0.00     0.120 C 
BRANCH  19  20
HETATM   20  C34 UNL     1     -14.687   7.820  17.180  1.00  0.00     0.140 C 
HETATM   21  O9  UNL     1     -14.650   9.039  17.248  1.00  0.00    -0.650 OA
BRANCH  20  22
HETATM   22  O10 UNL     1     -14.851   7.090  18.303  1.00  0.00    -0.776 OA
HETATM   23  H49 UNL     1     -14.907   7.757  19.022  1.00  0.00     0.167 HD
ENDBRANCH  20  22
ENDBRANCH  19  20
ENDBRANCH  18  19
BRANCH  18  24
HETATM   24  C35 UNL     1     -14.432   8.219  13.736  1.00  0.00    -0.052 A 
HETATM   25  C36 UNL     1     -13.890   9.388  13.189  1.00  0.00     0.007 A 
HETATM   26  C37 UNL     1     -14.592  10.115  12.222  1.00  0.00     0.001 A 
HETATM   27  C38 UNL     1     -15.843   9.681  11.795  1.00  0.00     0.000 A 
HETATM   28  C39 UNL     1     -16.386   8.512  12.318  1.00  0.00     0.001 A 
HETATM   29  C40 UNL     1     -15.683   7.782  13.272  1.00  0.00     0.007 A 
ENDBRANCH  18  24
ENDBRANCH  17  18
ENDBRANCH  15  17
ENDBRANCH   9  13
ENDBRANCH   6   9
ENDBRANCH   4   5
ENDBRANCH   3   4
ENDBRANCH   1   3
BRANCH   1  30
HETATM   30  O3  UNL     1      -3.815   4.615  13.137  1.00  0.00    -0.314 OA
BRANCH  30  31
HETATM   31  C9  UNL     1      -3.528   5.987  12.864  1.00  0.00     0.260 C 
BRANCH  31  32
HETATM   32  C10 UNL     1      -2.019   6.162  12.809  1.00  0.00     0.185 C 
HETATM   33  O4  UNL     1      -1.340   5.358  12.168  1.00  0.00    -0.292 OA
BRANCH  32  34
HETATM   34  C11 UNL     1      -1.398   7.300  13.658  1.00  0.00     0.128 C 
HETATM   35  C12 UNL     1      -0.215   6.694  14.440  1.00  0.00     0.047 C 
HETATM   36  C13 UNL     1       0.736   7.861  14.666  1.00  0.00     0.009 C 
HETATM   37  C14 UNL     1       0.701   8.632  13.336  1.00  0.00     0.002 C 
HETATM   38  C15 UNL     1       1.736   8.039  12.341  1.00  0.00    -0.002 C 
HETATM   39  C28 UNL     1      -0.804   8.589  12.931  1.00  0.00     0.001 C 
HETATM   40  C16 UNL     1       3.137   8.574  12.730  1.00  0.00     0.010 C 
HETATM   41  C25 UNL     1       1.462   8.351  10.851  1.00  0.00     0.031 C 
HETATM   42  C17 UNL     1       4.231   8.380  11.679  1.00  0.00     0.035 C 
HETATM   43  C18 UNL     1       3.837   7.348  10.671  1.00  0.00    -0.068 C 
HETATM   44  C19 UNL     1       4.589   6.245  10.513  1.00  0.00     0.053 C 
HETATM   45  C23 UNL     1       2.536   7.625   9.907  1.00  0.00    -0.014 C 
HETATM   46  C20 UNL     1       4.222   5.178   9.554  1.00  0.00     0.149 C 
HETATM   47  O6  UNL     1       4.882   4.147   9.514  1.00  0.00    -0.293 OA
HETATM   48  C21 UNL     1       3.062   5.435   8.627  1.00  0.00     0.084 C 
HETATM   49  C22 UNL     1       2.003   6.275   9.336  1.00  0.00     0.022 C 
HETATM   50  C24 UNL     1       2.865   8.566   8.713  1.00  0.00     0.020 C 
HETATM   51  C26 UNL     1       0.001   8.018  10.503  1.00  0.00     0.124 C 
HETATM   52  C27 UNL     1      -1.003   8.714  11.410  1.00  0.00     0.045 C 
HETATM   53  C29 UNL     1      -1.472   9.875  13.519  1.00  0.00     0.019 C 
BRANCH  34  54
HETATM   54  O5  UNL     1      -2.339   7.691  14.668  1.00  0.00    -0.381 OA
HETATM   55  H16 UNL     1      -3.142   8.042  14.235  1.00  0.00     0.211 HD
ENDBRANCH  34  54
BRANCH  51  56
HETATM   56  O7  UNL     1      -0.281   8.428   9.165  1.00  0.00    -0.395 OA
HETATM   57  H37 UNL     1      -1.159   8.056   8.931  1.00  0.00     0.210 HD
ENDBRANCH  51  56
ENDBRANCH  32  34
ENDBRANCH  31  32
ENDBRANCH  30  31
ENDBRANCH   1  30
TORSDOF 18
ENDMDL
MODEL 4
REMARK minimizedAffinity -7.86341095
REMARK CNNscore 0.250168979
REMARK CNNaffinity 6.80190802
REMARK  18 active torsions:
REMARK  status: ('A' for Active; 'I' for Inactive)
REMARK    1  A    between atoms: C2_2  and  C4_4 
REMARK    2  A    between atoms: C4_4  and  N1_5 
REMARK    3  A    between atoms: C4_4  and  C30_38 
REMARK       I    between atoms: N1_5  and  C5_6 
REMARK    4  A    between atoms: C5_6  and  C6_8 
REMARK    5  A    between atoms: C6_8  and  C7_9 
REMARK    6  A    between atoms: C7_9  and  C8_10 
REMARK    7  A    between atoms: C8_10  and  O3_12 
REMARK    8  A    between atoms: O3_12  and  C9_13 
REMARK    9  A    between atoms: C9_13  and  C10_14 
REMARK   10  A    between atoms: C10_14  and  C11_16 
REMARK   11  A    between atoms: C11_16  and  O5_17 
REMARK   12  A    between atoms: C26_33  and  O7_34 
REMARK       I    between atoms: C30_38  and  N2_40 
REMARK   13  A    between atoms: N2_40  and  C31_41 
REMARK   14  A    between atoms: C31_41  and  C32_42 
REMARK   15  A    between atoms: C32_42  and  C33_43 
REMARK   16  A    between atoms: C32_42  and  C35_47 
REMARK   17  A    between atoms: C33_43  and  C34_44 
REMARK   18  A    between atoms: C34_44  and  O10_46 
ROOT
HETATM    1  C8  UNL     1      -7.957   6.581  14.230  1.00  0.00     0.259 C 
HETATM    2  O2  UNL     1      -8.258   5.929  13.241  1.00  0.00    -0.265 OA
ENDROOT
BRANCH   1   3
HETATM    3  C7  UNL     1      -6.849   6.240  15.190  1.00  0.00     0.120 C 
BRANCH   3   4
HETATM    4  C6  UNL     1      -5.621   7.109  14.947  1.00  0.00     0.112 C 
BRANCH   4   5
HETATM    5  C5  UNL     1      -4.722   6.525  13.881  1.00  0.00     0.218 C 
HETATM    6  N1  UNL     1      -4.250   5.274  14.211  1.00  0.00    -0.347 N 
HETATM    7  H9  UNL     1      -4.575   4.859  15.072  1.00  0.00     0.163 HD
HETATM    8  O1  UNL     1      -4.453   7.098  12.838  1.00  0.00    -0.274 OA
BRANCH   6   9
HETATM    9  C4  UNL     1      -3.537   4.422  13.242  1.00  0.00     0.179 C 
BRANCH   9  10
HETATM   10  C2  UNL     1      -4.544   3.812  12.246  1.00  0.00     0.009 C 
HETATM   11  C1  UNL     1      -4.053   2.485  11.648  1.00  0.00     0.012 C 
HETATM   12  C3  UNL     1      -5.896   3.566  12.931  1.00  0.00     0.012 C 
ENDBRANCH   9  10
BRANCH   9  13
HETATM   13  C30 UNL     1      -2.445   5.250  12.517  1.00  0.00     0.240 C 
HETATM   14  O8  UNL     1      -2.355   5.299  11.290  1.00  0.00    -0.271 OA
HETATM   15  N2  UNL     1      -1.681   6.053  13.348  1.00  0.00    -0.359 N 
HETATM   16  H43 UNL     1      -2.016   6.227  14.281  1.00  0.00     0.162 HD
BRANCH  15  17
HETATM   17  C31 UNL     1      -0.775   7.053  12.800  1.00  0.00     0.132 C 
BRANCH  17  18
HETATM   18  C32 UNL     1       0.419   6.412  12.064  1.00  0.00     0.046 C 
BRANCH  18  19
HETATM   19  C33 UNL     1       1.694   6.344  12.928  1.00  0.00     0.120 C 
BRANCH  19  20
HETATM   20  C34 UNL     1       2.229   7.654  13.429  1.00  0.00     0.140 C 
HETATM   21  O9  UNL     1       1.746   8.767  13.285  1.00  0.00    -0.650 OA
BRANCH  20  22
HETATM   22  O10 UNL     1       3.331   7.493  14.190  1.00  0.00    -0.776 OA
HETATM   23  H49 UNL     1       3.547   8.400  14.502  1.00  0.00     0.167 HD
ENDBRANCH  20  22
ENDBRANCH  19  20
ENDBRANCH  18  19
BRANCH  18  24
HETATM   24  C35 UNL     1       0.671   6.990  10.678  1.00  0.00    -0.052 A 
HETATM   25  C36 UNL     1      -0.079   8.050  10.155  1.00  0.00     0.007 A 
HETATM   26  C37 UNL     1       0.164   8.527   8.863  1.00  0.00     0.001 A 
HETATM   27  C38 UNL     1       1.160   7.949   8.082  1.00  0.00     0.000 A 
HETATM   28  C39 UNL     1       1.925   6.907   8.595  1.00  0.00     0.001 A 
HETATM   29  C40 UNL     1       1.689   6.438   9.885  1.00  0.00     0.007 A 
ENDBRANCH  18  24
ENDBRANCH  17  18
ENDBRANCH  15  17
ENDBRANCH   9  13
ENDBRANCH   6   9
ENDBRANCH   4   5
ENDBRANCH   3   4
ENDBRANCH   1   3
BRANCH   1  30
HETATM   30  O3  UNL     1      -8.568   7.734  14.619  1.00  0.00    -0.314 OA
BRANCH  30  31
HETATM   31  C9  UNL     1      -9.723   7.518  15.430  1.00  0.00     0.260 C 
BRANCH  31  32
HETATM   32  C10 UNL     1     -10.956   7.601  14.544  1.00  0.00     0.185 C 
HETATM   33  O4  UNL     1     -11.436   6.566  14.077  1.00  0.00    -0.292 OA
BRANCH  32  34
HETATM   34  C11 UNL     1     -11.491   9.011  14.190  1.00  0.00     0.128 C 
HETATM   35  C12 UNL     1     -11.985   8.960  12.731  1.00  0.00     0.047 C 
HETATM   36  C13 UNL     1     -13.070  10.026  12.653  1.00  0.00     0.009 C 
HETATM   37  C14 UNL     1     -13.834   9.875  13.978  1.00  0.00     0.002 C 
HETATM   38  C15 UNL     1     -14.946   8.799  13.841  1.00  0.00    -0.002 C 
HETATM   39  C28 UNL     1     -12.704   9.625  15.023  1.00  0.00     0.001 C 
HETATM   40  C16 UNL     1     -16.148   9.441  13.105  1.00  0.00     0.010 C 
HETATM   41  C25 UNL     1     -15.429   8.186  15.176  1.00  0.00     0.031 C 
HETATM   42  C17 UNL     1     -17.457   8.654  13.173  1.00  0.00     0.035 C 
HETATM   43  C18 UNL     1     -17.217   7.233  13.571  1.00  0.00    -0.068 C 
HETATM   44  C19 UNL     1     -17.578   6.235  12.747  1.00  0.00     0.053 C 
HETATM   45  C23 UNL     1     -16.510   7.030  14.918  1.00  0.00    -0.014 C 
HETATM   46  C20 UNL     1     -17.328   4.815  13.080  1.00  0.00     0.149 C 
HETATM   47  O6  UNL     1     -17.585   3.944  12.257  1.00  0.00    -0.293 OA
HETATM   48  C21 UNL     1     -16.804   4.498  14.458  1.00  0.00     0.084 C 
HETATM   49  C22 UNL     1     -15.869   5.608  14.928  1.00  0.00     0.022 C 
HETATM   50  C24 UNL     1     -17.583   7.091  16.043  1.00  0.00     0.020 C 
HETATM   51  C26 UNL     1     -14.221   7.732  16.016  1.00  0.00     0.124 C 
HETATM   52  C27 UNL     1     -13.205   8.841  16.249  1.00  0.00     0.045 C 
HETATM   53  C29 UNL     1     -12.293  11.021  15.595  1.00  0.00     0.019 C 
BRANCH  34  54
HETATM   54  O5  UNL     1     -10.390   9.932  14.169  1.00  0.00    -0.381 OA
HETATM   55  H16 UNL     1      -9.994   9.975  15.061  1.00  0.00     0.211 HD
ENDBRANCH  34  54
BRANCH  51  56
HETATM   56  O7  UNL     1     -14.665   7.287  17.297  1.00  0.00    -0.395 OA
HETATM   57  H37 UNL     1     -13.897   6.862  17.734  1.00  0.00     0.210 HD
ENDBRANCH  51  56
ENDBRANCH  32  34
ENDBRANCH  31  32
ENDBRANCH  30  31
ENDBRANCH   1  30
TORSDOF 18
ENDMDL
MODEL 5
REMARK minimizedAffinity -8.6152935
REMARK CNNscore 0.244376123
REMARK CNNaffinity 6.49138069
REMARK  18 active torsions:
REMARK  status: ('A' for Active; 'I' for Inactive)
REMARK    1  A    between atoms: C2_2  and  C4_4 
REMARK    2  A    between atoms: C4_4  and  N1_5 
REMARK    3  A    between atoms: C4_4  and  C30_38 
REMARK       I    between atoms: N1_5  and  C5_6 
REMARK    4  A    between atoms: C5_6  and  C6_8 
REMARK    5  A    between atoms: C6_8  and  C7_9 
REMARK    6  A    between atoms: C7_9  and  C8_10 
REMARK    7  A    between atoms: C8_10  and  O3_12 
REMARK    8  A    between atoms: O3_12  and  C9_13 
REMARK    9  A    between atoms: C9_13  and  C10_14 
REMARK   10  A    between atoms: C10_14  and  C11_16 
REMARK   11  A    between atoms: C11_16  and  O5_17 
REMARK   12  A    between atoms: C26_33  and  O7_34 
REMARK       I    between atoms: C30_38  and  N2_40 
REMARK   13  A    between atoms: N2_40  and  C31_41 
REMARK   14  A    between atoms: C31_41  and  C32_42 
REMARK   15  A    between atoms: C32_42  and  C33_43 
REMARK   16  A    between atoms: C32_42  and  C35_47 
REMARK   17  A    between atoms: C33_43  and  C34_44 
REMARK   18  A    between atoms: C34_44  and  O10_46 
ROOT
HETATM    1  C8  UNL     1      -5.561   6.215  13.269  1.00  0.00     0.259 C 
HETATM    2  O2  UNL     1      -6.143   5.173  13.008  1.00  0.00    -0.265 OA
ENDROOT
BRANCH   1   3
HETATM    3  C7  UNL     1      -6.127   7.344  14.087  1.00  0.00     0.120 C 
BRANCH   3   4
HETATM    4  C6  UNL     1      -6.250   6.955  15.555  1.00  0.00     0.112 C 
BRANCH   4   5
HETATM    5  C5  UNL     1      -7.606   7.314  16.119  1.00  0.00     0.218 C 
HETATM    6  N1  UNL     1      -8.493   7.726  15.149  1.00  0.00    -0.347 N 
HETATM    7  H9  UNL     1      -8.185   7.703  14.188  1.00  0.00     0.163 HD
HETATM    8  O1  UNL     1      -7.886   7.236  17.304  1.00  0.00    -0.274 OA
BRANCH   6   9
HETATM    9  C4  UNL     1      -9.927   7.919  15.426  1.00  0.00     0.179 C 
BRANCH   9  10
HETATM   10  C2  UNL     1     -10.259   9.425  15.429  1.00  0.00     0.009 C 
HETATM   11  C1  UNL     1     -11.214   9.822  14.294  1.00  0.00     0.012 C 
HETATM   12  C3  UNL     1     -10.895   9.832  16.766  1.00  0.00     0.012 C 
ENDBRANCH   9  10
BRANCH   9  13
HETATM   13  C30 UNL     1     -10.773   7.149  14.379  1.00  0.00     0.240 C 
HETATM   14  O8  UNL     1     -10.296   6.714  13.330  1.00  0.00    -0.271 OA
HETATM   15  N2  UNL     1     -12.064   6.849  14.784  1.00  0.00    -0.359 N 
HETATM   16  H43 UNL     1     -12.285   6.929  15.763  1.00  0.00     0.162 HD
BRANCH  15  17
HETATM   17  C31 UNL     1     -12.901   5.941  14.014  1.00  0.00     0.132 C 
BRANCH  17  18
HETATM   18  C32 UNL     1     -14.355   6.442  13.907  1.00  0.00     0.046 C 
BRANCH  18  19
HETATM   19  C33 UNL     1     -14.529   7.573  12.873  1.00  0.00     0.120 C 
BRANCH  19  20
HETATM   20  C34 UNL     1     -15.697   7.446  11.938  1.00  0.00     0.140 C 
HETATM   21  O9  UNL     1     -16.002   8.183  11.013  1.00  0.00    -0.650 OA
BRANCH  20  22
HETATM   22  O10 UNL     1     -16.398   6.314  12.155  1.00  0.00    -0.776 OA
HETATM   23  H49 UNL     1     -17.088   6.317  11.454  1.00  0.00     0.167 HD
ENDBRANCH  20  22
ENDBRANCH  19  20
ENDBRANCH  18  19
BRANCH  18  24
HETATM   24  C35 UNL     1     -14.998   6.762  15.250  1.00  0.00    -0.052 A 
HETATM   25  C36 UNL     1     -14.734   7.946  15.949  1.00  0.00     0.007 A 
HETATM   26  C37 UNL     1     -15.320   8.184  17.196  1.00  0.00     0.001 A 
HETATM   27  C38 UNL     1     -16.176   7.240  17.756  1.00  0.00     0.000 A 
HETATM   28  C39 UNL     1     -16.461   6.068  17.064  1.00  0.00     0.001 A 
HETATM   29  C40 UNL     1     -15.885   5.835  15.818  1.00  0.00     0.007 A 
ENDBRANCH  18  24
ENDBRANCH  17  18
ENDBRANCH  15  17
ENDBRANCH   9  13
ENDBRANCH   6   9
ENDBRANCH   4   5
ENDBRANCH   3   4
ENDBRANCH   1   3
BRANCH   1  30
HETATM   30  O3  UNL     1      -4.294   6.520  12.873  1.00  0.00    -0.314 OA
BRANCH  30  31
HETATM   31  C9  UNL     1      -3.318   5.580  13.324  1.00  0.00     0.260 C 
BRANCH  31  32
HETATM   32  C10 UNL     1      -1.942   6.076  12.907  1.00  0.00     0.185 C 
HETATM   33  O4  UNL     1      -1.340   5.496  12.002  1.00  0.00    -0.292 OA
BRANCH  32  34
HETATM   34  C11 UNL     1      -1.321   7.237  13.723  1.00  0.00     0.128 C 
HETATM   35  C12 UNL     1      -0.115   6.662  14.492  1.00  0.00     0.047 C 
HETATM   36  C13 UNL     1       0.823   7.847  14.678  1.00  0.00     0.009 C 
HETATM   37  C14 UNL     1       0.751   8.593  13.336  1.00  0.00     0.002 C 
HETATM   38  C15 UNL     1       1.775   7.997  12.331  1.00  0.00    -0.002 C 
HETATM   39  C28 UNL     1      -0.761   8.522  12.962  1.00  0.00     0.001 C 
HETATM   40  C16 UNL     1       3.175   8.559  12.683  1.00  0.00     0.010 C 
HETATM   41  C25 UNL     1       1.467   8.279  10.842  1.00  0.00     0.031 C 
HETATM   42  C17 UNL     1       4.251   8.362  11.613  1.00  0.00     0.035 C 
HETATM   43  C18 UNL     1       3.853   7.306  10.631  1.00  0.00    -0.068 C 
HETATM   44  C19 UNL     1       4.616   6.211  10.478  1.00  0.00     0.053 C 
HETATM   45  C23 UNL     1       2.532   7.551   9.889  1.00  0.00    -0.014 C 
HETATM   46  C20 UNL     1       4.246   5.123   9.546  1.00  0.00     0.149 C 
HETATM   47  O6  UNL     1       4.920   4.100   9.510  1.00  0.00    -0.293 OA
HETATM   48  C21 UNL     1       3.065   5.347   8.638  1.00  0.00     0.084 C 
HETATM   49  C22 UNL     1       2.008   6.184   9.353  1.00  0.00     0.022 C 
HETATM   50  C24 UNL     1       2.825   8.475   8.672  1.00  0.00     0.020 C 
HETATM   51  C26 UNL     1       0.004   7.919  10.528  1.00  0.00     0.124 C 
HETATM   52  C27 UNL     1      -0.992   8.617  11.444  1.00  0.00     0.045 C 
HETATM   53  C29 UNL     1      -1.436   9.808  13.540  1.00  0.00     0.019 C 
BRANCH  34  54
HETATM   54  O5  UNL     1      -2.248   7.633  14.744  1.00  0.00    -0.381 OA
HETATM   55  H16 UNL     1      -3.065   7.964  14.322  1.00  0.00     0.211 HD
ENDBRANCH  34  54
BRANCH  51  56
HETATM   56  O7  UNL     1      -0.310   8.300   9.190  1.00  0.00    -0.395 OA
HETATM   57  H37 UNL     1      -1.187   7.913   8.980  1.00  0.00     0.210 HD
ENDBRANCH  51  56
ENDBRANCH  32  34
ENDBRANCH  31  32
ENDBRANCH  30  31
ENDBRANCH   1  30
TORSDOF 18
ENDMDL
MODEL 6
REMARK minimizedAffinity -8.50822163
REMARK CNNscore 0.220903426
REMARK CNNaffinity 6.70038033
REMARK  18 active torsions:
REMARK  status: ('A' for Active; 'I' for Inactive)
REMARK    1  A    between atoms: C2_2  and  C4_4 
REMARK    2  A    between atoms: C4_4  and  N1_5 
REMARK    3  A    between atoms: C4_4  and  C30_38 
REMARK       I    between atoms: N1_5  and  C5_6 
REMARK    4  A    between atoms: C5_6  and  C6_8 
REMARK    5  A    between atoms: C6_8  and  C7_9 
REMARK    6  A    between atoms: C7_9  and  C8_10 
REMARK    7  A    between atoms: C8_10  and  O3_12 
REMARK    8  A    between atoms: O3_12  and  C9_13 
REMARK    9  A    between atoms: C9_13  and  C10_14 
REMARK   10  A    between atoms: C10_14  and  C11_16 
REMARK   11  A    between atoms: C11_16  and  O5_17 
REMARK   12  A    between atoms: C26_33  and  O7_34 
REMARK       I    between atoms: C30_38  and  N2_40 
REMARK   13  A    between atoms: N2_40  and  C31_41 
REMARK   14  A    between atoms: C31_41  and  C32_42 
REMARK   15  A    between atoms: C32_42  and  C33_43 
REMARK   16  A    between atoms: C32_42  and  C35_47 
REMARK   17  A    between atoms: C33_43  and  C34_44 
REMARK   18  A    between atoms: C34_44  and  O10_46 
ROOT
HETATM    1  C8  UNL     1      -3.511   4.852  12.827  1.00  0.00     0.259 C 
HETATM    2  O2  UNL     1      -4.024   5.913  12.507  1.00  0.00    -0.265 OA
ENDROOT
BRANCH   1   3
HETATM    3  C7  UNL     1      -4.198   3.513  12.802  1.00  0.00     0.120 C 
BRANCH   3   4
HETATM    4  C6  UNL     1      -5.509   3.579  12.028  1.00  0.00     0.112 C 
BRANCH   4   5
HETATM    5  C5  UNL     1      -6.687   3.837  12.940  1.00  0.00     0.218 C 
HETATM    6  N1  UNL     1      -6.866   5.176  13.210  1.00  0.00    -0.347 N 
HETATM    7  H9  UNL     1      -6.252   5.835  12.754  1.00  0.00     0.163 HD
HETATM    8  O1  UNL     1      -7.406   2.955  13.379  1.00  0.00    -0.274 OA
BRANCH   6   9
HETATM    9  C4  UNL     1      -8.067   5.686  13.894  1.00  0.00     0.179 C 
BRANCH   9  10
HETATM   10  C2  UNL     1      -7.666   6.784  14.901  1.00  0.00     0.009 C 
HETATM   11  C1  UNL     1      -7.335   6.219  16.290  1.00  0.00     0.012 C 
HETATM   12  C3  UNL     1      -6.446   7.563  14.388  1.00  0.00     0.012 C 
ENDBRANCH   9  10
BRANCH   9  13
HETATM   13  C30 UNL     1      -9.084   6.212  12.848  1.00  0.00     0.240 C 
HETATM   14  O8  UNL     1      -9.055   5.872  11.665  1.00  0.00    -0.271 OA
HETATM   15  N2  UNL     1     -10.121   6.964  13.377  1.00  0.00    -0.359 N 
HETATM   16  H43 UNL     1     -10.279   6.924  14.370  1.00  0.00     0.162 HD
BRANCH  15  17
HETATM   17  C31 UNL     1     -11.271   7.333  12.564  1.00  0.00     0.132 C 
BRANCH  17  18
HETATM   18  C32 UNL     1     -12.484   7.739  13.425  1.00  0.00     0.046 C 
BRANCH  18  19
HETATM   19  C33 UNL     1     -13.764   6.953  13.072  1.00  0.00     0.120 C 
BRANCH  19  20
HETATM   20  C34 UNL     1     -14.576   6.450  14.230  1.00  0.00     0.140 C 
HETATM   21  O9  UNL     1     -14.386   6.646  15.421  1.00  0.00    -0.650 OA
BRANCH  20  22
HETATM   22  O10 UNL     1     -15.674   5.780  13.825  1.00  0.00    -0.776 OA
HETATM   23  H49 UNL     1     -16.145   5.557  14.659  1.00  0.00     0.167 HD
ENDBRANCH  20  22
ENDBRANCH  19  20
ENDBRANCH  18  19
BRANCH  18  24
HETATM   24  C35 UNL     1     -12.712   9.242  13.500  1.00  0.00    -0.052 A 
HETATM   25  C36 UNL     1     -12.172  10.036  14.519  1.00  0.00     0.007 A 
HETATM   26  C37 UNL     1     -12.435  11.409  14.570  1.00  0.00     0.001 A 
HETATM   27  C38 UNL     1     -13.242  12.000  13.602  1.00  0.00     0.000 A 
HETATM   28  C39 UNL     1     -13.772  11.226  12.575  1.00  0.00     0.001 A 
HETATM   29  C40 UNL     1     -13.501   9.862  12.519  1.00  0.00     0.007 A 
ENDBRANCH  18  24
ENDBRANCH  17  18
ENDBRANCH  15  17
ENDBRANCH   9  13
ENDBRANCH   6   9
ENDBRANCH   4   5
ENDBRANCH   3   4
ENDBRANCH   1   3
BRANCH   1  30
HETATM   30  O3  UNL     1      -2.224   4.703  13.247  1.00  0.00    -0.314 OA
BRANCH  30  31
HETATM   31  C9  UNL     1      -1.916   5.467  14.413  1.00  0.00     0.260 C 
BRANCH  31  32
HETATM   32  C10 UNL     1      -0.506   6.018  14.271  1.00  0.00     0.185 C 
HETATM   33  O4  UNL     1       0.420   5.248  14.007  1.00  0.00    -0.292 OA
BRANCH  32  34
HETATM   34  C11 UNL     1      -0.290   7.522  14.570  1.00  0.00     0.128 C 
HETATM   35  C12 UNL     1       1.050   7.652  15.320  1.00  0.00     0.047 C 
HETATM   36  C13 UNL     1       1.548   9.050  14.981  1.00  0.00     0.009 C 
HETATM   37  C14 UNL     1       1.212   9.213  13.490  1.00  0.00     0.002 C 
HETATM   38  C15 UNL     1       2.359   8.641  12.612  1.00  0.00    -0.002 C 
HETATM   39  C28 UNL     1      -0.198   8.559  13.362  1.00  0.00     0.001 C 
HETATM   40  C16 UNL     1       3.500   9.688  12.572  1.00  0.00     0.010 C 
HETATM   41  C25 UNL     1       1.952   8.270  11.167  1.00  0.00     0.031 C 
HETATM   42  C17 UNL     1       4.564   9.461  11.497  1.00  0.00     0.035 C 
HETATM   43  C18 UNL     1       4.521   8.059  10.979  1.00  0.00    -0.068 C 
HETATM   44  C19 UNL     1       5.601   7.268  11.096  1.00  0.00     0.053 C 
HETATM   45  C23 UNL     1       3.182   7.612  10.377  1.00  0.00    -0.014 C 
HETATM   46  C20 UNL     1       5.597   5.862  10.631  1.00  0.00     0.149 C 
HETATM   47  O6  UNL     1       6.570   5.150  10.847  1.00  0.00    -0.293 OA
HETATM   48  C21 UNL     1       4.393   5.380   9.863  1.00  0.00     0.084 C 
HETATM   49  C22 UNL     1       3.131   6.053  10.394  1.00  0.00     0.022 C 
HETATM   50  C24 UNL     1       3.134   8.087   8.896  1.00  0.00     0.020 C 
HETATM   51  C26 UNL     1       0.685   7.396  11.184  1.00  0.00     0.124 C 
HETATM   52  C27 UNL     1      -0.471   8.035  11.941  1.00  0.00     0.045 C 
HETATM   53  C29 UNL     1      -1.250   9.697  13.567  1.00  0.00     0.019 C 
BRANCH  34  54
HETATM   54  O5  UNL     1      -1.280   7.953  15.516  1.00  0.00    -0.381 OA
HETATM   55  H16 UNL     1      -2.166   7.848  15.118  1.00  0.00     0.211 HD
ENDBRANCH  34  54
BRANCH  51  56
HETATM   56  O7  UNL     1       0.242   7.164   9.848  1.00  0.00    -0.395 OA
HETATM   57  H37 UNL     1      -0.461   6.481   9.895  1.00  0.00     0.210 HD
ENDBRANCH  51  56
ENDBRANCH  32  34
ENDBRANCH  31  32
ENDBRANCH  30  31
ENDBRANCH   1  30
TORSDOF 18
ENDMDL
MODEL 7
REMARK minimizedAffinity -8.55440331
REMARK CNNscore 0.190907434
REMARK CNNaffinity 5.42602587
REMARK  18 active torsions:
REMARK  status: ('A' for Active; 'I' for Inactive)
REMARK    1  A    between atoms: C2_2  and  C4_4 
REMARK    2  A    between atoms: C4_4  and  N1_5 
REMARK    3  A    between atoms: C4_4  and  C30_38 
REMARK       I    between atoms: N1_5  and  C5_6 
REMARK    4  A    between atoms: C5_6  and  C6_8 
REMARK    5  A    between atoms: C6_8  and  C7_9 
REMARK    6  A    between atoms: C7_9  and  C8_10 
REMARK    7  A    between atoms: C8_10  and  O3_12 
REMARK    8  A    between atoms: O3_12  and  C9_13 
REMARK    9  A    between atoms: C9_13  and  C10_14 
REMARK   10  A    between atoms: C10_14  and  C11_16 
REMARK   11  A    between atoms: C11_16  and  O5_17 
REMARK   12  A    between atoms: C26_33  and  O7_34 
REMARK       I    between atoms: C30_38  and  N2_40 
REMARK   13  A    between atoms: N2_40  and  C31_41 
REMARK   14  A    between atoms: C31_41  and  C32_42 
REMARK   15  A    between atoms: C32_42  and  C33_43 
REMARK   16  A    between atoms: C32_42  and  C35_47 
REMARK   17  A    between atoms: C33_43  and  C34_44 
REMARK   18  A    between atoms: C34_44  and  O10_46 
ROOT
HETATM    1  C8  UNL     1      -0.248  11.641  18.743  1.00  0.00     0.259 C 
HETATM    2  O2  UNL     1      -1.377  11.991  19.051  1.00  0.00    -0.265 OA
ENDROOT
BRANCH   1   3
HETATM    3  C7  UNL     1       0.207  11.308  17.347  1.00  0.00     0.120 C 
BRANCH   3   4
HETATM    4  C6  UNL     1      -0.109   9.861  16.992  1.00  0.00     0.112 C 
BRANCH   4   5
HETATM    5  C5  UNL     1      -1.399   9.742  16.215  1.00  0.00     0.218 C 
HETATM    6  N1  UNL     1      -2.501  10.113  16.954  1.00  0.00    -0.347 N 
HETATM    7  H9  UNL     1      -2.346  10.464  17.888  1.00  0.00     0.163 HD
HETATM    8  O1  UNL     1      -1.456   9.366  15.055  1.00  0.00    -0.274 OA
BRANCH   6   9
HETATM    9  C4  UNL     1      -3.833  10.286  16.347  1.00  0.00     0.179 C 
BRANCH   9  10
HETATM   10  C2  UNL     1      -3.938  11.688  15.714  1.00  0.00     0.009 C 
HETATM   11  C1  UNL     1      -5.046  12.541  16.350  1.00  0.00     0.012 C 
HETATM   12  C3  UNL     1      -2.606  12.440  15.848  1.00  0.00     0.012 C 
ENDBRANCH   9  10
BRANCH   9  13
HETATM   13  C30 UNL     1      -4.086   9.166  15.305  1.00  0.00     0.240 C 
HETATM   14  O8  UNL     1      -4.222   9.397  14.102  1.00  0.00    -0.271 OA
HETATM   15  N2  UNL     1      -3.987   7.877  15.804  1.00  0.00    -0.359 N 
HETATM   16  H43 UNL     1      -3.547   7.747  16.699  1.00  0.00     0.162 HD
BRANCH  15  17
HETATM   17  C31 UNL     1      -3.972   6.726  14.912  1.00  0.00     0.132 C 
BRANCH  17  18
HETATM   18  C32 UNL     1      -5.392   6.212  14.605  1.00  0.00     0.046 C 
BRANCH  18  19
HETATM   19  C33 UNL     1      -6.210   5.901  15.875  1.00  0.00     0.120 C 
BRANCH  19  20
HETATM   20  C34 UNL     1      -7.350   6.829  16.177  1.00  0.00     0.140 C 
HETATM   21  O9  UNL     1      -8.194   7.258  15.404  1.00  0.00    -0.650 OA
BRANCH  20  22
HETATM   22  O10 UNL     1      -7.437   7.114  17.492  1.00  0.00    -0.776 OA
HETATM   23  H49 UNL     1      -8.242   7.672  17.569  1.00  0.00     0.167 HD
ENDBRANCH  20  22
ENDBRANCH  19  20
ENDBRANCH  18  19
BRANCH  18  24
HETATM   24  C35 UNL     1      -5.433   5.084  13.582  1.00  0.00    -0.052 A 
HETATM   25  C36 UNL     1      -4.321   4.727  12.811  1.00  0.00     0.007 A 
HETATM   26  C37 UNL     1      -4.411   3.707  11.858  1.00  0.00     0.001 A 
HETATM   27  C38 UNL     1      -5.615   3.035  11.667  1.00  0.00     0.000 A 
HETATM   28  C39 UNL     1      -6.723   3.369  12.439  1.00  0.00     0.001 A 
HETATM   29  C40 UNL     1      -6.630   4.377  13.394  1.00  0.00     0.007 A 
ENDBRANCH  18  24
ENDBRANCH  17  18
ENDBRANCH  15  17
ENDBRANCH   9  13
ENDBRANCH   6   9
ENDBRANCH   4   5
ENDBRANCH   3   4
ENDBRANCH   1   3
BRANCH   1  30
HETATM   30  O3  UNL     1       0.791  11.508  19.612  1.00  0.00    -0.314 OA
BRANCH  30  31
HETATM   31  C9  UNL     1       1.990  12.140  19.163  1.00  0.00     0.260 C 
BRANCH  31  32
HETATM   32  C10 UNL     1       3.178  11.406  19.766  1.00  0.00     0.185 C 
HETATM   33  O4  UNL     1       3.951  10.797  19.024  1.00  0.00    -0.292 OA
BRANCH  32  34
HETATM   34  C11 UNL     1       3.296  11.380  21.310  1.00  0.00     0.128 C 
HETATM   35  C12 UNL     1       4.192  10.181  21.680  1.00  0.00     0.047 C 
HETATM   36  C13 UNL     1       4.833  10.574  23.004  1.00  0.00     0.009 C 
HETATM   37  C14 UNL     1       5.170  12.063  22.827  1.00  0.00     0.002 C 
HETATM   38  C15 UNL     1       6.562  12.227  22.156  1.00  0.00    -0.002 C 
HETATM   39  C28 UNL     1       3.928  12.629  22.073  1.00  0.00     0.001 C 
HETATM   40  C16 UNL     1       7.646  12.007  23.241  1.00  0.00     0.010 C 
HETATM   41  C25 UNL     1       6.797  13.589  21.463  1.00  0.00     0.031 C 
HETATM   42  C17 UNL     1       9.058  12.455  22.860  1.00  0.00     0.035 C 
HETATM   43  C18 UNL     1       9.193  12.624  21.380  1.00  0.00    -0.068 C 
HETATM   44  C19 UNL     1      10.093  11.892  20.702  1.00  0.00     0.053 C 
HETATM   45  C23 UNL     1       8.224  13.621  20.733  1.00  0.00    -0.014 C 
HETATM   46  C20 UNL     1      10.240  11.997  19.233  1.00  0.00     0.149 C 
HETATM   47  O6  UNL     1      11.004  11.241  18.644  1.00  0.00    -0.293 OA
HETATM   48  C21 UNL     1       9.462  13.076  18.524  1.00  0.00     0.084 C 
HETATM   49  C22 UNL     1       8.117  13.289  19.213  1.00  0.00     0.022 C 
HETATM   50  C24 UNL     1       8.826  15.048  20.881  1.00  0.00     0.020 C 
HETATM   51  C26 UNL     1       5.615  13.919  20.535  1.00  0.00     0.124 C 
HETATM   52  C27 UNL     1       4.269  13.881  21.245  1.00  0.00     0.045 C 
HETATM   53  C29 UNL     1       2.928  13.141  23.159  1.00  0.00     0.019 C 
BRANCH  34  54
HETATM   54  O5  UNL     1       2.013  11.059  21.867  1.00  0.00    -0.381 OA
HETATM   55  H16 UNL     1       1.377  11.760  21.625  1.00  0.00     0.211 HD
ENDBRANCH  34  54
BRANCH  51  56
HETATM   56  O7  UNL     1       5.775  15.231  19.999  1.00  0.00    -0.395 OA
HETATM   57  H37 UNL     1       5.097  15.339  19.298  1.00  0.00     0.210 HD
ENDBRANCH  51  56
ENDBRANCH  32  34
ENDBRANCH  31  32
ENDBRANCH  30  31
ENDBRANCH   1  30
TORSDOF 18
ENDMDL
MODEL 8
REMARK minimizedAffinity -8.46341896
REMARK CNNscore 0.189243689
REMARK CNNaffinity 6.32163239
REMARK  18 active torsions:
REMARK  status: ('A' for Active; 'I' for Inactive)
REMARK    1  A    between atoms: C2_2  and  C4_4 
REMARK    2  A    between atoms: C4_4  and  N1_5 
REMARK    3  A    between atoms: C4_4  and  C30_38 
REMARK       I    between atoms: N1_5  and  C5_6 
REMARK    4  A    between atoms: C5_6  and  C6_8 
REMARK    5  A    between atoms: C6_8  and  C7_9 
REMARK    6  A    between atoms: C7_9  and  C8_10 
REMARK    7  A    between atoms: C8_10  and  O3_12 
REMARK    8  A    between atoms: O3_12  and  C9_13 
REMARK    9  A    between atoms: C9_13  and  C10_14 
REMARK   10  A    between atoms: C10_14  and  C11_16 
REMARK   11  A    between atoms: C11_16  and  O5_17 
REMARK   12  A    between atoms: C26_33  and  O7_34 
REMARK       I    between atoms: C30_38  and  N2_40 
REMARK   13  A    between atoms: N2_40  and  C31_41 
REMARK   14  A    between atoms: C31_41  and  C32_42 
REMARK   15  A    between atoms: C32_42  and  C33_43 
REMARK   16  A    between atoms: C32_42  and  C35_47 
REMARK   17  A    between atoms: C33_43  and  C34_44 
REMARK   18  A    between atoms: C34_44  and  O10_46 
ROOT
HETATM    1  C8  UNL     1       0.306   8.915  16.110  1.00  0.00     0.259 C 
HETATM    2  O2  UNL     1       1.353   8.620  16.667  1.00  0.00    -0.265 OA
ENDROOT
BRANCH   1   3
HETATM    3  C7  UNL     1      -0.231   8.255  14.868  1.00  0.00     0.120 C 
BRANCH   3   4
HETATM    4  C6  UNL     1      -0.810   9.282  13.903  1.00  0.00     0.112 C 
BRANCH   4   5
HETATM    5  C5  UNL     1      -0.798   8.781  12.477  1.00  0.00     0.218 C 
HETATM    6  N1  UNL     1       0.080   7.736  12.288  1.00  0.00    -0.347 N 
HETATM    7  H9  UNL     1       0.574   7.384  13.095  1.00  0.00     0.163 HD
HETATM    8  O1  UNL     1      -1.498   9.246  11.592  1.00  0.00    -0.274 OA
BRANCH   6   9
HETATM    9  C4  UNL     1       0.107   6.948  11.044  1.00  0.00     0.179 C 
BRANCH   9  10
HETATM   10  C2  UNL     1       1.569   6.704  10.614  1.00  0.00     0.009 C 
HETATM   11  C1  UNL     1       2.056   5.288  10.957  1.00  0.00     0.012 C 
HETATM   12  C3  UNL     1       1.728   6.921   9.103  1.00  0.00     0.012 C 
ENDBRANCH   9  10
BRANCH   9  13
HETATM   13  C30 UNL     1      -0.659   5.615  11.248  1.00  0.00     0.240 C 
HETATM   14  O8  UNL     1      -0.441   4.613  10.565  1.00  0.00    -0.271 OA
HETATM   15  N2  UNL     1      -1.489   5.588  12.357  1.00  0.00    -0.359 N 
HETATM   16  H43 UNL     1      -1.370   6.301  13.057  1.00  0.00     0.162 HD
BRANCH  15  17
HETATM   17  C31 UNL     1      -2.095   4.345  12.811  1.00  0.00     0.132 C 
BRANCH  17  18
HETATM   18  C32 UNL     1      -3.555   4.544  13.265  1.00  0.00     0.046 C 
BRANCH  18  19
HETATM   19  C33 UNL     1      -4.583   4.122  12.196  1.00  0.00     0.120 C 
BRANCH  19  20
HETATM   20  C34 UNL     1      -4.058   3.298  11.056  1.00  0.00     0.140 C 
HETATM   21  O9  UNL     1      -3.600   3.691   9.994  1.00  0.00    -0.650 OA
BRANCH  20  22
HETATM   22  O10 UNL     1      -4.046   1.981  11.347  1.00  0.00    -0.776 OA
HETATM   23  H49 UNL     1      -3.633   1.561  10.561  1.00  0.00     0.167 HD
ENDBRANCH  20  22
ENDBRANCH  19  20
ENDBRANCH  18  19
BRANCH  18  24
HETATM   24  C35 UNL     1      -3.838   5.922  13.849  1.00  0.00    -0.052 A 
HETATM   25  C36 UNL     1      -4.500   6.923  13.129  1.00  0.00     0.007 A 
HETATM   26  C37 UNL     1      -4.709   8.187  13.691  1.00  0.00     0.001 A 
HETATM   27  C38 UNL     1      -4.256   8.461  14.979  1.00  0.00     0.000 A 
HETATM   28  C39 UNL     1      -3.611   7.470  15.711  1.00  0.00     0.001 A 
HETATM   29  C40 UNL     1      -3.413   6.209  15.155  1.00  0.00     0.007 A 
ENDBRANCH  18  24
ENDBRANCH  17  18
ENDBRANCH  15  17
ENDBRANCH   9  13
ENDBRANCH   6   9
ENDBRANCH   4   5
ENDBRANCH   3   4
ENDBRANCH   1   3
BRANCH   1  30
HETATM   30  O3  UNL     1      -0.556   9.881  16.530  1.00  0.00    -0.314 OA
BRANCH  30  31
HETATM   31  C9  UNL     1      -0.180  10.474  17.774  1.00  0.00     0.260 C 
BRANCH  31  32
HETATM   32  C10 UNL     1      -1.229  11.508  18.152  1.00  0.00     0.185 C 
HETATM   33  O4  UNL     1      -2.400  11.154  18.299  1.00  0.00    -0.292 OA
BRANCH  32  34
HETATM   34  C11 UNL     1      -0.779  12.988  18.234  1.00  0.00     0.128 C 
HETATM   35  C12 UNL     1      -1.154  13.503  19.638  1.00  0.00     0.047 C 
HETATM   36  C13 UNL     1      -0.145  14.606  19.927  1.00  0.00     0.009 C 
HETATM   37  C14 UNL     1       1.180  14.049  19.382  1.00  0.00     0.002 C 
HETATM   38  C15 UNL     1       1.886  13.183  20.462  1.00  0.00    -0.002 C 
HETATM   39  C28 UNL     1       0.762  13.353  18.051  1.00  0.00     0.001 C 
HETATM   40  C16 UNL     1       2.582  14.138  21.463  1.00  0.00     0.010 C 
HETATM   41  C25 UNL     1       2.919  12.171  19.914  1.00  0.00     0.031 C 
HETATM   42  C17 UNL     1       3.603  13.483  22.396  1.00  0.00     0.035 C 
HETATM   43  C18 UNL     1       3.420  12.000  22.444  1.00  0.00    -0.068 C 
HETATM   44  C19 UNL     1       3.144  11.396  23.612  1.00  0.00     0.053 C 
HETATM   45  C23 UNL     1       3.523  11.272  21.097  1.00  0.00    -0.014 C 
HETATM   46  C20 UNL     1       2.919   9.936  23.705  1.00  0.00     0.149 C 
HETATM   47  O6  UNL     1       2.573   9.442  24.772  1.00  0.00    -0.293 OA
HETATM   48  C21 UNL     1       3.175   9.106  22.473  1.00  0.00     0.084 C 
HETATM   49  C22 UNL     1       2.799   9.897  21.224  1.00  0.00     0.022 C 
HETATM   50  C24 UNL     1       5.028  11.008  20.802  1.00  0.00     0.020 C 
HETATM   51  C26 UNL     1       2.299  11.353  18.767  1.00  0.00     0.124 C 
HETATM   52  C27 UNL     1       1.728  12.223  17.655  1.00  0.00     0.045 C 
HETATM   53  C29 UNL     1       0.917  14.414  16.913  1.00  0.00     0.019 C 
BRANCH  34  54
HETATM   54  O5  UNL     1      -1.582  13.767  17.335  1.00  0.00    -0.381 OA
HETATM   55  H16 UNL     1      -1.429  13.455  16.422  1.00  0.00     0.211 HD
ENDBRANCH  34  54
BRANCH  51  56
HETATM   56  O7  UNL     1       3.293  10.514  18.182  1.00  0.00    -0.395 OA
HETATM   57  H37 UNL     1       2.827   9.902  17.572  1.00  0.00     0.210 HD
ENDBRANCH  51  56
ENDBRANCH  32  34
ENDBRANCH  31  32
ENDBRANCH  30  31
ENDBRANCH   1  30
TORSDOF 18
ENDMDL
MODEL 9
REMARK minimizedAffinity -7.90211201
REMARK CNNscore 0.188968614
REMARK CNNaffinity 5.20221281
REMARK  18 active torsions:
REMARK  status: ('A' for Active; 'I' for Inactive)
REMARK    1  A    between atoms: C2_2  and  C4_4 
REMARK    2  A    between atoms: C4_4  and  N1_5 
REMARK    3  A    between atoms: C4_4  and  C30_38 
REMARK       I    between atoms: N1_5  and  C5_6 
REMARK    4  A    between atoms: C5_6  and  C6_8 
REMARK    5  A    between atoms: C6_8  and  C7_9 
REMARK    6  A    between atoms: C7_9  and  C8_10 
REMARK    7  A    between atoms: C8_10  and  O3_12 
REMARK    8  A    between atoms: O3_12  and  C9_13 
REMARK    9  A    between atoms: C9_13  and  C10_14 
REMARK   10  A    between atoms: C10_14  and  C11_16 
REMARK   11  A    between atoms: C11_16  and  O5_17 
REMARK   12  A    between atoms: C26_33  and  O7_34 
REMARK       I    between atoms: C30_38  and  N2_40 
REMARK   13  A    between atoms: N2_40  and  C31_41 
REMARK   14  A    between atoms: C31_41  and  C32_42 
REMARK   15  A    between atoms: C32_42  and  C33_43 
REMARK   16  A    between atoms: C32_42  and  C35_47 
REMARK   17  A    between atoms: C33_43  and  C34_44 
REMARK   18  A    between atoms: C34_44  and  O10_46 
ROOT
HETATM    1  C8  UNL     1       4.621  12.487  16.579  1.00  0.00     0.259 C 
HETATM    2  O2  UNL     1       4.783  13.218  15.613  1.00  0.00    -0.265 OA
ENDROOT
BRANCH   1   3
HETATM    3  C7  UNL     1       4.242  11.032  16.511  1.00  0.00     0.120 C 
BRANCH   3   4
HETATM    4  C6  UNL     1       2.905  10.841  15.806  1.00  0.00     0.112 C 
BRANCH   4   5
HETATM    5  C5  UNL     1       1.918  10.089  16.669  1.00  0.00     0.218 C 
HETATM    6  N1  UNL     1       0.614  10.470  16.440  1.00  0.00    -0.347 N 
HETATM    7  H9  UNL     1       0.442  11.150  15.713  1.00  0.00     0.163 HD
HETATM    8  O1  UNL     1       2.241   9.231  17.474  1.00  0.00    -0.274 OA
BRANCH   6   9
HETATM    9  C4  UNL     1      -0.531   9.733  17.001  1.00  0.00     0.179 C 
BRANCH   9  10
HETATM   10  C2  UNL     1      -1.345  10.660  17.926  1.00  0.00     0.009 C 
HETATM   11  C1  UNL     1      -2.589   9.971  18.506  1.00  0.00     0.012 C 
HETATM   12  C3  UNL     1      -0.475  11.156  19.090  1.00  0.00     0.012 C 
ENDBRANCH   9  10
BRANCH   9  13
HETATM   13  C30 UNL     1      -1.403   9.161  15.853  1.00  0.00     0.240 C 
HETATM   14  O8  UNL     1      -2.321   9.799  15.336  1.00  0.00    -0.271 OA
HETATM   15  N2  UNL     1      -0.969   7.947  15.346  1.00  0.00    -0.359 N 
HETATM   16  H43 UNL     1      -0.036   7.644  15.571  1.00  0.00     0.162 HD
BRANCH  15  17
HETATM   17  C31 UNL     1      -1.540   7.396  14.125  1.00  0.00     0.132 C 
BRANCH  17  18
HETATM   18  C32 UNL     1      -1.700   5.864  14.200  1.00  0.00     0.046 C 
BRANCH  18  19
HETATM   19  C33 UNL     1      -0.529   5.103  13.545  1.00  0.00     0.120 C 
BRANCH  19  20
HETATM   20  C34 UNL     1       0.158   5.794  12.403  1.00  0.00     0.140 C 
HETATM   21  O9  UNL     1      -0.288   6.030  11.290  1.00  0.00    -0.650 OA
BRANCH  20  22
HETATM   22  O10 UNL     1       1.378   6.253  12.749  1.00  0.00    -0.776 OA
HETATM   23  H49 UNL     1       1.695   6.729  11.950  1.00  0.00     0.167 HD
ENDBRANCH  20  22
ENDBRANCH  19  20
ENDBRANCH  18  19
BRANCH  18  24
HETATM   24  C35 UNL     1      -3.063   5.363  13.743  1.00  0.00    -0.052 A 
HETATM   25  C36 UNL     1      -3.214   4.274  12.876  1.00  0.00     0.007 A 
HETATM   26  C37 UNL     1      -4.484   3.868  12.454  1.00  0.00     0.001 A 
HETATM   27  C38 UNL     1      -5.616   4.547  12.896  1.00  0.00     0.000 A 
HETATM   28  C39 UNL     1      -5.482   5.619  13.772  1.00  0.00     0.001 A 
HETATM   29  C40 UNL     1      -4.218   6.017  14.199  1.00  0.00     0.007 A 
ENDBRANCH  18  24
ENDBRANCH  17  18
ENDBRANCH  15  17
ENDBRANCH   9  13
ENDBRANCH   6   9
ENDBRANCH   4   5
ENDBRANCH   3   4
ENDBRANCH   1   3
BRANCH   1  30
HETATM   30  O3  UNL     1       4.772  12.867  17.878  1.00  0.00    -0.314 OA
BRANCH  30  31
HETATM   31  C9  UNL     1       4.464  11.830  18.810  1.00  0.00     0.260 C 
BRANCH  31  32
HETATM   32  C10 UNL     1       3.318  12.300  19.692  1.00  0.00     0.185 C 
HETATM   33  O4  UNL     1       2.452  13.037  19.217  1.00  0.00    -0.292 OA
BRANCH  32  34
HETATM   34  C11 UNL     1       3.356  11.902  21.189  1.00  0.00     0.128 C 
HETATM   35  C12 UNL     1       4.185  10.607  21.297  1.00  0.00     0.047 C 
HETATM   36  C13 UNL     1       4.773  10.642  22.701  1.00  0.00     0.009 C 
HETATM   37  C14 UNL     1       5.176  12.112  22.899  1.00  0.00     0.002 C 
HETATM   38  C15 UNL     1       6.606  12.359  22.343  1.00  0.00    -0.002 C 
HETATM   39  C28 UNL     1       3.998  12.902  22.253  1.00  0.00     0.001 C 
HETATM   40  C16 UNL     1       7.623  11.835  23.387  1.00  0.00     0.010 C 
HETATM   41  C25 UNL     1       6.929  13.833  22.006  1.00  0.00     0.031 C 
HETATM   42  C17 UNL     1       9.069  12.289  23.181  1.00  0.00     0.035 C 
HETATM   43  C18 UNL     1       9.286  12.796  21.791  1.00  0.00    -0.068 C 
HETATM   44  C19 UNL     1      10.190  12.202  20.994  1.00  0.00     0.053 C 
HETATM   45  C23 UNL     1       8.391  13.966  21.362  1.00  0.00    -0.014 C 
HETATM   46  C20 UNL     1      10.416  12.644  19.599  1.00  0.00     0.149 C 
HETATM   47  O6  UNL     1      11.179  12.012  18.879  1.00  0.00    -0.293 OA
HETATM   48  C21 UNL     1       9.718  13.898  19.138  1.00  0.00     0.084 C 
HETATM   49  C22 UNL     1       8.349  14.009  19.803  1.00  0.00     0.022 C 
HETATM   50  C24 UNL     1       9.041  15.285  21.870  1.00  0.00     0.020 C 
HETATM   51  C26 UNL     1       5.809  14.433  21.136  1.00  0.00     0.124 C 
HETATM   52  C27 UNL     1       4.429  14.296  21.762  1.00  0.00     0.045 C 
HETATM   53  C29 UNL     1       2.964  13.191  23.389  1.00  0.00     0.019 C 
BRANCH  34  54
HETATM   54  O5  UNL     1       2.034  11.524  21.601  1.00  0.00    -0.381 OA
HETATM   55  H16 UNL     1       1.440  12.293  21.509  1.00  0.00     0.211 HD
ENDBRANCH  34  54
BRANCH  51  56
HETATM   56  O7  UNL     1       6.048  15.825  20.936  1.00  0.00    -0.395 OA
HETATM   57  H37 UNL     1       5.411  16.130  20.254  1.00  0.00     0.210 HD
ENDBRANCH  51  56
ENDBRANCH  32  34
ENDBRANCH  31  32
ENDBRANCH  30  31
ENDBRANCH   1  30
TORSDOF 18
ENDMDL
