MODEL 1
REMARK minimizedAffinity -6.69534969
REMARK CNNscore 0.807168365
REMARK CNNaffinity 7.08562708
REMARK  7 active torsions:
REMARK  status: ('A' for Active; 'I' for Inactive)
REMARK    1  A    between atoms: C2_2  and  C30_32 
REMARK    2  A    between atoms: C3_3  and  C4_4 
REMARK    3  A    between atoms: C4_4  and  O1_5 
REMARK    4  A    between atoms: C4_4  and  C5_6 
REMARK    5  A    between atoms: C5_6  and  C6_7 
REMARK    6  A    between atoms: C6_7  and  C8_9 
REMARK    7  A    between atoms: C30_32  and  O3_33 
ROOT
HETATM    1  C8  UNL     1       1.655  55.546  -9.664  1.00  0.00    -0.002 C 
HETATM    2  C9  UNL     1       1.067  55.771  -8.241  1.00  0.00     0.007 C 
HETATM    3  C10 UNL     1      -0.109  54.787  -8.078  1.00  0.00     0.015 C 
HETATM    4  C11 UNL     1      -0.432  54.322  -9.513  1.00  0.00    -0.013 C 
HETATM    5  C12 UNL     1      -1.316  55.448 -10.146  1.00  0.00     0.021 C 
HETATM    6  C13 UNL     1      -1.220  53.028  -9.698  1.00  0.00    -0.070 C 
HETATM    7  C14 UNL     1      -2.153  52.625  -8.817  1.00  0.00    -0.022 C 
HETATM    8  C15 UNL     1      -3.066  51.456  -9.025  1.00  0.00     0.034 C 
HETATM    9  C16 UNL     1      -2.715  50.560 -10.238  1.00  0.00     0.013 C 
HETATM   10  C17 UNL     1      -3.804  49.468 -10.544  1.00  0.00     0.018 C 
HETATM   11  C18 UNL     1      -5.242  49.908 -10.185  1.00  0.00     0.023 C 
HETATM   12  C19 UNL     1      -3.486  48.213  -9.691  1.00  0.00     0.023 C 
HETATM   13  C20 UNL     1      -3.851  48.977 -12.000  1.00  0.00     0.135 C 
HETATM   14  O2  UNL     1      -4.703  48.148 -12.360  1.00  0.00    -0.297 OA
HETATM   15  C21 UNL     1      -2.878  49.488 -13.037  1.00  0.00     0.080 C 
HETATM   16  C22 UNL     1      -1.773  50.395 -12.540  1.00  0.00     0.017 C 
HETATM   17  C23 UNL     1      -2.218  51.403 -11.458  1.00  0.00    -0.031 C 
HETATM   18  C24 UNL     1      -3.315  52.334 -12.019  1.00  0.00     0.016 C 
HETATM   19  C25 UNL     1      -0.953  52.234 -10.980  1.00  0.00     0.024 C 
HETATM   20  C26 UNL     1      -0.280  53.083 -12.087  1.00  0.00     0.010 C 
HETATM   21  C27 UNL     1       0.901  53.977 -11.640  1.00  0.00     0.011 C 
HETATM   22  C28 UNL     1       1.014  54.190 -10.115  1.00  0.00    -0.029 C 
HETATM   23  C29 UNL     1       1.834  53.017  -9.503  1.00  0.00     0.016 C 
ENDROOT
BRANCH   1  24
HETATM   24  C6  UNL     1       3.184  55.848  -9.786  1.00  0.00    -0.011 C 
HETATM   25  C7  UNL     1       3.687  56.347 -11.147  1.00  0.00     0.010 C 
BRANCH  24  26
HETATM   26  C5  UNL     1       3.667  56.786  -8.650  1.00  0.00     0.040 C 
BRANCH  26  27
HETATM   27  C4  UNL     1       4.781  56.205  -7.768  1.00  0.00     0.141 C 
BRANCH  27  28
HETATM   28  C3  UNL     1       5.170  57.142  -6.652  1.00  0.00     0.009 C 
HETATM   29  C2  UNL     1       4.420  57.614  -5.631  1.00  0.00    -0.062 C 
HETATM   30  C1  UNL     1       5.047  58.518  -4.600  1.00  0.00     0.045 C 
BRANCH  29  31
HETATM   31  C30 UNL     1       2.957  57.307  -5.421  1.00  0.00     0.198 C 
BRANCH  31  32
HETATM   32  O3  UNL     1       2.816  55.985  -4.911  1.00  0.00    -0.397 OA
HETATM   33  H48 UNL     1       2.927  55.378  -5.661  1.00  0.00     0.209 HD
ENDBRANCH  31  32
ENDBRANCH  29  31
ENDBRANCH  27  28
BRANCH  27  34
HETATM   34  O1  UNL     1       4.391  54.949  -7.229  1.00  0.00    -0.392 OA
HETATM   35  H6  UNL     1       5.102  54.669  -6.627  1.00  0.00     0.210 HD
ENDBRANCH  27  34
ENDBRANCH  26  27
ENDBRANCH  24  26
ENDBRANCH   1  24
TORSDOF 7
ENDMDL
MODEL 2
REMARK minimizedAffinity -7.0470953
REMARK CNNscore 0.733574867
REMARK CNNaffinity 7.22774267
REMARK  7 active torsions:
REMARK  status: ('A' for Active; 'I' for Inactive)
REMARK    1  A    between atoms: C2_2  and  C30_32 
REMARK    2  A    between atoms: C3_3  and  C4_4 
REMARK    3  A    between atoms: C4_4  and  O1_5 
REMARK    4  A    between atoms: C4_4  and  C5_6 
REMARK    5  A    between atoms: C5_6  and  C6_7 
REMARK    6  A    between atoms: C6_7  and  C8_9 
REMARK    7  A    between atoms: C30_32  and  O3_33 
ROOT
HETATM    1  C8  UNL     1       1.323  54.729 -10.315  1.00  0.00    -0.002 C 
HETATM    2  C9  UNL     1       2.329  54.015 -11.265  1.00  0.00     0.007 C 
HETATM    3  C10 UNL     1       3.708  54.061 -10.576  1.00  0.00     0.015 C 
HETATM    4  C11 UNL     1       3.560  55.131  -9.475  1.00  0.00    -0.013 C 
HETATM    5  C12 UNL     1       3.745  56.514 -10.185  1.00  0.00     0.021 C 
HETATM    6  C13 UNL     1       4.557  55.128  -8.319  1.00  0.00    -0.070 C 
HETATM    7  C14 UNL     1       5.836  54.741  -8.477  1.00  0.00    -0.022 C 
HETATM    8  C15 UNL     1       6.895  54.868  -7.425  1.00  0.00     0.034 C 
HETATM    9  C16 UNL     1       6.378  55.261  -6.020  1.00  0.00     0.013 C 
HETATM   10  C17 UNL     1       7.528  55.581  -4.997  1.00  0.00     0.018 C 
HETATM   11  C18 UNL     1       8.790  56.190  -5.653  1.00  0.00     0.023 C 
HETATM   12  C19 UNL     1       7.962  54.253  -4.324  1.00  0.00     0.023 C 
HETATM   13  C20 UNL     1       7.141  56.521  -3.845  1.00  0.00     0.135 C 
HETATM   14  O2  UNL     1       7.986  56.875  -3.007  1.00  0.00    -0.297 OA
HETATM   15  C21 UNL     1       5.734  57.052  -3.699  1.00  0.00     0.080 C 
HETATM   16  C22 UNL     1       4.700  56.501  -4.658  1.00  0.00     0.017 C 
HETATM   17  C23 UNL     1       5.213  56.302  -6.100  1.00  0.00    -0.031 C 
HETATM   18  C24 UNL     1       5.670  57.653  -6.693  1.00  0.00     0.016 C 
HETATM   19  C25 UNL     1       4.056  55.656  -6.973  1.00  0.00     0.024 C 
HETATM   20  C26 UNL     1       2.781  56.527  -7.102  1.00  0.00     0.010 C 
HETATM   21  C27 UNL     1       1.665  55.972  -8.019  1.00  0.00     0.011 C 
HETATM   22  C28 UNL     1       2.106  54.832  -8.962  1.00  0.00    -0.029 C 
HETATM   23  C29 UNL     1       1.983  53.478  -8.205  1.00  0.00     0.016 C 
ENDROOT
BRANCH   1  24
HETATM   24  C6  UNL     1      -0.144  54.198 -10.413  1.00  0.00    -0.011 C 
HETATM   25  C7  UNL     1      -1.268  55.237 -10.300  1.00  0.00     0.010 C 
BRANCH  24  26
HETATM   26  C5  UNL     1      -0.343  53.315 -11.671  1.00  0.00     0.040 C 
BRANCH  26  27
HETATM   27  C4  UNL     1      -0.682  51.846 -11.379  1.00  0.00     0.141 C 
BRANCH  27  28
HETATM   28  C3  UNL     1      -2.095  51.677 -10.880  1.00  0.00     0.009 C 
HETATM   29  C2  UNL     1      -3.262  51.919 -11.518  1.00  0.00    -0.062 C 
HETATM   30  C1  UNL     1      -4.568  51.631 -10.822  1.00  0.00     0.045 C 
BRANCH  29  31
HETATM   31  C30 UNL     1      -3.382  52.475 -12.916  1.00  0.00     0.198 C 
BRANCH  31  32
HETATM   32  O3  UNL     1      -4.187  53.649 -12.894  1.00  0.00    -0.397 OA
HETATM   33  H48 UNL     1      -5.113  53.358 -12.836  1.00  0.00     0.209 HD
ENDBRANCH  31  32
ENDBRANCH  29  31
ENDBRANCH  27  28
BRANCH  27  34
HETATM   34  O1  UNL     1      -0.479  51.045 -12.535  1.00  0.00    -0.392 OA
HETATM   35  H6  UNL     1      -0.776  50.147 -12.310  1.00  0.00     0.210 HD
ENDBRANCH  27  34
ENDBRANCH  26  27
ENDBRANCH  24  26
ENDBRANCH   1  24
TORSDOF 7
ENDMDL
MODEL 3
REMARK minimizedAffinity -7.41027308
REMARK CNNscore 0.708157361
REMARK CNNaffinity 7.0628109
REMARK  7 active torsions:
REMARK  status: ('A' for Active; 'I' for Inactive)
REMARK    1  A    between atoms: C2_2  and  C30_32 
REMARK    2  A    between atoms: C3_3  and  C4_4 
REMARK    3  A    between atoms: C4_4  and  O1_5 
REMARK    4  A    between atoms: C4_4  and  C5_6 
REMARK    5  A    between atoms: C5_6  and  C6_7 
REMARK    6  A    between atoms: C6_7  and  C8_9 
REMARK    7  A    between atoms: C30_32  and  O3_33 
ROOT
HETATM    1  C8  UNL     1      -1.795  52.571 -10.572  1.00  0.00    -0.002 C 
HETATM    2  C9  UNL     1      -1.070  51.203 -10.736  1.00  0.00     0.007 C 
HETATM    3  C10 UNL     1       0.382  51.402 -10.256  1.00  0.00     0.015 C 
HETATM    4  C11 UNL     1       0.576  52.931 -10.221  1.00  0.00    -0.013 C 
HETATM    5  C12 UNL     1       0.886  53.364 -11.693  1.00  0.00     0.021 C 
HETATM    6  C13 UNL     1       1.715  53.500  -9.378  1.00  0.00    -0.070 C 
HETATM    7  C14 UNL     1       2.874  52.841  -9.201  1.00  0.00    -0.022 C 
HETATM    8  C15 UNL     1       4.080  53.415  -8.523  1.00  0.00     0.034 C 
HETATM    9  C16 UNL     1       3.845  54.765  -7.802  1.00  0.00     0.013 C 
HETATM   10  C17 UNL     1       5.167  55.433  -7.278  1.00  0.00     0.018 C 
HETATM   11  C18 UNL     1       6.405  55.128  -8.153  1.00  0.00     0.023 C 
HETATM   12  C19 UNL     1       5.465  54.876  -5.862  1.00  0.00     0.023 C 
HETATM   13  C20 UNL     1       5.114  56.961  -7.119  1.00  0.00     0.135 C 
HETATM   14  O2  UNL     1       6.118  57.594  -6.755  1.00  0.00    -0.297 OA
HETATM   15  C21 UNL     1       3.852  57.740  -7.407  1.00  0.00     0.080 C 
HETATM   16  C22 UNL     1       2.613  56.930  -7.722  1.00  0.00     0.017 C 
HETATM   17  C23 UNL     1       2.872  55.690  -8.605  1.00  0.00    -0.031 C 
HETATM   18  C24 UNL     1       3.459  56.122  -9.967  1.00  0.00     0.016 C 
HETATM   19  C25 UNL     1       1.509  54.900  -8.793  1.00  0.00     0.024 C 
HETATM   20  C26 UNL     1       0.393  55.698  -9.514  1.00  0.00     0.010 C 
HETATM   21  C27 UNL     1      -0.920  54.931  -9.798  1.00  0.00     0.011 C 
HETATM   22  C28 UNL     1      -0.819  53.396  -9.667  1.00  0.00    -0.029 C 
HETATM   23  C29 UNL     1      -1.056  53.002  -8.181  1.00  0.00     0.016 C 
ENDROOT
BRANCH   1  24
HETATM   24  C6  UNL     1      -3.328  52.460 -10.293  1.00  0.00    -0.011 C 
HETATM   25  C7  UNL     1      -4.181  53.700 -10.595  1.00  0.00     0.010 C 
BRANCH  24  26
HETATM   26  C5  UNL     1      -3.936  51.204 -10.967  1.00  0.00     0.040 C 
BRANCH  26  27
HETATM   27  C4  UNL     1      -4.818  50.345 -10.049  1.00  0.00     0.141 C 
BRANCH  27  28
HETATM   28  C3  UNL     1      -5.574  49.287 -10.813  1.00  0.00     0.009 C 
HETATM   29  C2  UNL     1      -6.802  48.773 -10.575  1.00  0.00    -0.062 C 
HETATM   30  C1  UNL     1      -7.374  47.741 -11.512  1.00  0.00     0.045 C 
BRANCH  29  31
HETATM   31  C30 UNL     1      -7.685  49.152  -9.410  1.00  0.00     0.198 C 
BRANCH  31  32
HETATM   32  O3  UNL     1      -8.309  50.405  -9.675  1.00  0.00    -0.397 OA
HETATM   33  H48 UNL     1      -7.644  51.094  -9.510  1.00  0.00     0.209 HD
ENDBRANCH  31  32
ENDBRANCH  29  31
ENDBRANCH  27  28
BRANCH  27  34
HETATM   34  O1  UNL     1      -4.037  49.737  -9.029  1.00  0.00    -0.392 OA
HETATM   35  H6  UNL     1      -4.634  49.155  -8.528  1.00  0.00     0.210 HD
ENDBRANCH  27  34
ENDBRANCH  26  27
ENDBRANCH  24  26
ENDBRANCH   1  24
TORSDOF 7
ENDMDL
MODEL 4
REMARK minimizedAffinity -7.09331703
REMARK CNNscore 0.6641891
REMARK CNNaffinity 6.60237646
REMARK  7 active torsions:
REMARK  status: ('A' for Active; 'I' for Inactive)
REMARK    1  A    between atoms: C2_2  and  C30_32 
REMARK    2  A    between atoms: C3_3  and  C4_4 
REMARK    3  A    between atoms: C4_4  and  O1_5 
REMARK    4  A    between atoms: C4_4  and  C5_6 
REMARK    5  A    between atoms: C5_6  and  C6_7 
REMARK    6  A    between atoms: C6_7  and  C8_9 
REMARK    7  A    between atoms: C30_32  and  O3_33 
ROOT
HETATM    1  C8  UNL     1       1.732  55.321  -8.681  1.00  0.00    -0.002 C 
HETATM    2  C9  UNL     1       0.864  56.421  -8.002  1.00  0.00     0.007 C 
HETATM    3  C10 UNL     1       1.781  57.171  -7.013  1.00  0.00     0.015 C 
HETATM    4  C11 UNL     1       3.005  56.250  -6.840  1.00  0.00    -0.013 C 
HETATM    5  C12 UNL     1       2.586  55.160  -5.797  1.00  0.00     0.021 C 
HETATM    6  C13 UNL     1       4.300  56.855  -6.302  1.00  0.00    -0.070 C 
HETATM    7  C14 UNL     1       4.303  57.869  -5.419  1.00  0.00    -0.022 C 
HETATM    8  C15 UNL     1       5.530  58.394  -4.737  1.00  0.00     0.034 C 
HETATM    9  C16 UNL     1       6.870  57.852  -5.292  1.00  0.00     0.013 C 
HETATM   10  C17 UNL     1       8.117  58.264  -4.429  1.00  0.00     0.018 C 
HETATM   11  C18 UNL     1       7.805  58.413  -2.921  1.00  0.00     0.023 C 
HETATM   12  C19 UNL     1       8.618  59.645  -4.927  1.00  0.00     0.023 C 
HETATM   13  C20 UNL     1       9.327  57.323  -4.532  1.00  0.00     0.135 C 
HETATM   14  O2  UNL     1      10.348  57.531  -3.856  1.00  0.00    -0.297 OA
HETATM   15  C21 UNL     1       9.314  56.117  -5.441  1.00  0.00     0.080 C 
HETATM   16  C22 UNL     1       8.110  55.965  -6.346  1.00  0.00     0.017 C 
HETATM   17  C23 UNL     1       6.767  56.341  -5.684  1.00  0.00    -0.031 C 
HETATM   18  C24 UNL     1       6.503  55.432  -4.464  1.00  0.00     0.016 C 
HETATM   19  C25 UNL     1       5.608  56.205  -6.760  1.00  0.00     0.024 C 
HETATM   20  C26 UNL     1       5.409  54.774  -7.319  1.00  0.00     0.010 C 
HETATM   21  C27 UNL     1       4.231  54.582  -8.302  1.00  0.00     0.011 C 
HETATM   22  C28 UNL     1       3.197  55.730  -8.310  1.00  0.00    -0.029 C 
HETATM   23  C29 UNL     1       3.679  56.831  -9.298  1.00  0.00     0.016 C 
ENDROOT
BRANCH   1  24
HETATM   24  C6  UNL     1       1.290  54.958 -10.136  1.00  0.00    -0.011 C 
HETATM   25  C7  UNL     1       1.979  53.753 -10.790  1.00  0.00     0.010 C 
BRANCH  24  26
HETATM   26  C5  UNL     1      -0.251  54.828 -10.243  1.00  0.00     0.040 C 
BRANCH  26  27
HETATM   27  C4  UNL     1      -0.875  53.789  -9.299  1.00  0.00     0.141 C 
BRANCH  27  28
HETATM   28  C3  UNL     1      -2.299  53.464  -9.673  1.00  0.00     0.009 C 
HETATM   29  C2  UNL     1      -2.778  52.895 -10.803  1.00  0.00    -0.062 C 
HETATM   30  C1  UNL     1      -4.256  52.627 -10.935  1.00  0.00     0.045 C 
BRANCH  29  31
HETATM   31  C30 UNL     1      -1.936  52.489 -11.988  1.00  0.00     0.198 C 
BRANCH  31  32
HETATM   32  O3  UNL     1      -2.688  52.658 -13.186  1.00  0.00    -0.397 OA
HETATM   33  H48 UNL     1      -3.298  51.903 -13.247  1.00  0.00     0.209 HD
ENDBRANCH  31  32
ENDBRANCH  29  31
ENDBRANCH  27  28
BRANCH  27  34
HETATM   34  O1  UNL     1      -0.098  52.600  -9.278  1.00  0.00    -0.392 OA
HETATM   35  H6  UNL     1      -0.578  51.961  -8.725  1.00  0.00     0.210 HD
ENDBRANCH  27  34
ENDBRANCH  26  27
ENDBRANCH  24  26
ENDBRANCH   1  24
TORSDOF 7
ENDMDL
MODEL 5
REMARK minimizedAffinity -7.15226364
REMARK CNNscore 0.655665576
REMARK CNNaffinity 7.10303831
REMARK  7 active torsions:
REMARK  status: ('A' for Active; 'I' for Inactive)
REMARK    1  A    between atoms: C2_2  and  C30_32 
REMARK    2  A    between atoms: C3_3  and  C4_4 
REMARK    3  A    between atoms: C4_4  and  O1_5 
REMARK    4  A    between atoms: C4_4  and  C5_6 
REMARK    5  A    between atoms: C5_6  and  C6_7 
REMARK    6  A    between atoms: C6_7  and  C8_9 
REMARK    7  A    between atoms: C30_32  and  O3_33 
ROOT
HETATM    1  C8  UNL     1      -1.449  52.376 -10.931  1.00  0.00    -0.002 C 
HETATM    2  C9  UNL     1      -0.733  50.993 -10.901  1.00  0.00     0.007 C 
HETATM    3  C10 UNL     1       0.654  51.219 -10.267  1.00  0.00     0.015 C 
HETATM    4  C11 UNL     1       0.869  52.745 -10.326  1.00  0.00    -0.013 C 
HETATM    5  C12 UNL     1       1.359  53.059 -11.779  1.00  0.00     0.021 C 
HETATM    6  C13 UNL     1       1.908  53.369  -9.399  1.00  0.00    -0.070 C 
HETATM    7  C14 UNL     1       3.027  52.717  -9.034  1.00  0.00    -0.022 C 
HETATM    8  C15 UNL     1       4.153  53.334  -8.262  1.00  0.00     0.034 C 
HETATM    9  C16 UNL     1       3.856  54.738  -7.680  1.00  0.00     0.013 C 
HETATM   10  C17 UNL     1       5.118  55.435  -7.054  1.00  0.00     0.018 C 
HETATM   11  C18 UNL     1       6.445  55.053  -7.748  1.00  0.00     0.023 C 
HETATM   12  C19 UNL     1       5.235  54.988  -5.574  1.00  0.00     0.023 C 
HETATM   13  C20 UNL     1       5.071  56.971  -7.020  1.00  0.00     0.135 C 
HETATM   14  O2  UNL     1       6.035  57.623  -6.587  1.00  0.00    -0.297 OA
HETATM   15  C21 UNL     1       3.866  57.734  -7.516  1.00  0.00     0.080 C 
HETATM   16  C22 UNL     1       2.659  56.911  -7.914  1.00  0.00     0.017 C 
HETATM   17  C23 UNL     1       3.001  55.605  -8.662  1.00  0.00    -0.031 C 
HETATM   18  C24 UNL     1       3.753  55.924  -9.973  1.00  0.00     0.016 C 
HETATM   19  C25 UNL     1       1.657  54.812  -8.952  1.00  0.00     0.024 C 
HETATM   20  C26 UNL     1       0.648  55.559  -9.860  1.00  0.00     0.010 C 
HETATM   21  C27 UNL     1      -0.634  54.782 -10.240  1.00  0.00     0.011 C 
HETATM   22  C28 UNL     1      -0.574  53.262  -9.981  1.00  0.00    -0.029 C 
HETATM   23  C29 UNL     1      -0.994  52.986  -8.508  1.00  0.00     0.016 C 
ENDROOT
BRANCH   1  24
HETATM   24  C6  UNL     1      -3.007  52.298 -10.829  1.00  0.00    -0.011 C 
HETATM   25  C7  UNL     1      -3.744  53.593 -10.463  1.00  0.00     0.010 C 
BRANCH  24  26
HETATM   26  C5  UNL     1      -3.625  51.660 -12.100  1.00  0.00     0.040 C 
BRANCH  26  27
HETATM   27  C4  UNL     1      -3.125  52.253 -13.425  1.00  0.00     0.141 C 
BRANCH  27  28
HETATM   28  C3  UNL     1      -2.927  51.197 -14.483  1.00  0.00     0.009 C 
HETATM   29  C2  UNL     1      -2.876  49.853 -14.350  1.00  0.00    -0.062 C 
HETATM   30  C1  UNL     1      -2.709  48.987 -15.573  1.00  0.00     0.045 C 
BRANCH  29  31
HETATM   31  C30 UNL     1      -2.973  49.111 -13.039  1.00  0.00     0.198 C 
BRANCH  31  32
HETATM   32  O3  UNL     1      -4.154  48.315 -13.029  1.00  0.00    -0.397 OA
HETATM   33  H48 UNL     1      -4.898  48.913 -12.847  1.00  0.00     0.209 HD
ENDBRANCH  31  32
ENDBRANCH  29  31
ENDBRANCH  27  28
BRANCH  27  34
HETATM   34  O1  UNL     1      -4.021  53.249 -13.898  1.00  0.00    -0.392 OA
HETATM   35  H6  UNL     1      -3.691  53.533 -14.768  1.00  0.00     0.210 HD
ENDBRANCH  27  34
ENDBRANCH  26  27
ENDBRANCH  24  26
ENDBRANCH   1  24
TORSDOF 7
ENDMDL
MODEL 6
REMARK minimizedAffinity -6.75813627
REMARK CNNscore 0.635942817
REMARK CNNaffinity 6.61642408
REMARK  7 active torsions:
REMARK  status: ('A' for Active; 'I' for Inactive)
REMARK    1  A    between atoms: C2_2  and  C30_32 
REMARK    2  A    between atoms: C3_3  and  C4_4 
REMARK    3  A    between atoms: C4_4  and  O1_5 
REMARK    4  A    between atoms: C4_4  and  C5_6 
REMARK    5  A    between atoms: C5_6  and  C6_7 
REMARK    6  A    between atoms: C6_7  and  C8_9 
REMARK    7  A    between atoms: C30_32  and  O3_33 
ROOT
HETATM    1  C8  UNL     1       3.717  55.963  -8.358  1.00  0.00    -0.002 C 
HETATM    2  C9  UNL     1       3.777  56.532  -9.807  1.00  0.00     0.007 C 
HETATM    3  C10 UNL     1       2.654  55.841 -10.608  1.00  0.00     0.015 C 
HETATM    4  C11 UNL     1       2.253  54.624  -9.750  1.00  0.00    -0.013 C 
HETATM    5  C12 UNL     1       3.309  53.509 -10.056  1.00  0.00     0.021 C 
HETATM    6  C13 UNL     1       0.892  53.978  -9.997  1.00  0.00    -0.070 C 
HETATM    7  C14 UNL     1       0.326  53.943 -11.216  1.00  0.00    -0.022 C 
HETATM    8  C15 UNL     1      -0.924  53.187 -11.548  1.00  0.00     0.034 C 
HETATM    9  C16 UNL     1      -1.690  52.620 -10.328  1.00  0.00     0.013 C 
HETATM   10  C17 UNL     1      -2.877  51.668 -10.721  1.00  0.00     0.018 C 
HETATM   11  C18 UNL     1      -2.631  50.878 -12.027  1.00  0.00     0.023 C 
HETATM   12  C19 UNL     1      -4.141  52.536 -10.947  1.00  0.00     0.023 C 
HETATM   13  C20 UNL     1      -3.271  50.633  -9.655  1.00  0.00     0.135 C 
HETATM   14  O2  UNL     1      -4.166  49.802  -9.881  1.00  0.00    -0.297 OA
HETATM   15  C21 UNL     1      -2.583  50.584  -8.312  1.00  0.00     0.080 C 
HETATM   16  C22 UNL     1      -1.589  51.688  -8.018  1.00  0.00     0.017 C 
HETATM   17  C23 UNL     1      -0.714  52.092  -9.225  1.00  0.00    -0.031 C 
HETATM   18  C24 UNL     1       0.119  50.883  -9.704  1.00  0.00     0.016 C 
HETATM   19  C25 UNL     1       0.223  53.300  -8.798  1.00  0.00     0.024 C 
HETATM   20  C26 UNL     1       1.216  52.975  -7.654  1.00  0.00     0.010 C 
HETATM   21  C27 UNL     1       2.208  54.098  -7.272  1.00  0.00     0.011 C 
HETATM   22  C28 UNL     1       2.330  55.238  -8.306  1.00  0.00    -0.029 C 
HETATM   23  C29 UNL     1       1.221  56.293  -8.024  1.00  0.00     0.016 C 
ENDROOT
BRANCH   1  24
HETATM   24  C6  UNL     1       4.201  56.958  -7.255  1.00  0.00    -0.011 C 
HETATM   25  C7  UNL     1       3.489  56.889  -5.897  1.00  0.00     0.010 C 
BRANCH  24  26
HETATM   26  C5  UNL     1       5.738  56.890  -7.067  1.00  0.00     0.040 C 
BRANCH  26  27
HETATM   27  C4  UNL     1       6.213  57.002  -5.611  1.00  0.00     0.141 C 
BRANCH  27  28
HETATM   28  C3  UNL     1       7.023  55.804  -5.183  1.00  0.00     0.009 C 
HETATM   29  C2  UNL     1       8.359  55.694  -5.008  1.00  0.00    -0.062 C 
HETATM   30  C1  UNL     1       8.944  54.389  -4.529  1.00  0.00     0.045 C 
BRANCH  29  31
HETATM   31  C30 UNL     1       9.357  56.798  -5.259  1.00  0.00     0.198 C 
BRANCH  31  32
HETATM   32  O3  UNL     1      10.575  56.239  -5.741  1.00  0.00    -0.397 OA
HETATM   33  H48 UNL     1      11.042  55.871  -4.973  1.00  0.00     0.209 HD
ENDBRANCH  31  32
ENDBRANCH  29  31
ENDBRANCH  27  28
BRANCH  27  34
HETATM   34  O1  UNL     1       6.970  58.189  -5.421  1.00  0.00    -0.392 OA
HETATM   35  H6  UNL     1       7.301  58.168  -4.506  1.00  0.00     0.210 HD
ENDBRANCH  27  34
ENDBRANCH  26  27
ENDBRANCH  24  26
ENDBRANCH   1  24
TORSDOF 7
ENDMDL
MODEL 7
REMARK minimizedAffinity -6.66943789
REMARK CNNscore 0.618460178
REMARK CNNaffinity 6.86869431
REMARK  7 active torsions:
REMARK  status: ('A' for Active; 'I' for Inactive)
REMARK    1  A    between atoms: C2_2  and  C30_32 
REMARK    2  A    between atoms: C3_3  and  C4_4 
REMARK    3  A    between atoms: C4_4  and  O1_5 
REMARK    4  A    between atoms: C4_4  and  C5_6 
REMARK    5  A    between atoms: C5_6  and  C6_7 
REMARK    6  A    between atoms: C6_7  and  C8_9 
REMARK    7  A    between atoms: C30_32  and  O3_33 
ROOT
HETATM    1  C8  UNL     1      -3.939  49.822 -11.708  1.00  0.00    -0.002 C 
HETATM    2  C9  UNL     1      -3.040  49.393 -12.905  1.00  0.00     0.007 C 
HETATM    3  C10 UNL     1      -1.758  50.248 -12.834  1.00  0.00     0.015 C 
HETATM    4  C11 UNL     1      -2.112  51.406 -11.878  1.00  0.00    -0.013 C 
HETATM    5  C12 UNL     1      -2.897  52.454 -12.737  1.00  0.00     0.021 C 
HETATM    6  C13 UNL     1      -0.973  52.182 -11.223  1.00  0.00    -0.070 C 
HETATM    7  C14 UNL     1       0.206  52.381 -11.840  1.00  0.00    -0.022 C 
HETATM    8  C15 UNL     1       1.296  53.266 -11.318  1.00  0.00     0.034 C 
HETATM    9  C16 UNL     1       1.091  53.773  -9.870  1.00  0.00     0.013 C 
HETATM   10  C17 UNL     1       2.144  54.853  -9.430  1.00  0.00     0.018 C 
HETATM   11  C18 UNL     1       2.642  55.743 -10.593  1.00  0.00     0.023 C 
HETATM   12  C19 UNL     1       3.384  54.118  -8.858  1.00  0.00     0.023 C 
HETATM   13  C20 UNL     1       1.681  55.809  -8.319  1.00  0.00     0.135 C 
HETATM   14  O2  UNL     1       2.419  56.729  -7.929  1.00  0.00    -0.297 OA
HETATM   15  C21 UNL     1       0.321  55.672  -7.677  1.00  0.00     0.080 C 
HETATM   16  C22 UNL     1      -0.500  54.466  -8.081  1.00  0.00     0.017 C 
HETATM   17  C23 UNL     1      -0.409  54.111  -9.581  1.00  0.00    -0.031 C 
HETATM   18  C24 UNL     1      -0.925  55.287 -10.438  1.00  0.00     0.016 C 
HETATM   19  C25 UNL     1      -1.254  52.794  -9.849  1.00  0.00     0.024 C 
HETATM   20  C26 UNL     1      -2.768  52.924  -9.543  1.00  0.00     0.010 C 
HETATM   21  C27 UNL     1      -3.640  51.691  -9.877  1.00  0.00     0.011 C 
HETATM   22  C28 UNL     1      -2.969  50.650 -10.799  1.00  0.00    -0.029 C 
HETATM   23  C29 UNL     1      -2.137  49.668  -9.925  1.00  0.00     0.016 C 
ENDROOT
BRANCH   1  24
HETATM   24  C6  UNL     1      -4.864  48.689 -11.158  1.00  0.00    -0.011 C 
HETATM   25  C7  UNL     1      -4.261  47.280 -11.074  1.00  0.00     0.010 C 
BRANCH  24  26
HETATM   26  C5  UNL     1      -5.503  49.089  -9.804  1.00  0.00     0.040 C 
BRANCH  26  27
HETATM   27  C4  UNL     1      -6.928  49.652  -9.907  1.00  0.00     0.141 C 
BRANCH  27  28
HETATM   28  C3  UNL     1      -7.751  48.932 -10.946  1.00  0.00     0.009 C 
HETATM   29  C2  UNL     1      -8.988  48.397 -10.837  1.00  0.00    -0.062 C 
HETATM   30  C1  UNL     1      -9.632  47.754 -12.039  1.00  0.00     0.045 C 
BRANCH  29  31
HETATM   31  C30 UNL     1      -9.813  48.382  -9.573  1.00  0.00     0.198 C 
BRANCH  31  32
HETATM   32  O3  UNL     1     -10.827  47.387  -9.678  1.00  0.00    -0.397 OA
HETATM   33  H48 UNL     1     -11.530  47.755 -10.239  1.00  0.00     0.209 HD
ENDBRANCH  31  32
ENDBRANCH  29  31
ENDBRANCH  27  28
BRANCH  27  34
HETATM   34  O1  UNL     1      -7.583  49.594  -8.648  1.00  0.00    -0.392 OA
HETATM   35  H6  UNL     1      -8.497  49.895  -8.793  1.00  0.00     0.210 HD
ENDBRANCH  27  34
ENDBRANCH  26  27
ENDBRANCH  24  26
ENDBRANCH   1  24
TORSDOF 7
ENDMDL
MODEL 8
REMARK minimizedAffinity -7.49584627
REMARK CNNscore 0.596059918
REMARK CNNaffinity 6.74802446
REMARK  7 active torsions:
REMARK  status: ('A' for Active; 'I' for Inactive)
REMARK    1  A    between atoms: C2_2  and  C30_32 
REMARK    2  A    between atoms: C3_3  and  C4_4 
REMARK    3  A    between atoms: C4_4  and  O1_5 
REMARK    4  A    between atoms: C4_4  and  C5_6 
REMARK    5  A    between atoms: C5_6  and  C6_7 
REMARK    6  A    between atoms: C6_7  and  C8_9 
REMARK    7  A    between atoms: C30_32  and  O3_33 
ROOT
HETATM    1  C8  UNL     1      -3.399  51.062 -11.065  1.00  0.00    -0.002 C 
HETATM    2  C9  UNL     1      -4.219  52.377 -10.911  1.00  0.00     0.007 C 
HETATM    3  C10 UNL     1      -3.211  53.504 -10.609  1.00  0.00     0.015 C 
HETATM    4  C11 UNL     1      -1.919  52.772 -10.193  1.00  0.00    -0.013 C 
HETATM    5  C12 UNL     1      -2.105  52.383  -8.687  1.00  0.00     0.021 C 
HETATM    6  C13 UNL     1      -0.598  53.534 -10.259  1.00  0.00    -0.070 C 
HETATM    7  C14 UNL     1      -0.522  54.857 -10.032  1.00  0.00    -0.022 C 
HETATM    8  C15 UNL     1       0.760  55.626  -9.925  1.00  0.00     0.034 C 
HETATM    9  C16 UNL     1       2.030  54.842 -10.336  1.00  0.00     0.013 C 
HETATM   10  C17 UNL     1       3.366  55.607 -10.022  1.00  0.00     0.018 C 
HETATM   11  C18 UNL     1       3.281  56.517  -8.774  1.00  0.00     0.023 C 
HETATM   12  C19 UNL     1       3.697  56.522 -11.229  1.00  0.00     0.023 C 
HETATM   13  C20 UNL     1       4.603  54.716  -9.826  1.00  0.00     0.135 C 
HETATM   14  O2  UNL     1       5.701  55.215  -9.529  1.00  0.00    -0.297 OA
HETATM   15  C21 UNL     1       4.526  53.215  -9.977  1.00  0.00     0.080 C 
HETATM   16  C22 UNL     1       3.209  52.650 -10.466  1.00  0.00     0.017 C 
HETATM   17  C23 UNL     1       1.963  53.348  -9.879  1.00  0.00    -0.031 C 
HETATM   18  C24 UNL     1       1.946  53.202  -8.342  1.00  0.00     0.016 C 
HETATM   19  C25 UNL     1       0.663  52.708 -10.528  1.00  0.00     0.024 C 
HETATM   20  C26 UNL     1       0.471  51.198 -10.237  1.00  0.00     0.010 C 
HETATM   21  C27 UNL     1      -0.831  50.559 -10.776  1.00  0.00     0.011 C 
HETATM   22  C28 UNL     1      -1.922  51.566 -11.200  1.00  0.00    -0.029 C 
HETATM   23  C29 UNL     1      -1.668  51.991 -12.675  1.00  0.00     0.016 C 
ENDROOT
BRANCH   1  24
HETATM   24  C6  UNL     1      -4.035  50.015 -12.035  1.00  0.00    -0.011 C 
HETATM   25  C7  UNL     1      -3.111  49.399 -13.094  1.00  0.00     0.010 C 
BRANCH  24  26
HETATM   26  C5  UNL     1      -4.787  48.906 -11.256  1.00  0.00     0.040 C 
BRANCH  26  27
HETATM   27  C4  UNL     1      -5.810  49.420 -10.233  1.00  0.00     0.141 C 
BRANCH  27  28
HETATM   28  C3  UNL     1      -7.202  48.913 -10.516  1.00  0.00     0.009 C 
HETATM   29  C2  UNL     1      -8.302  48.951  -9.732  1.00  0.00    -0.062 C 
HETATM   30  C1  UNL     1      -9.610  48.411 -10.253  1.00  0.00     0.045 C 
BRANCH  29  31
HETATM   31  C30 UNL     1      -8.343  49.505  -8.328  1.00  0.00     0.198 C 
BRANCH  31  32
HETATM   32  O3  UNL     1      -9.697  49.641  -7.909  1.00  0.00    -0.397 OA
HETATM   33  H48 UNL     1     -10.046  50.444  -8.331  1.00  0.00     0.209 HD
ENDBRANCH  31  32
ENDBRANCH  29  31
ENDBRANCH  27  28
BRANCH  27  34
HETATM   34  O1  UNL     1      -5.425  49.060  -8.913  1.00  0.00    -0.392 OA
HETATM   35  H6  UNL     1      -6.142  49.348  -8.323  1.00  0.00     0.210 HD
ENDBRANCH  27  34
ENDBRANCH  26  27
ENDBRANCH  24  26
ENDBRANCH   1  24
TORSDOF 7
ENDMDL
MODEL 9
REMARK minimizedAffinity -7.45453644
REMARK CNNscore 0.584944785
REMARK CNNaffinity 7.32168007
REMARK  7 active torsions:
REMARK  status: ('A' for Active; 'I' for Inactive)
REMARK    1  A    between atoms: C2_2  and  C30_32 
REMARK    2  A    between atoms: C3_3  and  C4_4 
REMARK    3  A    between atoms: C4_4  and  O1_5 
REMARK    4  A    between atoms: C4_4  and  C5_6 
REMARK    5  A    between atoms: C5_6  and  C6_7 
REMARK    6  A    between atoms: C6_7  and  C8_9 
REMARK    7  A    between atoms: C30_32  and  O3_33 
ROOT
HETATM    1  C8  UNL     1       2.056  53.643 -10.901  1.00  0.00    -0.002 C 
HETATM    2  C9  UNL     1       3.568  53.402 -11.180  1.00  0.00     0.007 C 
HETATM    3  C10 UNL     1       4.352  54.127 -10.067  1.00  0.00     0.015 C 
HETATM    4  C11 UNL     1       3.329  55.089  -9.430  1.00  0.00    -0.013 C 
HETATM    5  C12 UNL     1       3.273  56.345 -10.363  1.00  0.00     0.021 C 
HETATM    6  C13 UNL     1       3.612  55.630  -8.031  1.00  0.00    -0.070 C 
HETATM    7  C14 UNL     1       4.862  55.862  -7.593  1.00  0.00    -0.022 C 
HETATM    8  C15 UNL     1       5.193  56.539  -6.298  1.00  0.00     0.034 C 
HETATM    9  C16 UNL     1       3.991  56.755  -5.346  1.00  0.00     0.013 C 
HETATM   10  C17 UNL     1       4.335  57.642  -4.095  1.00  0.00     0.018 C 
HETATM   11  C18 UNL     1       5.418  58.710  -4.372  1.00  0.00     0.023 C 
HETATM   12  C19 UNL     1       4.886  56.715  -2.980  1.00  0.00     0.023 C 
HETATM   13  C20 UNL     1       3.144  58.382  -3.467  1.00  0.00     0.135 C 
HETATM   14  O2  UNL     1       3.313  59.146  -2.502  1.00  0.00    -0.297 OA
HETATM   15  C21 UNL     1       1.742  58.218  -4.002  1.00  0.00     0.080 C 
HETATM   16  C22 UNL     1       1.550  57.184  -5.092  1.00  0.00     0.017 C 
HETATM   17  C23 UNL     1       2.692  57.136  -6.129  1.00  0.00    -0.031 C 
HETATM   18  C24 UNL     1       2.815  58.497  -6.848  1.00  0.00     0.016 C 
HETATM   19  C25 UNL     1       2.398  55.968  -7.162  1.00  0.00     0.024 C 
HETATM   20  C26 UNL     1       1.096  56.144  -7.985  1.00  0.00     0.010 C 
HETATM   21  C27 UNL     1       0.822  55.073  -9.066  1.00  0.00     0.011 C 
HETATM   22  C28 UNL     1       2.037  54.195  -9.436  1.00  0.00    -0.029 C 
HETATM   23  C29 UNL     1       2.110  52.997  -8.446  1.00  0.00     0.016 C 
ENDROOT
BRANCH   1  24
HETATM   24  C6  UNL     1       1.118  52.493 -11.392  1.00  0.00    -0.011 C 
HETATM   25  C7  UNL     1      -0.197  52.909 -12.064  1.00  0.00     0.010 C 
BRANCH  24  26
HETATM   26  C5  UNL     1       1.885  51.477 -12.277  1.00  0.00     0.040 C 
BRANCH  26  27
HETATM   27  C4  UNL     1       1.716  51.687 -13.789  1.00  0.00     0.141 C 
BRANCH  27  28
HETATM   28  C3  UNL     1       3.041  51.808 -14.498  1.00  0.00     0.009 C 
HETATM   29  C2  UNL     1       3.299  52.184 -15.771  1.00  0.00    -0.062 C 
HETATM   30  C1  UNL     1       4.726  52.271 -16.250  1.00  0.00     0.045 C 
BRANCH  29  31
HETATM   31  C30 UNL     1       2.249  52.538 -16.795  1.00  0.00     0.198 C 
BRANCH  31  32
HETATM   32  O3  UNL     1       1.214  53.295 -16.175  1.00  0.00    -0.397 OA
HETATM   33  H48 UNL     1       0.655  52.666 -15.688  1.00  0.00     0.209 HD
ENDBRANCH  31  32
ENDBRANCH  29  31
ENDBRANCH  27  28
BRANCH  27  34
HETATM   34  O1  UNL     1       0.958  50.630 -14.360  1.00  0.00    -0.392 OA
HETATM   35  H6  UNL     1       0.947  50.780 -15.321  1.00  0.00     0.210 HD
ENDBRANCH  27  34
ENDBRANCH  26  27
ENDBRANCH  24  26
ENDBRANCH   1  24
TORSDOF 7
ENDMDL
