MODEL 1
REMARK minimizedAffinity -10.3329277
REMARK  8 active torsions:
REMARK  status: ('A' for Active; 'I' for Inactive)
REMARK    1  A    between atoms: C2_2  and  C4_4 
REMARK    2  A    between atoms: C4_4  and  C6_6 
REMARK    3  A    between atoms: C7_7  and  C8_8 
REMARK    4  A    between atoms: C8_8  and  O1_10 
REMARK    5  A    between atoms: C8_8  and  C10_11 
REMARK    6  A    between atoms: C11_12  and  O2_13 
REMARK    7  A    between atoms: C27_30  and  C28_31 
REMARK    8  A    between atoms: C28_31  and  O4_32 
ROOT
HETATM    1  C10 UNL     1      -2.109   5.039  11.682  1.00  0.00     0.063 C 
HETATM    2  C11 UNL     1      -2.689   3.657  11.239  1.00  0.00     0.126 C 
HETATM    3  C12 UNL     1      -4.127   3.587  11.785  1.00  0.00     0.038 C 
HETATM    4  C13 UNL     1      -4.362   4.959  12.404  1.00  0.00     0.003 C 
HETATM    5  C14 UNL     1      -5.491   5.139  13.426  1.00  0.00    -0.004 C 
HETATM    6  C15 UNL     1      -6.812   4.544  12.915  1.00  0.00     0.006 C 
HETATM    7  C16 UNL     1      -7.989   4.841  13.839  1.00  0.00     0.006 C 
HETATM    8  C17 UNL     1      -8.106   6.343  14.107  1.00  0.00     0.005 C 
HETATM    9  C18 UNL     1      -9.367   6.672  14.911  1.00  0.00     0.088 C 
HETATM   10  C19 UNL     1      -9.500   8.167  15.105  1.00  0.00     0.149 C 
HETATM   11  O3  UNL     1     -10.587   8.705  15.309  1.00  0.00    -0.293 OA
HETATM   12  C20 UNL     1      -8.269   8.996  15.100  1.00  0.00     0.047 C 
HETATM   13  C21 UNL     1      -7.058   8.437  14.944  1.00  0.00    -0.013 C 
HETATM   14  C22 UNL     1      -6.812   6.946  14.742  1.00  0.00    -0.018 C 
HETATM   15  C23 UNL     1      -6.515   6.362  16.143  1.00  0.00     0.020 C 
HETATM   16  C24 UNL     1      -5.632   6.665  13.740  1.00  0.00     0.002 C 
HETATM   17  C25 UNL     1      -4.268   7.287  14.143  1.00  0.00     0.007 C 
HETATM   18  C26 UNL     1      -3.104   6.934  13.197  1.00  0.00     0.013 C 
HETATM   19  C27 UNL     1      -2.976   5.414  12.938  1.00  0.00    -0.006 C 
ENDROOT
BRANCH   1  20
HETATM   20  C8  UNL     1      -0.553   5.098  11.741  1.00  0.00     0.079 C 
HETATM   21  C9  UNL     1      -0.012   5.122  13.172  1.00  0.00     0.051 C 
BRANCH  20  22
HETATM   22  C7  UNL     1      -0.061   6.365  11.047  1.00  0.00     0.007 C 
HETATM   23  C6  UNL     1       0.779   6.426   9.996  1.00  0.00    -0.023 C 
BRANCH  23  24
HETATM   24  C4  UNL     1       1.290   7.665   9.279  1.00  0.00     0.007 C 
HETATM   25  C5  UNL     1       0.163   8.510   8.661  1.00  0.00     0.014 C 
BRANCH  24  26
HETATM   26  C2  UNL     1       2.385   7.286   8.233  1.00  0.00    -0.015 C 
HETATM   27  C1  UNL     1       2.993   5.902   8.497  1.00  0.00     0.010 C 
HETATM   28  C3  UNL     1       1.846   7.311   6.793  1.00  0.00     0.010 C 
ENDBRANCH  24  26
ENDBRANCH  23  24
ENDBRANCH  20  22
BRANCH  20  29
HETATM   29  O1  UNL     1       0.016   3.960  11.105  1.00  0.00    -0.386 OA
HETATM   30  H17 UNL     1      -0.302   3.995  10.179  1.00  0.00     0.211 HD
ENDBRANCH  20  29
ENDBRANCH   1  20
BRANCH   2  31
HETATM   31  O2  UNL     1      -1.930   2.566  11.761  1.00  0.00    -0.395 OA
HETATM   32  H20 UNL     1      -2.374   1.747  11.463  1.00  0.00     0.210 HD
ENDBRANCH   2  31
BRANCH  19  33
HETATM   33  C28 UNL     1      -2.513   4.728  14.260  1.00  0.00     0.174 C 
BRANCH  33  34
HETATM   34  O4  UNL     1      -2.241   5.615  15.332  1.00  0.00    -0.400 OA
HETATM   35  H44 UNL     1      -3.070   6.096  15.519  1.00  0.00     0.209 HD
ENDBRANCH  33  34
ENDBRANCH  19  33
TORSDOF 8
ENDMDL
MODEL 2
REMARK minimizedAffinity -10.066865
REMARK  8 active torsions:
REMARK  status: ('A' for Active; 'I' for Inactive)
REMARK    1  A    between atoms: C2_2  and  C4_4 
REMARK    2  A    between atoms: C4_4  and  C6_6 
REMARK    3  A    between atoms: C7_7  and  C8_8 
REMARK    4  A    between atoms: C8_8  and  O1_10 
REMARK    5  A    between atoms: C8_8  and  C10_11 
REMARK    6  A    between atoms: C11_12  and  O2_13 
REMARK    7  A    between atoms: C27_30  and  C28_31 
REMARK    8  A    between atoms: C28_31  and  O4_32 
ROOT
HETATM    1  C10 UNL     1      -1.764   5.836  12.114  1.00  0.00     0.063 C 
HETATM    2  C11 UNL     1      -2.148   4.413  11.593  1.00  0.00     0.126 C 
HETATM    3  C12 UNL     1      -3.608   4.167  12.016  1.00  0.00     0.038 C 
HETATM    4  C13 UNL     1      -4.045   5.484  12.644  1.00  0.00     0.003 C 
HETATM    5  C14 UNL     1      -5.265   5.506  13.573  1.00  0.00    -0.004 C 
HETATM    6  C15 UNL     1      -6.465   4.785  12.940  1.00  0.00     0.006 C 
HETATM    7  C16 UNL     1      -7.739   4.922  13.769  1.00  0.00     0.006 C 
HETATM    8  C17 UNL     1      -8.045   6.392  14.061  1.00  0.00     0.005 C 
HETATM    9  C18 UNL     1      -9.396   6.555  14.764  1.00  0.00     0.088 C 
HETATM   10  C19 UNL     1      -9.711   8.019  14.980  1.00  0.00     0.149 C 
HETATM   11  O3  UNL     1     -10.864   8.426  15.105  1.00  0.00    -0.293 OA
HETATM   12  C20 UNL     1      -8.584   8.978  15.096  1.00  0.00     0.047 C 
HETATM   13  C21 UNL     1      -7.310   8.561  15.029  1.00  0.00    -0.013 C 
HETATM   14  C22 UNL     1      -6.882   7.114  14.814  1.00  0.00    -0.018 C 
HETATM   15  C23 UNL     1      -6.635   6.522  16.222  1.00  0.00     0.020 C 
HETATM   16  C24 UNL     1      -5.601   6.997  13.907  1.00  0.00     0.002 C 
HETATM   17  C25 UNL     1      -4.353   7.752  14.437  1.00  0.00     0.007 C 
HETATM   18  C26 UNL     1      -3.085   7.560  13.583  1.00  0.00     0.013 C 
HETATM   19  C27 UNL     1      -2.766   6.073  13.301  1.00  0.00    -0.006 C 
ENDROOT
BRANCH   1  20
HETATM   20  C8  UNL     1      -0.235   6.064  12.304  1.00  0.00     0.079 C 
HETATM   21  C9  UNL     1       0.110   7.506  12.682  1.00  0.00     0.051 C 
BRANCH  20  22
HETATM   22  C7  UNL     1       0.497   5.748  11.002  1.00  0.00     0.007 C 
HETATM   23  C6  UNL     1       1.188   6.619  10.241  1.00  0.00    -0.023 C 
BRANCH  23  24
HETATM   24  C4  UNL     1       1.929   6.341   8.943  1.00  0.00     0.007 C 
HETATM   25  C5  UNL     1       3.392   5.921   9.163  1.00  0.00     0.014 C 
BRANCH  24  26
HETATM   26  C2  UNL     1       1.803   7.552   7.966  1.00  0.00    -0.015 C 
HETATM   27  C1  UNL     1       2.972   8.537   8.100  1.00  0.00     0.010 C 
HETATM   28  C3  UNL     1       1.711   7.106   6.498  1.00  0.00     0.010 C 
ENDBRANCH  24  26
ENDBRANCH  23  24
ENDBRANCH  20  22
BRANCH  20  29
HETATM   29  O1  UNL     1       0.271   5.233  13.342  1.00  0.00    -0.386 OA
HETATM   30  H17 UNL     1       0.085   4.315  13.053  1.00  0.00     0.211 HD
ENDBRANCH  20  29
ENDBRANCH   1  20
BRANCH   2  31
HETATM   31  O2  UNL     1      -1.315   3.396  12.152  1.00  0.00    -0.395 OA
HETATM   32  H20 UNL     1      -1.638   2.543  11.799  1.00  0.00     0.210 HD
ENDBRANCH   2  31
BRANCH  19  33
HETATM   33  C28 UNL     1      -2.336   5.400  14.642  1.00  0.00     0.174 C 
BRANCH  33  34
HETATM   34  O4  UNL     1      -2.781   6.062  15.814  1.00  0.00    -0.400 OA
HETATM   35  H44 UNL     1      -3.756   6.069  15.783  1.00  0.00     0.209 HD
ENDBRANCH  33  34
ENDBRANCH  19  33
TORSDOF 8
ENDMDL
MODEL 3
REMARK minimizedAffinity -9.89244461
REMARK  8 active torsions:
REMARK  status: ('A' for Active; 'I' for Inactive)
REMARK    1  A    between atoms: C2_2  and  C4_4 
REMARK    2  A    between atoms: C4_4  and  C6_6 
REMARK    3  A    between atoms: C7_7  and  C8_8 
REMARK    4  A    between atoms: C8_8  and  O1_10 
REMARK    5  A    between atoms: C8_8  and  C10_11 
REMARK    6  A    between atoms: C11_12  and  O2_13 
REMARK    7  A    between atoms: C27_30  and  C28_31 
REMARK    8  A    between atoms: C28_31  and  O4_32 
ROOT
HETATM    1  C10 UNL     1      -5.040   7.078  13.587  1.00  0.00     0.063 C 
HETATM    2  C11 UNL     1      -5.018   8.641  13.549  1.00  0.00     0.126 C 
HETATM    3  C12 UNL     1      -3.597   9.053  13.124  1.00  0.00     0.038 C 
HETATM    4  C13 UNL     1      -2.899   7.733  12.817  1.00  0.00     0.003 C 
HETATM    5  C14 UNL     1      -1.366   7.682  12.790  1.00  0.00    -0.004 C 
HETATM    6  C15 UNL     1      -0.782   8.815  11.933  1.00  0.00     0.006 C 
HETATM    7  C16 UNL     1       0.731   8.702  11.759  1.00  0.00     0.006 C 
HETATM    8  C17 UNL     1       1.117   7.322  11.223  1.00  0.00     0.005 C 
HETATM    9  C18 UNL     1       2.613   7.244  10.904  1.00  0.00     0.088 C 
HETATM   10  C19 UNL     1       2.960   5.896  10.309  1.00  0.00     0.149 C 
HETATM   11  O3  UNL     1       3.942   5.735   9.588  1.00  0.00    -0.293 OA
HETATM   12  C20 UNL     1       2.114   4.727  10.658  1.00  0.00     0.047 C 
HETATM   13  C21 UNL     1       1.071   4.852  11.494  1.00  0.00    -0.013 C 
HETATM   14  C22 UNL     1       0.635   6.158  12.147  1.00  0.00    -0.018 C 
HETATM   15  C23 UNL     1       1.308   6.193  13.539  1.00  0.00     0.020 C 
HETATM   16  C24 UNL     1      -0.930   6.277  12.260  1.00  0.00     0.002 C 
HETATM   17  C25 UNL     1      -1.617   5.135  13.057  1.00  0.00     0.007 C 
HETATM   18  C26 UNL     1      -3.138   5.308  13.231  1.00  0.00     0.013 C 
HETATM   19  C27 UNL     1      -3.528   6.698  13.788  1.00  0.00    -0.006 C 
ENDROOT
BRANCH   1  20
HETATM   20  C8  UNL     1      -6.143   6.470  14.503  1.00  0.00     0.079 C 
HETATM   21  C9  UNL     1      -5.672   6.257  15.943  1.00  0.00     0.051 C 
BRANCH  20  22
HETATM   22  C7  UNL     1      -6.569   5.109  13.958  1.00  0.00     0.007 C 
HETATM   23  C6  UNL     1      -6.412   4.669  12.695  1.00  0.00    -0.023 C 
BRANCH  23  24
HETATM   24  C4  UNL     1      -6.821   3.323  12.117  1.00  0.00     0.007 C 
HETATM   25  C5  UNL     1      -7.745   2.524  13.049  1.00  0.00     0.014 C 
BRANCH  24  26
HETATM   26  C2  UNL     1      -5.565   2.503  11.685  1.00  0.00    -0.015 C 
HETATM   27  C1  UNL     1      -5.927   1.101  11.178  1.00  0.00     0.010 C 
HETATM   28  C3  UNL     1      -4.752   3.218  10.593  1.00  0.00     0.010 C 
ENDBRANCH  24  26
ENDBRANCH  23  24
ENDBRANCH  20  22
BRANCH  20  29
HETATM   29  O1  UNL     1      -7.276   7.329  14.563  1.00  0.00    -0.386 OA
HETATM   30  H17 UNL     1      -7.590   7.409  13.638  1.00  0.00     0.211 HD
ENDBRANCH  20  29
ENDBRANCH   1  20
BRANCH   2  31
HETATM   31  O2  UNL     1      -5.316   9.212  14.823  1.00  0.00    -0.395 OA
HETATM   32  H20 UNL     1      -5.254  10.182  14.717  1.00  0.00     0.210 HD
ENDBRANCH   2  31
BRANCH  19  33
HETATM   33  C28 UNL     1      -3.039   6.788  15.267  1.00  0.00     0.174 C 
BRANCH  33  34
HETATM   34  O4  UNL     1      -1.769   6.208  15.515  1.00  0.00    -0.400 OA
HETATM   35  H44 UNL     1      -1.126   6.685  14.958  1.00  0.00     0.209 HD
ENDBRANCH  33  34
ENDBRANCH  19  33
TORSDOF 8
ENDMDL
MODEL 4
REMARK minimizedAffinity -9.49597549
REMARK  8 active torsions:
REMARK  status: ('A' for Active; 'I' for Inactive)
REMARK    1  A    between atoms: C2_2  and  C4_4 
REMARK    2  A    between atoms: C4_4  and  C6_6 
REMARK    3  A    between atoms: C7_7  and  C8_8 
REMARK    4  A    between atoms: C8_8  and  O1_10 
REMARK    5  A    between atoms: C8_8  and  C10_11 
REMARK    6  A    between atoms: C11_12  and  O2_13 
REMARK    7  A    between atoms: C27_30  and  C28_31 
REMARK    8  A    between atoms: C28_31  and  O4_32 
ROOT
HETATM    1  C10 UNL     1      -2.065   7.390  13.018  1.00  0.00     0.063 C 
HETATM    2  C11 UNL     1      -2.112   5.904  12.535  1.00  0.00     0.126 C 
HETATM    3  C12 UNL     1      -3.536   5.392  12.819  1.00  0.00     0.038 C 
HETATM    4  C13 UNL     1      -4.282   6.618  13.330  1.00  0.00     0.003 C 
HETATM    5  C14 UNL     1      -5.579   6.431  14.128  1.00  0.00    -0.004 C 
HETATM    6  C15 UNL     1      -6.543   5.471  13.414  1.00  0.00     0.006 C 
HETATM    7  C16 UNL     1      -7.903   5.383  14.101  1.00  0.00     0.006 C 
HETATM    8  C17 UNL     1      -8.513   6.774  14.284  1.00  0.00     0.005 C 
HETATM    9  C18 UNL     1      -9.939   6.692  14.837  1.00  0.00     0.088 C 
HETATM   10  C19 UNL     1     -10.548   8.073  14.943  1.00  0.00     0.149 C 
HETATM   11  O3  UNL     1     -11.764   8.252  14.930  1.00  0.00    -0.293 OA
HETATM   12  C20 UNL     1      -9.644   9.236  15.125  1.00  0.00     0.047 C 
HETATM   13  C21 UNL     1      -8.314   9.073  15.209  1.00  0.00    -0.013 C 
HETATM   14  C22 UNL     1      -7.598   7.731  15.114  1.00  0.00    -0.018 C 
HETATM   15  C23 UNL     1      -7.399   7.242  16.568  1.00  0.00     0.020 C 
HETATM   16  C24 UNL     1      -6.227   7.837  14.350  1.00  0.00     0.002 C 
HETATM   17  C25 UNL     1      -5.210   8.837  14.964  1.00  0.00     0.007 C 
HETATM   18  C26 UNL     1      -3.843   8.869  14.254  1.00  0.00     0.013 C 
HETATM   19  C27 UNL     1      -3.219   7.463  14.084  1.00  0.00    -0.006 C 
ENDROOT
BRANCH   1  20
HETATM   20  C8  UNL     1      -0.638   7.917  13.351  1.00  0.00     0.079 C 
HETATM   21  C9  UNL     1      -0.649   9.081  14.343  1.00  0.00     0.051 C 
BRANCH  20  22
HETATM   22  C7  UNL     1       0.037   8.412  12.075  1.00  0.00     0.007 C 
HETATM   23  C6  UNL     1       0.427   7.656  11.031  1.00  0.00    -0.023 C 
BRANCH  23  24
HETATM   24  C4  UNL     1       1.099   8.113   9.746  1.00  0.00     0.007 C 
HETATM   25  C5  UNL     1       0.108   8.316   8.588  1.00  0.00     0.014 C 
BRANCH  24  26
HETATM   26  C2  UNL     1       2.268   7.152   9.362  1.00  0.00    -0.015 C 
HETATM   27  C1  UNL     1       2.220   5.831  10.141  1.00  0.00     0.010 C 
HETATM   28  C3  UNL     1       2.283   6.828   7.859  1.00  0.00     0.010 C 
ENDBRANCH  24  26
ENDBRANCH  23  24
ENDBRANCH  20  22
BRANCH  20  29
HETATM   29  O1  UNL     1       0.154   6.887  13.933  1.00  0.00    -0.386 OA
HETATM   30  H17 UNL     1       0.189   6.176  13.260  1.00  0.00     0.211 HD
ENDBRANCH  20  29
ENDBRANCH   1  20
BRANCH   2  31
HETATM   31  O2  UNL     1      -1.168   5.086  13.227  1.00  0.00    -0.395 OA
HETATM   32  H20 UNL     1      -1.282   4.176  12.888  1.00  0.00     0.210 HD
ENDBRANCH   2  31
BRANCH  19  33
HETATM   33  C28 UNL     1      -2.818   6.929  15.494  1.00  0.00     0.174 C 
BRANCH  33  34
HETATM   34  O4  UNL     1      -3.776   6.083  16.108  1.00  0.00    -0.400 OA
HETATM   35  H44 UNL     1      -3.894   5.314  15.519  1.00  0.00     0.209 HD
ENDBRANCH  33  34
ENDBRANCH  19  33
TORSDOF 8
ENDMDL
MODEL 5
REMARK minimizedAffinity -9.0830431
REMARK  8 active torsions:
REMARK  status: ('A' for Active; 'I' for Inactive)
REMARK    1  A    between atoms: C2_2  and  C4_4 
REMARK    2  A    between atoms: C4_4  and  C6_6 
REMARK    3  A    between atoms: C7_7  and  C8_8 
REMARK    4  A    between atoms: C8_8  and  O1_10 
REMARK    5  A    between atoms: C8_8  and  C10_11 
REMARK    6  A    between atoms: C11_12  and  O2_13 
REMARK    7  A    between atoms: C27_30  and  C28_31 
REMARK    8  A    between atoms: C28_31  and  O4_32 
ROOT
HETATM    1  C10 UNL     1      -5.195   7.029  13.763  1.00  0.00     0.063 C 
HETATM    2  C11 UNL     1      -5.161   8.592  13.796  1.00  0.00     0.126 C 
HETATM    3  C12 UNL     1      -3.739   9.012  13.382  1.00  0.00     0.038 C 
HETATM    4  C13 UNL     1      -3.053   7.703  13.010  1.00  0.00     0.003 C 
HETATM    5  C14 UNL     1      -1.521   7.642  12.973  1.00  0.00    -0.004 C 
HETATM    6  C15 UNL     1      -0.933   8.809  12.165  1.00  0.00     0.006 C 
HETATM    7  C16 UNL     1       0.578   8.693  11.977  1.00  0.00     0.006 C 
HETATM    8  C17 UNL     1       0.950   7.336  11.375  1.00  0.00     0.005 C 
HETATM    9  C18 UNL     1       2.444   7.261  11.045  1.00  0.00     0.088 C 
HETATM   10  C19 UNL     1       2.777   5.939  10.386  1.00  0.00     0.149 C 
HETATM   11  O3  UNL     1       3.754   5.804   9.652  1.00  0.00    -0.293 OA
HETATM   12  C20 UNL     1       1.924   4.762  10.685  1.00  0.00     0.047 C 
HETATM   13  C21 UNL     1       0.887   4.856  11.532  1.00  0.00    -0.013 C 
HETATM   14  C22 UNL     1       0.464   6.134  12.247  1.00  0.00    -0.018 C 
HETATM   15  C23 UNL     1       1.145   6.100  13.636  1.00  0.00     0.020 C 
HETATM   16  C24 UNL     1      -1.099   6.259  12.376  1.00  0.00     0.002 C 
HETATM   17  C25 UNL     1      -1.790   5.087  13.123  1.00  0.00     0.007 C 
HETATM   18  C26 UNL     1      -3.309   5.263  13.314  1.00  0.00     0.013 C 
HETATM   19  C27 UNL     1      -3.685   6.628  13.937  1.00  0.00    -0.006 C 
ENDROOT
BRANCH   1  20
HETATM   20  C8  UNL     1      -6.298   6.387  14.656  1.00  0.00     0.079 C 
HETATM   21  C9  UNL     1      -6.732   5.005  14.164  1.00  0.00     0.051 C 
BRANCH  20  22
HETATM   22  C7  UNL     1      -7.537   7.278  14.660  1.00  0.00     0.007 C 
HETATM   23  C6  UNL     1      -8.796   6.899  14.368  1.00  0.00    -0.023 C 
BRANCH  23  24
HETATM   24  C4  UNL     1     -10.053   7.755  14.364  1.00  0.00     0.007 C 
HETATM   25  C5  UNL     1     -10.509   8.162  15.775  1.00  0.00     0.014 C 
BRANCH  24  26
HETATM   26  C2  UNL     1     -11.190   7.061  13.552  1.00  0.00    -0.015 C 
HETATM   27  C1  UNL     1     -12.325   6.552  14.451  1.00  0.00     0.010 C 
HETATM   28  C3  UNL     1     -11.796   7.992  12.489  1.00  0.00     0.010 C 
ENDBRANCH  24  26
ENDBRANCH  23  24
ENDBRANCH  20  22
BRANCH  20  29
HETATM   29  O1  UNL     1      -5.831   6.222  15.989  1.00  0.00    -0.386 OA
HETATM   30  H17 UNL     1      -5.608   7.125  16.299  1.00  0.00     0.211 HD
ENDBRANCH  20  29
ENDBRANCH   1  20
BRANCH   2  31
HETATM   31  O2  UNL     1      -5.448   9.106  15.097  1.00  0.00    -0.395 OA
HETATM   32  H20 UNL     1      -5.379  10.079  15.036  1.00  0.00     0.210 HD
ENDBRANCH   2  31
BRANCH  19  33
HETATM   33  C28 UNL     1      -3.187   6.647  15.416  1.00  0.00     0.174 C 
BRANCH  33  34
HETATM   34  O4  UNL     1      -3.230   7.916  16.046  1.00  0.00    -0.400 OA
HETATM   35  H44 UNL     1      -4.163   8.204  16.041  1.00  0.00     0.209 HD
ENDBRANCH  33  34
ENDBRANCH  19  33
TORSDOF 8
ENDMDL
MODEL 6
REMARK minimizedAffinity -9.06707954
REMARK  8 active torsions:
REMARK  status: ('A' for Active; 'I' for Inactive)
REMARK    1  A    between atoms: C2_2  and  C4_4 
REMARK    2  A    between atoms: C4_4  and  C6_6 
REMARK    3  A    between atoms: C7_7  and  C8_8 
REMARK    4  A    between atoms: C8_8  and  O1_10 
REMARK    5  A    between atoms: C8_8  and  C10_11 
REMARK    6  A    between atoms: C11_12  and  O2_13 
REMARK    7  A    between atoms: C27_30  and  C28_31 
REMARK    8  A    between atoms: C28_31  and  O4_32 
ROOT
HETATM    1  C10 UNL     1      -0.557   6.833  12.538  1.00  0.00     0.063 C 
HETATM    2  C11 UNL     1      -0.569   5.458  11.795  1.00  0.00     0.126 C 
HETATM    3  C12 UNL     1      -1.982   4.873  11.972  1.00  0.00     0.038 C 
HETATM    4  C13 UNL     1      -2.756   5.971  12.691  1.00  0.00     0.003 C 
HETATM    5  C14 UNL     1      -4.051   5.615  13.433  1.00  0.00    -0.004 C 
HETATM    6  C15 UNL     1      -4.991   4.779  12.552  1.00  0.00     0.006 C 
HETATM    7  C16 UNL     1      -6.351   4.540  13.203  1.00  0.00     0.006 C 
HETATM    8  C17 UNL     1      -6.992   5.862  13.629  1.00  0.00     0.005 C 
HETATM    9  C18 UNL     1      -8.417   5.651  14.149  1.00  0.00     0.088 C 
HETATM   10  C19 UNL     1      -9.058   6.977  14.498  1.00  0.00     0.149 C 
HETATM   11  O3  UNL     1     -10.278   7.130  14.509  1.00  0.00    -0.293 OA
HETATM   12  C20 UNL     1      -8.180   8.107  14.892  1.00  0.00     0.047 C 
HETATM   13  C21 UNL     1      -6.847   7.960  14.954  1.00  0.00    -0.013 C 
HETATM   14  C22 UNL     1      -6.101   6.673  14.624  1.00  0.00    -0.018 C 
HETATM   15  C23 UNL     1      -5.895   5.934  15.967  1.00  0.00     0.020 C 
HETATM   16  C24 UNL     1      -4.730   6.944  13.900  1.00  0.00     0.002 C 
HETATM   17  C25 UNL     1      -3.738   7.838  14.692  1.00  0.00     0.007 C 
HETATM   18  C26 UNL     1      -2.370   8.027  14.008  1.00  0.00     0.013 C 
HETATM   19  C27 UNL     1      -1.714   6.689  13.591  1.00  0.00    -0.006 C 
ENDROOT
BRANCH   1  20
HETATM   20  C8  UNL     1       0.858   7.321  12.969  1.00  0.00     0.079 C 
HETATM   21  C9  UNL     1       0.812   8.548  13.883  1.00  0.00     0.051 C 
BRANCH  20  22
HETATM   22  C7  UNL     1       1.668   7.705  11.734  1.00  0.00     0.007 C 
HETATM   23  C6  UNL     1       1.259   7.623  10.453  1.00  0.00    -0.023 C 
BRANCH  23  24
HETATM   24  C4  UNL     1       2.035   7.996   9.199  1.00  0.00     0.007 C 
HETATM   25  C5  UNL     1       1.169   7.980   7.929  1.00  0.00     0.014 C 
BRANCH  24  26
HETATM   26  C2  UNL     1       3.311   7.108   9.056  1.00  0.00    -0.015 C 
HETATM   27  C1  UNL     1       4.429   7.529  10.019  1.00  0.00     0.010 C 
HETATM   28  C3  UNL     1       3.010   5.618   9.285  1.00  0.00     0.010 C 
ENDBRANCH  24  26
ENDBRANCH  23  24
ENDBRANCH  20  22
BRANCH  20  29
HETATM   29  O1  UNL     1       1.545   6.301  13.684  1.00  0.00    -0.386 OA
HETATM   30  H17 UNL     1       1.607   5.546  13.063  1.00  0.00     0.211 HD
ENDBRANCH  20  29
ENDBRANCH   1  20
BRANCH   2  31
HETATM   31  O2  UNL     1       0.391   4.549  12.334  1.00  0.00    -0.395 OA
HETATM   32  H20 UNL     1       0.298   3.713  11.836  1.00  0.00     0.210 HD
ENDBRANCH   2  31
BRANCH  19  33
HETATM   33  C28 UNL     1      -1.306   5.918  14.885  1.00  0.00     0.174 C 
BRANCH  33  34
HETATM   34  O4  UNL     1      -0.746   6.722  15.910  1.00  0.00    -0.400 OA
HETATM   35  H44 UNL     1      -1.424   7.381  16.156  1.00  0.00     0.209 HD
ENDBRANCH  33  34
ENDBRANCH  19  33
TORSDOF 8
ENDMDL
MODEL 7
REMARK minimizedAffinity -8.75826263
REMARK  8 active torsions:
REMARK  status: ('A' for Active; 'I' for Inactive)
REMARK    1  A    between atoms: C2_2  and  C4_4 
REMARK    2  A    between atoms: C4_4  and  C6_6 
REMARK    3  A    between atoms: C7_7  and  C8_8 
REMARK    4  A    between atoms: C8_8  and  O1_10 
REMARK    5  A    between atoms: C8_8  and  C10_11 
REMARK    6  A    between atoms: C11_12  and  O2_13 
REMARK    7  A    between atoms: C27_30  and  C28_31 
REMARK    8  A    between atoms: C28_31  and  O4_32 
ROOT
HETATM    1  C10 UNL     1      -6.104   6.024  13.340  1.00  0.00     0.063 C 
HETATM    2  C11 UNL     1      -7.016   4.845  12.870  1.00  0.00     0.126 C 
HETATM    3  C12 UNL     1      -8.462   5.238  13.225  1.00  0.00     0.038 C 
HETATM    4  C13 UNL     1      -8.345   6.658  13.763  1.00  0.00     0.003 C 
HETATM    5  C14 UNL     1      -9.479   7.232  14.622  1.00  0.00    -0.004 C 
HETATM    6  C15 UNL     1     -10.849   7.016  13.961  1.00  0.00     0.006 C 
HETATM    7  C16 UNL     1     -11.982   7.709  14.714  1.00  0.00     0.006 C 
HETATM    8  C17 UNL     1     -11.674   9.194  14.916  1.00  0.00     0.005 C 
HETATM    9  C18 UNL     1     -12.862   9.934  15.537  1.00  0.00     0.088 C 
HETATM   10  C19 UNL     1     -12.563  11.412  15.663  1.00  0.00     0.149 C 
HETATM   11  O3  UNL     1     -13.454  12.257  15.706  1.00  0.00    -0.293 OA
HETATM   12  C20 UNL     1     -11.148  11.840  15.793  1.00  0.00     0.047 C 
HETATM   13  C21 UNL     1     -10.151  10.942  15.815  1.00  0.00    -0.013 C 
HETATM   14  C22 UNL     1     -10.340   9.434  15.695  1.00  0.00    -0.018 C 
HETATM   15  C23 UNL     1     -10.396   8.888  17.141  1.00  0.00     0.020 C 
HETATM   16  C24 UNL     1      -9.191   8.750  14.865  1.00  0.00     0.002 C 
HETATM   17  C25 UNL     1      -7.760   8.971  15.424  1.00  0.00     0.007 C 
HETATM   18  C26 UNL     1      -6.654   8.228  14.650  1.00  0.00     0.013 C 
HETATM   19  C27 UNL     1      -6.958   6.723  14.459  1.00  0.00    -0.006 C 
ENDROOT
BRANCH   1  20
HETATM   20  C8  UNL     1      -4.620   5.628  13.601  1.00  0.00     0.079 C 
HETATM   21  C9  UNL     1      -3.628   6.693  13.129  1.00  0.00     0.051 C 
BRANCH  20  22
HETATM   22  C7  UNL     1      -4.294   4.339  12.853  1.00  0.00     0.007 C 
HETATM   23  C6  UNL     1      -3.446   4.209  11.814  1.00  0.00    -0.023 C 
BRANCH  23  24
HETATM   24  C4  UNL     1      -3.095   2.944  11.046  1.00  0.00     0.007 C 
HETATM   25  C5  UNL     1      -3.614   1.666  11.724  1.00  0.00     0.014 C 
BRANCH  24  26
HETATM   26  C2  UNL     1      -1.563   2.880  10.759  1.00  0.00    -0.015 C 
HETATM   27  C1  UNL     1      -0.760   3.846  11.642  1.00  0.00     0.010 C 
HETATM   28  C3  UNL     1      -0.995   1.464  10.950  1.00  0.00     0.010 C 
ENDBRANCH  24  26
ENDBRANCH  23  24
ENDBRANCH  20  22
BRANCH  20  29
HETATM   29  O1  UNL     1      -4.389   5.438  14.992  1.00  0.00    -0.386 OA
HETATM   30  H17 UNL     1      -4.998   4.718  15.259  1.00  0.00     0.211 HD
ENDBRANCH  20  29
ENDBRANCH   1  20
BRANCH   2  31
HETATM   31  O2  UNL     1      -6.685   3.618  13.521  1.00  0.00    -0.395 OA
HETATM   32  H20 UNL     1      -7.316   2.948  13.194  1.00  0.00     0.210 HD
ENDBRANCH   2  31
BRANCH  19  33
HETATM   33  C28 UNL     1      -6.878   6.025  15.852  1.00  0.00     0.174 C 
BRANCH  33  34
HETATM   34  O4  UNL     1      -7.810   4.976  16.051  1.00  0.00    -0.400 OA
HETATM   35  H44 UNL     1      -7.630   4.302  15.368  1.00  0.00     0.209 HD
ENDBRANCH  33  34
ENDBRANCH  19  33
TORSDOF 8
ENDMDL
MODEL 8
REMARK minimizedAffinity -8.67737198
REMARK  8 active torsions:
REMARK  status: ('A' for Active; 'I' for Inactive)
REMARK    1  A    between atoms: C2_2  and  C4_4 
REMARK    2  A    between atoms: C4_4  and  C6_6 
REMARK    3  A    between atoms: C7_7  and  C8_8 
REMARK    4  A    between atoms: C8_8  and  O1_10 
REMARK    5  A    between atoms: C8_8  and  C10_11 
REMARK    6  A    between atoms: C11_12  and  O2_13 
REMARK    7  A    between atoms: C27_30  and  C28_31 
REMARK    8  A    between atoms: C28_31  and  O4_32 
ROOT
HETATM    1  C10 UNL     1      -6.823   6.704  14.164  1.00  0.00     0.063 C 
HETATM    2  C11 UNL     1      -7.375   5.421  13.461  1.00  0.00     0.126 C 
HETATM    3  C12 UNL     1      -8.882   5.651  13.243  1.00  0.00     0.038 C 
HETATM    4  C13 UNL     1      -9.115   7.084  13.706  1.00  0.00     0.003 C 
HETATM    5  C14 UNL     1     -10.537   7.537  14.061  1.00  0.00    -0.004 C 
HETATM    6  C15 UNL     1     -11.538   7.155  12.960  1.00  0.00     0.006 C 
HETATM    7  C16 UNL     1     -12.932   7.726  13.208  1.00  0.00     0.006 C 
HETATM    8  C17 UNL     1     -12.871   9.240  13.426  1.00  0.00     0.005 C 
HETATM    9  C18 UNL     1     -14.273   9.848  13.529  1.00  0.00     0.088 C 
HETATM   10  C19 UNL     1     -14.192  11.352  13.672  1.00  0.00     0.149 C 
HETATM   11  O3  UNL     1     -15.117  12.090  13.341  1.00  0.00    -0.293 OA
HETATM   12  C20 UNL     1     -12.975  11.941  14.284  1.00  0.00     0.047 C 
HETATM   13  C21 UNL     1     -11.970  11.163  14.717  1.00  0.00    -0.013 C 
HETATM   14  C22 UNL     1     -11.949   9.642  14.621  1.00  0.00    -0.018 C 
HETATM   15  C23 UNL     1     -12.478   9.115  15.976  1.00  0.00     0.020 C 
HETATM   16  C24 UNL     1     -10.513   9.082  14.306  1.00  0.00     0.002 C 
HETATM   17  C25 UNL     1      -9.418   9.473  15.334  1.00  0.00     0.007 C 
HETATM   18  C26 UNL     1      -8.036   8.850  15.058  1.00  0.00     0.013 C 
HETATM   19  C27 UNL     1      -8.095   7.317  14.854  1.00  0.00    -0.006 C 
ENDROOT
BRANCH   1  20
HETATM   20  C8  UNL     1      -5.508   6.484  14.969  1.00  0.00     0.079 C 
HETATM   21  C9  UNL     1      -4.674   7.760  15.107  1.00  0.00     0.051 C 
BRANCH  20  22
HETATM   22  C7  UNL     1      -4.640   5.448  14.260  1.00  0.00     0.007 C 
HETATM   23  C6  UNL     1      -3.778   5.682  13.251  1.00  0.00    -0.023 C 
BRANCH  23  24
HETATM   24  C4  UNL     1      -2.897   4.679  12.524  1.00  0.00     0.007 C 
HETATM   25  C5  UNL     1      -1.551   5.272  12.077  1.00  0.00     0.014 C 
BRANCH  24  26
HETATM   26  C2  UNL     1      -3.674   4.019  11.341  1.00  0.00    -0.015 C 
HETATM   27  C1  UNL     1      -2.740   3.536  10.224  1.00  0.00     0.010 C 
HETATM   28  C3  UNL     1      -4.533   2.830  11.802  1.00  0.00     0.010 C 
ENDBRANCH  24  26
ENDBRANCH  23  24
ENDBRANCH  20  22
BRANCH  20  29
HETATM   29  O1  UNL     1      -5.796   6.035  16.288  1.00  0.00    -0.386 OA
HETATM   30  H17 UNL     1      -6.284   5.193  16.174  1.00  0.00     0.211 HD
ENDBRANCH  20  29
ENDBRANCH   1  20
BRANCH   2  31
HETATM   31  O2  UNL     1      -7.185   4.250  14.256  1.00  0.00    -0.395 OA
HETATM   32  H20 UNL     1      -7.580   3.507  13.760  1.00  0.00     0.210 HD
ENDBRANCH   2  31
BRANCH  19  33
HETATM   33  C28 UNL     1      -8.463   6.654  16.218  1.00  0.00     0.174 C 
BRANCH  33  34
HETATM   34  O4  UNL     1      -8.630   5.247  16.174  1.00  0.00    -0.400 OA
HETATM   35  H44 UNL     1      -7.780   4.869  15.877  1.00  0.00     0.209 HD
ENDBRANCH  33  34
ENDBRANCH  19  33
TORSDOF 8
ENDMDL
MODEL 9
REMARK minimizedAffinity -8.44476509
REMARK  8 active torsions:
REMARK  status: ('A' for Active; 'I' for Inactive)
REMARK    1  A    between atoms: C2_2  and  C4_4 
REMARK    2  A    between atoms: C4_4  and  C6_6 
REMARK    3  A    between atoms: C7_7  and  C8_8 
REMARK    4  A    between atoms: C8_8  and  O1_10 
REMARK    5  A    between atoms: C8_8  and  C10_11 
REMARK    6  A    between atoms: C11_12  and  O2_13 
REMARK    7  A    between atoms: C27_30  and  C28_31 
REMARK    8  A    between atoms: C28_31  and  O4_32 
ROOT
HETATM    1  C10 UNL     1      -2.785   8.419  14.453  1.00  0.00     0.063 C 
HETATM    2  C11 UNL     1      -2.311   8.326  15.940  1.00  0.00     0.126 C 
HETATM    3  C12 UNL     1      -0.784   8.131  15.905  1.00  0.00     0.038 C 
HETATM    4  C13 UNL     1      -0.424   8.243  14.429  1.00  0.00     0.003 C 
HETATM    5  C14 UNL     1       0.912   7.675  13.936  1.00  0.00    -0.004 C 
HETATM    6  C15 UNL     1       2.081   8.147  14.815  1.00  0.00     0.006 C 
HETATM    7  C16 UNL     1       3.441   7.726  14.263  1.00  0.00     0.006 C 
HETATM    8  C17 UNL     1       3.602   8.175  12.809  1.00  0.00     0.005 C 
HETATM    9  C18 UNL     1       5.013   7.891  12.288  1.00  0.00     0.088 C 
HETATM   10  C19 UNL     1       5.173   8.406  10.874  1.00  0.00     0.149 C 
HETATM   11  O3  UNL     1       6.271   8.699  10.405  1.00  0.00    -0.293 OA
HETATM   12  C20 UNL     1       3.966   8.506  10.015  1.00  0.00     0.047 C 
HETATM   13  C21 UNL     1       2.759   8.135  10.470  1.00  0.00    -0.013 C 
HETATM   14  C22 UNL     1       2.487   7.605  11.873  1.00  0.00    -0.018 C 
HETATM   15  C23 UNL     1       2.537   6.062  11.771  1.00  0.00     0.020 C 
HETATM   16  C24 UNL     1       1.107   8.100  12.443  1.00  0.00     0.002 C 
HETATM   17  C25 UNL     1      -0.129   7.724  11.583  1.00  0.00     0.007 C 
HETATM   18  C26 UNL     1      -1.480   8.143  12.195  1.00  0.00     0.013 C 
HETATM   19  C27 UNL     1      -1.649   7.676  13.661  1.00  0.00    -0.006 C 
ENDROOT
BRANCH   1  20
HETATM   20  C8  UNL     1      -4.283   8.056  14.228  1.00  0.00     0.079 C 
HETATM   21  C9  UNL     1      -5.179   8.469  15.398  1.00  0.00     0.051 C 
BRANCH  20  22
HETATM   22  C7  UNL     1      -4.424   6.546  14.058  1.00  0.00     0.007 C 
HETATM   23  C6  UNL     1      -5.383   5.905  13.360  1.00  0.00    -0.023 C 
BRANCH  23  24
HETATM   24  C4  UNL     1      -5.555   4.407  13.168  1.00  0.00     0.007 C 
HETATM   25  C5  UNL     1      -4.417   3.770  12.353  1.00  0.00     0.014 C 
BRANCH  24  26
HETATM   26  C2  UNL     1      -6.960   4.085  12.571  1.00  0.00    -0.015 C 
HETATM   27  C1  UNL     1      -7.658   2.931  13.303  1.00  0.00     0.010 C 
HETATM   28  C3  UNL     1      -7.894   5.307  12.593  1.00  0.00     0.010 C 
ENDBRANCH  24  26
ENDBRANCH  23  24
ENDBRANCH  20  22
BRANCH  20  29
HETATM   29  O1  UNL     1      -4.790   8.709  13.070  1.00  0.00    -0.386 OA
HETATM   30  H17 UNL     1      -4.234   8.390  12.329  1.00  0.00     0.211 HD
ENDBRANCH  20  29
ENDBRANCH   1  20
BRANCH   2  31
HETATM   31  O2  UNL     1      -2.914   7.228  16.626  1.00  0.00    -0.395 OA
HETATM   32  H20 UNL     1      -2.545   7.226  17.531  1.00  0.00     0.210 HD
ENDBRANCH   2  31
BRANCH  19  33
HETATM   33  C28 UNL     1      -1.780   6.121  13.668  1.00  0.00     0.174 C 
BRANCH  33  34
HETATM   34  O4  UNL     1      -1.294   5.485  14.838  1.00  0.00    -0.400 OA
HETATM   35  H44 UNL     1      -1.815   5.832  15.587  1.00  0.00     0.209 HD
ENDBRANCH  33  34
ENDBRANCH  19  33
TORSDOF 8
ENDMDL
