MODEL 1
REMARK minimizedAffinity -10.1324759
REMARK  7 active torsions:
REMARK  status: ('A' for Active; 'I' for Inactive)
REMARK    1  A    between atoms: C4_4  and  C5_5 
REMARK    2  A    between atoms: C15_15  and  C16_16 
REMARK    3  A    between atoms: C16_16  and  C18_18 
REMARK    4  A    between atoms: C18_18  and  C19_19 
REMARK    5  A    between atoms: C23_25  and  C24_26 
REMARK    6  A    between atoms: C27_29  and  O3_30 
REMARK    7  A    between atoms: C30_33  and  O4_34 
ROOT
HETATM    1  C5  UNL     1      -3.293   7.726  12.961  1.00  0.00     0.004 C 
HETATM    2  C6  UNL     1      -2.054   7.448  13.413  1.00  0.00    -0.075 C 
HETATM    3  C7  UNL     1      -1.718   6.752  14.723  1.00  0.00     0.034 C 
HETATM    4  C8  UNL     1      -0.779   5.555  14.528  1.00  0.00     0.005 C 
HETATM    5  C9  UNL     1       0.465   5.906  13.695  1.00  0.00     0.010 C 
HETATM    6  C10 UNL     1       0.102   6.589  12.364  1.00  0.00    -0.033 C 
HETATM    7  C11 UNL     1      -0.633   5.537  11.473  1.00  0.00     0.016 C 
HETATM    8  C12 UNL     1      -0.789   7.822  12.655  1.00  0.00     0.023 C 
HETATM    9  C13 UNL     1      -0.856   8.529  11.302  1.00  0.00     0.010 C 
HETATM   10  C14 UNL     1       0.544   8.345  10.705  1.00  0.00     0.006 C 
HETATM   11  C15 UNL     1       1.250   7.200  11.494  1.00  0.00    -0.002 C 
ENDROOT
BRANCH   1  12
HETATM   12  C4  UNL     1      -4.548   7.416  13.616  1.00  0.00     0.008 C 
HETATM   13  C3  UNL     1      -5.038   6.190  13.898  1.00  0.00    -0.048 C 
HETATM   14  C2  UNL     1      -6.332   6.040  14.574  1.00  0.00    -0.032 C 
HETATM   15  C26 UNL     1      -4.400   4.855  13.564  1.00  0.00     0.071 C 
HETATM   16  C1  UNL     1      -6.559   6.607  15.773  1.00  0.00     0.022 C 
HETATM   17  C30 UNL     1      -7.317   5.150  13.826  1.00  0.00     0.157 C 
HETATM   18  C28 UNL     1      -6.704   3.765  13.552  1.00  0.00     0.044 C 
HETATM   19  C27 UNL     1      -5.362   3.915  12.814  1.00  0.00     0.129 C 
HETATM   20  C29 UNL     1      -7.676   2.870  12.775  1.00  0.00     0.015 C 
BRANCH  17  21
HETATM   21  O4  UNL     1      -8.524   4.991  14.574  1.00  0.00    -0.390 OA
HETATM   22  H44 UNL     1      -8.960   5.860  14.566  1.00  0.00     0.210 HD
ENDBRANCH  17  21
BRANCH  19  23
HETATM   23  O3  UNL     1      -5.588   4.394  11.486  1.00  0.00    -0.395 OA
HETATM   24  H38 UNL     1      -4.724   4.599  11.088  1.00  0.00     0.210 HD
ENDBRANCH  19  23
ENDBRANCH   1  12
BRANCH  11  25
HETATM   25  C16 UNL     1       2.593   7.700  12.114  1.00  0.00    -0.011 C 
HETATM   26  C17 UNL     1       2.625   7.740  13.648  1.00  0.00     0.010 C 
BRANCH  25  27
HETATM   27  C18 UNL     1       3.861   6.989  11.595  1.00  0.00     0.038 C 
BRANCH  27  28
HETATM   28  C19 UNL     1       4.008   6.802  10.075  1.00  0.00     0.141 C 
HETATM   29  O1  UNL     1       3.788   8.108   9.496  1.00  0.00    -0.311 OA
HETATM   30  C20 UNL     1       3.177   8.000   8.290  1.00  0.00     0.289 C 
HETATM   31  O2  UNL     1       2.987   8.909   7.506  1.00  0.00    -0.260 OA
HETATM   32  C21 UNL     1       2.780   6.584   8.119  1.00  0.00     0.014 C 
HETATM   33  C22 UNL     1       2.393   6.130   6.920  1.00  0.00     0.025 C 
HETATM   34  C23 UNL     1       2.960   5.885   9.431  1.00  0.00     0.053 C 
BRANCH  34  35
HETATM   35  C24 UNL     1       3.397   4.414   9.343  1.00  0.00     0.007 C 
HETATM   36  C25 UNL     1       4.037   4.068   8.002  1.00  0.00     0.006 C 
ENDBRANCH  34  35
ENDBRANCH  27  28
ENDBRANCH  25  27
ENDBRANCH  11  25
TORSDOF 7
ENDMDL
MODEL 2
REMARK minimizedAffinity -9.96102142
REMARK  7 active torsions:
REMARK  status: ('A' for Active; 'I' for Inactive)
REMARK    1  A    between atoms: C4_4  and  C5_5 
REMARK    2  A    between atoms: C15_15  and  C16_16 
REMARK    3  A    between atoms: C16_16  and  C18_18 
REMARK    4  A    between atoms: C18_18  and  C19_19 
REMARK    5  A    between atoms: C23_25  and  C24_26 
REMARK    6  A    between atoms: C27_29  and  O3_30 
REMARK    7  A    between atoms: C30_33  and  O4_34 
ROOT
HETATM    1  C5  UNL     1       0.344   8.679  13.020  1.00  0.00     0.004 C 
HETATM    2  C6  UNL     1      -0.620   7.758  13.221  1.00  0.00    -0.075 C 
HETATM    3  C7  UNL     1      -0.456   6.252  13.086  1.00  0.00     0.034 C 
HETATM    4  C8  UNL     1      -0.936   5.495  14.331  1.00  0.00     0.005 C 
HETATM    5  C9  UNL     1      -2.349   5.911  14.771  1.00  0.00     0.010 C 
HETATM    6  C10 UNL     1      -2.487   7.437  14.923  1.00  0.00    -0.033 C 
HETATM    7  C11 UNL     1      -1.599   7.878  16.130  1.00  0.00     0.016 C 
HETATM    8  C12 UNL     1      -2.047   8.119  13.603  1.00  0.00     0.023 C 
HETATM    9  C13 UNL     1      -2.470   9.573  13.806  1.00  0.00     0.010 C 
HETATM   10  C14 UNL     1      -3.799   9.483  14.565  1.00  0.00     0.006 C 
HETATM   11  C15 UNL     1      -3.910   8.045  15.158  1.00  0.00    -0.002 C 
ENDROOT
BRANCH   1  12
HETATM   12  C4  UNL     1       1.722   8.428  12.649  1.00  0.00     0.008 C 
HETATM   13  C3  UNL     1       2.190   8.104  11.426  1.00  0.00    -0.048 C 
HETATM   14  C2  UNL     1       3.625   7.884  11.208  1.00  0.00    -0.032 C 
HETATM   15  C26 UNL     1       1.374   7.895  10.164  1.00  0.00     0.071 C 
HETATM   16  C1  UNL     1       4.526   8.840  11.500  1.00  0.00     0.022 C 
HETATM   17  C30 UNL     1       3.952   6.536  10.578  1.00  0.00     0.157 C 
HETATM   18  C28 UNL     1       3.187   6.351   9.255  1.00  0.00     0.044 C 
HETATM   19  C27 UNL     1       1.678   6.548   9.483  1.00  0.00     0.129 C 
HETATM   20  C29 UNL     1       3.486   4.985   8.626  1.00  0.00     0.015 C 
BRANCH  17  21
HETATM   21  O4  UNL     1       5.355   6.420  10.329  1.00  0.00    -0.390 OA
HETATM   22  H44 UNL     1       5.777   6.364  11.204  1.00  0.00     0.210 HD
ENDBRANCH  17  21
BRANCH  19  23
HETATM   23  O3  UNL     1       1.159   5.470  10.267  1.00  0.00    -0.395 OA
HETATM   24  H38 UNL     1       0.239   5.683  10.501  1.00  0.00     0.210 HD
ENDBRANCH  19  23
ENDBRANCH   1  12
BRANCH  11  25
HETATM   25  C16 UNL     1      -5.212   7.340  14.663  1.00  0.00    -0.011 C 
HETATM   26  C17 UNL     1      -5.784   7.884  13.346  1.00  0.00     0.010 C 
BRANCH  25  27
HETATM   27  C18 UNL     1      -5.139   5.800  14.589  1.00  0.00     0.038 C 
BRANCH  27  28
HETATM   28  C19 UNL     1      -5.670   5.117  13.317  1.00  0.00     0.141 C 
HETATM   29  O1  UNL     1      -6.957   4.567  13.675  1.00  0.00    -0.311 OA
HETATM   30  C20 UNL     1      -7.187   3.410  13.006  1.00  0.00     0.289 C 
HETATM   31  O2  UNL     1      -8.234   2.792  12.993  1.00  0.00    -0.260 OA
HETATM   32  C21 UNL     1      -5.932   3.041  12.314  1.00  0.00     0.014 C 
HETATM   33  C22 UNL     1      -5.934   2.091  11.370  1.00  0.00     0.025 C 
HETATM   34  C23 UNL     1      -4.837   3.925  12.826  1.00  0.00     0.053 C 
BRANCH  34  35
HETATM   35  C24 UNL     1      -3.759   4.307  11.799  1.00  0.00     0.007 C 
HETATM   36  C25 UNL     1      -2.566   3.356  11.814  1.00  0.00     0.006 C 
ENDBRANCH  34  35
ENDBRANCH  27  28
ENDBRANCH  25  27
ENDBRANCH  11  25
TORSDOF 7
ENDMDL
MODEL 3
REMARK minimizedAffinity -9.89319134
REMARK  7 active torsions:
REMARK  status: ('A' for Active; 'I' for Inactive)
REMARK    1  A    between atoms: C4_4  and  C5_5 
REMARK    2  A    between atoms: C15_15  and  C16_16 
REMARK    3  A    between atoms: C16_16  and  C18_18 
REMARK    4  A    between atoms: C18_18  and  C19_19 
REMARK    5  A    between atoms: C23_25  and  C24_26 
REMARK    6  A    between atoms: C27_29  and  O3_30 
REMARK    7  A    between atoms: C30_33  and  O4_34 
ROOT
HETATM    1  C5  UNL     1      -3.347   6.560  13.069  1.00  0.00     0.004 C 
HETATM    2  C6  UNL     1      -2.040   6.480  13.392  1.00  0.00    -0.075 C 
HETATM    3  C7  UNL     1      -1.429   5.519  14.400  1.00  0.00     0.034 C 
HETATM    4  C8  UNL     1      -0.255   4.724  13.815  1.00  0.00     0.005 C 
HETATM    5  C9  UNL     1       0.788   5.621  13.129  1.00  0.00     0.010 C 
HETATM    6  C10 UNL     1       0.151   6.570  12.096  1.00  0.00    -0.033 C 
HETATM    7  C11 UNL     1      -0.393   5.699  10.919  1.00  0.00     0.016 C 
HETATM    8  C12 UNL     1      -0.977   7.381  12.784  1.00  0.00     0.023 C 
HETATM    9  C13 UNL     1      -1.334   8.434  11.735  1.00  0.00     0.010 C 
HETATM   10  C14 UNL     1       0.008   8.808  11.096  1.00  0.00     0.006 C 
HETATM   11  C15 UNL     1       1.035   7.693  11.461  1.00  0.00    -0.002 C 
ENDROOT
BRANCH   1  12
HETATM   12  C4  UNL     1      -4.425   5.752  13.600  1.00  0.00     0.008 C 
HETATM   13  C3  UNL     1      -5.682   6.155  13.881  1.00  0.00    -0.048 C 
HETATM   14  C2  UNL     1      -6.669   5.207  14.415  1.00  0.00    -0.032 C 
HETATM   15  C26 UNL     1      -6.244   7.556  13.735  1.00  0.00     0.071 C 
HETATM   16  C1  UNL     1      -6.982   4.082  13.747  1.00  0.00     0.022 C 
HETATM   17  C30 UNL     1      -7.315   5.662  15.718  1.00  0.00     0.157 C 
HETATM   18  C28 UNL     1      -7.958   7.052  15.554  1.00  0.00     0.044 C 
HETATM   19  C27 UNL     1      -6.919   8.057  15.026  1.00  0.00     0.129 C 
HETATM   20  C29 UNL     1      -8.586   7.531  16.867  1.00  0.00     0.015 C 
BRANCH  17  21
HETATM   21  O4  UNL     1      -8.313   4.730  16.140  1.00  0.00    -0.390 OA
HETATM   22  H44 UNL     1      -7.833   3.925  16.399  1.00  0.00     0.210 HD
ENDBRANCH  17  21
BRANCH  19  23
HETATM   23  O3  UNL     1      -5.935   8.314  16.030  1.00  0.00    -0.395 OA
HETATM   24  H38 UNL     1      -5.227   8.849  15.630  1.00  0.00     0.210 HD
ENDBRANCH  19  23
ENDBRANCH   1  12
BRANCH  11  25
HETATM   25  C16 UNL     1       2.273   8.299  12.195  1.00  0.00    -0.011 C 
HETATM   26  C17 UNL     1       2.131   8.415  13.720  1.00  0.00     0.010 C 
BRANCH  25  27
HETATM   27  C18 UNL     1       3.626   7.637  11.858  1.00  0.00     0.038 C 
BRANCH  27  28
HETATM   28  C19 UNL     1       3.894   7.259  10.391  1.00  0.00     0.141 C 
HETATM   29  O1  UNL     1       3.684   8.469   9.629  1.00  0.00    -0.311 OA
HETATM   30  C20 UNL     1       3.170   8.182   8.408  1.00  0.00     0.289 C 
HETATM   31  O2  UNL     1       3.017   8.974   7.498  1.00  0.00    -0.260 OA
HETATM   32  C21 UNL     1       2.826   6.743   8.398  1.00  0.00     0.014 C 
HETATM   33  C22 UNL     1       2.544   6.123   7.244  1.00  0.00     0.025 C 
HETATM   34  C23 UNL     1       2.923   6.227   9.800  1.00  0.00     0.053 C 
BRANCH  34  35
HETATM   35  C24 UNL     1       3.405   4.775   9.940  1.00  0.00     0.007 C 
HETATM   36  C25 UNL     1       3.846   4.169   8.611  1.00  0.00     0.006 C 
ENDBRANCH  34  35
ENDBRANCH  27  28
ENDBRANCH  25  27
ENDBRANCH  11  25
TORSDOF 7
ENDMDL
MODEL 4
REMARK minimizedAffinity -9.70851707
REMARK  7 active torsions:
REMARK  status: ('A' for Active; 'I' for Inactive)
REMARK    1  A    between atoms: C4_4  and  C5_5 
REMARK    2  A    between atoms: C15_15  and  C16_16 
REMARK    3  A    between atoms: C16_16  and  C18_18 
REMARK    4  A    between atoms: C18_18  and  C19_19 
REMARK    5  A    between atoms: C23_25  and  C24_26 
REMARK    6  A    between atoms: C27_29  and  O3_30 
REMARK    7  A    between atoms: C30_33  and  O4_34 
ROOT
HETATM    1  C5  UNL     1      -2.937   6.780  12.874  1.00  0.00     0.004 C 
HETATM    2  C6  UNL     1      -1.959   7.704  12.776  1.00  0.00    -0.075 C 
HETATM    3  C7  UNL     1      -2.140   9.209  12.893  1.00  0.00     0.034 C 
HETATM    4  C8  UNL     1      -1.188   9.836  13.920  1.00  0.00     0.005 C 
HETATM    5  C9  UNL     1       0.276   9.419  13.705  1.00  0.00     0.010 C 
HETATM    6  C10 UNL     1       0.439   7.891  13.611  1.00  0.00    -0.033 C 
HETATM    7  C11 UNL     1       0.104   7.289  15.013  1.00  0.00     0.016 C 
HETATM    8  C12 UNL     1      -0.505   7.348  12.509  1.00  0.00     0.023 C 
HETATM    9  C13 UNL     1      -0.059   5.895  12.355  1.00  0.00     0.010 C 
HETATM   10  C14 UNL     1       1.464   5.942  12.523  1.00  0.00     0.006 C 
HETATM   11  C15 UNL     1       1.826   7.307  13.184  1.00  0.00    -0.002 C 
ENDROOT
BRANCH   1  12
HETATM   12  C4  UNL     1      -4.344   7.026  13.118  1.00  0.00     0.008 C 
HETATM   13  C3  UNL     1      -5.264   6.137  13.547  1.00  0.00    -0.048 C 
HETATM   14  C2  UNL     1      -6.660   6.544  13.752  1.00  0.00    -0.032 C 
HETATM   15  C26 UNL     1      -5.041   4.665  13.840  1.00  0.00     0.071 C 
HETATM   16  C1  UNL     1      -6.973   7.549  14.589  1.00  0.00     0.022 C 
HETATM   17  C30 UNL     1      -7.667   5.690  12.993  1.00  0.00     0.157 C 
HETATM   18  C28 UNL     1      -7.499   4.201  13.346  1.00  0.00     0.044 C 
HETATM   19  C27 UNL     1      -6.045   3.760  13.102  1.00  0.00     0.129 C 
HETATM   20  C29 UNL     1      -8.489   3.329  12.566  1.00  0.00     0.015 C 
BRANCH  17  21
HETATM   21  O4  UNL     1      -9.004   6.096  13.294  1.00  0.00    -0.390 OA
HETATM   22  H44 UNL     1      -9.112   6.976  12.894  1.00  0.00     0.210 HD
ENDBRANCH  17  21
BRANCH  19  23
HETATM   23  O3  UNL     1      -5.766   3.754  11.699  1.00  0.00    -0.395 OA
HETATM   24  H38 UNL     1      -4.814   3.596  11.581  1.00  0.00     0.210 HD
ENDBRANCH  19  23
ENDBRANCH   1  12
BRANCH  11  25
HETATM   25  C16 UNL     1       2.831   8.105  12.293  1.00  0.00    -0.011 C 
HETATM   26  C17 UNL     1       3.875   8.923  13.065  1.00  0.00     0.010 C 
BRANCH  25  27
HETATM   27  C18 UNL     1       3.538   7.277  11.199  1.00  0.00     0.038 C 
BRANCH  27  28
HETATM   28  C19 UNL     1       2.677   6.715  10.056  1.00  0.00     0.141 C 
HETATM   29  O1  UNL     1       3.314   5.482   9.654  1.00  0.00    -0.311 OA
HETATM   30  C20 UNL     1       3.169   5.280   8.321  1.00  0.00     0.289 C 
HETATM   31  O2  UNL     1       3.475   4.270   7.717  1.00  0.00    -0.260 OA
HETATM   32  C21 UNL     1       2.585   6.513   7.746  1.00  0.00     0.014 C 
HETATM   33  C22 UNL     1       2.090   6.510   6.502  1.00  0.00     0.025 C 
HETATM   34  C23 UNL     1       2.629   7.584   8.791  1.00  0.00     0.053 C 
BRANCH  34  35
HETATM   35  C24 UNL     1       1.459   8.579   8.770  1.00  0.00     0.007 C 
HETATM   36  C25 UNL     1       0.150   7.962   9.255  1.00  0.00     0.006 C 
ENDBRANCH  34  35
ENDBRANCH  27  28
ENDBRANCH  25  27
ENDBRANCH  11  25
TORSDOF 7
ENDMDL
MODEL 5
REMARK minimizedAffinity -9.6459713
REMARK  7 active torsions:
REMARK  status: ('A' for Active; 'I' for Inactive)
REMARK    1  A    between atoms: C4_4  and  C5_5 
REMARK    2  A    between atoms: C15_15  and  C16_16 
REMARK    3  A    between atoms: C16_16  and  C18_18 
REMARK    4  A    between atoms: C18_18  and  C19_19 
REMARK    5  A    between atoms: C23_25  and  C24_26 
REMARK    6  A    between atoms: C27_29  and  O3_30 
REMARK    7  A    between atoms: C30_33  and  O4_34 
ROOT
HETATM    1  C5  UNL     1      -4.183   5.634  13.531  1.00  0.00     0.004 C 
HETATM    2  C6  UNL     1      -3.410   6.697  13.228  1.00  0.00    -0.075 C 
HETATM    3  C7  UNL     1      -3.898   8.023  12.665  1.00  0.00     0.034 C 
HETATM    4  C8  UNL     1      -3.407   9.224  13.482  1.00  0.00     0.005 C 
HETATM    5  C9  UNL     1      -1.889   9.195  13.728  1.00  0.00     0.010 C 
HETATM    6  C10 UNL     1      -1.420   7.853  14.319  1.00  0.00    -0.033 C 
HETATM    7  C11 UNL     1      -2.012   7.733  15.760  1.00  0.00     0.016 C 
HETATM    8  C12 UNL     1      -1.899   6.701  13.400  1.00  0.00     0.023 C 
HETATM    9  C13 UNL     1      -1.161   5.484  13.957  1.00  0.00     0.010 C 
HETATM   10  C14 UNL     1       0.218   6.023  14.358  1.00  0.00     0.006 C 
HETATM   11  C15 UNL     1       0.116   7.577  14.434  1.00  0.00    -0.002 C 
ENDROOT
BRANCH   1  12
HETATM   12  C4  UNL     1      -5.622   5.539  13.393  1.00  0.00     0.008 C 
HETATM   13  C3  UNL     1      -6.537   6.467  13.743  1.00  0.00    -0.048 C 
HETATM   14  C2  UNL     1      -7.970   6.221  13.534  1.00  0.00    -0.032 C 
HETATM   15  C26 UNL     1      -6.269   7.812  14.391  1.00  0.00     0.071 C 
HETATM   16  C1  UNL     1      -8.454   5.938  12.312  1.00  0.00     0.022 C 
HETATM   17  C30 UNL     1      -8.811   6.384  14.794  1.00  0.00     0.157 C 
HETATM   18  C28 UNL     1      -8.603   7.777  15.414  1.00  0.00     0.044 C 
HETATM   19  C27 UNL     1      -7.106   8.028  15.666  1.00  0.00     0.129 C 
HETATM   20  C29 UNL     1      -9.423   7.942  16.699  1.00  0.00     0.015 C 
BRANCH  17  21
HETATM   21  O4  UNL     1     -10.198   6.200  14.503  1.00  0.00    -0.390 OA
HETATM   22  H44 UNL     1     -10.303   5.258  14.286  1.00  0.00     0.210 HD
ENDBRANCH  17  21
BRANCH  19  23
HETATM   23  O3  UNL     1      -6.638   7.176  16.715  1.00  0.00    -0.395 OA
HETATM   24  H38 UNL     1      -5.671   7.263  16.766  1.00  0.00     0.210 HD
ENDBRANCH  19  23
ENDBRANCH   1  12
BRANCH  11  25
HETATM   25  C16 UNL     1       1.159   8.247  13.484  1.00  0.00    -0.011 C 
HETATM   26  C17 UNL     1       2.395   8.829  14.185  1.00  0.00     0.010 C 
BRANCH  25  27
HETATM   27  C18 UNL     1       1.610   7.382  12.289  1.00  0.00     0.038 C 
BRANCH  27  28
HETATM   28  C19 UNL     1       1.714   8.060  10.911  1.00  0.00     0.141 C 
HETATM   29  O1  UNL     1       0.385   8.540  10.609  1.00  0.00    -0.311 OA
HETATM   30  C20 UNL     1       0.142   8.471   9.277  1.00  0.00     0.289 C 
HETATM   31  O2  UNL     1      -0.829   8.929   8.707  1.00  0.00    -0.260 OA
HETATM   32  C21 UNL     1       1.266   7.732   8.659  1.00  0.00     0.014 C 
HETATM   33  C22 UNL     1       1.429   7.737   7.330  1.00  0.00     0.025 C 
HETATM   34  C23 UNL     1       2.085   7.123   9.754  1.00  0.00     0.053 C 
BRANCH  34  35
HETATM   35  C24 UNL     1       3.596   7.042   9.485  1.00  0.00     0.007 C 
HETATM   36  C25 UNL     1       4.343   6.245  10.549  1.00  0.00     0.006 C 
ENDBRANCH  34  35
ENDBRANCH  27  28
ENDBRANCH  25  27
ENDBRANCH  11  25
TORSDOF 7
ENDMDL
MODEL 6
REMARK minimizedAffinity -9.63668919
REMARK  7 active torsions:
REMARK  status: ('A' for Active; 'I' for Inactive)
REMARK    1  A    between atoms: C4_4  and  C5_5 
REMARK    2  A    between atoms: C15_15  and  C16_16 
REMARK    3  A    between atoms: C16_16  and  C18_18 
REMARK    4  A    between atoms: C18_18  and  C19_19 
REMARK    5  A    between atoms: C23_25  and  C24_26 
REMARK    6  A    between atoms: C27_29  and  O3_30 
REMARK    7  A    between atoms: C30_33  and  O4_34 
ROOT
HETATM    1  C5  UNL     1     -10.330   6.936  14.285  1.00  0.00     0.004 C 
HETATM    2  C6  UNL     1      -9.016   7.097  14.541  1.00  0.00    -0.075 C 
HETATM    3  C7  UNL     1      -8.419   8.029  15.584  1.00  0.00     0.034 C 
HETATM    4  C8  UNL     1      -7.442   7.310  16.523  1.00  0.00     0.005 C 
HETATM    5  C9  UNL     1      -6.382   6.494  15.765  1.00  0.00     0.010 C 
HETATM    6  C10 UNL     1      -7.009   5.541  14.730  1.00  0.00    -0.033 C 
HETATM    7  C11 UNL     1      -7.804   4.446  15.511  1.00  0.00     0.016 C 
HETATM    8  C12 UNL     1      -7.926   6.356  13.784  1.00  0.00     0.023 C 
HETATM    9  C13 UNL     1      -8.266   5.352  12.682  1.00  0.00     0.010 C 
HETATM   10  C14 UNL     1      -6.975   4.550  12.483  1.00  0.00     0.006 C 
HETATM   11  C15 UNL     1      -6.068   4.794  13.729  1.00  0.00    -0.002 C 
ENDROOT
BRANCH   1  12
HETATM   12  C4  UNL     1     -11.433   7.602  14.948  1.00  0.00     0.008 C 
HETATM   13  C3  UNL     1     -12.562   8.072  14.377  1.00  0.00    -0.048 C 
HETATM   14  C2  UNL     1     -13.596   8.724  15.192  1.00  0.00    -0.032 C 
HETATM   15  C26 UNL     1     -12.921   8.039  12.904  1.00  0.00     0.071 C 
HETATM   16  C1  UNL     1     -14.167   8.085  16.229  1.00  0.00     0.022 C 
HETATM   17  C30 UNL     1     -13.976  10.116  14.703  1.00  0.00     0.157 C 
HETATM   18  C28 UNL     1     -14.417  10.077  13.229  1.00  0.00     0.044 C 
HETATM   19  C27 UNL     1     -13.323   9.425  12.365  1.00  0.00     0.129 C 
HETATM   20  C29 UNL     1     -14.774  11.478  12.718  1.00  0.00     0.015 C 
BRANCH  17  21
HETATM   21  O4  UNL     1     -15.033  10.660  15.496  1.00  0.00    -0.390 OA
HETATM   22  H44 UNL     1     -14.649  10.829  16.373  1.00  0.00     0.210 HD
ENDBRANCH  17  21
BRANCH  19  23
HETATM   23  O3  UNL     1     -12.179  10.280  12.299  1.00  0.00    -0.395 OA
HETATM   24  H38 UNL     1     -11.463   9.792  11.857  1.00  0.00     0.210 HD
ENDBRANCH  19  23
ENDBRANCH   1  12
BRANCH  11  25
HETATM   25  C16 UNL     1      -4.680   5.366  13.299  1.00  0.00    -0.011 C 
HETATM   26  C17 UNL     1      -3.627   5.422  14.414  1.00  0.00     0.010 C 
BRANCH  25  27
HETATM   27  C18 UNL     1      -4.060   4.714  12.045  1.00  0.00     0.038 C 
BRANCH  27  28
HETATM   28  C19 UNL     1      -3.012   3.607  12.256  1.00  0.00     0.141 C 
HETATM   29  O1  UNL     1      -1.730   4.230  12.020  1.00  0.00    -0.311 OA
HETATM   30  C20 UNL     1      -0.866   3.349  11.459  1.00  0.00     0.289 C 
HETATM   31  O2  UNL     1       0.321   3.539  11.273  1.00  0.00    -0.260 OA
HETATM   32  C21 UNL     1      -1.634   2.133  11.111  1.00  0.00     0.014 C 
HETATM   33  C22 UNL     1      -0.998   1.001  10.784  1.00  0.00     0.025 C 
HETATM   34  C23 UNL     1      -3.092   2.441  11.261  1.00  0.00     0.053 C 
BRANCH  34  35
HETATM   35  C24 UNL     1      -3.969   1.276  11.744  1.00  0.00     0.007 C 
HETATM   36  C25 UNL     1      -5.429   1.423  11.327  1.00  0.00     0.006 C 
ENDBRANCH  34  35
ENDBRANCH  27  28
ENDBRANCH  25  27
ENDBRANCH  11  25
TORSDOF 7
ENDMDL
MODEL 7
REMARK minimizedAffinity -9.57615948
REMARK  7 active torsions:
REMARK  status: ('A' for Active; 'I' for Inactive)
REMARK    1  A    between atoms: C4_4  and  C5_5 
REMARK    2  A    between atoms: C15_15  and  C16_16 
REMARK    3  A    between atoms: C16_16  and  C18_18 
REMARK    4  A    between atoms: C18_18  and  C19_19 
REMARK    5  A    between atoms: C23_25  and  C24_26 
REMARK    6  A    between atoms: C27_29  and  O3_30 
REMARK    7  A    between atoms: C30_33  and  O4_34 
ROOT
HETATM    1  C5  UNL     1       2.798   7.668  11.463  1.00  0.00     0.004 C 
HETATM    2  C6  UNL     1       1.969   7.517  12.516  1.00  0.00    -0.075 C 
HETATM    3  C7  UNL     1       2.121   8.186  13.873  1.00  0.00     0.034 C 
HETATM    4  C8  UNL     1       0.846   8.916  14.313  1.00  0.00     0.005 C 
HETATM    5  C9  UNL     1      -0.409   8.032  14.214  1.00  0.00     0.010 C 
HETATM    6  C10 UNL     1      -0.555   7.382  12.826  1.00  0.00    -0.033 C 
HETATM    7  C11 UNL     1      -0.843   8.519  11.794  1.00  0.00     0.016 C 
HETATM    8  C12 UNL     1       0.747   6.612  12.488  1.00  0.00     0.023 C 
HETATM    9  C13 UNL     1       0.369   5.827  11.233  1.00  0.00     0.010 C 
HETATM   10  C14 UNL     1      -1.086   5.405  11.468  1.00  0.00     0.006 C 
HETATM   11  C15 UNL     1      -1.656   6.290  12.619  1.00  0.00    -0.002 C 
ENDROOT
BRANCH   1  12
HETATM   12  C4  UNL     1       3.984   8.498  11.402  1.00  0.00     0.008 C 
HETATM   13  C3  UNL     1       5.259   8.113  11.616  1.00  0.00    -0.048 C 
HETATM   14  C2  UNL     1       6.360   9.079  11.512  1.00  0.00    -0.032 C 
HETATM   15  C26 UNL     1       5.740   6.726  12.000  1.00  0.00     0.071 C 
HETATM   16  C1  UNL     1       6.566   9.776  10.380  1.00  0.00     0.022 C 
HETATM   17  C30 UNL     1       7.239   9.145  12.754  1.00  0.00     0.157 C 
HETATM   18  C28 UNL     1       7.795   7.753  13.105  1.00  0.00     0.044 C 
HETATM   19  C27 UNL     1       6.643   6.742  13.247  1.00  0.00     0.129 C 
HETATM   20  C29 UNL     1       8.659   7.802  14.370  1.00  0.00     0.015 C 
BRANCH  17  21
HETATM   21  O4  UNL     1       8.328  10.050  12.557  1.00  0.00    -0.390 OA
HETATM   22  H44 UNL     1       7.933  10.937  12.517  1.00  0.00     0.210 HD
ENDBRANCH  17  21
BRANCH  19  23
HETATM   23  O3  UNL     1       5.872   7.044  14.413  1.00  0.00    -0.395 OA
HETATM   24  H38 UNL     1       5.084   6.473  14.409  1.00  0.00     0.210 HD
ENDBRANCH  19  23
ENDBRANCH   1  12
BRANCH  11  25
HETATM   25  C16 UNL     1      -2.184   5.403  13.789  1.00  0.00    -0.011 C 
HETATM   26  C17 UNL     1      -2.645   6.175  15.033  1.00  0.00     0.010 C 
BRANCH  25  27
HETATM   27  C18 UNL     1      -3.266   4.374  13.398  1.00  0.00     0.038 C 
BRANCH  27  28
HETATM   28  C19 UNL     1      -4.556   4.903  12.748  1.00  0.00     0.141 C 
HETATM   29  O1  UNL     1      -5.078   5.895  13.660  1.00  0.00    -0.311 OA
HETATM   30  C20 UNL     1      -6.434   5.897  13.641  1.00  0.00     0.289 C 
HETATM   31  O2  UNL     1      -7.151   6.708  14.194  1.00  0.00    -0.260 OA
HETATM   32  C21 UNL     1      -6.868   4.732  12.838  1.00  0.00     0.014 C 
HETATM   33  C22 UNL     1      -8.140   4.628  12.430  1.00  0.00     0.025 C 
HETATM   34  C23 UNL     1      -5.675   3.864  12.588  1.00  0.00     0.053 C 
BRANCH  34  35
HETATM   35  C24 UNL     1      -5.655   3.140  11.232  1.00  0.00     0.007 C 
HETATM   36  C25 UNL     1      -5.694   1.621  11.374  1.00  0.00     0.006 C 
ENDBRANCH  34  35
ENDBRANCH  27  28
ENDBRANCH  25  27
ENDBRANCH  11  25
TORSDOF 7
ENDMDL
MODEL 8
REMARK minimizedAffinity -9.4970417
REMARK  7 active torsions:
REMARK  status: ('A' for Active; 'I' for Inactive)
REMARK    1  A    between atoms: C4_4  and  C5_5 
REMARK    2  A    between atoms: C15_15  and  C16_16 
REMARK    3  A    between atoms: C16_16  and  C18_18 
REMARK    4  A    between atoms: C18_18  and  C19_19 
REMARK    5  A    between atoms: C23_25  and  C24_26 
REMARK    6  A    between atoms: C27_29  and  O3_30 
REMARK    7  A    between atoms: C30_33  and  O4_34 
ROOT
HETATM    1  C5  UNL     1      -9.588   7.214  14.128  1.00  0.00     0.004 C 
HETATM    2  C6  UNL     1      -8.273   6.933  14.019  1.00  0.00    -0.075 C 
HETATM    3  C7  UNL     1      -7.131   7.803  14.521  1.00  0.00     0.034 C 
HETATM    4  C8  UNL     1      -6.151   7.028  15.411  1.00  0.00     0.005 C 
HETATM    5  C9  UNL     1      -5.673   5.716  14.768  1.00  0.00     0.010 C 
HETATM    6  C10 UNL     1      -6.845   4.841  14.287  1.00  0.00    -0.033 C 
HETATM    7  C11 UNL     1      -7.623   4.350  15.550  1.00  0.00     0.016 C 
HETATM    8  C12 UNL     1      -7.746   5.677  13.343  1.00  0.00     0.023 C 
HETATM    9  C13 UNL     1      -8.696   4.633  12.757  1.00  0.00     0.010 C 
HETATM   10  C14 UNL     1      -7.825   3.386  12.568  1.00  0.00     0.006 C 
HETATM   11  C15 UNL     1      -6.534   3.575  13.423  1.00  0.00    -0.002 C 
ENDROOT
BRANCH   1  12
HETATM   12  C4  UNL     1     -10.178   8.384  14.746  1.00  0.00     0.008 C 
HETATM   13  C3  UNL     1     -11.410   8.889  14.523  1.00  0.00    -0.048 C 
HETATM   14  C2  UNL     1     -11.866  10.088  15.237  1.00  0.00    -0.032 C 
HETATM   15  C26 UNL     1     -12.447   8.365  13.549  1.00  0.00     0.071 C 
HETATM   16  C1  UNL     1     -11.893  10.127  16.582  1.00  0.00     0.022 C 
HETATM   17  C30 UNL     1     -12.348  11.204  14.319  1.00  0.00     0.157 C 
HETATM   18  C28 UNL     1     -13.458  10.699  13.379  1.00  0.00     0.044 C 
HETATM   19  C27 UNL     1     -12.973   9.461  12.604  1.00  0.00     0.129 C 
HETATM   20  C29 UNL     1     -13.931  11.806  12.430  1.00  0.00     0.015 C 
BRANCH  17  21
HETATM   21  O4  UNL     1     -12.843  12.308  15.080  1.00  0.00    -0.390 OA
HETATM   22  H44 UNL     1     -12.068  12.699  15.517  1.00  0.00     0.210 HD
ENDBRANCH  17  21
BRANCH  19  23
HETATM   23  O3  UNL     1     -11.958   9.838  11.670  1.00  0.00    -0.395 OA
HETATM   24  H38 UNL     1     -11.583   9.026  11.287  1.00  0.00     0.210 HD
ENDBRANCH  19  23
ENDBRANCH   1  12
BRANCH  11  25
HETATM   25  C16 UNL     1      -5.258   3.465  12.530  1.00  0.00    -0.011 C 
HETATM   26  C17 UNL     1      -5.528   3.237  11.036  1.00  0.00     0.010 C 
BRANCH  25  27
HETATM   27  C18 UNL     1      -4.240   4.613  12.695  1.00  0.00     0.038 C 
BRANCH  27  28
HETATM   28  C19 UNL     1      -2.747   4.245  12.750  1.00  0.00     0.141 C 
HETATM   29  O1  UNL     1      -2.157   5.141  13.718  1.00  0.00    -0.311 OA
HETATM   30  C20 UNL     1      -0.886   5.456  13.367  1.00  0.00     0.289 C 
HETATM   31  O2  UNL     1      -0.092   6.074  14.050  1.00  0.00    -0.260 OA
HETATM   32  C21 UNL     1      -0.655   4.920  12.007  1.00  0.00     0.014 C 
HETATM   33  C22 UNL     1       0.586   4.850  11.509  1.00  0.00     0.025 C 
HETATM   34  C23 UNL     1      -1.972   4.481  11.446  1.00  0.00     0.053 C 
BRANCH  34  35
HETATM   35  C24 UNL     1      -1.924   3.252  10.525  1.00  0.00     0.007 C 
HETATM   36  C25 UNL     1      -1.247   2.051  11.178  1.00  0.00     0.006 C 
ENDBRANCH  34  35
ENDBRANCH  27  28
ENDBRANCH  25  27
ENDBRANCH  11  25
TORSDOF 7
ENDMDL
MODEL 9
REMARK minimizedAffinity -9.47887516
REMARK  7 active torsions:
REMARK  status: ('A' for Active; 'I' for Inactive)
REMARK    1  A    between atoms: C4_4  and  C5_5 
REMARK    2  A    between atoms: C15_15  and  C16_16 
REMARK    3  A    between atoms: C16_16  and  C18_18 
REMARK    4  A    between atoms: C18_18  and  C19_19 
REMARK    5  A    between atoms: C23_25  and  C24_26 
REMARK    6  A    between atoms: C27_29  and  O3_30 
REMARK    7  A    between atoms: C30_33  and  O4_34 
ROOT
HETATM    1  C5  UNL     1      -2.628   5.444  14.027  1.00  0.00     0.004 C 
HETATM    2  C6  UNL     1      -1.475   5.408  13.329  1.00  0.00    -0.075 C 
HETATM    3  C7  UNL     1      -1.208   4.563  12.093  1.00  0.00     0.034 C 
HETATM    4  C8  UNL     1      -0.670   5.393  10.920  1.00  0.00     0.005 C 
HETATM    5  C9  UNL     1       0.523   6.277  11.315  1.00  0.00     0.010 C 
HETATM    6  C10 UNL     1       0.224   7.140  12.555  1.00  0.00    -0.033 C 
HETATM    7  C11 UNL     1      -0.869   8.182  12.158  1.00  0.00     0.016 C 
HETATM    8  C12 UNL     1      -0.247   6.220  13.709  1.00  0.00     0.023 C 
HETATM    9  C13 UNL     1      -0.259   7.158  14.916  1.00  0.00     0.010 C 
HETATM   10  C14 UNL     1       0.959   8.065  14.708  1.00  0.00     0.006 C 
HETATM   11  C15 UNL     1       1.396   7.938  13.216  1.00  0.00    -0.002 C 
ENDROOT
BRANCH   1  12
HETATM   12  C4  UNL     1      -3.840   4.703  13.744  1.00  0.00     0.008 C 
HETATM   13  C3  UNL     1      -5.043   5.209  13.402  1.00  0.00    -0.048 C 
HETATM   14  C2  UNL     1      -6.182   4.320  13.141  1.00  0.00    -0.032 C 
HETATM   15  C26 UNL     1      -5.410   6.675  13.268  1.00  0.00     0.071 C 
HETATM   16  C1  UNL     1      -6.112   3.362  12.199  1.00  0.00     0.022 C 
HETATM   17  C30 UNL     1      -7.416   4.640  13.975  1.00  0.00     0.157 C 
HETATM   18  C28 UNL     1      -7.841   6.107  13.782  1.00  0.00     0.044 C 
HETATM   19  C27 UNL     1      -6.660   7.046  14.087  1.00  0.00     0.129 C 
HETATM   20  C29 UNL     1      -9.065   6.448  14.639  1.00  0.00     0.015 C 
BRANCH  17  21
HETATM   21  O4  UNL     1      -8.504   3.785  13.619  1.00  0.00    -0.390 OA
HETATM   22  H44 UNL     1      -8.254   2.895  13.923  1.00  0.00     0.210 HD
ENDBRANCH  17  21
BRANCH  19  23
HETATM   23  O3  UNL     1      -6.362   7.017  15.485  1.00  0.00    -0.395 OA
HETATM   24  H38 UNL     1      -5.540   7.516  15.628  1.00  0.00     0.210 HD
ENDBRANCH  19  23
ENDBRANCH   1  12
BRANCH  11  25
HETATM   25  C16 UNL     1       2.884   7.479  13.112  1.00  0.00    -0.011 C 
HETATM   26  C17 UNL     1       3.374   7.179  11.688  1.00  0.00     0.010 C 
BRANCH  25  27
HETATM   27  C18 UNL     1       3.906   8.395  13.819  1.00  0.00     0.038 C 
BRANCH  27  28
HETATM   28  C19 UNL     1       5.163   7.740  14.416  1.00  0.00     0.141 C 
HETATM   29  O1  UNL     1       5.440   8.461  15.637  1.00  0.00    -0.311 OA
HETATM   30  C20 UNL     1       6.776   8.535  15.857  1.00  0.00     0.289 C 
HETATM   31  O2  UNL     1       7.308   8.957  16.866  1.00  0.00    -0.260 OA
HETATM   32  C21 UNL     1       7.455   8.022  14.646  1.00  0.00     0.014 C 
HETATM   33  C22 UNL     1       8.762   7.733  14.675  1.00  0.00     0.025 C 
HETATM   34  C23 UNL     1       6.432   7.875  13.563  1.00  0.00     0.053 C 
BRANCH  34  35
HETATM   35  C24 UNL     1       6.654   6.701  12.597  1.00  0.00     0.007 C 
HETATM   36  C25 UNL     1       6.920   7.155  11.165  1.00  0.00     0.006 C 
ENDBRANCH  34  35
ENDBRANCH  27  28
ENDBRANCH  25  27
ENDBRANCH  11  25
TORSDOF 7
ENDMDL
