MODEL 1
REMARK minimizedAffinity -11.1106777
REMARK CNNscore 0.370214134
REMARK CNNaffinity 7.15822744
REMARK  10 active torsions:
REMARK  status: ('A' for Active; 'I' for Inactive)
REMARK    1  A    between atoms: C3_3  and  C4_4 
REMARK    2  A    between atoms: C4_4  and  O1_5 
REMARK    3  A    between atoms: O1_5  and  C5_6 
REMARK    4  A    between atoms: C6_8  and  C7_9 
REMARK    5  A    between atoms: C7_9  and  O3_10 
REMARK    6  A    between atoms: C8_11  and  O4_12 
REMARK    7  A    between atoms: C9_13  and  O5_14 
REMARK    8  A    between atoms: C10_15  and  O6_16 
REMARK    9  A    between atoms: C12_20  and  C13_21 
REMARK   10  A    between atoms: C13_21  and  C15_23 
ROOT
HETATM    1  C1  UNL     1      -3.039  49.010 -26.980  1.00  0.00     0.044 C 
HETATM    2  C2  UNL     1      -4.358  48.824 -26.289  1.00  0.00    -0.067 C 
HETATM    3  C3  UNL     1      -5.404  48.134 -26.797  1.00  0.00     0.043 C 
HETATM    4  C11 UNL     1      -6.687  48.087 -26.040  1.00  0.00     0.292 C 
HETATM    5  O7  UNL     1      -7.743  47.765 -26.576  1.00  0.00    -0.260 OA
HETATM    6  O8  UNL     1      -6.649  48.445 -24.729  1.00  0.00    -0.311 OA
HETATM    7  C12 UNL     1      -5.378  48.587 -24.048  1.00  0.00     0.140 C 
HETATM    8  C34 UNL     1      -4.458  49.446 -24.919  1.00  0.00     0.067 C 
ENDROOT
BRANCH   7   9
HETATM    9  C13 UNL     1      -5.663  49.185 -22.629  1.00  0.00     0.016 C 
HETATM   10  C14 UNL     1      -6.046  50.663 -22.719  1.00  0.00     0.013 C 
BRANCH   9  11
HETATM   11  C15 UNL     1      -4.448  48.907 -21.683  1.00  0.00     0.000 C 
HETATM   12  C16 UNL     1      -3.650  47.646 -22.054  1.00  0.00     0.006 C 
HETATM   13  C17 UNL     1      -2.379  48.160 -22.694  1.00  0.00     0.006 C 
HETATM   14  C18 UNL     1      -2.002  49.371 -21.835  1.00  0.00    -0.002 C 
HETATM   15  C19 UNL     1      -0.969  50.288 -22.517  1.00  0.00    -0.004 C 
HETATM   16  C32 UNL     1      -3.351  50.023 -21.433  1.00  0.00    -0.036 C 
HETATM   17  C20 UNL     1      -0.282  51.222 -21.505  1.00  0.00     0.006 C 
HETATM   18  C29 UNL     1      -1.561  51.055 -23.729  1.00  0.00     0.006 C 
HETATM   19  C21 UNL     1       0.742  52.152 -22.157  1.00  0.00     0.006 C 
HETATM   20  C22 UNL     1       0.094  52.941 -23.298  1.00  0.00     0.001 C 
HETATM   21  C23 UNL     1       1.051  54.003 -23.859  1.00  0.00     0.006 C 
HETATM   22  C27 UNL     1      -0.485  52.001 -24.390  1.00  0.00     0.024 C 
HETATM   23  C24 UNL     1       0.319  54.862 -24.885  1.00  0.00     0.008 C 
HETATM   24  C25 UNL     1      -0.253  54.035 -26.023  1.00  0.00     0.079 C 
HETATM   25  C26 UNL     1      -1.066  52.846 -25.542  1.00  0.00     0.136 C 
HETATM   26  O9  UNL     1      -2.070  52.499 -26.166  1.00  0.00    -0.297 OA
HETATM   27  C28 UNL     1       0.608  51.134 -25.070  1.00  0.00     0.024 C 
HETATM   28  C30 UNL     1      -2.887  51.766 -23.385  1.00  0.00     0.007 C 
HETATM   29  C31 UNL     1      -3.568  51.423 -22.053  1.00  0.00     0.010 C 
HETATM   30  C33 UNL     1      -3.332  50.240 -19.891  1.00  0.00     0.016 C 
ENDBRANCH   9  11
ENDBRANCH   7   9
BRANCH   3  31
HETATM   31  C4  UNL     1      -5.424  47.443 -28.136  1.00  0.00     0.216 C 
BRANCH  31  32
HETATM   32  O1  UNL     1      -4.632  48.207 -29.049  1.00  0.00    -0.354 OA
BRANCH  32  33
HETATM   33  C5  UNL     1      -5.310  48.572 -30.254  1.00  0.00     0.291 C 
HETATM   34  O2  UNL     1      -4.576  47.962 -31.319  1.00  0.00    -0.348 OA
HETATM   35  C6  UNL     1      -5.133  48.168 -32.622  1.00  0.00     0.179 C 
HETATM   36  C8  UNL     1      -6.537  47.562 -32.706  1.00  0.00     0.180 C 
HETATM   37  C9  UNL     1      -7.404  48.201 -31.626  1.00  0.00     0.183 C 
HETATM   38  C10 UNL     1      -6.777  48.087 -30.241  1.00  0.00     0.204 C 
BRANCH  35  39
HETATM   39  C7  UNL     1      -4.192  47.517 -33.645  1.00  0.00     0.198 C 
BRANCH  39  40
HETATM   40  O3  UNL     1      -3.230  48.442 -34.151  1.00  0.00    -0.398 OA
HETATM   41  H10 UNL     1      -3.469  49.334 -33.824  1.00  0.00     0.209 HD
ENDBRANCH  39  40
ENDBRANCH  35  39
BRANCH  36  42
HETATM   42  O4  UNL     1      -7.146  47.828 -33.975  1.00  0.00    -0.390 OA
HETATM   43  H12 UNL     1      -6.949  47.076 -34.561  1.00  0.00     0.210 HD
ENDBRANCH  36  42
BRANCH  37  44
HETATM   44  O5  UNL     1      -8.695  47.572 -31.600  1.00  0.00    -0.390 OA
HETATM   45  H14 UNL     1      -9.120  47.808 -32.444  1.00  0.00     0.210 HD
ENDBRANCH  37  44
BRANCH  38  46
HETATM   46  O6  UNL     1      -7.589  48.867 -29.347  1.00  0.00    -0.388 OA
HETATM   47  H16 UNL     1      -8.486  48.479 -29.413  1.00  0.00     0.210 HD
ENDBRANCH  38  46
ENDBRANCH  32  33
ENDBRANCH  31  32
ENDBRANCH   3  31
TORSDOF 10
ENDMDL
MODEL 2
REMARK minimizedAffinity -10.6476393
REMARK CNNscore 0.302852929
REMARK CNNaffinity 6.51066208
REMARK  10 active torsions:
REMARK  status: ('A' for Active; 'I' for Inactive)
REMARK    1  A    between atoms: C3_3  and  C4_4 
REMARK    2  A    between atoms: C4_4  and  O1_5 
REMARK    3  A    between atoms: O1_5  and  C5_6 
REMARK    4  A    between atoms: C6_8  and  C7_9 
REMARK    5  A    between atoms: C7_9  and  O3_10 
REMARK    6  A    between atoms: C8_11  and  O4_12 
REMARK    7  A    between atoms: C9_13  and  O5_14 
REMARK    8  A    between atoms: C10_15  and  O6_16 
REMARK    9  A    between atoms: C12_20  and  C13_21 
REMARK   10  A    between atoms: C13_21  and  C15_23 
ROOT
HETATM    1  C1  UNL     1      -1.195  50.360 -21.781  1.00  0.00     0.044 C 
HETATM    2  C2  UNL     1      -0.438  51.163 -20.764  1.00  0.00    -0.067 C 
HETATM    3  C3  UNL     1       0.115  52.376 -20.996  1.00  0.00     0.043 C 
HETATM    4  C11 UNL     1       0.906  53.038 -19.920  1.00  0.00     0.292 C 
HETATM    5  O7  UNL     1       1.683  53.956 -20.160  1.00  0.00    -0.260 OA
HETATM    6  O8  UNL     1       0.755  52.563 -18.655  1.00  0.00    -0.311 OA
HETATM    7  C12 UNL     1      -0.330  51.654 -18.342  1.00  0.00     0.140 C 
HETATM    8  C34 UNL     1      -0.346  50.542 -19.394  1.00  0.00     0.067 C 
ENDROOT
BRANCH   7   9
HETATM    9  C13 UNL     1      -0.118  51.149 -16.875  1.00  0.00     0.016 C 
HETATM   10  C14 UNL     1       1.265  51.538 -16.351  1.00  0.00     0.013 C 
BRANCH   9  11
HETATM   11  C15 UNL     1      -0.411  49.614 -16.795  1.00  0.00     0.000 C 
HETATM   12  C16 UNL     1       0.734  48.796 -16.173  1.00  0.00     0.006 C 
HETATM   13  C17 UNL     1       0.254  48.442 -14.783  1.00  0.00     0.006 C 
HETATM   14  C18 UNL     1      -1.227  48.106 -14.983  1.00  0.00    -0.002 C 
HETATM   15  C19 UNL     1      -2.021  48.095 -13.663  1.00  0.00    -0.004 C 
HETATM   16  C32 UNL     1      -1.723  49.081 -16.083  1.00  0.00    -0.036 C 
HETATM   17  C20 UNL     1      -3.356  47.344 -13.808  1.00  0.00     0.006 C 
HETATM   18  C29 UNL     1      -2.198  49.514 -13.063  1.00  0.00     0.006 C 
HETATM   19  C21 UNL     1      -4.170  47.327 -12.514  1.00  0.00     0.006 C 
HETATM   20  C22 UNL     1      -4.382  48.753 -11.999  1.00  0.00     0.001 C 
HETATM   21  C23 UNL     1      -5.337  48.778 -10.797  1.00  0.00     0.006 C 
HETATM   22  C27 UNL     1      -3.033  49.470 -11.724  1.00  0.00     0.024 C 
HETATM   23  C24 UNL     1      -5.639  50.222 -10.412  1.00  0.00     0.008 C 
HETATM   24  C25 UNL     1      -4.379  51.004 -10.082  1.00  0.00     0.079 C 
HETATM   25  C26 UNL     1      -3.305  50.875 -11.149  1.00  0.00     0.136 C 
HETATM   26  O9  UNL     1      -2.588  51.841 -11.414  1.00  0.00    -0.297 OA
HETATM   27  C28 UNL     1      -2.196  48.766 -10.623  1.00  0.00     0.024 C 
HETATM   28  C30 UNL     1      -2.732  50.528 -14.096  1.00  0.00     0.007 C 
HETATM   29  C31 UNL     1      -2.756  50.112 -15.573  1.00  0.00     0.010 C 
HETATM   30  C33 UNL     1      -2.462  48.240 -17.165  1.00  0.00     0.016 C 
ENDBRANCH   9  11
ENDBRANCH   7   9
BRANCH   3  31
HETATM   31  C4  UNL     1       0.070  53.118 -22.307  1.00  0.00     0.216 C 
BRANCH  31  32
HETATM   32  O1  UNL     1      -0.684  52.339 -23.240  1.00  0.00    -0.354 OA
BRANCH  32  33
HETATM   33  C5  UNL     1      -0.437  52.661 -24.611  1.00  0.00     0.291 C 
HETATM   34  O2  UNL     1       0.780  51.994 -24.959  1.00  0.00    -0.348 OA
HETATM   35  C6  UNL     1       1.176  52.152 -26.325  1.00  0.00     0.179 C 
HETATM   36  C8  UNL     1       0.116  51.563 -27.262  1.00  0.00     0.180 C 
HETATM   37  C9  UNL     1      -1.211  52.260 -26.987  1.00  0.00     0.183 C 
HETATM   38  C10 UNL     1      -1.602  52.198 -25.513  1.00  0.00     0.204 C 
BRANCH  35  39
HETATM   39  C7  UNL     1       2.526  51.443 -26.510  1.00  0.00     0.198 C 
BRANCH  39  40
HETATM   40  O3  UNL     1       3.274  51.991 -27.595  1.00  0.00    -0.398 OA
HETATM   41  H10 UNL     1       2.695  52.622 -28.071  1.00  0.00     0.209 HD
ENDBRANCH  39  40
ENDBRANCH  35  39
BRANCH  36  42
HETATM   42  O4  UNL     1       0.453  51.782 -28.636  1.00  0.00    -0.390 OA
HETATM   43  H12 UNL     1       0.946  51.002 -28.948  1.00  0.00     0.210 HD
ENDBRANCH  36  42
BRANCH  37  44
HETATM   44  O5  UNL     1      -2.254  51.652 -27.765  1.00  0.00    -0.390 OA
HETATM   45  H14 UNL     1      -2.043  51.856 -28.694  1.00  0.00     0.210 HD
ENDBRANCH  37  44
BRANCH  38  46
HETATM   46  O6  UNL     1      -2.765  53.028 -25.352  1.00  0.00    -0.388 OA
HETATM   47  H16 UNL     1      -3.434  52.650 -25.960  1.00  0.00     0.210 HD
ENDBRANCH  38  46
ENDBRANCH  32  33
ENDBRANCH  31  32
ENDBRANCH   3  31
TORSDOF 10
ENDMDL
MODEL 3
REMARK minimizedAffinity -9.06179237
REMARK CNNscore 0.29676348
REMARK CNNaffinity 6.31400681
REMARK  10 active torsions:
REMARK  status: ('A' for Active; 'I' for Inactive)
REMARK    1  A    between atoms: C3_3  and  C4_4 
REMARK    2  A    between atoms: C4_4  and  O1_5 
REMARK    3  A    between atoms: O1_5  and  C5_6 
REMARK    4  A    between atoms: C6_8  and  C7_9 
REMARK    5  A    between atoms: C7_9  and  O3_10 
REMARK    6  A    between atoms: C8_11  and  O4_12 
REMARK    7  A    between atoms: C9_13  and  O5_14 
REMARK    8  A    between atoms: C10_15  and  O6_16 
REMARK    9  A    between atoms: C12_20  and  C13_21 
REMARK   10  A    between atoms: C13_21  and  C15_23 
ROOT
HETATM    1  C1  UNL     1      -8.127  45.085 -23.500  1.00  0.00     0.044 C 
HETATM    2  C2  UNL     1      -7.867  46.535 -23.782  1.00  0.00    -0.067 C 
HETATM    3  C3  UNL     1      -8.817  47.440 -24.113  1.00  0.00     0.043 C 
HETATM    4  C11 UNL     1      -8.415  48.837 -24.441  1.00  0.00     0.292 C 
HETATM    5  O7  UNL     1      -9.163  49.599 -25.046  1.00  0.00    -0.260 OA
HETATM    6  O8  UNL     1      -7.168  49.230 -24.068  1.00  0.00    -0.311 OA
HETATM    7  C12 UNL     1      -6.392  48.419 -23.153  1.00  0.00     0.140 C 
HETATM    8  C34 UNL     1      -6.430  46.969 -23.642  1.00  0.00     0.067 C 
ENDROOT
BRANCH   7   9
HETATM    9  C13 UNL     1      -4.954  49.034 -23.076  1.00  0.00     0.016 C 
HETATM   10  C14 UNL     1      -4.074  48.528 -24.220  1.00  0.00     0.013 C 
BRANCH   9  11
HETATM   11  C15 UNL     1      -4.345  48.783 -21.656  1.00  0.00     0.000 C 
HETATM   12  C16 UNL     1      -3.420  47.555 -21.587  1.00  0.00     0.006 C 
HETATM   13  C17 UNL     1      -2.018  48.122 -21.528  1.00  0.00     0.006 C 
HETATM   14  C18 UNL     1      -2.154  49.332 -20.597  1.00  0.00    -0.002 C 
HETATM   15  C19 UNL     1      -0.955  50.294 -20.691  1.00  0.00    -0.004 C 
HETATM   16  C32 UNL     1      -3.551  49.931 -20.905  1.00  0.00    -0.036 C 
HETATM   17  C20 UNL     1      -0.884  51.234 -19.475  1.00  0.00     0.006 C 
HETATM   18  C29 UNL     1      -0.909  51.060 -22.039  1.00  0.00     0.006 C 
HETATM   19  C21 UNL     1       0.292  52.210 -19.547  1.00  0.00     0.006 C 
HETATM   20  C22 UNL     1       0.253  52.994 -20.861  1.00  0.00     0.001 C 
HETATM   21  C23 UNL     1       1.323  54.097 -20.886  1.00  0.00     0.006 C 
HETATM   22  C27 UNL     1       0.317  52.052 -22.094  1.00  0.00     0.024 C 
HETATM   23  C24 UNL     1       1.152  54.946 -22.141  1.00  0.00     0.008 C 
HETATM   24  C25 UNL     1       1.239  54.119 -23.412  1.00  0.00     0.079 C 
HETATM   25  C26 UNL     1       0.339  52.895 -23.385  1.00  0.00     0.136 C 
HETATM   26  O9  UNL     1      -0.219  52.525 -24.419  1.00  0.00    -0.297 OA
HETATM   27  C28 UNL     1       1.634  51.234 -22.152  1.00  0.00     0.024 C 
HETATM   28  C30 UNL     1      -2.261  51.720 -22.387  1.00  0.00     0.007 C 
HETATM   29  C31 UNL     1      -3.491  51.333 -21.557  1.00  0.00     0.010 C 
HETATM   30  C33 UNL     1      -4.295  50.124 -19.551  1.00  0.00     0.016 C 
ENDBRANCH   9  11
ENDBRANCH   7   9
BRANCH   3  31
HETATM   31  C4  UNL     1     -10.288  47.144 -24.257  1.00  0.00     0.216 C 
BRANCH  31  32
HETATM   32  O1  UNL     1     -10.770  47.820 -25.421  1.00  0.00    -0.354 OA
BRANCH  32  33
HETATM   33  C5  UNL     1     -10.947  46.974 -26.562  1.00  0.00     0.291 C 
HETATM   34  O2  UNL     1     -12.357  46.927 -26.801  1.00  0.00    -0.348 OA
HETATM   35  C6  UNL     1     -12.740  46.163 -27.949  1.00  0.00     0.179 C 
HETATM   36  C8  UNL     1     -12.138  46.768 -29.221  1.00  0.00     0.180 C 
HETATM   37  C9  UNL     1     -10.622  46.810 -29.066  1.00  0.00     0.183 C 
HETATM   38  C10 UNL     1     -10.193  47.528 -27.791  1.00  0.00     0.204 C 
BRANCH  35  39
HETATM   39  C7  UNL     1     -14.274  46.153 -28.018  1.00  0.00     0.198 C 
BRANCH  39  40
HETATM   40  O3  UNL     1     -14.754  45.408 -29.136  1.00  0.00    -0.398 OA
HETATM   41  H10 UNL     1     -13.984  45.172 -29.694  1.00  0.00     0.209 HD
ENDBRANCH  39  40
ENDBRANCH  35  39
BRANCH  36  42
HETATM   42  O4  UNL     1     -12.442  45.973 -30.373  1.00  0.00    -0.390 OA
HETATM   43  H12 UNL     1     -13.258  46.327 -30.770  1.00  0.00     0.210 HD
ENDBRANCH  36  42
BRANCH  37  44
HETATM   44  O5  UNL     1     -10.033  47.479 -30.192  1.00  0.00    -0.390 OA
HETATM   45  H14 UNL     1     -10.198  46.901 -30.958  1.00  0.00     0.210 HD
ENDBRANCH  37  44
BRANCH  38  46
HETATM   46  O6  UNL     1      -8.771  47.351 -27.669  1.00  0.00    -0.388 OA
HETATM   47  H16 UNL     1      -8.395  47.733 -28.489  1.00  0.00     0.210 HD
ENDBRANCH  38  46
ENDBRANCH  32  33
ENDBRANCH  31  32
ENDBRANCH   3  31
TORSDOF 10
ENDMDL
MODEL 4
REMARK minimizedAffinity -10.4628391
REMARK CNNscore 0.259180278
REMARK CNNaffinity 6.23740244
REMARK  10 active torsions:
REMARK  status: ('A' for Active; 'I' for Inactive)
REMARK    1  A    between atoms: C3_3  and  C4_4 
REMARK    2  A    between atoms: C4_4  and  O1_5 
REMARK    3  A    between atoms: O1_5  and  C5_6 
REMARK    4  A    between atoms: C6_8  and  C7_9 
REMARK    5  A    between atoms: C7_9  and  O3_10 
REMARK    6  A    between atoms: C8_11  and  O4_12 
REMARK    7  A    between atoms: C9_13  and  O5_14 
REMARK    8  A    between atoms: C10_15  and  O6_16 
REMARK    9  A    between atoms: C12_20  and  C13_21 
REMARK   10  A    between atoms: C13_21  and  C15_23 
ROOT
HETATM    1  C1  UNL     1      -2.698  48.561 -26.927  1.00  0.00     0.044 C 
HETATM    2  C2  UNL     1      -3.757  48.524 -25.865  1.00  0.00    -0.067 C 
HETATM    3  C3  UNL     1      -5.045  48.164 -26.072  1.00  0.00     0.043 C 
HETATM    4  C11 UNL     1      -6.016  48.241 -24.945  1.00  0.00     0.292 C 
HETATM    5  O7  UNL     1      -7.228  48.243 -25.135  1.00  0.00    -0.260 OA
HETATM    6  O8  UNL     1      -5.506  48.340 -23.689  1.00  0.00    -0.311 OA
HETATM    7  C12 UNL     1      -4.098  48.095 -23.453  1.00  0.00     0.140 C 
HETATM    8  C34 UNL     1      -3.291  48.893 -24.480  1.00  0.00     0.067 C 
ENDROOT
BRANCH   7   9
HETATM    9  C13 UNL     1      -3.793  48.470 -21.963  1.00  0.00     0.016 C 
HETATM   10  C14 UNL     1      -5.029  48.282 -21.083  1.00  0.00     0.013 C 
BRANCH   9  11
HETATM   11  C15 UNL     1      -3.185  49.910 -21.892  1.00  0.00     0.000 C 
HETATM   12  C16 UNL     1      -4.187  50.984 -21.436  1.00  0.00     0.006 C 
HETATM   13  C17 UNL     1      -3.799  51.302 -20.009  1.00  0.00     0.006 C 
HETATM   14  C18 UNL     1      -2.267  51.306 -20.040  1.00  0.00    -0.002 C 
HETATM   15  C19 UNL     1      -1.641  51.219 -18.635  1.00  0.00    -0.004 C 
HETATM   16  C32 UNL     1      -1.876  50.190 -21.045  1.00  0.00    -0.036 C 
HETATM   17  C20 UNL     1      -0.168  51.661 -18.641  1.00  0.00     0.006 C 
HETATM   18  C29 UNL     1      -1.844  49.829 -17.977  1.00  0.00     0.006 C 
HETATM   19  C21 UNL     1       0.483  51.574 -17.259  1.00  0.00     0.006 C 
HETATM   20  C22 UNL     1       0.322  50.165 -16.682  1.00  0.00     0.001 C 
HETATM   21  C23 UNL     1       1.109  50.003 -15.373  1.00  0.00     0.006 C 
HETATM   22  C27 UNL     1      -1.173  49.766 -16.550  1.00  0.00     0.024 C 
HETATM   23  C24 UNL     1       1.046  48.550 -14.915  1.00  0.00     0.008 C 
HETATM   24  C25 UNL     1      -0.383  48.072 -14.716  1.00  0.00     0.079 C 
HETATM   25  C26 UNL     1      -1.278  48.368 -15.907  1.00  0.00     0.136 C 
HETATM   26  O9  UNL     1      -2.153  47.564 -16.228  1.00  0.00    -0.297 OA
HETATM   27  C28 UNL     1      -1.953  50.690 -15.578  1.00  0.00     0.024 C 
HETATM   28  C30 UNL     1      -1.431  48.670 -18.910  1.00  0.00     0.007 C 
HETATM   29  C31 UNL     1      -1.154  48.992 -20.384  1.00  0.00     0.010 C 
HETATM   30  C33 UNL     1      -0.856  50.796 -22.054  1.00  0.00     0.016 C 
ENDBRANCH   9  11
ENDBRANCH   7   9
BRANCH   3  31
HETATM   31  C4  UNL     1      -5.630  47.747 -27.397  1.00  0.00     0.216 C 
BRANCH  31  32
HETATM   32  O1  UNL     1      -5.043  48.552 -28.422  1.00  0.00    -0.354 OA
BRANCH  32  33
HETATM   33  C5  UNL     1      -5.658  48.410 -29.706  1.00  0.00     0.291 C 
HETATM   34  O2  UNL     1      -4.872  47.447 -30.414  1.00  0.00    -0.348 OA
HETATM   35  C6  UNL     1      -5.362  47.124 -31.720  1.00  0.00     0.179 C 
HETATM   36  C8  UNL     1      -6.762  46.509 -31.630  1.00  0.00     0.180 C 
HETATM   37  C9  UNL     1      -7.680  47.501 -30.925  1.00  0.00     0.183 C 
HETATM   38  C10 UNL     1      -7.124  47.943 -29.575  1.00  0.00     0.204 C 
BRANCH  35  39
HETATM   39  C7  UNL     1      -4.372  46.143 -32.365  1.00  0.00     0.198 C 
BRANCH  39  40
HETATM   40  O3  UNL     1      -4.216  46.382 -33.763  1.00  0.00    -0.398 OA
HETATM   41  H10 UNL     1      -4.885  47.047 -34.031  1.00  0.00     0.209 HD
ENDBRANCH  39  40
ENDBRANCH  35  39
BRANCH  36  42
HETATM   42  O4  UNL     1      -7.305  46.253 -32.931  1.00  0.00    -0.390 OA
HETATM   43  H12 UNL     1      -7.080  45.335 -33.169  1.00  0.00     0.210 HD
ENDBRANCH  36  42
BRANCH  37  44
HETATM   44  O5  UNL     1      -8.973  46.910 -30.719  1.00  0.00    -0.390 OA
HETATM   45  H14 UNL     1      -9.353  46.793 -31.608  1.00  0.00     0.210 HD
ENDBRANCH  37  44
BRANCH  38  46
HETATM   46  O6  UNL     1      -7.979  48.995 -29.094  1.00  0.00    -0.388 OA
HETATM   47  H16 UNL     1      -8.872  48.596 -29.048  1.00  0.00     0.210 HD
ENDBRANCH  38  46
ENDBRANCH  32  33
ENDBRANCH  31  32
ENDBRANCH   3  31
TORSDOF 10
ENDMDL
MODEL 5
REMARK minimizedAffinity -10.3939505
REMARK CNNscore 0.258976489
REMARK CNNaffinity 6.60687971
REMARK  10 active torsions:
REMARK  status: ('A' for Active; 'I' for Inactive)
REMARK    1  A    between atoms: C3_3  and  C4_4 
REMARK    2  A    between atoms: C4_4  and  O1_5 
REMARK    3  A    between atoms: O1_5  and  C5_6 
REMARK    4  A    between atoms: C6_8  and  C7_9 
REMARK    5  A    between atoms: C7_9  and  O3_10 
REMARK    6  A    between atoms: C8_11  and  O4_12 
REMARK    7  A    between atoms: C9_13  and  O5_14 
REMARK    8  A    between atoms: C10_15  and  O6_16 
REMARK    9  A    between atoms: C12_20  and  C13_21 
REMARK   10  A    between atoms: C13_21  and  C15_23 
ROOT
HETATM    1  C1  UNL     1      -1.169  47.697 -21.318  1.00  0.00     0.044 C 
HETATM    2  C2  UNL     1      -1.545  49.134 -21.104  1.00  0.00    -0.067 C 
HETATM    3  C3  UNL     1      -2.511  49.789 -21.789  1.00  0.00     0.043 C 
HETATM    4  C11 UNL     1      -2.735  51.240 -21.531  1.00  0.00     0.292 C 
HETATM    5  O7  UNL     1      -3.350  51.949 -22.321  1.00  0.00    -0.260 OA
HETATM    6  O8  UNL     1      -2.203  51.759 -20.393  1.00  0.00    -0.311 OA
HETATM    7  C12 UNL     1      -1.694  50.881 -19.359  1.00  0.00     0.140 C 
HETATM    8  C34 UNL     1      -0.781  49.843 -20.014  1.00  0.00     0.067 C 
ENDROOT
BRANCH   7   9
HETATM    9  C13 UNL     1      -0.987  51.773 -18.284  1.00  0.00     0.016 C 
HETATM   10  C14 UNL     1      -0.360  53.014 -18.921  1.00  0.00     0.013 C 
BRANCH   9  11
HETATM   11  C15 UNL     1       0.027  50.909 -17.462  1.00  0.00     0.000 C 
HETATM   12  C16 UNL     1       1.282  51.681 -17.019  1.00  0.00     0.006 C 
HETATM   13  C17 UNL     1       1.085  51.936 -15.540  1.00  0.00     0.006 C 
HETATM   14  C18 UNL     1       0.475  50.628 -15.023  1.00  0.00    -0.002 C 
HETATM   15  C19 UNL     1      -0.173  50.780 -13.634  1.00  0.00    -0.004 C 
HETATM   16  C32 UNL     1      -0.445  50.127 -16.168  1.00  0.00    -0.036 C 
HETATM   17  C20 UNL     1      -0.376  49.417 -12.950  1.00  0.00     0.006 C 
HETATM   18  C29 UNL     1      -1.470  51.628 -13.671  1.00  0.00     0.006 C 
HETATM   19  C21 UNL     1      -1.028  49.536 -11.572  1.00  0.00     0.006 C 
HETATM   20  C22 UNL     1      -2.342  50.317 -11.670  1.00  0.00     0.001 C 
HETATM   21  C23 UNL     1      -3.099  50.307 -10.334  1.00  0.00     0.006 C 
HETATM   22  C27 UNL     1      -2.119  51.745 -12.237  1.00  0.00     0.024 C 
HETATM   23  C24 UNL     1      -4.464  50.962 -10.515  1.00  0.00     0.008 C 
HETATM   24  C25 UNL     1      -4.354  52.386 -11.031  1.00  0.00     0.079 C 
HETATM   25  C26 UNL     1      -3.461  52.506 -12.254  1.00  0.00     0.136 C 
HETATM   26  O9  UNL     1      -3.747  53.309 -13.143  1.00  0.00    -0.297 OA
HETATM   27  C28 UNL     1      -1.204  52.611 -11.331  1.00  0.00     0.024 C 
HETATM   28  C30 UNL     1      -2.454  51.153 -14.762  1.00  0.00     0.007 C 
HETATM   29  C31 UNL     1      -1.949  50.146 -15.802  1.00  0.00     0.010 C 
HETATM   30  C33 UNL     1      -0.094  48.635 -16.440  1.00  0.00     0.016 C 
ENDBRANCH   9  11
ENDBRANCH   7   9
BRANCH   3  31
HETATM   31  C4  UNL     1      -3.364  49.192 -22.878  1.00  0.00     0.216 C 
BRANCH  31  32
HETATM   32  O1  UNL     1      -2.586  49.130 -24.076  1.00  0.00    -0.354 OA
BRANCH  32  33
HETATM   33  C5  UNL     1      -2.715  50.277 -24.921  1.00  0.00     0.291 C 
HETATM   34  O2  UNL     1      -1.449  50.943 -24.874  1.00  0.00    -0.348 OA
HETATM   35  C6  UNL     1      -1.356  52.103 -25.708  1.00  0.00     0.179 C 
HETATM   36  C8  UNL     1      -1.554  51.723 -27.179  1.00  0.00     0.180 C 
HETATM   37  C9  UNL     1      -2.911  51.045 -27.324  1.00  0.00     0.183 C 
HETATM   38  C10 UNL     1      -3.075  49.869 -26.367  1.00  0.00     0.204 C 
BRANCH  35  39
HETATM   39  C7  UNL     1       0.026  52.734 -25.485  1.00  0.00     0.198 C 
BRANCH  39  40
HETATM   40  O3  UNL     1       0.589  53.231 -26.698  1.00  0.00    -0.398 OA
HETATM   41  H10 UNL     1       0.017  52.938 -27.438  1.00  0.00     0.209 HD
ENDBRANCH  39  40
ENDBRANCH  35  39
BRANCH  36  42
HETATM   42  O4  UNL     1      -1.545  52.880 -28.023  1.00  0.00    -0.390 OA
HETATM   43  H12 UNL     1      -0.632  53.012 -28.335  1.00  0.00     0.210 HD
ENDBRANCH  36  42
BRANCH  37  44
HETATM   44  O5  UNL     1      -3.080  50.571 -28.669  1.00  0.00    -0.390 OA
HETATM   45  H14 UNL     1      -3.129  51.369 -29.226  1.00  0.00     0.210 HD
ENDBRANCH  37  44
BRANCH  38  46
HETATM   46  O6  UNL     1      -4.439  49.429 -26.473  1.00  0.00    -0.388 OA
HETATM   47  H16 UNL     1      -4.560  49.195 -27.417  1.00  0.00     0.210 HD
ENDBRANCH  38  46
ENDBRANCH  32  33
ENDBRANCH  31  32
ENDBRANCH   3  31
TORSDOF 10
ENDMDL
MODEL 6
REMARK minimizedAffinity -10.335886
REMARK CNNscore 0.25144124
REMARK CNNaffinity 6.44652748
REMARK  10 active torsions:
REMARK  status: ('A' for Active; 'I' for Inactive)
REMARK    1  A    between atoms: C3_3  and  C4_4 
REMARK    2  A    between atoms: C4_4  and  O1_5 
REMARK    3  A    between atoms: O1_5  and  C5_6 
REMARK    4  A    between atoms: C6_8  and  C7_9 
REMARK    5  A    between atoms: C7_9  and  O3_10 
REMARK    6  A    between atoms: C8_11  and  O4_12 
REMARK    7  A    between atoms: C9_13  and  O5_14 
REMARK    8  A    between atoms: C10_15  and  O6_16 
REMARK    9  A    between atoms: C12_20  and  C13_21 
REMARK   10  A    between atoms: C13_21  and  C15_23 
ROOT
HETATM    1  C1  UNL     1      -1.282  48.525 -21.340  1.00  0.00     0.044 C 
HETATM    2  C2  UNL     1      -0.799  49.795 -20.702  1.00  0.00    -0.067 C 
HETATM    3  C3  UNL     1      -0.684  50.983 -21.339  1.00  0.00     0.043 C 
HETATM    4  C11 UNL     1      -0.120  52.153 -20.608  1.00  0.00     0.292 C 
HETATM    5  O7  UNL     1       0.304  53.141 -21.199  1.00  0.00    -0.260 OA
HETATM    6  O8  UNL     1      -0.065  52.072 -19.252  1.00  0.00    -0.311 OA
HETATM    7  C12 UNL     1      -0.779  51.022 -18.554  1.00  0.00     0.140 C 
HETATM    8  C34 UNL     1      -0.463  49.689 -19.236  1.00  0.00     0.067 C 
ENDROOT
BRANCH   7   9
HETATM    9  C13 UNL     1      -0.365  51.088 -17.045  1.00  0.00     0.016 C 
HETATM   10  C14 UNL     1       1.093  51.520 -16.891  1.00  0.00     0.013 C 
BRANCH   9  11
HETATM   11  C15 UNL     1      -0.695  49.727 -16.346  1.00  0.00     0.000 C 
HETATM   12  C16 UNL     1       0.548  48.880 -16.022  1.00  0.00     0.006 C 
HETATM   13  C17 UNL     1       0.738  49.018 -14.527  1.00  0.00     0.006 C 
HETATM   14  C18 UNL     1      -0.689  48.962 -13.971  1.00  0.00    -0.002 C 
HETATM   15  C19 UNL     1      -0.784  49.471 -12.520  1.00  0.00    -0.004 C 
HETATM   16  C32 UNL     1      -1.566  49.692 -15.022  1.00  0.00    -0.036 C 
HETATM   17  C20 UNL     1      -2.085  49.008 -11.840  1.00  0.00     0.006 C 
HETATM   18  C29 UNL     1      -0.565  51.002 -12.410  1.00  0.00     0.006 C 
HETATM   19  C21 UNL     1      -2.211  49.509 -10.401  1.00  0.00     0.006 C 
HETATM   20  C22 UNL     1      -2.062  51.032 -10.351  1.00  0.00     0.001 C 
HETATM   21  C23 UNL     1      -2.352  51.577  -8.944  1.00  0.00     0.006 C 
HETATM   22  C27 UNL     1      -0.692  51.493 -10.915  1.00  0.00     0.024 C 
HETATM   23  C24 UNL     1      -2.341  53.101  -8.974  1.00  0.00     0.008 C 
HETATM   24  C25 UNL     1      -1.020  53.657  -9.476  1.00  0.00     0.079 C 
HETATM   25  C26 UNL     1      -0.570  53.025 -10.783  1.00  0.00     0.136 C 
HETATM   26  O9  UNL     1       0.011  53.711 -11.625  1.00  0.00    -0.297 OA
HETATM   27  C28 UNL     1       0.506  50.945 -10.095  1.00  0.00     0.024 C 
HETATM   28  C30 UNL     1      -1.443  51.795 -13.402  1.00  0.00     0.007 C 
HETATM   29  C31 UNL     1      -2.173  51.017 -14.504  1.00  0.00     0.010 C 
HETATM   30  C33 UNL     1      -2.777  48.771 -15.353  1.00  0.00     0.016 C 
ENDBRANCH   9  11
ENDBRANCH   7   9
BRANCH   3  31
HETATM   31  C4  UNL     1      -1.012  51.230 -22.788  1.00  0.00     0.216 C 
BRANCH  31  32
HETATM   32  O1  UNL     1      -0.407  52.462 -23.184  1.00  0.00    -0.354 OA
BRANCH  32  33
HETATM   33  C5  UNL     1      -0.008  52.509 -24.557  1.00  0.00     0.291 C 
HETATM   34  O2  UNL     1      -0.987  51.751 -25.276  1.00  0.00    -0.348 OA
HETATM   35  C6  UNL     1      -0.792  51.721 -26.694  1.00  0.00     0.179 C 
HETATM   36  C8  UNL     1      -0.875  53.135 -27.276  1.00  0.00     0.180 C 
HETATM   37  C9  UNL     1       0.177  54.001 -26.592  1.00  0.00     0.183 C 
HETATM   38  C10 UNL     1       0.056  53.963 -25.072  1.00  0.00     0.204 C 
BRANCH  35  39
HETATM   39  C7  UNL     1      -1.874  50.814 -27.298  1.00  0.00     0.198 C 
BRANCH  39  40
HETATM   40  O3  UNL     1      -2.821  51.552 -28.069  1.00  0.00    -0.398 OA
HETATM   41  H10 UNL     1      -2.642  52.506 -27.933  1.00  0.00     0.209 HD
ENDBRANCH  39  40
ENDBRANCH  35  39
BRANCH  36  42
HETATM   42  O4  UNL     1      -0.602  53.138 -28.682  1.00  0.00    -0.390 OA
HETATM   43  H12 UNL     1      -1.454  53.058 -29.149  1.00  0.00     0.210 HD
ENDBRANCH  36  42
BRANCH  37  44
HETATM   44  O5  UNL     1       0.050  55.363 -27.030  1.00  0.00    -0.390 OA
HETATM   45  H14 UNL     1       0.293  55.360 -27.974  1.00  0.00     0.210 HD
ENDBRANCH  37  44
BRANCH  38  46
HETATM   46  O6  UNL     1       1.193  54.667 -24.544  1.00  0.00    -0.388 OA
HETATM   47  H16 UNL     1       1.138  55.567 -24.927  1.00  0.00     0.210 HD
ENDBRANCH  38  46
ENDBRANCH  32  33
ENDBRANCH  31  32
ENDBRANCH   3  31
TORSDOF 10
ENDMDL
MODEL 7
REMARK minimizedAffinity -9.88635159
REMARK CNNscore 0.250580758
REMARK CNNaffinity 5.88904047
REMARK  10 active torsions:
REMARK  status: ('A' for Active; 'I' for Inactive)
REMARK    1  A    between atoms: C3_3  and  C4_4 
REMARK    2  A    between atoms: C4_4  and  O1_5 
REMARK    3  A    between atoms: O1_5  and  C5_6 
REMARK    4  A    between atoms: C6_8  and  C7_9 
REMARK    5  A    between atoms: C7_9  and  O3_10 
REMARK    6  A    between atoms: C8_11  and  O4_12 
REMARK    7  A    between atoms: C9_13  and  O5_14 
REMARK    8  A    between atoms: C10_15  and  O6_16 
REMARK    9  A    between atoms: C12_20  and  C13_21 
REMARK   10  A    between atoms: C13_21  and  C15_23 
ROOT
HETATM    1  C1  UNL     1      -9.372  47.690 -20.451  1.00  0.00     0.044 C 
HETATM    2  C2  UNL     1      -8.887  47.435 -21.848  1.00  0.00    -0.067 C 
HETATM    3  C3  UNL     1      -9.555  46.712 -22.776  1.00  0.00     0.043 C 
HETATM    4  C11 UNL     1      -8.927  46.472 -24.106  1.00  0.00     0.292 C 
HETATM    5  O7  UNL     1      -9.319  45.582 -24.855  1.00  0.00    -0.260 OA
HETATM    6  O8  UNL     1      -7.877  47.264 -24.452  1.00  0.00    -0.311 OA
HETATM    7  C12 UNL     1      -7.579  48.455 -23.683  1.00  0.00     0.140 C 
HETATM    8  C34 UNL     1      -7.571  48.082 -22.198  1.00  0.00     0.067 C 
ENDROOT
BRANCH   7   9
HETATM    9  C13 UNL     1      -6.221  49.032 -24.208  1.00  0.00     0.016 C 
HETATM   10  C14 UNL     1      -5.677  48.195 -25.367  1.00  0.00     0.013 C 
BRANCH   9  11
HETATM   11  C15 UNL     1      -5.215  49.187 -23.019  1.00  0.00     0.000 C 
HETATM   12  C16 UNL     1      -4.300  47.967 -22.819  1.00  0.00     0.006 C 
HETATM   13  C17 UNL     1      -2.950  48.398 -23.348  1.00  0.00     0.006 C 
HETATM   14  C18 UNL     1      -2.814  49.846 -22.866  1.00  0.00    -0.002 C 
HETATM   15  C19 UNL     1      -1.707  50.620 -23.606  1.00  0.00    -0.004 C 
HETATM   16  C32 UNL     1      -4.246  50.438 -22.943  1.00  0.00    -0.036 C 
HETATM   17  C20 UNL     1      -1.287  51.885 -22.837  1.00  0.00     0.006 C 
HETATM   18  C29 UNL     1      -2.071  50.915 -25.084  1.00  0.00     0.006 C 
HETATM   19  C21 UNL     1      -0.195  52.680 -23.554  1.00  0.00     0.006 C 
HETATM   20  C22 UNL     1      -0.630  53.011 -24.985  1.00  0.00     0.001 C 
HETATM   21  C23 UNL     1       0.373  53.950 -25.671  1.00  0.00     0.006 C 
HETATM   22  C27 UNL     1      -0.927  51.727 -25.806  1.00  0.00     0.024 C 
HETATM   23  C24 UNL     1      -0.171  54.374 -27.031  1.00  0.00     0.008 C 
HETATM   24  C25 UNL     1      -0.458  53.184 -27.931  1.00  0.00     0.079 C 
HETATM   25  C26 UNL     1      -1.297  52.115 -27.252  1.00  0.00     0.136 C 
HETATM   26  O9  UNL     1      -2.134  51.490 -27.904  1.00  0.00    -0.297 OA
HETATM   27  C28 UNL     1       0.321  50.819 -25.966  1.00  0.00     0.024 C 
HETATM   28  C30 UNL     1      -3.471  51.548 -25.230  1.00  0.00     0.007 C 
HETATM   29  C31 UNL     1      -4.395  51.553 -24.006  1.00  0.00     0.010 C 
HETATM   30  C33 UNL     1      -4.555  51.113 -21.574  1.00  0.00     0.016 C 
ENDBRANCH   9  11
ENDBRANCH   7   9
BRANCH   3  31
HETATM   31  C4  UNL     1     -10.887  46.040 -22.565  1.00  0.00     0.216 C 
BRANCH  31  32
HETATM   32  O1  UNL     1     -11.919  46.999 -22.806  1.00  0.00    -0.354 OA
BRANCH  32  33
HETATM   33  C5  UNL     1     -12.787  46.668 -23.894  1.00  0.00     0.291 C 
HETATM   34  O2  UNL     1     -12.280  47.373 -25.031  1.00  0.00    -0.348 OA
HETATM   35  C6  UNL     1     -12.991  47.128 -26.249  1.00  0.00     0.179 C 
HETATM   36  C8  UNL     1     -12.910  45.647 -26.628  1.00  0.00     0.180 C 
HETATM   37  C9  UNL     1     -13.480  44.822 -25.480  1.00  0.00     0.183 C 
HETATM   38  C10 UNL     1     -12.809  45.145 -24.148  1.00  0.00     0.204 C 
BRANCH  35  39
HETATM   39  C7  UNL     1     -12.371  48.010 -27.342  1.00  0.00     0.198 C 
BRANCH  39  40
HETATM   40  O3  UNL     1     -11.651  49.114 -26.794  1.00  0.00    -0.398 OA
HETATM   41  H10 UNL     1     -11.824  49.138 -25.830  1.00  0.00     0.209 HD
ENDBRANCH  39  40
ENDBRANCH  35  39
BRANCH  36  42
HETATM   42  O4  UNL     1     -13.683  45.364 -27.800  1.00  0.00    -0.390 OA
HETATM   43  H12 UNL     1     -13.091  45.439 -28.570  1.00  0.00     0.210 HD
ENDBRANCH  36  42
BRANCH  37  44
HETATM   44  O5  UNL     1     -13.313  43.422 -25.752  1.00  0.00    -0.390 OA
HETATM   45  H14 UNL     1     -13.886  43.232 -26.516  1.00  0.00     0.210 HD
ENDBRANCH  37  44
BRANCH  38  46
HETATM   46  O6  UNL     1     -13.541  44.443 -23.129  1.00  0.00    -0.388 OA
HETATM   47  H16 UNL     1     -13.491  43.499 -23.383  1.00  0.00     0.210 HD
ENDBRANCH  38  46
ENDBRANCH  32  33
ENDBRANCH  31  32
ENDBRANCH   3  31
TORSDOF 10
ENDMDL
MODEL 8
REMARK minimizedAffinity -10.5824614
REMARK CNNscore 0.250554889
REMARK CNNaffinity 6.36595774
REMARK  10 active torsions:
REMARK  status: ('A' for Active; 'I' for Inactive)
REMARK    1  A    between atoms: C3_3  and  C4_4 
REMARK    2  A    between atoms: C4_4  and  O1_5 
REMARK    3  A    between atoms: O1_5  and  C5_6 
REMARK    4  A    between atoms: C6_8  and  C7_9 
REMARK    5  A    between atoms: C7_9  and  O3_10 
REMARK    6  A    between atoms: C8_11  and  O4_12 
REMARK    7  A    between atoms: C9_13  and  O5_14 
REMARK    8  A    between atoms: C10_15  and  O6_16 
REMARK    9  A    between atoms: C12_20  and  C13_21 
REMARK   10  A    between atoms: C13_21  and  C15_23 
ROOT
HETATM    1  C1  UNL     1       1.149  53.630 -21.546  1.00  0.00     0.044 C 
HETATM    2  C2  UNL     1       0.270  52.662 -20.811  1.00  0.00    -0.067 C 
HETATM    3  C3  UNL     1      -0.456  51.682 -21.396  1.00  0.00     0.043 C 
HETATM    4  C11 UNL     1      -1.349  50.832 -20.558  1.00  0.00     0.292 C 
HETATM    5  O7  UNL     1      -2.252  50.163 -21.049  1.00  0.00    -0.260 OA
HETATM    6  O8  UNL     1      -1.143  50.849 -19.214  1.00  0.00    -0.311 OA
HETATM    7  C12 UNL     1       0.062  51.442 -18.669  1.00  0.00     0.140 C 
HETATM    8  C34 UNL     1       0.256  52.817 -19.311  1.00  0.00     0.067 C 
ENDROOT
BRANCH   7   9
HETATM    9  C13 UNL     1      -0.088  51.475 -17.111  1.00  0.00     0.016 C 
HETATM   10  C14 UNL     1       1.222  51.889 -16.439  1.00  0.00     0.013 C 
BRANCH   9  11
HETATM   11  C15 UNL     1      -0.649  50.104 -16.603  1.00  0.00     0.000 C 
HETATM   12  C16 UNL     1       0.442  49.061 -16.305  1.00  0.00     0.006 C 
HETATM   13  C17 UNL     1       0.529  49.004 -14.796  1.00  0.00     0.006 C 
HETATM   14  C18 UNL     1      -0.932  49.087 -14.342  1.00  0.00    -0.002 C 
HETATM   15  C19 UNL     1      -1.075  49.440 -12.850  1.00  0.00    -0.004 C 
HETATM   16  C32 UNL     1      -1.619  50.045 -15.351  1.00  0.00    -0.036 C 
HETATM   17  C20 UNL     1      -2.475  49.092 -12.315  1.00  0.00     0.006 C 
HETATM   18  C29 UNL     1      -0.666  50.904 -12.542  1.00  0.00     0.006 C 
HETATM   19  C21 UNL     1      -2.649  49.442 -10.837  1.00  0.00     0.006 C 
HETATM   20  C22 UNL     1      -2.305  50.914 -10.593  1.00  0.00     0.001 C 
HETATM   21  C23 UNL     1      -2.631  51.335  -9.153  1.00  0.00     0.006 C 
HETATM   22  C27 UNL     1      -0.845  51.239 -11.010  1.00  0.00     0.024 C 
HETATM   23  C24 UNL     1      -2.417  52.836  -8.998  1.00  0.00     0.008 C 
HETATM   24  C25 UNL     1      -0.998  53.254  -9.344  1.00  0.00     0.079 C 
HETATM   25  C26 UNL     1      -0.533  52.714 -10.686  1.00  0.00     0.136 C 
HETATM   26  O9  UNL     1       0.198  53.401 -11.400  1.00  0.00    -0.297 OA
HETATM   27  C28 UNL     1       0.202  50.441 -10.188  1.00  0.00     0.024 C 
HETATM   28  C30 UNL     1      -1.350  51.917 -13.484  1.00  0.00     0.007 C 
HETATM   29  C31 UNL     1      -2.086  51.377 -14.717  1.00  0.00     0.010 C 
HETATM   30  C33 UNL     1      -2.910  49.345 -15.867  1.00  0.00     0.016 C 
ENDBRANCH   9  11
ENDBRANCH   7   9
BRANCH   3  31
HETATM   31  C4  UNL     1      -0.508  51.401 -22.876  1.00  0.00     0.216 C 
BRANCH  31  32
HETATM   32  O1  UNL     1      -1.210  52.472 -23.512  1.00  0.00    -0.354 OA
BRANCH  32  33
HETATM   33  C5  UNL     1      -0.814  52.714 -24.865  1.00  0.00     0.291 C 
HETATM   34  O2  UNL     1       0.457  52.076 -25.022  1.00  0.00    -0.348 OA
HETATM   35  C6  UNL     1       1.007  52.160 -26.341  1.00  0.00     0.179 C 
HETATM   36  C8  UNL     1       0.086  51.468 -27.351  1.00  0.00     0.180 C 
HETATM   37  C9  UNL     1      -1.288  52.126 -27.281  1.00  0.00     0.183 C 
HETATM   38  C10 UNL     1      -1.848  52.144 -25.862  1.00  0.00     0.204 C 
BRANCH  35  39
HETATM   39  C7  UNL     1       2.392  51.497 -26.318  1.00  0.00     0.198 C 
BRANCH  39  40
HETATM   40  O3  UNL     1       3.242  51.999 -27.348  1.00  0.00    -0.398 OA
HETATM   41  H10 UNL     1       2.702  52.571 -27.932  1.00  0.00     0.209 HD
ENDBRANCH  39  40
ENDBRANCH  35  39
BRANCH  36  42
HETATM   42  O4  UNL     1       0.575  51.610 -28.689  1.00  0.00    -0.390 OA
HETATM   43  H12 UNL     1       1.127  50.832 -28.886  1.00  0.00     0.210 HD
ENDBRANCH  36  42
BRANCH  37  44
HETATM   44  O5  UNL     1      -2.210  51.426 -28.130  1.00  0.00    -0.390 OA
HETATM   45  H14 UNL     1      -1.898  51.577 -29.040  1.00  0.00     0.210 HD
ENDBRANCH  37  44
BRANCH  38  46
HETATM   46  O6  UNL     1      -3.048  52.934 -25.895  1.00  0.00    -0.388 OA
HETATM   47  H16 UNL     1      -3.628  52.490 -26.548  1.00  0.00     0.210 HD
ENDBRANCH  38  46
ENDBRANCH  32  33
ENDBRANCH  31  32
ENDBRANCH   3  31
TORSDOF 10
ENDMDL
MODEL 9
REMARK minimizedAffinity -10.8393154
REMARK CNNscore 0.249106407
REMARK CNNaffinity 6.82402849
REMARK  10 active torsions:
REMARK  status: ('A' for Active; 'I' for Inactive)
REMARK    1  A    between atoms: C3_3  and  C4_4 
REMARK    2  A    between atoms: C4_4  and  O1_5 
REMARK    3  A    between atoms: O1_5  and  C5_6 
REMARK    4  A    between atoms: C6_8  and  C7_9 
REMARK    5  A    between atoms: C7_9  and  O3_10 
REMARK    6  A    between atoms: C8_11  and  O4_12 
REMARK    7  A    between atoms: C9_13  and  O5_14 
REMARK    8  A    between atoms: C10_15  and  O6_16 
REMARK    9  A    between atoms: C12_20  and  C13_21 
REMARK   10  A    between atoms: C13_21  and  C15_23 
ROOT
HETATM    1  C1  UNL     1       4.007  53.048 -15.969  1.00  0.00     0.044 C 
HETATM    2  C2  UNL     1       2.745  52.261 -16.169  1.00  0.00    -0.067 C 
HETATM    3  C3  UNL     1       2.067  51.627 -15.185  1.00  0.00     0.043 C 
HETATM    4  C11 UNL     1       0.865  50.817 -15.530  1.00  0.00     0.292 C 
HETATM    5  O7  UNL     1       0.409  49.978 -14.760  1.00  0.00    -0.260 OA
HETATM    6  O8  UNL     1       0.305  51.023 -16.752  1.00  0.00    -0.311 OA
HETATM    7  C12 UNL     1       0.693  52.169 -17.548  1.00  0.00     0.140 C 
HETATM    8  C34 UNL     1       2.222  52.236 -17.583  1.00  0.00     0.067 C 
ENDROOT
BRANCH   7   9
HETATM    9  C13 UNL     1       0.023  52.019 -18.955  1.00  0.00     0.016 C 
HETATM   10  C14 UNL     1      -0.528  53.357 -19.450  1.00  0.00     0.013 C 
BRANCH   9  11
HETATM   11  C15 UNL     1      -1.045  50.876 -18.915  1.00  0.00     0.000 C 
HETATM   12  C16 UNL     1      -2.434  51.342 -18.445  1.00  0.00     0.006 C 
HETATM   13  C17 UNL     1      -3.277  51.389 -19.701  1.00  0.00     0.006 C 
HETATM   14  C18 UNL     1      -2.846  50.141 -20.478  1.00  0.00    -0.002 C 
HETATM   15  C19 UNL     1      -3.275  50.179 -21.956  1.00  0.00    -0.004 C 
HETATM   16  C32 UNL     1      -1.327  49.991 -20.199  1.00  0.00    -0.036 C 
HETATM   17  C20 UNL     1      -3.237  48.780 -22.595  1.00  0.00     0.006 C 
HETATM   18  C29 UNL     1      -2.487  51.232 -22.778  1.00  0.00     0.006 C 
HETATM   19  C21 UNL     1      -3.649  48.790 -24.068  1.00  0.00     0.006 C 
HETATM   20  C22 UNL     1      -2.795  49.789 -24.854  1.00  0.00     0.001 C 
HETATM   21  C23 UNL     1      -3.071  49.699 -26.362  1.00  0.00     0.006 C 
HETATM   22  C27 UNL     1      -2.935  51.230 -24.292  1.00  0.00     0.024 C 
HETATM   23  C24 UNL     1      -2.097  50.597 -27.115  1.00  0.00     0.008 C 
HETATM   24  C25 UNL     1      -2.185  52.045 -26.665  1.00  0.00     0.079 C 
HETATM   25  C26 UNL     1      -2.106  52.202 -25.156  1.00  0.00     0.136 C 
HETATM   26  O9  UNL     1      -1.521  53.173 -24.673  1.00  0.00    -0.297 OA
HETATM   27  C28 UNL     1      -4.385  51.773 -24.395  1.00  0.00     0.024 C 
HETATM   28  C30 UNL     1      -0.960  51.110 -22.581  1.00  0.00     0.007 C 
HETATM   29  C31 UNL     1      -0.446  50.208 -21.452  1.00  0.00     0.010 C 
HETATM   30  C33 UNL     1      -1.069  48.523 -19.749  1.00  0.00     0.016 C 
ENDBRANCH   9  11
ENDBRANCH   7   9
BRANCH   3  31
HETATM   31  C4  UNL     1       2.465  51.599 -13.732  1.00  0.00     0.216 C 
BRANCH  31  32
HETATM   32  O1  UNL     1       1.405  50.996 -12.987  1.00  0.00    -0.354 OA
BRANCH  32  33
HETATM   33  C5  UNL     1       0.989  51.746 -11.842  1.00  0.00     0.291 C 
HETATM   34  O2  UNL     1       1.968  52.775 -11.670  1.00  0.00    -0.348 OA
HETATM   35  C6  UNL     1       1.698  53.678 -10.592  1.00  0.00     0.179 C 
HETATM   36  C8  UNL     1       0.379  54.419 -10.830  1.00  0.00     0.180 C 
HETATM   37  C9  UNL     1      -0.734  53.387 -10.978  1.00  0.00     0.183 C 
HETATM   38  C10 UNL     1      -0.419  52.348 -12.050  1.00  0.00     0.204 C 
BRANCH  35  39
HETATM   39  C7  UNL     1       2.872  54.664 -10.499  1.00  0.00     0.198 C 
BRANCH  39  40
HETATM   40  O3  UNL     1       3.698  54.623 -11.662  1.00  0.00    -0.398 OA
HETATM   41  H10 UNL     1       3.402  53.870 -12.215  1.00  0.00     0.209 HD
ENDBRANCH  39  40
ENDBRANCH  35  39
BRANCH  36  42
HETATM   42  O4  UNL     1       0.049  55.268  -9.725  1.00  0.00    -0.390 OA
HETATM   43  H12 UNL     1       0.407  56.154  -9.916  1.00  0.00     0.210 HD
ENDBRANCH  36  42
BRANCH  37  44
HETATM   44  O5  UNL     1      -1.966  54.041 -11.319  1.00  0.00    -0.390 OA
HETATM   45  H14 UNL     1      -2.207  54.571 -10.538  1.00  0.00     0.210 HD
ENDBRANCH  37  44
BRANCH  38  46
HETATM   46  O6  UNL     1      -1.445  51.344 -11.975  1.00  0.00    -0.388 OA
HETATM   47  H16 UNL     1      -2.285  51.827 -12.120  1.00  0.00     0.210 HD
ENDBRANCH  38  46
ENDBRANCH  32  33
ENDBRANCH  31  32
ENDBRANCH   3  31
TORSDOF 10
ENDMDL
