MODEL 1
REMARK minimizedAffinity -8.56770897
REMARK CNNscore 0.647463799
REMARK CNNaffinity 6.8040309
REMARK  13 active torsions:
REMARK  status: ('A' for Active; 'I' for Inactive)
REMARK    1  A    between atoms: C4_4  and  C5_5 
REMARK    2  A    between atoms: C5_5  and  C6_6 
REMARK    3  A    between atoms: C6_6  and  C7_7 
REMARK    4  A    between atoms: C9_9  and  C10_10 
REMARK    5  A    between atoms: C11_11  and  C12_12 
REMARK    6  A    between atoms: C14_14  and  C15_15 
REMARK    7  A    between atoms: C18_18  and  C19_19 
REMARK    8  A    between atoms: C19_19  and  C20_20 
REMARK    9  A    between atoms: C20_20  and  C21_21 
REMARK   10  A    between atoms: C21_21  and  O1_22 
REMARK   11  A    between atoms: C23_24  and  C25_26 
REMARK   12  A    between atoms: C28_30  and  O3_32 
REMARK   13  A    between atoms: C30_33  and  O4_34 
ROOT
HETATM    1  C15 UNL     1      -2.370   4.838  12.981  1.00  0.00     0.149 C 
HETATM    2  C16 UNL     1      -1.719   5.955  12.165  1.00  0.00     0.054 C 
HETATM    3  C17 UNL     1      -0.777   6.725  13.139  1.00  0.00     0.050 C 
HETATM    4  C18 UNL     1       0.627   6.949  12.450  1.00  0.00     0.032 C 
HETATM    5  C22 UNL     1       0.434   7.709  11.125  1.00  0.00    -0.066 C 
HETATM    6  C23 UNL     1       1.054   7.416   9.950  1.00  0.00    -0.021 C 
HETATM    7  C24 UNL     1       0.798   8.109   8.633  1.00  0.00     0.052 C 
HETATM    8  C26 UNL     1      -0.643   8.786  11.163  1.00  0.00     0.038 C 
HETATM    9  C27 UNL     1      -1.102   9.242  12.545  1.00  0.00     0.042 C 
HETATM   10  C28 UNL     1      -1.363   8.123  13.585  1.00  0.00     0.067 C 
HETATM   11  C29 UNL     1      -2.848   8.110  13.971  1.00  0.00     0.047 C 
HETATM   12  C30 UNL     1      -0.678   5.677  14.274  1.00  0.00     0.270 C 
HETATM   13  O5  UNL     1      -1.937   5.019  14.331  1.00  0.00    -0.351 OA
ENDROOT
BRANCH   4  14
HETATM   14  C19 UNL     1       1.685   7.624  13.362  1.00  0.00     0.012 C 
BRANCH  14  15
HETATM   15  C20 UNL     1       2.668   8.539  12.627  1.00  0.00     0.027 C 
BRANCH  15  16
HETATM   16  C21 UNL     1       4.047   7.899  12.512  1.00  0.00     0.164 C 
BRANCH  16  17
HETATM   17  O1  UNL     1       4.464   7.444  13.793  1.00  0.00    -0.401 OA
HETATM   18  H32 UNL     1       3.864   6.726  14.058  1.00  0.00     0.209 HD
ENDBRANCH  16  17
ENDBRANCH  15  16
ENDBRANCH  14  15
ENDBRANCH   4  14
BRANCH  10  19
HETATM   19  O3  UNL     1      -0.696   8.602  14.772  1.00  0.00    -0.389 OA
HETATM   20  H44 UNL     1      -0.680   7.858  15.414  1.00  0.00     0.210 HD
ENDBRANCH  10  19
BRANCH  12  21
HETATM   21  O4  UNL     1      -0.413   6.219  15.549  1.00  0.00    -0.370 OA
HETATM   22  H46 UNL     1      -0.339   5.441  16.134  1.00  0.00     0.212 HD
ENDBRANCH  12  21
BRANCH   1  23
HETATM   23  C14 UNL     1      -3.869   4.855  12.959  1.00  0.00     0.011 C 
HETATM   24  C12 UNL     1      -4.709   3.903  12.498  1.00  0.00    -0.063 C 
HETATM   25  C13 UNL     1      -4.254   2.621  11.846  1.00  0.00     0.048 C 
BRANCH  24  26
HETATM   26  C11 UNL     1      -6.152   4.141  12.604  1.00  0.00     0.006 C 
HETATM   27  C10 UNL     1      -6.746   5.300  12.940  1.00  0.00     0.001 C 
BRANCH  27  28
HETATM   28  C9  UNL     1      -8.185   5.438  13.018  1.00  0.00     0.002 C 
HETATM   29  C7  UNL     1      -8.877   6.336  13.751  1.00  0.00    -0.084 C 
HETATM   30  C8  UNL     1      -8.269   7.359  14.675  1.00  0.00     0.043 C 
BRANCH  29  31
HETATM   31  C6  UNL     1     -10.398   6.330  13.702  1.00  0.00     0.037 C 
BRANCH  31  32
HETATM   32  C5  UNL     1     -11.037   7.725  13.630  1.00  0.00     0.031 C 
BRANCH  32  33
HETATM   33  C4  UNL     1     -12.382   7.744  12.953  1.00  0.00    -0.024 C 
HETATM   34  C2  UNL     1     -13.528   7.167  13.365  1.00  0.00    -0.091 C 
HETATM   35  C1  UNL     1     -14.800   7.329  12.571  1.00  0.00     0.042 C 
HETATM   36  C3  UNL     1     -13.683   6.321  14.600  1.00  0.00     0.042 C 
ENDBRANCH  32  33
ENDBRANCH  31  32
ENDBRANCH  29  31
ENDBRANCH  27  28
ENDBRANCH  24  26
ENDBRANCH   1  23
BRANCH   6  37
HETATM   37  C25 UNL     1       2.076   6.327   9.814  1.00  0.00     0.265 C 
HETATM   38  O2  UNL     1       1.797   5.137   9.930  1.00  0.00    -0.302 OA
ENDBRANCH   6  37
TORSDOF 13
ENDMDL
MODEL 2
REMARK minimizedAffinity -9.60410404
REMARK CNNscore 0.581310213
REMARK CNNaffinity 6.77191925
REMARK  13 active torsions:
REMARK  status: ('A' for Active; 'I' for Inactive)
REMARK    1  A    between atoms: C4_4  and  C5_5 
REMARK    2  A    between atoms: C5_5  and  C6_6 
REMARK    3  A    between atoms: C6_6  and  C7_7 
REMARK    4  A    between atoms: C9_9  and  C10_10 
REMARK    5  A    between atoms: C11_11  and  C12_12 
REMARK    6  A    between atoms: C14_14  and  C15_15 
REMARK    7  A    between atoms: C18_18  and  C19_19 
REMARK    8  A    between atoms: C19_19  and  C20_20 
REMARK    9  A    between atoms: C20_20  and  C21_21 
REMARK   10  A    between atoms: C21_21  and  O1_22 
REMARK   11  A    between atoms: C23_24  and  C25_26 
REMARK   12  A    between atoms: C28_30  and  O3_32 
REMARK   13  A    between atoms: C30_33  and  O4_34 
ROOT
HETATM    1  C15 UNL     1      -1.139   4.349  12.046  1.00  0.00     0.149 C 
HETATM    2  C16 UNL     1      -0.454   5.303  11.068  1.00  0.00     0.054 C 
HETATM    3  C17 UNL     1       0.512   6.189  11.911  1.00  0.00     0.050 C 
HETATM    4  C18 UNL     1       1.922   6.257  11.201  1.00  0.00     0.032 C 
HETATM    5  C22 UNL     1       1.752   6.804   9.773  1.00  0.00    -0.066 C 
HETATM    6  C23 UNL     1       2.363   6.309   8.661  1.00  0.00    -0.021 C 
HETATM    7  C24 UNL     1       2.127   6.793   7.250  1.00  0.00     0.052 C 
HETATM    8  C26 UNL     1       0.710   7.905   9.634  1.00  0.00     0.038 C 
HETATM    9  C27 UNL     1       0.266   8.588  10.925  1.00  0.00     0.042 C 
HETATM   10  C28 UNL     1      -0.029   7.657  12.128  1.00  0.00     0.067 C 
HETATM   11  C29 UNL     1      -1.514   7.751  12.505  1.00  0.00     0.047 C 
HETATM   12  C30 UNL     1       0.579   5.331  13.198  1.00  0.00     0.270 C 
HETATM   13  O5  UNL     1      -0.699   4.728  13.353  1.00  0.00    -0.351 OA
ENDROOT
BRANCH   4  14
HETATM   14  C19 UNL     1       3.001   7.035  12.000  1.00  0.00     0.012 C 
BRANCH  14  15
HETATM   15  C20 UNL     1       3.966   7.852  11.137  1.00  0.00     0.027 C 
BRANCH  15  16
HETATM   16  C21 UNL     1       5.319   7.163  11.008  1.00  0.00     0.164 C 
BRANCH  16  17
HETATM   17  O1  UNL     1       5.476   6.229  12.068  1.00  0.00    -0.401 OA
HETATM   18  H32 UNL     1       4.814   5.529  11.941  1.00  0.00     0.209 HD
ENDBRANCH  16  17
ENDBRANCH  15  16
ENDBRANCH  14  15
ENDBRANCH   4  14
BRANCH  10  19
HETATM   19  O3  UNL     1       0.652   8.297  13.227  1.00  0.00    -0.389 OA
HETATM   20  H44 UNL     1       0.646   7.663  13.979  1.00  0.00     0.210 HD
ENDBRANCH  10  19
BRANCH  12  21
HETATM   21  O4  UNL     1       0.862   6.059  14.372  1.00  0.00    -0.370 OA
HETATM   22  H46 UNL     1       0.911   5.382  15.074  1.00  0.00     0.212 HD
ENDBRANCH  12  21
BRANCH   1  23
HETATM   23  C14 UNL     1      -2.636   4.409  12.016  1.00  0.00     0.011 C 
HETATM   24  C12 UNL     1      -3.511   3.386  11.899  1.00  0.00    -0.063 C 
HETATM   25  C13 UNL     1      -3.104   1.945  11.717  1.00  0.00     0.048 C 
BRANCH  24  26
HETATM   26  C11 UNL     1      -4.944   3.695  11.914  1.00  0.00     0.006 C 
HETATM   27  C10 UNL     1      -5.597   4.405  12.851  1.00  0.00     0.001 C 
BRANCH  27  28
HETATM   28  C9  UNL     1      -7.020   4.659  12.779  1.00  0.00     0.002 C 
HETATM   29  C7  UNL     1      -7.682   5.727  13.272  1.00  0.00    -0.084 C 
HETATM   30  C8  UNL     1      -7.054   6.861  14.039  1.00  0.00     0.043 C 
BRANCH  29  31
HETATM   31  C6  UNL     1      -9.190   5.820  13.095  1.00  0.00     0.037 C 
BRANCH  31  32
HETATM   32  C5  UNL     1      -9.870   6.870  13.986  1.00  0.00     0.031 C 
BRANCH  32  33
HETATM   33  C4  UNL     1     -11.375   6.841  13.923  1.00  0.00    -0.024 C 
HETATM   34  C2  UNL     1     -12.195   7.680  13.260  1.00  0.00    -0.091 C 
HETATM   35  C1  UNL     1     -13.689   7.468  13.278  1.00  0.00     0.042 C 
HETATM   36  C3  UNL     1     -11.758   8.880  12.465  1.00  0.00     0.042 C 
ENDBRANCH  32  33
ENDBRANCH  31  32
ENDBRANCH  29  31
ENDBRANCH  27  28
ENDBRANCH  24  26
ENDBRANCH   1  23
BRANCH   6  37
HETATM   37  C25 UNL     1       3.350   5.181   8.704  1.00  0.00     0.265 C 
HETATM   38  O2  UNL     1       3.564   4.451   7.741  1.00  0.00    -0.302 OA
ENDBRANCH   6  37
TORSDOF 13
ENDMDL
MODEL 3
REMARK minimizedAffinity -5.9669261
REMARK CNNscore 0.460464656
REMARK CNNaffinity 5.62125206
REMARK  13 active torsions:
REMARK  status: ('A' for Active; 'I' for Inactive)
REMARK    1  A    between atoms: C4_4  and  C5_5 
REMARK    2  A    between atoms: C5_5  and  C6_6 
REMARK    3  A    between atoms: C6_6  and  C7_7 
REMARK    4  A    between atoms: C9_9  and  C10_10 
REMARK    5  A    between atoms: C11_11  and  C12_12 
REMARK    6  A    between atoms: C14_14  and  C15_15 
REMARK    7  A    between atoms: C18_18  and  C19_19 
REMARK    8  A    between atoms: C19_19  and  C20_20 
REMARK    9  A    between atoms: C20_20  and  C21_21 
REMARK   10  A    between atoms: C21_21  and  O1_22 
REMARK   11  A    between atoms: C23_24  and  C25_26 
REMARK   12  A    between atoms: C28_30  and  O3_32 
REMARK   13  A    between atoms: C30_33  and  O4_34 
ROOT
HETATM    1  C15 UNL     1     -10.410  -9.732  15.413  1.00  0.00     0.149 C 
HETATM    2  C16 UNL     1      -9.380 -10.218  14.393  1.00  0.00     0.054 C 
HETATM    3  C17 UNL     1     -10.177 -10.630  13.118  1.00  0.00     0.050 C 
HETATM    4  C18 UNL     1      -9.479 -10.020  11.839  1.00  0.00     0.032 C 
HETATM    5  C22 UNL     1      -8.017 -10.495  11.774  1.00  0.00    -0.066 C 
HETATM    6  C23 UNL     1      -6.946  -9.713  11.469  1.00  0.00    -0.021 C 
HETATM    7  C24 UNL     1      -5.504 -10.162  11.490  1.00  0.00     0.052 C 
HETATM    8  C26 UNL     1      -7.797 -11.935  12.219  1.00  0.00     0.038 C 
HETATM    9  C27 UNL     1      -9.037 -12.822  12.288  1.00  0.00     0.042 C 
HETATM   10  C28 UNL     1     -10.293 -12.196  12.945  1.00  0.00     0.067 C 
HETATM   11  C29 UNL     1     -10.647 -12.966  14.225  1.00  0.00     0.047 C 
HETATM   12  C30 UNL     1     -11.516  -9.914  13.416  1.00  0.00     0.270 C 
HETATM   13  O5  UNL     1     -11.695  -9.955  14.826  1.00  0.00    -0.351 OA
ENDROOT
BRANCH   4  14
HETATM   14  C19 UNL     1     -10.239 -10.283  10.511  1.00  0.00     0.012 C 
BRANCH  14  15
HETATM   15  C20 UNL     1     -10.358  -9.063   9.594  1.00  0.00     0.027 C 
BRANCH  15  16
HETATM   16  C21 UNL     1     -11.804  -8.600   9.465  1.00  0.00     0.164 C 
BRANCH  16  17
HETATM   17  O1  UNL     1     -12.096  -7.671  10.500  1.00  0.00    -0.401 OA
HETATM   18  H32 UNL     1     -11.554  -6.879  10.344  1.00  0.00     0.209 HD
ENDBRANCH  16  17
ENDBRANCH  15  16
ENDBRANCH  14  15
ENDBRANCH   4  14
BRANCH  10  19
HETATM   19  O3  UNL     1     -11.357 -12.532  12.029  1.00  0.00    -0.389 OA
HETATM   20  H44 UNL     1     -12.148 -12.016  12.303  1.00  0.00     0.210 HD
ENDBRANCH  10  19
BRANCH  12  21
HETATM   21  O4  UNL     1     -12.645 -10.510  12.817  1.00  0.00    -0.370 OA
HETATM   22  H46 UNL     1     -13.388  -9.927  13.061  1.00  0.00     0.212 HD
ENDBRANCH  12  21
BRANCH   1  23
HETATM   23  C14 UNL     1     -10.360 -10.450  16.727  1.00  0.00     0.011 C 
HETATM   24  C12 UNL     1     -11.061 -10.188  17.851  1.00  0.00    -0.063 C 
HETATM   25  C13 UNL     1     -12.023  -9.035  17.994  1.00  0.00     0.048 C 
BRANCH  24  26
HETATM   26  C11 UNL     1     -10.852 -11.052  19.017  1.00  0.00     0.006 C 
HETATM   27  C10 UNL     1     -10.637 -10.646  20.281  1.00  0.00     0.001 C 
BRANCH  27  28
HETATM   28  C9  UNL     1     -10.441 -11.579  21.371  1.00  0.00     0.002 C 
HETATM   29  C7  UNL     1      -9.396 -11.626  22.223  1.00  0.00    -0.084 C 
HETATM   30  C8  UNL     1      -8.193 -10.720  22.175  1.00  0.00     0.043 C 
BRANCH  29  31
HETATM   31  C6  UNL     1      -9.367 -12.684  23.316  1.00  0.00     0.037 C 
BRANCH  31  32
HETATM   32  C5  UNL     1      -9.082 -12.138  24.723  1.00  0.00     0.031 C 
BRANCH  32  33
HETATM   33  C4  UNL     1     -10.013 -12.668  25.781  1.00  0.00    -0.024 C 
HETATM   34  C2  UNL     1      -9.759 -13.601  26.720  1.00  0.00    -0.091 C 
HETATM   35  C1  UNL     1     -10.811 -13.979  27.733  1.00  0.00     0.042 C 
HETATM   36  C3  UNL     1      -8.467 -14.356  26.870  1.00  0.00     0.042 C 
ENDBRANCH  32  33
ENDBRANCH  31  32
ENDBRANCH  29  31
ENDBRANCH  27  28
ENDBRANCH  24  26
ENDBRANCH   1  23
BRANCH   6  37
HETATM   37  C25 UNL     1      -7.071  -8.268  11.086  1.00  0.00     0.265 C 
HETATM   38  O2  UNL     1      -6.545  -7.364  11.729  1.00  0.00    -0.302 OA
ENDBRANCH   6  37
TORSDOF 13
ENDMDL
MODEL 4
REMARK minimizedAffinity -6.30842352
REMARK CNNscore 0.43908909
REMARK CNNaffinity 6.27341604
REMARK  13 active torsions:
REMARK  status: ('A' for Active; 'I' for Inactive)
REMARK    1  A    between atoms: C4_4  and  C5_5 
REMARK    2  A    between atoms: C5_5  and  C6_6 
REMARK    3  A    between atoms: C6_6  and  C7_7 
REMARK    4  A    between atoms: C9_9  and  C10_10 
REMARK    5  A    between atoms: C11_11  and  C12_12 
REMARK    6  A    between atoms: C14_14  and  C15_15 
REMARK    7  A    between atoms: C18_18  and  C19_19 
REMARK    8  A    between atoms: C19_19  and  C20_20 
REMARK    9  A    between atoms: C20_20  and  C21_21 
REMARK   10  A    between atoms: C21_21  and  O1_22 
REMARK   11  A    between atoms: C23_24  and  C25_26 
REMARK   12  A    between atoms: C28_30  and  O3_32 
REMARK   13  A    between atoms: C30_33  and  O4_34 
ROOT
HETATM    1  C15 UNL     1     -15.265   8.707  17.382  1.00  0.00     0.149 C 
HETATM    2  C16 UNL     1     -14.433   7.954  16.344  1.00  0.00     0.054 C 
HETATM    3  C17 UNL     1     -15.369   7.698  15.125  1.00  0.00     0.050 C 
HETATM    4  C18 UNL     1     -14.614   8.079  13.790  1.00  0.00     0.032 C 
HETATM    5  C22 UNL     1     -13.310   7.268  13.686  1.00  0.00    -0.066 C 
HETATM    6  C23 UNL     1     -12.103   7.762  13.300  1.00  0.00    -0.021 C 
HETATM    7  C24 UNL     1     -10.809   6.984  13.281  1.00  0.00     0.052 C 
HETATM    8  C26 UNL     1     -13.413   5.834  14.189  1.00  0.00     0.038 C 
HETATM    9  C27 UNL     1     -14.822   5.270  14.352  1.00  0.00     0.042 C 
HETATM   10  C28 UNL     1     -15.860   6.199  15.031  1.00  0.00     0.067 C 
HETATM   11  C29 UNL     1     -16.318   5.582  16.359  1.00  0.00     0.047 C 
HETATM   12  C30 UNL     1     -16.484   8.722  15.445  1.00  0.00     0.270 C 
HETATM   13  O5  UNL     1     -16.594   8.775  16.861  1.00  0.00    -0.351 OA
ENDROOT
BRANCH   4  14
HETATM   14  C19 UNL     1     -15.482   7.957  12.510  1.00  0.00     0.012 C 
BRANCH  14  15
HETATM   15  C20 UNL     1     -15.805   9.290  11.830  1.00  0.00     0.027 C 
BRANCH  15  16
HETATM   16  C21 UNL     1     -17.270   9.368  11.420  1.00  0.00     0.164 C 
BRANCH  16  17
HETATM   17  O1  UNL     1     -17.358   9.732  10.049  1.00  0.00    -0.401 OA
HETATM   18  H32 UNL     1     -16.980   9.002   9.528  1.00  0.00     0.209 HD
ENDBRANCH  16  17
ENDBRANCH  15  16
ENDBRANCH  14  15
ENDBRANCH   4  14
BRANCH  10  19
HETATM   19  O3  UNL     1     -17.019   6.093  14.177  1.00  0.00    -0.389 OA
HETATM   20  H44 UNL     1     -17.650   6.792  14.460  1.00  0.00     0.210 HD
ENDBRANCH  10  19
BRANCH  12  21
HETATM   21  O4  UNL     1     -17.751   8.390  14.922  1.00  0.00    -0.370 OA
HETATM   22  H46 UNL     1     -18.322   9.141  15.170  1.00  0.00     0.212 HD
ENDBRANCH  12  21
BRANCH   1  23
HETATM   23  C14 UNL     1     -15.316   8.045  18.726  1.00  0.00     0.011 C 
HETATM   24  C12 UNL     1     -14.419   8.126  19.733  1.00  0.00    -0.063 C 
HETATM   25  C13 UNL     1     -13.124   8.893  19.648  1.00  0.00     0.048 C 
BRANCH  24  26
HETATM   26  C11 UNL     1     -14.701   7.396  20.973  1.00  0.00     0.006 C 
HETATM   27  C10 UNL     1     -13.835   6.634  21.664  1.00  0.00     0.001 C 
BRANCH  27  28
HETATM   28  C9  UNL     1     -14.208   5.949  22.884  1.00  0.00     0.002 C 
HETATM   29  C7  UNL     1     -14.355   4.619  23.058  1.00  0.00    -0.084 C 
HETATM   30  C8  UNL     1     -14.191   3.577  21.981  1.00  0.00     0.043 C 
BRANCH  29  31
HETATM   31  C6  UNL     1     -14.752   4.081  24.424  1.00  0.00     0.037 C 
BRANCH  31  32
HETATM   32  C5  UNL     1     -14.678   2.552  24.552  1.00  0.00     0.031 C 
BRANCH  32  33
HETATM   33  C4  UNL     1     -13.869   2.078  25.731  1.00  0.00    -0.024 C 
HETATM   34  C2  UNL     1     -12.537   1.890  25.803  1.00  0.00    -0.091 C 
HETATM   35  C1  UNL     1     -11.892   1.446  27.093  1.00  0.00     0.042 C 
HETATM   36  C3  UNL     1     -11.567   2.078  24.668  1.00  0.00     0.042 C 
ENDBRANCH  32  33
ENDBRANCH  31  32
ENDBRANCH  29  31
ENDBRANCH  27  28
ENDBRANCH  24  26
ENDBRANCH   1  23
BRANCH   6  37
HETATM   37  C25 UNL     1     -11.903   9.181  12.855  1.00  0.00     0.265 C 
HETATM   38  O2  UNL     1     -12.232   9.579  11.742  1.00  0.00    -0.302 OA
ENDBRANCH   6  37
TORSDOF 13
ENDMDL
MODEL 5
REMARK minimizedAffinity -9.27027321
REMARK CNNscore 0.425536901
REMARK CNNaffinity 6.59710836
REMARK  13 active torsions:
REMARK  status: ('A' for Active; 'I' for Inactive)
REMARK    1  A    between atoms: C4_4  and  C5_5 
REMARK    2  A    between atoms: C5_5  and  C6_6 
REMARK    3  A    between atoms: C6_6  and  C7_7 
REMARK    4  A    between atoms: C9_9  and  C10_10 
REMARK    5  A    between atoms: C11_11  and  C12_12 
REMARK    6  A    between atoms: C14_14  and  C15_15 
REMARK    7  A    between atoms: C18_18  and  C19_19 
REMARK    8  A    between atoms: C19_19  and  C20_20 
REMARK    9  A    between atoms: C20_20  and  C21_21 
REMARK   10  A    between atoms: C21_21  and  O1_22 
REMARK   11  A    between atoms: C23_24  and  C25_26 
REMARK   12  A    between atoms: C28_30  and  O3_32 
REMARK   13  A    between atoms: C30_33  and  O4_34 
ROOT
HETATM    1  C15 UNL     1       0.197   5.104  12.234  1.00  0.00     0.149 C 
HETATM    2  C16 UNL     1       0.832   5.345  10.864  1.00  0.00     0.054 C 
HETATM    3  C17 UNL     1       1.868   6.495  11.051  1.00  0.00     0.050 C 
HETATM    4  C18 UNL     1       3.228   6.100  10.352  1.00  0.00     0.032 C 
HETATM    5  C22 UNL     1       2.974   5.799   8.864  1.00  0.00    -0.066 C 
HETATM    6  C23 UNL     1       3.501   4.754   8.169  1.00  0.00    -0.021 C 
HETATM    7  C24 UNL     1       3.181   4.415   6.732  1.00  0.00     0.052 C 
HETATM    8  C26 UNL     1       1.944   6.705   8.201  1.00  0.00     0.038 C 
HETATM    9  C27 UNL     1       1.599   7.996   8.938  1.00  0.00     0.042 C 
HETATM   10  C28 UNL     1       1.368   7.874  10.465  1.00  0.00     0.067 C 
HETATM   11  C29 UNL     1      -0.087   8.232  10.800  1.00  0.00     0.047 C 
HETATM   12  C30 UNL     1       2.004   6.462  12.592  1.00  0.00     0.270 C 
HETATM   13  O5  UNL     1       0.729   6.103  13.107  1.00  0.00    -0.351 OA
ENDROOT
BRANCH   4  14
HETATM   14  C19 UNL     1       4.372   7.129  10.554  1.00  0.00     0.012 C 
BRANCH  14  15
HETATM   15  C20 UNL     1       5.369   6.764  11.656  1.00  0.00     0.027 C 
BRANCH  15  16
HETATM   16  C21 UNL     1       6.732   6.401  11.078  1.00  0.00     0.164 C 
BRANCH  16  17
HETATM   17  O1  UNL     1       6.743   5.023  10.727  1.00  0.00    -0.401 OA
HETATM   18  H32 UNL     1       6.110   4.901  10.000  1.00  0.00     0.209 HD
ENDBRANCH  16  17
ENDBRANCH  15  16
ENDBRANCH  14  15
ENDBRANCH   4  14
BRANCH  10  19
HETATM   19  O3  UNL     1       2.132   8.970  11.012  1.00  0.00    -0.389 OA
HETATM   20  H44 UNL     1       2.164   8.841  11.986  1.00  0.00     0.210 HD
ENDBRANCH  10  19
BRANCH  12  21
HETATM   21  O4  UNL     1       2.377   7.692  13.173  1.00  0.00    -0.370 OA
HETATM   22  H46 UNL     1       2.461   7.497  14.126  1.00  0.00     0.212 HD
ENDBRANCH  12  21
BRANCH   1  23
HETATM   23  C14 UNL     1      -1.298   5.213  12.245  1.00  0.00     0.011 C 
HETATM   24  C12 UNL     1      -2.208   4.262  11.941  1.00  0.00    -0.063 C 
HETATM   25  C13 UNL     1      -1.852   2.876  11.464  1.00  0.00     0.048 C 
BRANCH  24  26
HETATM   26  C11 UNL     1      -3.630   4.604  12.046  1.00  0.00     0.006 C 
HETATM   27  C10 UNL     1      -4.505   4.108  12.939  1.00  0.00     0.001 C 
BRANCH  27  28
HETATM   28  C9  UNL     1      -5.896   4.509  12.965  1.00  0.00     0.002 C 
HETATM   29  C7  UNL     1      -6.969   3.738  12.692  1.00  0.00    -0.084 C 
HETATM   30  C8  UNL     1      -6.917   2.295  12.263  1.00  0.00     0.043 C 
BRANCH  29  31
HETATM   31  C6  UNL     1      -8.364   4.339  12.775  1.00  0.00     0.037 C 
BRANCH  31  32
HETATM   32  C5  UNL     1      -8.392   5.836  13.118  1.00  0.00     0.031 C 
BRANCH  32  33
HETATM   33  C4  UNL     1      -9.778   6.387  13.328  1.00  0.00    -0.024 C 
HETATM   34  C2  UNL     1     -10.243   7.087  14.381  1.00  0.00    -0.091 C 
HETATM   35  C1  UNL     1     -11.662   7.598  14.399  1.00  0.00     0.042 C 
HETATM   36  C3  UNL     1      -9.456   7.427  15.618  1.00  0.00     0.042 C 
ENDBRANCH  32  33
ENDBRANCH  31  32
ENDBRANCH  29  31
ENDBRANCH  27  28
ENDBRANCH  24  26
ENDBRANCH   1  23
BRANCH   6  37
HETATM   37  C25 UNL     1       4.469   3.778   8.768  1.00  0.00     0.265 C 
HETATM   38  O2  UNL     1       5.181   3.048   8.086  1.00  0.00    -0.302 OA
ENDBRANCH   6  37
TORSDOF 13
ENDMDL
MODEL 6
REMARK minimizedAffinity -7.44148588
REMARK CNNscore 0.369556099
REMARK CNNaffinity 6.2033844
REMARK  13 active torsions:
REMARK  status: ('A' for Active; 'I' for Inactive)
REMARK    1  A    between atoms: C4_4  and  C5_5 
REMARK    2  A    between atoms: C5_5  and  C6_6 
REMARK    3  A    between atoms: C6_6  and  C7_7 
REMARK    4  A    between atoms: C9_9  and  C10_10 
REMARK    5  A    between atoms: C11_11  and  C12_12 
REMARK    6  A    between atoms: C14_14  and  C15_15 
REMARK    7  A    between atoms: C18_18  and  C19_19 
REMARK    8  A    between atoms: C19_19  and  C20_20 
REMARK    9  A    between atoms: C20_20  and  C21_21 
REMARK   10  A    between atoms: C21_21  and  O1_22 
REMARK   11  A    between atoms: C23_24  and  C25_26 
REMARK   12  A    between atoms: C28_30  and  O3_32 
REMARK   13  A    between atoms: C30_33  and  O4_34 
ROOT
HETATM    1  C15 UNL     1       3.953   8.003  11.107  1.00  0.00     0.149 C 
HETATM    2  C16 UNL     1       4.681   8.998  12.012  1.00  0.00     0.054 C 
HETATM    3  C17 UNL     1       5.729   8.177  12.822  1.00  0.00     0.050 C 
HETATM    4  C18 UNL     1       7.122   8.922  12.791  1.00  0.00     0.032 C 
HETATM    5  C22 UNL     1       6.957  10.346  13.352  1.00  0.00    -0.066 C 
HETATM    6  C23 UNL     1       7.502  11.473  12.818  1.00  0.00    -0.021 C 
HETATM    7  C24 UNL     1       7.268  12.877  13.321  1.00  0.00     0.052 C 
HETATM    8  C26 UNL     1       5.994  10.457  14.526  1.00  0.00     0.038 C 
HETATM    9  C27 UNL     1       5.632   9.155  15.236  1.00  0.00     0.042 C 
HETATM   10  C28 UNL     1       5.300   7.946  14.325  1.00  0.00     0.067 C 
HETATM   11  C29 UNL     1       3.836   7.533  14.525  1.00  0.00     0.047 C 
HETATM   12  C30 UNL     1       5.766   6.894  11.958  1.00  0.00     0.270 C 
HETATM   13  O5  UNL     1       4.451   6.708  11.450  1.00  0.00    -0.351 OA
ENDROOT
BRANCH   4  14
HETATM   14  C19 UNL     1       8.274   8.150  13.487  1.00  0.00     0.012 C 
BRANCH  14  15
HETATM   15  C20 UNL     1       8.963   8.918  14.618  1.00  0.00     0.027 C 
BRANCH  15  16
HETATM   16  C21 UNL     1       9.441   7.979  15.720  1.00  0.00     0.164 C 
BRANCH  16  17
HETATM   17  O1  UNL     1       8.389   7.770  16.651  1.00  0.00    -0.401 OA
HETATM   18  H32 UNL     1       7.680   7.290  16.190  1.00  0.00     0.209 HD
ENDBRANCH  16  17
ENDBRANCH  15  16
ENDBRANCH  14  15
ENDBRANCH   4  14
BRANCH  10  19
HETATM   19  O3  UNL     1       6.053   6.864  14.912  1.00  0.00    -0.389 OA
HETATM   20  H44 UNL     1       6.020   6.112  14.278  1.00  0.00     0.210 HD
ENDBRANCH  10  19
BRANCH  12  21
HETATM   21  O4  UNL     1       6.129   5.726  12.661  1.00  0.00    -0.370 OA
HETATM   22  H46 UNL     1       6.147   5.027  11.980  1.00  0.00     0.212 HD
ENDBRANCH  12  21
BRANCH   1  23
HETATM   23  C14 UNL     1       2.464   7.997  11.274  1.00  0.00     0.011 C 
HETATM   24  C12 UNL     1       1.519   7.761  10.338  1.00  0.00    -0.063 C 
HETATM   25  C13 UNL     1       1.819   7.504   8.883  1.00  0.00     0.048 C 
BRANCH  24  26
HETATM   26  C11 UNL     1       0.112   7.790  10.751  1.00  0.00     0.006 C 
HETATM   27  C10 UNL     1      -0.396   7.281  11.887  1.00  0.00     0.001 C 
BRANCH  27  28
HETATM   28  C9  UNL     1      -1.806   7.359  12.209  1.00  0.00     0.002 C 
HETATM   29  C7  UNL     1      -2.421   6.852  13.298  1.00  0.00    -0.084 C 
HETATM   30  C8  UNL     1      -1.747   6.059  14.387  1.00  0.00     0.043 C 
BRANCH  29  31
HETATM   31  C6  UNL     1      -3.921   7.037  13.466  1.00  0.00     0.037 C 
BRANCH  31  32
HETATM   32  C5  UNL     1      -4.678   5.764  13.873  1.00  0.00     0.031 C 
BRANCH  32  33
HETATM   33  C4  UNL     1      -4.719   4.710  12.798  1.00  0.00    -0.024 C 
HETATM   34  C2  UNL     1      -5.743   3.897  12.470  1.00  0.00    -0.091 C 
HETATM   35  C1  UNL     1      -5.614   2.922  11.327  1.00  0.00     0.042 C 
HETATM   36  C3  UNL     1      -7.075   3.848  13.168  1.00  0.00     0.042 C 
ENDBRANCH  32  33
ENDBRANCH  31  32
ENDBRANCH  29  31
ENDBRANCH  27  28
ENDBRANCH  24  26
ENDBRANCH   1  23
BRANCH   6  37
HETATM   37  C25 UNL     1       8.407  11.455  11.621  1.00  0.00     0.265 C 
HETATM   38  O2  UNL     1       9.568  11.064  11.674  1.00  0.00    -0.302 OA
ENDBRANCH   6  37
TORSDOF 13
ENDMDL
MODEL 7
REMARK minimizedAffinity -8.48486519
REMARK CNNscore 0.363762468
REMARK CNNaffinity 6.36927986
REMARK  13 active torsions:
REMARK  status: ('A' for Active; 'I' for Inactive)
REMARK    1  A    between atoms: C4_4  and  C5_5 
REMARK    2  A    between atoms: C5_5  and  C6_6 
REMARK    3  A    between atoms: C6_6  and  C7_7 
REMARK    4  A    between atoms: C9_9  and  C10_10 
REMARK    5  A    between atoms: C11_11  and  C12_12 
REMARK    6  A    between atoms: C14_14  and  C15_15 
REMARK    7  A    between atoms: C18_18  and  C19_19 
REMARK    8  A    between atoms: C19_19  and  C20_20 
REMARK    9  A    between atoms: C20_20  and  C21_21 
REMARK   10  A    between atoms: C21_21  and  O1_22 
REMARK   11  A    between atoms: C23_24  and  C25_26 
REMARK   12  A    between atoms: C28_30  and  O3_32 
REMARK   13  A    between atoms: C30_33  and  O4_34 
ROOT
HETATM    1  C15 UNL     1      -1.452   4.841  12.725  1.00  0.00     0.149 C 
HETATM    2  C16 UNL     1      -0.628   5.622  11.700  1.00  0.00     0.054 C 
HETATM    3  C17 UNL     1       0.378   6.494  12.510  1.00  0.00     0.050 C 
HETATM    4  C18 UNL     1       1.821   6.358  11.880  1.00  0.00     0.032 C 
HETATM    5  C22 UNL     1       1.777   6.769  10.398  1.00  0.00    -0.066 C 
HETATM    6  C23 UNL     1       2.389   6.108   9.377  1.00  0.00    -0.021 C 
HETATM    7  C24 UNL     1       2.273   6.466   7.915  1.00  0.00     0.052 C 
HETATM    8  C26 UNL     1       0.857   7.944  10.093  1.00  0.00     0.038 C 
HETATM    9  C27 UNL     1       0.419   8.793  11.283  1.00  0.00     0.042 C 
HETATM   10  C28 UNL     1      -0.025   8.021  12.551  1.00  0.00     0.067 C 
HETATM   11  C29 UNL     1      -1.510   8.292  12.829  1.00  0.00     0.047 C 
HETATM   12  C30 UNL     1       0.297   5.769  13.875  1.00  0.00     0.270 C 
HETATM   13  O5  UNL     1      -1.041   5.308  14.012  1.00  0.00    -0.351 OA
ENDROOT
BRANCH   4  14
HETATM   14  C19 UNL     1       2.932   7.108  12.662  1.00  0.00     0.012 C 
BRANCH  14  15
HETATM   15  C20 UNL     1       3.988   7.779  11.781  1.00  0.00     0.027 C 
BRANCH  15  16
HETATM   16  C21 UNL     1       5.322   7.908  12.507  1.00  0.00     0.164 C 
BRANCH  16  17
HETATM   17  O1  UNL     1       5.283   7.141  13.703  1.00  0.00    -0.401 OA
HETATM   18  H32 UNL     1       5.214   6.205  13.448  1.00  0.00     0.209 HD
ENDBRANCH  16  17
ENDBRANCH  15  16
ENDBRANCH  14  15
ENDBRANCH   4  14
BRANCH  10  19
HETATM   19  O3  UNL     1       0.662   8.703  13.621  1.00  0.00    -0.389 OA
HETATM   20  H44 UNL     1       0.556   8.153  14.429  1.00  0.00     0.210 HD
ENDBRANCH  10  19
BRANCH  12  21
HETATM   21  O4  UNL     1       0.592   6.584  14.988  1.00  0.00    -0.370 OA
HETATM   22  H46 UNL     1       0.540   5.980  15.753  1.00  0.00     0.212 HD
ENDBRANCH  12  21
BRANCH   1  23
HETATM   23  C14 UNL     1      -2.932   5.037  12.600  1.00  0.00     0.011 C 
HETATM   24  C12 UNL     1      -3.800   5.467  13.542  1.00  0.00    -0.063 C 
HETATM   25  C13 UNL     1      -3.412   5.787  14.963  1.00  0.00     0.048 C 
BRANCH  24  26
HETATM   26  C11 UNL     1      -5.213   5.598  13.174  1.00  0.00     0.006 C 
HETATM   27  C10 UNL     1      -6.268   5.455  13.996  1.00  0.00     0.001 C 
BRANCH  27  28
HETATM   28  C9  UNL     1      -7.633   5.605  13.537  1.00  0.00     0.002 C 
HETATM   29  C7  UNL     1      -8.565   6.452  14.022  1.00  0.00    -0.084 C 
HETATM   30  C8  UNL     1      -8.366   7.394  15.181  1.00  0.00     0.043 C 
BRANCH  29  31
HETATM   31  C6  UNL     1      -9.956   6.469  13.406  1.00  0.00     0.037 C 
BRANCH  31  32
HETATM   32  C5  UNL     1     -10.874   7.578  13.939  1.00  0.00     0.031 C 
BRANCH  32  33
HETATM   33  C4  UNL     1     -12.189   7.683  13.211  1.00  0.00    -0.024 C 
HETATM   34  C2  UNL     1     -13.312   6.966  13.417  1.00  0.00    -0.091 C 
HETATM   35  C1  UNL     1     -14.557   7.241  12.611  1.00  0.00     0.042 C 
HETATM   36  C3  UNL     1     -13.463   5.850  14.415  1.00  0.00     0.042 C 
ENDBRANCH  32  33
ENDBRANCH  31  32
ENDBRANCH  29  31
ENDBRANCH  27  28
ENDBRANCH  24  26
ENDBRANCH   1  23
BRANCH   6  37
HETATM   37  C25 UNL     1       3.257   4.903   9.587  1.00  0.00     0.265 C 
HETATM   38  O2  UNL     1       3.344   3.998   8.763  1.00  0.00    -0.302 OA
ENDBRANCH   6  37
TORSDOF 13
ENDMDL
MODEL 8
REMARK minimizedAffinity -8.34601212
REMARK CNNscore 0.358925015
REMARK CNNaffinity 6.8095665
REMARK  13 active torsions:
REMARK  status: ('A' for Active; 'I' for Inactive)
REMARK    1  A    between atoms: C4_4  and  C5_5 
REMARK    2  A    between atoms: C5_5  and  C6_6 
REMARK    3  A    between atoms: C6_6  and  C7_7 
REMARK    4  A    between atoms: C9_9  and  C10_10 
REMARK    5  A    between atoms: C11_11  and  C12_12 
REMARK    6  A    between atoms: C14_14  and  C15_15 
REMARK    7  A    between atoms: C18_18  and  C19_19 
REMARK    8  A    between atoms: C19_19  and  C20_20 
REMARK    9  A    between atoms: C20_20  and  C21_21 
REMARK   10  A    between atoms: C21_21  and  O1_22 
REMARK   11  A    between atoms: C23_24  and  C25_26 
REMARK   12  A    between atoms: C28_30  and  O3_32 
REMARK   13  A    between atoms: C30_33  and  O4_34 
ROOT
HETATM    1  C15 UNL     1      -0.692   5.049  12.798  1.00  0.00     0.149 C 
HETATM    2  C16 UNL     1      -0.074   5.872  11.667  1.00  0.00     0.054 C 
HETATM    3  C17 UNL     1       1.189   6.565  12.260  1.00  0.00     0.050 C 
HETATM    4  C18 UNL     1       2.405   6.386  11.267  1.00  0.00     0.032 C 
HETATM    5  C22 UNL     1       2.034   6.963   9.890  1.00  0.00    -0.066 C 
HETATM    6  C23 UNL     1       2.297   6.374   8.691  1.00  0.00    -0.021 C 
HETATM    7  C24 UNL     1       1.856   6.901   7.347  1.00  0.00     0.052 C 
HETATM    8  C26 UNL     1       1.196   8.234   9.939  1.00  0.00     0.038 C 
HETATM    9  C27 UNL     1       1.164   8.976  11.272  1.00  0.00     0.042 C 
HETATM   10  C28 UNL     1       0.973   8.105  12.539  1.00  0.00     0.067 C 
HETATM   11  C29 UNL     1      -0.358   8.460  13.217  1.00  0.00     0.047 C 
HETATM   12  C30 UNL     1       1.377   5.701  13.530  1.00  0.00     0.270 C 
HETATM   13  O5  UNL     1       0.075   5.335  13.970  1.00  0.00    -0.351 OA
ENDROOT
BRANCH   4  14
HETATM   14  C19 UNL     1       3.749   6.953  11.796  1.00  0.00     0.012 C 
BRANCH  14  15
HETATM   15  C20 UNL     1       4.805   7.200  10.715  1.00  0.00     0.027 C 
BRANCH  15  16
HETATM   16  C21 UNL     1       6.208   6.894  11.224  1.00  0.00     0.164 C 
BRANCH  16  17
HETATM   17  O1  UNL     1       6.153   5.798  12.128  1.00  0.00    -0.401 OA
HETATM   18  H32 UNL     1       5.882   5.014  11.621  1.00  0.00     0.209 HD
ENDBRANCH  16  17
ENDBRANCH  15  16
ENDBRANCH  14  15
ENDBRANCH   4  14
BRANCH  10  19
HETATM   19  O3  UNL     1       1.974   8.606  13.449  1.00  0.00    -0.389 OA
HETATM   20  H44 UNL     1       2.017   7.979  14.206  1.00  0.00     0.210 HD
ENDBRANCH  10  19
BRANCH  12  21
HETATM   21  O4  UNL     1       2.026   6.359  14.595  1.00  0.00    -0.370 OA
HETATM   22  H46 UNL     1       2.104   5.680  15.292  1.00  0.00     0.212 HD
ENDBRANCH  12  21
BRANCH   1  23
HETATM   23  C14 UNL     1      -2.127   5.375  13.081  1.00  0.00     0.011 C 
HETATM   24  C12 UNL     1      -3.233   4.798  12.564  1.00  0.00    -0.063 C 
HETATM   25  C13 UNL     1      -3.206   3.709  11.521  1.00  0.00     0.048 C 
BRANCH  24  26
HETATM   26  C11 UNL     1      -4.543   5.280  13.014  1.00  0.00     0.006 C 
HETATM   27  C10 UNL     1      -4.806   5.900  14.178  1.00  0.00     0.001 C 
BRANCH  27  28
HETATM   28  C9  UNL     1      -6.138   6.342  14.536  1.00  0.00     0.002 C 
HETATM   29  C7  UNL     1      -6.529   7.604  14.813  1.00  0.00    -0.084 C 
HETATM   30  C8  UNL     1      -5.626   8.809  14.839  1.00  0.00     0.043 C 
BRANCH  29  31
HETATM   31  C6  UNL     1      -7.983   7.876  15.169  1.00  0.00     0.037 C 
BRANCH  31  32
HETATM   32  C5  UNL     1      -9.002   7.196  14.243  1.00  0.00     0.031 C 
BRANCH  32  33
HETATM   33  C4  UNL     1      -8.701   5.746  13.966  1.00  0.00    -0.024 C 
HETATM   34  C2  UNL     1      -8.590   5.134  12.771  1.00  0.00    -0.091 C 
HETATM   35  C1  UNL     1      -8.240   3.669  12.687  1.00  0.00     0.042 C 
HETATM   36  C3  UNL     1      -8.799   5.790  11.433  1.00  0.00     0.042 C 
ENDBRANCH  32  33
ENDBRANCH  31  32
ENDBRANCH  29  31
ENDBRANCH  27  28
ENDBRANCH  24  26
ENDBRANCH   1  23
BRANCH   6  37
HETATM   37  C25 UNL     1       3.057   5.088   8.561  1.00  0.00     0.265 C 
HETATM   38  O2  UNL     1       3.400   4.628   7.476  1.00  0.00    -0.302 OA
ENDBRANCH   6  37
TORSDOF 13
ENDMDL
MODEL 9
REMARK minimizedAffinity -6.46929073
REMARK CNNscore 0.351148456
REMARK CNNaffinity 5.86947489
REMARK  13 active torsions:
REMARK  status: ('A' for Active; 'I' for Inactive)
REMARK    1  A    between atoms: C4_4  and  C5_5 
REMARK    2  A    between atoms: C5_5  and  C6_6 
REMARK    3  A    between atoms: C6_6  and  C7_7 
REMARK    4  A    between atoms: C9_9  and  C10_10 
REMARK    5  A    between atoms: C11_11  and  C12_12 
REMARK    6  A    between atoms: C14_14  and  C15_15 
REMARK    7  A    between atoms: C18_18  and  C19_19 
REMARK    8  A    between atoms: C19_19  and  C20_20 
REMARK    9  A    between atoms: C20_20  and  C21_21 
REMARK   10  A    between atoms: C21_21  and  O1_22 
REMARK   11  A    between atoms: C23_24  and  C25_26 
REMARK   12  A    between atoms: C28_30  and  O3_32 
REMARK   13  A    between atoms: C30_33  and  O4_34 
ROOT
HETATM    1  C15 UNL     1      -1.289   8.471  16.665  1.00  0.00     0.149 C 
HETATM    2  C16 UNL     1      -2.290   8.102  15.570  1.00  0.00     0.054 C 
HETATM    3  C17 UNL     1      -1.494   8.076  14.230  1.00  0.00     0.050 C 
HETATM    4  C18 UNL     1      -1.856   6.764  13.426  1.00  0.00     0.032 C 
HETATM    5  C22 UNL     1      -3.375   6.710  13.186  1.00  0.00    -0.066 C 
HETATM    6  C23 UNL     1      -4.158   5.606  13.330  1.00  0.00    -0.021 C 
HETATM    7  C24 UNL     1      -5.660   5.578  13.177  1.00  0.00     0.052 C 
HETATM    8  C26 UNL     1      -4.018   8.058  12.889  1.00  0.00     0.038 C 
HETATM    9  C27 UNL     1      -3.075   9.188  12.483  1.00  0.00     0.042 C 
HETATM   10  C28 UNL     1      -1.780   9.335  13.320  1.00  0.00     0.067 C 
HETATM   11  C29 UNL     1      -1.789  10.680  14.059  1.00  0.00     0.047 C 
HETATM   12  C30 UNL     1      -0.055   8.002  14.795  1.00  0.00     0.270 C 
HETATM   13  O5  UNL     1      -0.053   8.750  16.003  1.00  0.00    -0.351 OA
ENDROOT
BRANCH   4  14
HETATM   14  C19 UNL     1      -1.049   6.578  12.113  1.00  0.00     0.012 C 
BRANCH  14  15
HETATM   15  C20 UNL     1      -0.114   5.366  12.108  1.00  0.00     0.027 C 
BRANCH  15  16
HETATM   16  C21 UNL     1      -0.694   4.217  11.292  1.00  0.00     0.164 C 
BRANCH  16  17
HETATM   17  O1  UNL     1       0.201   3.113  11.332  1.00  0.00    -0.401 OA
HETATM   18  H32 UNL     1       0.230   2.793  12.249  1.00  0.00     0.209 HD
ENDBRANCH  16  17
ENDBRANCH  15  16
ENDBRANCH  14  15
ENDBRANCH   4  14
BRANCH  10  19
HETATM   19  O3  UNL     1      -0.748   9.490  12.323  1.00  0.00    -0.389 OA
HETATM   20  H44 UNL     1       0.116   9.415  12.787  1.00  0.00     0.210 HD
ENDBRANCH  10  19
BRANCH  12  21
HETATM   21  O4  UNL     1       0.934   8.543  13.947  1.00  0.00    -0.370 OA
HETATM   22  H46 UNL     1       1.774   8.384  14.419  1.00  0.00     0.212 HD
ENDBRANCH  12  21
BRANCH   1  23
HETATM   23  C14 UNL     1      -1.676   9.674  17.471  1.00  0.00     0.011 C 
HETATM   24  C12 UNL     1      -2.878  10.289  17.530  1.00  0.00    -0.063 C 
HETATM   25  C13 UNL     1      -4.076   9.878  16.712  1.00  0.00     0.048 C 
BRANCH  24  26
HETATM   26  C11 UNL     1      -3.020  11.448  18.416  1.00  0.00     0.006 C 
HETATM   27  C10 UNL     1      -4.176  12.004  18.822  1.00  0.00     0.001 C 
BRANCH  27  28
HETATM   28  C9  UNL     1      -4.215  13.153  19.702  1.00  0.00     0.002 C 
HETATM   29  C7  UNL     1      -5.241  14.015  19.869  1.00  0.00    -0.084 C 
HETATM   30  C8  UNL     1      -6.550  13.963  19.125  1.00  0.00     0.043 C 
BRANCH  29  31
HETATM   31  C6  UNL     1      -5.097  15.170  20.848  1.00  0.00     0.037 C 
BRANCH  31  32
HETATM   32  C5  UNL     1      -4.833  14.743  22.299  1.00  0.00     0.031 C 
BRANCH  32  33
HETATM   33  C4  UNL     1      -5.961  15.067  23.244  1.00  0.00    -0.024 C 
HETATM   34  C2  UNL     1      -7.083  14.357  23.473  1.00  0.00    -0.091 C 
HETATM   35  C1  UNL     1      -8.091  14.820  24.495  1.00  0.00     0.042 C 
HETATM   36  C3  UNL     1      -7.467  13.083  22.771  1.00  0.00     0.042 C 
ENDBRANCH  32  33
ENDBRANCH  31  32
ENDBRANCH  29  31
ENDBRANCH  27  28
ENDBRANCH  24  26
ENDBRANCH   1  23
BRANCH   6  37
HETATM   37  C25 UNL     1      -3.610   4.257  13.688  1.00  0.00     0.265 C 
HETATM   38  O2  UNL     1      -3.658   3.298  12.923  1.00  0.00    -0.302 OA
ENDBRANCH   6  37
TORSDOF 13
ENDMDL
