MODEL 1
REMARK minimizedAffinity -7.03259945
REMARK CNNscore 0.570690155
REMARK CNNaffinity 6.25793266
REMARK  5 active torsions:
REMARK  status: ('A' for Active; 'I' for Inactive)
REMARK    1  A    between atoms: C3_3  and  C4_4 
REMARK    2  A    between atoms: C4_4  and  O2_6 
REMARK    3  A    between atoms: O2_6  and  C5_7 
REMARK    4  A    between atoms: C5_7  and  C6_8 
REMARK    5  A    between atoms: C12_14  and  C13_15 
ROOT
HETATM    1  C1  UNL     1      -9.422  -5.969  -3.516  1.00  0.00     0.069 C 
HETATM    2  C2  UNL     1      -9.648  -4.976  -4.627  1.00  0.00     0.018 C 
HETATM    3  C3  UNL     1     -10.127  -5.287  -5.852  1.00  0.00     0.052 C 
HETATM    4  C12 UNL     1     -10.337  -4.238  -6.937  1.00  0.00     0.104 C 
HETATM    5  C22 UNL     1      -9.726  -2.891  -6.545  1.00  0.00     0.024 C 
HETATM    6  C23 UNL     1      -9.252  -2.660  -5.302  1.00  0.00     0.020 C 
HETATM    7  C24 UNL     1      -8.623  -1.351  -4.894  1.00  0.00     0.058 C 
HETATM    8  C25 UNL     1      -8.083  -0.576  -6.090  1.00  0.00     0.014 C 
HETATM    9  C26 UNL     1      -9.131  -0.464  -7.184  1.00  0.00     0.084 C 
HETATM   10  C27 UNL     1      -9.658  -1.823  -7.583  1.00  0.00     0.158 C 
HETATM   11  O5  UNL     1     -10.079  -2.030  -8.719  1.00  0.00    -0.293 OA
HETATM   12  N1  UNL     1      -9.295  -3.663  -4.347  1.00  0.00    -0.362 N 
HETATM   13  H22 UNL     1      -8.837  -3.488  -3.456  1.00  0.00     0.165 HD
ENDROOT
BRANCH   4  14
HETATM   14  C13 UNL     1     -11.817  -4.117  -7.266  1.00  0.00     0.029 A 
HETATM   15  C14 UNL     1     -12.381  -4.373  -8.457  1.00  0.00     0.154 A 
HETATM   16  O3  UNL     1     -13.716  -4.301  -8.772  1.00  0.00    -0.321 OA
HETATM   17  C15 UNL     1     -14.585  -3.950  -7.773  1.00  0.00     0.089 A 
HETATM   18  C16 UNL     1     -15.943  -3.907  -8.095  1.00  0.00     0.040 A 
HETATM   19  C20 UNL     1     -14.165  -3.640  -6.482  1.00  0.00     0.050 A 
HETATM   20  C17 UNL     1     -16.875  -3.552  -7.117  1.00  0.00     0.026 A 
HETATM   21  C18 UNL     1     -16.445  -3.238  -5.827  1.00  0.00     0.035 A 
HETATM   22 CL1  UNL     1     -17.601  -2.801  -4.629  1.00  0.00    -0.084 Cl
HETATM   23  C19 UNL     1     -15.092  -3.278  -5.501  1.00  0.00     0.042 A 
HETATM   24  C21 UNL     1     -12.727  -3.698  -6.170  1.00  0.00     0.194 A 
HETATM   25  O4  UNL     1     -12.315  -3.397  -5.056  1.00  0.00    -0.287 OA
ENDBRANCH   4  14
BRANCH   3  26
HETATM   26  C4  UNL     1     -10.457  -6.676  -6.215  1.00  0.00     0.292 C 
HETATM   27  O1  UNL     1     -11.555  -7.185  -6.058  1.00  0.00    -0.259 OA
BRANCH  26  28
HETATM   28  O2  UNL     1      -9.348  -7.260  -6.720  1.00  0.00    -0.313 OA
BRANCH  28  29
HETATM   29  C5  UNL     1      -9.333  -8.681  -6.582  1.00  0.00     0.217 C 
BRANCH  29  30
HETATM   30  C6  UNL     1      -8.818  -9.006  -5.204  1.00  0.00    -0.034 A 
HETATM   31  C7  UNL     1      -7.545  -8.568  -4.811  1.00  0.00     0.009 A 
HETATM   32  C8  UNL     1      -7.059  -8.854  -3.535  1.00  0.00     0.001 A 
HETATM   33  C9  UNL     1      -7.841  -9.578  -2.638  1.00  0.00     0.000 A 
HETATM   34  C10 UNL     1      -9.110 -10.015  -3.015  1.00  0.00     0.001 A 
HETATM   35  C11 UNL     1      -9.599  -9.728  -4.291  1.00  0.00     0.009 A 
ENDBRANCH  29  30
ENDBRANCH  28  29
ENDBRANCH  26  28
ENDBRANCH   3  26
TORSDOF 5
ENDMDL
MODEL 2
REMARK minimizedAffinity -7.96356964
REMARK CNNscore 0.542257965
REMARK CNNaffinity 7.05714083
REMARK  5 active torsions:
REMARK  status: ('A' for Active; 'I' for Inactive)
REMARK    1  A    between atoms: C3_3  and  C4_4 
REMARK    2  A    between atoms: C4_4  and  O2_6 
REMARK    3  A    between atoms: O2_6  and  C5_7 
REMARK    4  A    between atoms: C5_7  and  C6_8 
REMARK    5  A    between atoms: C12_14  and  C13_15 
ROOT
HETATM    1  C1  UNL     1      -9.350   5.476  11.025  1.00  0.00     0.069 C 
HETATM    2  C2  UNL     1      -9.084   5.983  12.419  1.00  0.00     0.018 C 
HETATM    3  C3  UNL     1      -8.327   5.347  13.339  1.00  0.00     0.052 C 
HETATM    4  C12 UNL     1      -8.091   5.911  14.734  1.00  0.00     0.104 C 
HETATM    5  C22 UNL     1      -8.989   7.118  15.014  1.00  0.00     0.024 C 
HETATM    6  C23 UNL     1      -9.731   7.692  14.043  1.00  0.00     0.020 C 
HETATM    7  C24 UNL     1     -10.643   8.867  14.295  1.00  0.00     0.058 C 
HETATM    8  C25 UNL     1     -11.062   8.966  15.757  1.00  0.00     0.014 C 
HETATM    9  C26 UNL     1      -9.854   8.892  16.675  1.00  0.00     0.084 C 
HETATM   10  C27 UNL     1      -9.033   7.651  16.405  1.00  0.00     0.158 C 
HETATM   11  O5  UNL     1      -8.367   7.127  17.296  1.00  0.00    -0.293 OA
HETATM   12  N1  UNL     1      -9.705   7.178  12.757  1.00  0.00    -0.362 N 
HETATM   13  H22 UNL     1     -10.353   7.570  12.078  1.00  0.00     0.165 HD
ENDROOT
BRANCH   4  14
HETATM   14  C13 UNL     1      -6.617   6.244  14.921  1.00  0.00     0.029 A 
HETATM   15  C14 UNL     1      -5.845   5.842  15.942  1.00  0.00     0.154 A 
HETATM   16  O3  UNL     1      -4.508   6.102  16.117  1.00  0.00    -0.321 OA
HETATM   17  C15 UNL     1      -3.870   6.832  15.149  1.00  0.00     0.089 A 
HETATM   18  C16 UNL     1      -2.505   7.067  15.322  1.00  0.00     0.040 A 
HETATM   19  C20 UNL     1      -4.528   7.335  14.029  1.00  0.00     0.050 A 
HETATM   20  C17 UNL     1      -1.804   7.807  14.367  1.00  0.00     0.026 A 
HETATM   21  C18 UNL     1      -2.472   8.312  13.250  1.00  0.00     0.035 A 
HETATM   22 CL1  UNL     1      -1.600   9.224  12.079  1.00  0.00    -0.084 Cl
HETATM   23  C19 UNL     1      -3.834   8.082  13.073  1.00  0.00     0.042 A 
HETATM   24  C21 UNL     1      -5.967   7.068  13.870  1.00  0.00     0.194 A 
HETATM   25  O4  UNL     1      -6.588   7.524  12.918  1.00  0.00    -0.287 OA
ENDBRANCH   4  14
BRANCH   3  26
HETATM   26  C4  UNL     1      -7.698   4.047  13.046  1.00  0.00     0.292 C 
HETATM   27  O1  UNL     1      -7.953   3.011  13.639  1.00  0.00    -0.259 OA
BRANCH  26  28
HETATM   28  O2  UNL     1      -6.811   4.219  12.042  1.00  0.00    -0.313 OA
BRANCH  28  29
HETATM   29  C5  UNL     1      -6.012   3.065  11.777  1.00  0.00     0.217 C 
BRANCH  29  30
HETATM   30  C6  UNL     1      -4.573   3.505  11.707  1.00  0.00    -0.034 A 
HETATM   31  C7  UNL     1      -3.930   3.984  12.859  1.00  0.00     0.009 A 
HETATM   32  C8  UNL     1      -2.595   4.385  12.811  1.00  0.00     0.001 A 
HETATM   33  C9  UNL     1      -1.888   4.309  11.613  1.00  0.00     0.000 A 
HETATM   34  C10 UNL     1      -2.514   3.831  10.463  1.00  0.00     0.001 A 
HETATM   35  C11 UNL     1      -3.850   3.426  10.510  1.00  0.00     0.009 A 
ENDBRANCH  29  30
ENDBRANCH  28  29
ENDBRANCH  26  28
ENDBRANCH   3  26
TORSDOF 5
ENDMDL
MODEL 3
REMARK minimizedAffinity -9.11118793
REMARK CNNscore 0.321181923
REMARK CNNaffinity 6.27163649
REMARK  5 active torsions:
REMARK  status: ('A' for Active; 'I' for Inactive)
REMARK    1  A    between atoms: C3_3  and  C4_4 
REMARK    2  A    between atoms: C4_4  and  O2_6 
REMARK    3  A    between atoms: O2_6  and  C5_7 
REMARK    4  A    between atoms: C5_7  and  C6_8 
REMARK    5  A    between atoms: C12_14  and  C13_15 
ROOT
HETATM    1  C1  UNL     1      -4.725   8.086  13.232  1.00  0.00     0.069 C 
HETATM    2  C2  UNL     1      -3.291   8.367  13.602  1.00  0.00     0.018 C 
HETATM    3  C3  UNL     1      -2.376   7.422  13.910  1.00  0.00     0.052 C 
HETATM    4  C12 UNL     1      -0.937   7.766  14.275  1.00  0.00     0.104 C 
HETATM    5  C22 UNL     1      -0.750   9.272  14.473  1.00  0.00     0.024 C 
HETATM    6  C23 UNL     1      -1.720  10.156  14.154  1.00  0.00     0.020 C 
HETATM    7  C24 UNL     1      -1.573  11.643  14.361  1.00  0.00     0.058 C 
HETATM    8  C25 UNL     1      -0.533  11.976  15.425  1.00  0.00     0.014 C 
HETATM    9  C26 UNL     1       0.769  11.239  15.163  1.00  0.00     0.084 C 
HETATM   10  C27 UNL     1       0.543   9.749  15.039  1.00  0.00     0.158 C 
HETATM   11  O5  UNL     1       1.426   8.949  15.339  1.00  0.00    -0.293 OA
HETATM   12  N1  UNL     1      -2.929   9.706  13.651  1.00  0.00    -0.362 N 
HETATM   13  H22 UNL     1      -3.671  10.390  13.521  1.00  0.00     0.165 HD
ENDROOT
BRANCH   4  14
HETATM   14  C13 UNL     1       0.015   7.208  13.227  1.00  0.00     0.029 A 
HETATM   15  C14 UNL     1       0.872   6.191  13.406  1.00  0.00     0.154 A 
HETATM   16  O3  UNL     1       1.718   5.649  12.470  1.00  0.00    -0.321 OA
HETATM   17  C15 UNL     1       1.687   6.175  11.206  1.00  0.00     0.089 A 
HETATM   18  C16 UNL     1       2.530   5.600  10.254  1.00  0.00     0.040 A 
HETATM   19  C20 UNL     1       0.864   7.242  10.854  1.00  0.00     0.050 A 
HETATM   20  C17 UNL     1       2.543   6.098   8.949  1.00  0.00     0.026 A 
HETATM   21  C18 UNL     1       1.718   7.171   8.606  1.00  0.00     0.035 A 
HETATM   22 CL1  UNL     1       1.742   7.779   6.996  1.00  0.00    -0.084 Cl
HETATM   23  C19 UNL     1       0.877   7.750   9.552  1.00  0.00     0.042 A 
HETATM   24  C21 UNL     1      -0.018   7.827  11.877  1.00  0.00     0.194 A 
HETATM   25  O4  UNL     1      -0.730   8.790  11.616  1.00  0.00    -0.287 OA
ENDBRANCH   4  14
BRANCH   3  26
HETATM   26  C4  UNL     1      -2.730   5.992  13.931  1.00  0.00     0.292 C 
HETATM   27  O1  UNL     1      -2.745   5.302  14.938  1.00  0.00    -0.259 OA
BRANCH  26  28
HETATM   28  O2  UNL     1      -3.009   5.603  12.668  1.00  0.00    -0.313 OA
BRANCH  28  29
HETATM   29  C5  UNL     1      -2.759   4.218  12.424  1.00  0.00     0.217 C 
BRANCH  29  30
HETATM   30  C6  UNL     1      -4.089   3.533  12.247  1.00  0.00    -0.034 A 
HETATM   31  C7  UNL     1      -5.257   4.131  12.743  1.00  0.00     0.009 A 
HETATM   32  C8  UNL     1      -6.496   3.512  12.577  1.00  0.00     0.001 A 
HETATM   33  C9  UNL     1      -6.582   2.291  11.912  1.00  0.00     0.000 A 
HETATM   34  C10 UNL     1      -5.429   1.689  11.410  1.00  0.00     0.001 A 
HETATM   35  C11 UNL     1      -4.188   2.309  11.573  1.00  0.00     0.009 A 
ENDBRANCH  29  30
ENDBRANCH  28  29
ENDBRANCH  26  28
ENDBRANCH   3  26
TORSDOF 5
ENDMDL
MODEL 4
REMARK minimizedAffinity -8.42001057
REMARK CNNscore 0.283866972
REMARK CNNaffinity 6.14118814
REMARK  5 active torsions:
REMARK  status: ('A' for Active; 'I' for Inactive)
REMARK    1  A    between atoms: C3_3  and  C4_4 
REMARK    2  A    between atoms: C4_4  and  O2_6 
REMARK    3  A    between atoms: O2_6  and  C5_7 
REMARK    4  A    between atoms: C5_7  and  C6_8 
REMARK    5  A    between atoms: C12_14  and  C13_15 
ROOT
HETATM    1  C1  UNL     1       1.428   8.539  13.795  1.00  0.00     0.069 C 
HETATM    2  C2  UNL     1       0.047   8.861  14.308  1.00  0.00     0.018 C 
HETATM    3  C3  UNL     1      -1.035   9.069  13.527  1.00  0.00     0.052 C 
HETATM    4  C12 UNL     1      -2.409   9.389  14.103  1.00  0.00     0.104 C 
HETATM    5  C22 UNL     1      -2.338   9.673  15.605  1.00  0.00     0.024 C 
HETATM    6  C23 UNL     1      -1.212   9.454  16.317  1.00  0.00     0.020 C 
HETATM    7  C24 UNL     1      -1.106   9.747  17.793  1.00  0.00     0.058 C 
HETATM    8  C25 UNL     1      -2.128  10.782  18.249  1.00  0.00     0.014 C 
HETATM    9  C26 UNL     1      -3.522  10.416  17.773  1.00  0.00     0.084 C 
HETATM   10  C27 UNL     1      -3.556  10.209  16.275  1.00  0.00     0.158 C 
HETATM   11  O5  UNL     1      -4.582  10.419  15.631  1.00  0.00    -0.293 OA
HETATM   12  N1  UNL     1      -0.075   8.978  15.686  1.00  0.00    -0.362 N 
HETATM   13  H22 UNL     1       0.782   8.924  16.232  1.00  0.00     0.165 HD
ENDROOT
BRANCH   4  14
HETATM   14  C13 UNL     1      -3.385   8.267  13.781  1.00  0.00     0.029 A 
HETATM   15  C14 UNL     1      -4.707   8.405  13.597  1.00  0.00     0.154 A 
HETATM   16  O3  UNL     1      -5.603   7.415  13.276  1.00  0.00    -0.321 OA
HETATM   17  C15 UNL     1      -5.114   6.147  13.102  1.00  0.00     0.089 A 
HETATM   18  C16 UNL     1      -6.028   5.153  12.748  1.00  0.00     0.040 A 
HETATM   19  C20 UNL     1      -3.768   5.829  13.268  1.00  0.00     0.050 A 
HETATM   20  C17 UNL     1      -5.586   3.841  12.561  1.00  0.00     0.026 A 
HETATM   21  C18 UNL     1      -4.236   3.530  12.734  1.00  0.00     0.035 A 
HETATM   22 CL1  UNL     1      -3.701   1.911  12.502  1.00  0.00    -0.084 Cl
HETATM   23  C19 UNL     1      -3.320   4.518  13.088  1.00  0.00     0.042 A 
HETATM   24  C21 UNL     1      -2.826   6.899  13.637  1.00  0.00     0.194 A 
HETATM   25  O4  UNL     1      -1.641   6.653  13.827  1.00  0.00    -0.287 OA
ENDBRANCH   4  14
BRANCH   3  26
HETATM   26  C4  UNL     1      -0.940   9.016  12.057  1.00  0.00     0.292 C 
HETATM   27  O1  UNL     1      -1.771   9.488  11.298  1.00  0.00    -0.259 OA
BRANCH  26  28
HETATM   28  O2  UNL     1       0.191   8.357  11.727  1.00  0.00    -0.313 OA
BRANCH  28  29
HETATM   29  C5  UNL     1      -0.039   7.138  11.019  1.00  0.00     0.217 C 
BRANCH  29  30
HETATM   30  C6  UNL     1       0.829   7.147   9.788  1.00  0.00    -0.034 A 
HETATM   31  C7  UNL     1       1.875   6.222   9.662  1.00  0.00     0.009 A 
HETATM   32  C8  UNL     1       2.681   6.212   8.522  1.00  0.00     0.001 A 
HETATM   33  C9  UNL     1       2.447   7.126   7.497  1.00  0.00     0.000 A 
HETATM   34  C10 UNL     1       1.407   8.047   7.608  1.00  0.00     0.001 A 
HETATM   35  C11 UNL     1       0.598   8.056   8.747  1.00  0.00     0.009 A 
ENDBRANCH  29  30
ENDBRANCH  28  29
ENDBRANCH  26  28
ENDBRANCH   3  26
TORSDOF 5
ENDMDL
MODEL 5
REMARK minimizedAffinity -7.72062063
REMARK CNNscore 0.202587605
REMARK CNNaffinity 5.88639784
REMARK  5 active torsions:
REMARK  status: ('A' for Active; 'I' for Inactive)
REMARK    1  A    between atoms: C3_3  and  C4_4 
REMARK    2  A    between atoms: C4_4  and  O2_6 
REMARK    3  A    between atoms: O2_6  and  C5_7 
REMARK    4  A    between atoms: C5_7  and  C6_8 
REMARK    5  A    between atoms: C12_14  and  C13_15 
ROOT
HETATM    1  C1  UNL     1       1.928   7.320  16.272  1.00  0.00     0.069 C 
HETATM    2  C2  UNL     1       0.767   7.402  15.315  1.00  0.00     0.018 C 
HETATM    3  C3  UNL     1       0.593   8.378  14.397  1.00  0.00     0.052 C 
HETATM    4  C12 UNL     1      -0.602   8.407  13.452  1.00  0.00     0.104 C 
HETATM    5  C22 UNL     1      -1.652   7.363  13.839  1.00  0.00     0.024 C 
HETATM    6  C23 UNL     1      -1.410   6.426  14.779  1.00  0.00     0.020 C 
HETATM    7  C24 UNL     1      -2.433   5.400  15.198  1.00  0.00     0.058 C 
HETATM    8  C25 UNL     1      -3.857   5.854  14.899  1.00  0.00     0.014 C 
HETATM    9  C26 UNL     1      -3.986   6.330  13.463  1.00  0.00     0.084 C 
HETATM   10  C27 UNL     1      -2.972   7.406  13.147  1.00  0.00     0.158 C 
HETATM   11  O5  UNL     1      -3.202   8.263  12.295  1.00  0.00    -0.293 OA
HETATM   12  N1  UNL     1      -0.191   6.404  15.437  1.00  0.00    -0.362 N 
HETATM   13  H22 UNL     1      -0.082   5.752  16.210  1.00  0.00     0.165 HD
ENDROOT
BRANCH   4  14
HETATM   14  C13 UNL     1      -0.135   8.238  12.013  1.00  0.00     0.029 A 
HETATM   15  C14 UNL     1      -0.441   9.049  10.988  1.00  0.00     0.154 A 
HETATM   16  O3  UNL     1      -0.008   8.936   9.690  1.00  0.00    -0.321 OA
HETATM   17  C15 UNL     1       0.842   7.905   9.390  1.00  0.00     0.089 A 
HETATM   18  C16 UNL     1       1.299   7.816   8.075  1.00  0.00     0.040 A 
HETATM   19  C20 UNL     1       1.250   6.967  10.335  1.00  0.00     0.050 A 
HETATM   20  C17 UNL     1       2.166   6.782   7.712  1.00  0.00     0.026 A 
HETATM   21  C18 UNL     1       2.566   5.843   8.664  1.00  0.00     0.035 A 
HETATM   22 CL1  UNL     1       3.634   4.573   8.207  1.00  0.00    -0.084 Cl
HETATM   23  C19 UNL     1       2.112   5.927   9.977  1.00  0.00     0.042 A 
HETATM   24  C21 UNL     1       0.756   7.088  11.717  1.00  0.00     0.194 A 
HETATM   25  O4  UNL     1       1.063   6.262  12.568  1.00  0.00    -0.287 OA
ENDBRANCH   4  14
BRANCH   3  26
HETATM   26  C4  UNL     1       1.551   9.490  14.272  1.00  0.00     0.292 C 
HETATM   27  O1  UNL     1       1.284  10.657  14.513  1.00  0.00    -0.259 OA
BRANCH  26  28
HETATM   28  O2  UNL     1       2.730   8.992  13.842  1.00  0.00    -0.313 OA
BRANCH  28  29
HETATM   29  C5  UNL     1       3.556   9.955  13.186  1.00  0.00     0.217 C 
BRANCH  29  30
HETATM   30  C6  UNL     1       4.594   9.207  12.391  1.00  0.00    -0.034 A 
HETATM   31  C7  UNL     1       4.249   8.622  11.163  1.00  0.00     0.009 A 
HETATM   32  C8  UNL     1       5.203   7.936  10.411  1.00  0.00     0.001 A 
HETATM   33  C9  UNL     1       6.511   7.829  10.877  1.00  0.00     0.000 A 
HETATM   34  C10 UNL     1       6.869   8.410  12.092  1.00  0.00     0.001 A 
HETATM   35  C11 UNL     1       5.916   9.100  12.845  1.00  0.00     0.009 A 
ENDBRANCH  29  30
ENDBRANCH  28  29
ENDBRANCH  26  28
ENDBRANCH   3  26
TORSDOF 5
ENDMDL
MODEL 6
REMARK minimizedAffinity -9.61122704
REMARK CNNscore 0.17926079
REMARK CNNaffinity 6.17408371
REMARK  5 active torsions:
REMARK  status: ('A' for Active; 'I' for Inactive)
REMARK    1  A    between atoms: C3_3  and  C4_4 
REMARK    2  A    between atoms: C4_4  and  O2_6 
REMARK    3  A    between atoms: O2_6  and  C5_7 
REMARK    4  A    between atoms: C5_7  and  C6_8 
REMARK    5  A    between atoms: C12_14  and  C13_15 
ROOT
HETATM    1  C1  UNL     1      -5.648   6.754  15.293  1.00  0.00     0.069 C 
HETATM    2  C2  UNL     1      -4.272   7.368  15.250  1.00  0.00     0.018 C 
HETATM    3  C3  UNL     1      -3.195   6.804  14.659  1.00  0.00     0.052 C 
HETATM    4  C12 UNL     1      -1.827   7.475  14.646  1.00  0.00     0.104 C 
HETATM    5  C22 UNL     1      -1.789   8.697  15.565  1.00  0.00     0.024 C 
HETATM    6  C23 UNL     1      -2.908   9.195  16.133  1.00  0.00     0.020 C 
HETATM    7  C24 UNL     1      -2.897  10.384  17.061  1.00  0.00     0.058 C 
HETATM    8  C25 UNL     1      -1.535  10.594  17.710  1.00  0.00     0.014 C 
HETATM    9  C26 UNL     1      -0.430  10.592  16.668  1.00  0.00     0.084 C 
HETATM   10  C27 UNL     1      -0.468   9.336  15.828  1.00  0.00     0.158 C 
HETATM   11  O5  UNL     1       0.556   8.883  15.321  1.00  0.00    -0.293 OA
HETATM   12  N1  UNL     1      -4.130   8.584  15.905  1.00  0.00    -0.362 N 
HETATM   13  H22 UNL     1      -4.933   8.922  16.430  1.00  0.00     0.165 HD
ENDROOT
BRANCH   4  14
HETATM   14  C13 UNL     1      -1.429   7.822  13.219  1.00  0.00     0.029 A 
HETATM   15  C14 UNL     1      -1.926   8.833  12.489  1.00  0.00     0.154 A 
HETATM   16  O3  UNL     1      -1.563   9.186  11.213  1.00  0.00    -0.321 OA
HETATM   17  C15 UNL     1      -0.577   8.453  10.607  1.00  0.00     0.089 A 
HETATM   18  C16 UNL     1      -0.195   8.836   9.321  1.00  0.00     0.040 A 
HETATM   19  C20 UNL     1       0.036   7.363  11.220  1.00  0.00     0.050 A 
HETATM   20  C17 UNL     1       0.804   8.123   8.653  1.00  0.00     0.026 A 
HETATM   21  C18 UNL     1       1.409   7.028   9.273  1.00  0.00     0.035 A 
HETATM   22 CL1  UNL     1       2.638   6.154   8.443  1.00  0.00    -0.084 Cl
HETATM   23  C19 UNL     1       1.031   6.640  10.556  1.00  0.00     0.042 A 
HETATM   24  C21 UNL     1      -0.384   6.983  12.580  1.00  0.00     0.194 A 
HETATM   25  O4  UNL     1       0.106   6.009  13.139  1.00  0.00    -0.287 OA
ENDBRANCH   4  14
BRANCH   3  26
HETATM   26  C4  UNL     1      -3.283   5.487  14.006  1.00  0.00     0.292 C 
HETATM   27  O1  UNL     1      -2.678   4.494  14.377  1.00  0.00    -0.259 OA
BRANCH  26  28
HETATM   28  O2  UNL     1      -4.119   5.589  12.950  1.00  0.00    -0.313 OA
BRANCH  28  29
HETATM   29  C5  UNL     1      -3.990   4.523  12.009  1.00  0.00     0.217 C 
BRANCH  29  30
HETATM   30  C6  UNL     1      -5.181   3.615  12.173  1.00  0.00    -0.034 A 
HETATM   31  C7  UNL     1      -6.257   4.011  12.982  1.00  0.00     0.009 A 
HETATM   32  C8  UNL     1      -7.370   3.185  13.135  1.00  0.00     0.001 A 
HETATM   33  C9  UNL     1      -7.422   1.956  12.480  1.00  0.00     0.000 A 
HETATM   34  C10 UNL     1      -6.361   1.554  11.670  1.00  0.00     0.001 A 
HETATM   35  C11 UNL     1      -5.247   2.381  11.513  1.00  0.00     0.009 A 
ENDBRANCH  29  30
ENDBRANCH  28  29
ENDBRANCH  26  28
ENDBRANCH   3  26
TORSDOF 5
ENDMDL
MODEL 7
REMARK minimizedAffinity -7.4609108
REMARK CNNscore 0.163854226
REMARK CNNaffinity 5.67449903
REMARK  5 active torsions:
REMARK  status: ('A' for Active; 'I' for Inactive)
REMARK    1  A    between atoms: C3_3  and  C4_4 
REMARK    2  A    between atoms: C4_4  and  O2_6 
REMARK    3  A    between atoms: O2_6  and  C5_7 
REMARK    4  A    between atoms: C5_7  and  C6_8 
REMARK    5  A    between atoms: C12_14  and  C13_15 
ROOT
HETATM    1  C1  UNL     1       3.944   7.733  15.012  1.00  0.00     0.069 C 
HETATM    2  C2  UNL     1       2.643   7.725  14.251  1.00  0.00     0.018 C 
HETATM    3  C3  UNL     1       2.353   8.540  13.212  1.00  0.00     0.052 C 
HETATM    4  C12 UNL     1       1.019   8.483  12.478  1.00  0.00     0.104 C 
HETATM    5  C22 UNL     1       0.012   7.589  13.205  1.00  0.00     0.024 C 
HETATM    6  C23 UNL     1       0.375   6.812  14.248  1.00  0.00     0.020 C 
HETATM    7  C24 UNL     1      -0.600   5.939  14.998  1.00  0.00     0.058 C 
HETATM    8  C25 UNL     1      -2.037   6.425  14.852  1.00  0.00     0.014 C 
HETATM    9  C26 UNL     1      -2.386   6.658  13.392  1.00  0.00     0.084 C 
HETATM   10  C27 UNL     1      -1.402   7.598  12.733  1.00  0.00     0.158 C 
HETATM   11  O5  UNL     1      -1.741   8.310  11.790  1.00  0.00    -0.293 OA
HETATM   12  N1  UNL     1       1.685   6.825  14.698  1.00  0.00    -0.362 N 
HETATM   13  H22 UNL     1       1.898   6.308  15.548  1.00  0.00     0.165 HD
ENDROOT
BRANCH   4  14
HETATM   14  C13 UNL     1       1.234   8.043  11.037  1.00  0.00     0.029 A 
HETATM   15  C14 UNL     1       0.795   8.689   9.945  1.00  0.00     0.154 A 
HETATM   16  O3  UNL     1       1.002   8.330   8.636  1.00  0.00    -0.321 OA
HETATM   17  C15 UNL     1       1.749   7.207   8.395  1.00  0.00     0.089 A 
HETATM   18  C16 UNL     1       1.977   6.866   7.061  1.00  0.00     0.040 A 
HETATM   19  C20 UNL     1       2.270   6.415   9.416  1.00  0.00     0.050 A 
HETATM   20  C17 UNL     1       2.730   5.729   6.756  1.00  0.00     0.026 A 
HETATM   21  C18 UNL     1       3.244   4.938   7.785  1.00  0.00     0.035 A 
HETATM   22 CL1  UNL     1       4.169   3.539   7.400  1.00  0.00    -0.084 Cl
HETATM   23  C19 UNL     1       3.018   5.273   9.118  1.00  0.00     0.042 A 
HETATM   24  C21 UNL     1       2.016   6.801  10.814  1.00  0.00     0.194 A 
HETATM   25  O4  UNL     1       2.427   6.111  11.740  1.00  0.00    -0.287 OA
ENDBRANCH   4  14
BRANCH   3  26
HETATM   26  C4  UNL     1       3.315   9.552  12.742  1.00  0.00     0.292 C 
HETATM   27  O1  UNL     1       3.234  10.744  12.992  1.00  0.00    -0.259 OA
BRANCH  26  28
HETATM   28  O2  UNL     1       4.257   8.932  11.999  1.00  0.00    -0.313 OA
BRANCH  28  29
HETATM   29  C5  UNL     1       5.324   9.789  11.593  1.00  0.00     0.217 C 
BRANCH  29  30
HETATM   30  C6  UNL     1       6.552   9.400  12.375  1.00  0.00    -0.034 A 
HETATM   31  C7  UNL     1       6.815   8.047  12.639  1.00  0.00     0.009 A 
HETATM   32  C8  UNL     1       7.953   7.672  13.353  1.00  0.00     0.001 A 
HETATM   33  C9  UNL     1       8.841   8.644  13.808  1.00  0.00     0.000 A 
HETATM   34  C10 UNL     1       8.594   9.991  13.548  1.00  0.00     0.001 A 
HETATM   35  C11 UNL     1       7.457  10.368  12.831  1.00  0.00     0.009 A 
ENDBRANCH  29  30
ENDBRANCH  28  29
ENDBRANCH  26  28
ENDBRANCH   3  26
TORSDOF 5
ENDMDL
MODEL 8
REMARK minimizedAffinity -8.45627308
REMARK CNNscore 0.161404043
REMARK CNNaffinity 5.97264862
REMARK  5 active torsions:
REMARK  status: ('A' for Active; 'I' for Inactive)
REMARK    1  A    between atoms: C3_3  and  C4_4 
REMARK    2  A    between atoms: C4_4  and  O2_6 
REMARK    3  A    between atoms: O2_6  and  C5_7 
REMARK    4  A    between atoms: C5_7  and  C6_8 
REMARK    5  A    between atoms: C12_14  and  C13_15 
ROOT
HETATM    1  C1  UNL     1       1.664   9.207  13.867  1.00  0.00     0.069 C 
HETATM    2  C2  UNL     1       0.282   9.283  14.464  1.00  0.00     0.018 C 
HETATM    3  C3  UNL     1      -0.868   9.177  13.762  1.00  0.00     0.052 C 
HETATM    4  C12 UNL     1      -2.238   9.259  14.422  1.00  0.00     0.104 C 
HETATM    5  C22 UNL     1      -2.135   9.705  15.882  1.00  0.00     0.024 C 
HETATM    6  C23 UNL     1      -0.946   9.801  16.514  1.00  0.00     0.020 C 
HETATM    7  C24 UNL     1      -0.812  10.261  17.944  1.00  0.00     0.058 C 
HETATM    8  C25 UNL     1      -2.003  11.099  18.392  1.00  0.00     0.014 C 
HETATM    9  C26 UNL     1      -3.313  10.402  18.069  1.00  0.00     0.084 C 
HETATM   10  C27 UNL     1      -3.396  10.039  16.604  1.00  0.00     0.158 C 
HETATM   11  O5  UNL     1      -4.482   9.961  16.032  1.00  0.00    -0.293 OA
HETATM   12  N1  UNL     1       0.225   9.513  15.833  1.00  0.00    -0.362 N 
HETATM   13  H22 UNL     1       1.106   9.697  16.307  1.00  0.00     0.165 HD
ENDROOT
BRANCH   4  14
HETATM   14  C13 UNL     1      -2.966   7.930  14.282  1.00  0.00     0.029 A 
HETATM   15  C14 UNL     1      -2.522   6.742  14.720  1.00  0.00     0.154 A 
HETATM   16  O3  UNL     1      -3.171   5.535  14.633  1.00  0.00    -0.321 OA
HETATM   17  C15 UNL     1      -4.415   5.522  14.060  1.00  0.00     0.089 A 
HETATM   18  C16 UNL     1      -5.079   4.297  14.002  1.00  0.00     0.040 A 
HETATM   19  C20 UNL     1      -5.018   6.667  13.543  1.00  0.00     0.050 A 
HETATM   20  C17 UNL     1      -6.349   4.223  13.424  1.00  0.00     0.026 A 
HETATM   21  C18 UNL     1      -6.945   5.375  12.905  1.00  0.00     0.035 A 
HETATM   22 CL1  UNL     1      -8.509   5.275  12.195  1.00  0.00    -0.084 Cl
HETATM   23  C19 UNL     1      -6.286   6.600  12.959  1.00  0.00     0.042 A 
HETATM   24  C21 UNL     1      -4.296   7.948  13.622  1.00  0.00     0.194 A 
HETATM   25  O4  UNL     1      -4.777   8.970  13.146  1.00  0.00    -0.287 OA
ENDBRANCH   4  14
BRANCH   3  26
HETATM   26  C4  UNL     1      -0.857   8.994  12.300  1.00  0.00     0.292 C 
HETATM   27  O1  UNL     1      -1.721   9.416  11.549  1.00  0.00    -0.259 OA
BRANCH  26  28
HETATM   28  O2  UNL     1       0.243   8.285  11.967  1.00  0.00    -0.313 OA
BRANCH  28  29
HETATM   29  C5  UNL     1      -0.043   7.086  11.245  1.00  0.00     0.217 C 
BRANCH  29  30
HETATM   30  C6  UNL     1       0.767   7.108   9.974  1.00  0.00    -0.034 A 
HETATM   31  C7  UNL     1       1.821   6.199   9.799  1.00  0.00     0.009 A 
HETATM   32  C8  UNL     1       2.572   6.202   8.624  1.00  0.00     0.001 A 
HETATM   33  C9  UNL     1       2.277   7.111   7.611  1.00  0.00     0.000 A 
HETATM   34  C10 UNL     1       1.229   8.016   7.770  1.00  0.00     0.001 A 
HETATM   35  C11 UNL     1       0.474   8.013   8.945  1.00  0.00     0.009 A 
ENDBRANCH  29  30
ENDBRANCH  28  29
ENDBRANCH  26  28
ENDBRANCH   3  26
TORSDOF 5
ENDMDL
MODEL 9
REMARK minimizedAffinity -8.80858135
REMARK CNNscore 0.157852799
REMARK CNNaffinity 5.89948654
REMARK  5 active torsions:
REMARK  status: ('A' for Active; 'I' for Inactive)
REMARK    1  A    between atoms: C3_3  and  C4_4 
REMARK    2  A    between atoms: C4_4  and  O2_6 
REMARK    3  A    between atoms: O2_6  and  C5_7 
REMARK    4  A    between atoms: C5_7  and  C6_8 
REMARK    5  A    between atoms: C12_14  and  C13_15 
ROOT
HETATM    1  C1  UNL     1      -5.682   8.766  14.792  1.00  0.00     0.069 C 
HETATM    2  C2  UNL     1      -4.226   8.920  15.148  1.00  0.00     0.018 C 
HETATM    3  C3  UNL     1      -3.369   7.895  15.345  1.00  0.00     0.052 C 
HETATM    4  C12 UNL     1      -1.903   8.113  15.702  1.00  0.00     0.104 C 
HETATM    5  C22 UNL     1      -1.615   9.578  16.032  1.00  0.00     0.024 C 
HETATM    6  C23 UNL     1      -2.531  10.548  15.821  1.00  0.00     0.020 C 
HETATM    7  C24 UNL     1      -2.283  11.997  16.159  1.00  0.00     0.058 C 
HETATM    8  C25 UNL     1      -1.203  12.163  17.222  1.00  0.00     0.014 C 
HETATM    9  C26 UNL     1       0.043  11.373  16.859  1.00  0.00     0.084 C 
HETATM   10  C27 UNL     1      -0.282   9.919  16.605  1.00  0.00     0.158 C 
HETATM   11  O5  UNL     1       0.553   9.039  16.808  1.00  0.00    -0.293 OA
HETATM   12  N1  UNL     1      -3.776  10.224  15.311  1.00  0.00    -0.362 N 
HETATM   13  H22 UNL     1      -4.475  10.963  15.263  1.00  0.00     0.165 HD
ENDROOT
BRANCH   4  14
HETATM   14  C13 UNL     1      -1.011   7.595  14.583  1.00  0.00     0.029 A 
HETATM   15  C14 UNL     1      -0.167   6.556  14.669  1.00  0.00     0.154 A 
HETATM   16  O3  UNL     1       0.625   6.050  13.667  1.00  0.00    -0.321 OA
HETATM   17  C15 UNL     1       0.547   6.644  12.435  1.00  0.00     0.089 A 
HETATM   18  C16 UNL     1       1.334   6.106  11.416  1.00  0.00     0.040 A 
HETATM   19  C20 UNL     1      -0.271   7.741  12.178  1.00  0.00     0.050 A 
HETATM   20  C17 UNL     1       1.297   6.673  10.139  1.00  0.00     0.026 A 
HETATM   21  C18 UNL     1       0.478   7.776   9.892  1.00  0.00     0.035 A 
HETATM   22 CL1  UNL     1       0.439   8.468   8.316  1.00  0.00    -0.084 Cl
HETATM   23  C19 UNL     1      -0.309   8.318  10.905  1.00  0.00     0.042 A 
HETATM   24  C21 UNL     1      -1.095   8.286  13.271  1.00  0.00     0.194 A 
HETATM   25  O4  UNL     1      -1.799   9.272  13.094  1.00  0.00    -0.287 OA
ENDBRANCH   4  14
BRANCH   3  26
HETATM   26  C4  UNL     1      -3.815   6.494  15.244  1.00  0.00     0.292 C 
HETATM   27  O1  UNL     1      -3.851   5.716  16.183  1.00  0.00    -0.259 OA
BRANCH  26  28
HETATM   28  O2  UNL     1      -4.149   6.245  13.960  1.00  0.00    -0.313 OA
BRANCH  28  29
HETATM   29  C5  UNL     1      -3.380   5.203  13.357  1.00  0.00     0.217 C 
BRANCH  29  30
HETATM   30  C6  UNL     1      -4.338   4.187  12.793  1.00  0.00    -0.034 A 
HETATM   31  C7  UNL     1      -5.717   4.325  13.018  1.00  0.00     0.009 A 
HETATM   32  C8  UNL     1      -6.616   3.396  12.493  1.00  0.00     0.001 A 
HETATM   33  C9  UNL     1      -6.149   2.324  11.737  1.00  0.00     0.000 A 
HETATM   34  C10 UNL     1      -4.782   2.179  11.503  1.00  0.00     0.001 A 
HETATM   35  C11 UNL     1      -3.881   3.109  12.025  1.00  0.00     0.009 A 
ENDBRANCH  29  30
ENDBRANCH  28  29
ENDBRANCH  26  28
ENDBRANCH   3  26
TORSDOF 5
ENDMDL
