MODEL 1
REMARK minimizedAffinity -8.12649536
REMARK  12 active torsions:
REMARK  status: ('A' for Active; 'I' for Inactive)
REMARK    1  A    between atoms: O1_2  and  C2_3 
REMARK    2  A    between atoms: C3_6  and  C4_7 
REMARK    3  A    between atoms: C4_7  and  C5_8 
REMARK    4  A    between atoms: C6_9  and  C8_11 
REMARK    5  A    between atoms: C8_11  and  C9_12 
REMARK    6  A    between atoms: C10_13  and  C11_14 
REMARK    7  A    between atoms: C13_16  and  C14_17 
REMARK    8  A    between atoms: C14_17  and  C16_19 
REMARK    9  A    between atoms: C16_19  and  O2_20 
REMARK   10  A    between atoms: C16_19  and  C18_22 
REMARK   11  A    between atoms: C24_29  and  O4_30 
REMARK   12  A    between atoms: C25_31  and  O5_32 
ROOT
HETATM    1  C5  UNL     1      -5.713   4.023  12.458  1.00  0.00    -0.018 C 
HETATM    2  C6  UNL     1      -5.052   2.984  11.904  1.00  0.00    -0.084 C 
HETATM    3  C7  UNL     1      -5.710   1.819  11.212  1.00  0.00     0.043 C 
ENDROOT
BRANCH   2   4
HETATM    4  C8  UNL     1      -3.541   2.896  11.997  1.00  0.00     0.060 C 
BRANCH   4   5
HETATM    5  C9  UNL     1      -2.881   4.189  11.603  1.00  0.00    -0.022 C 
HETATM    6  C10 UNL     1      -1.838   4.726  12.258  1.00  0.00     0.003 C 
BRANCH   6   7
HETATM    7  C11 UNL     1      -1.162   5.982  11.933  1.00  0.00    -0.066 C 
HETATM    8  C12 UNL     1      -1.639   7.235  12.625  1.00  0.00     0.048 C 
HETATM    9  C13 UNL     1      -0.167   5.957  11.020  1.00  0.00    -0.013 C 
BRANCH   9  10
HETATM   10  C14 UNL     1       0.704   7.114  10.543  1.00  0.00     0.037 C 
HETATM   11  C15 UNL     1       1.505   7.625  11.748  1.00  0.00     0.017 C 
BRANCH  10  12
HETATM   12  C16 UNL     1       1.612   6.667   9.359  1.00  0.00     0.165 C 
BRANCH  12  13
HETATM   13  O2  UNL     1       1.194   7.409   8.197  1.00  0.00    -0.387 OA
HETATM   14  C17 UNL     1       0.140   8.323   8.463  1.00  0.00     0.202 C 
ENDBRANCH  12  13
BRANCH  12  15
HETATM   15  C18 UNL     1       3.087   6.937   9.629  1.00  0.00     0.110 A 
HETATM   16  C19 UNL     1       3.618   8.296   9.282  1.00  0.00     0.051 C 
HETATM   17  O3  UNL     1       3.963   5.859   9.237  1.00  0.00    -0.367 OA
HETATM   18  C20 UNL     1       3.811   6.055  10.644  1.00  0.00     0.155 A 
HETATM   19  C21 UNL     1       5.050   6.472  11.352  1.00  0.00     0.042 C 
ENDBRANCH  12  15
ENDBRANCH  10  12
ENDBRANCH   9  10
ENDBRANCH   6   7
ENDBRANCH   4   5
ENDBRANCH   2   4
BRANCH   1  20
HETATM   20  C4  UNL     1      -7.197   4.285  12.469  1.00  0.00     0.085 C 
BRANCH  20  21
HETATM   21  C3  UNL     1      -7.582   5.473  13.327  1.00  0.00     0.023 A 
HETATM   22  N1  UNL     1      -8.920   5.637  13.509  1.00  0.00    -0.337 N 
HETATM   23  C2  UNL     1      -9.360   6.641  14.306  1.00  0.00     0.179 A 
ATOM     24  H1  UNL     1      -9.584   5.012  13.052  1.00  0.00     0.168 HD
HETATM   25  C25 UNL     1      -8.505   7.517  14.964  1.00  0.00     0.153 A 
HETATM   26  C24 UNL     1      -7.136   7.332  14.740  1.00  0.00     0.111 A 
HETATM   27  C22 UNL     1      -6.636   6.321  13.914  1.00  0.00    -0.003 A 
HETATM   28  C23 UNL     1      -5.157   6.135  13.741  1.00  0.00     0.053 C 
BRANCH  23  29
HETATM   29  O1  UNL     1     -10.723   6.796  14.444  1.00  0.00    -0.339 OA
HETATM   30  C1  UNL     1     -11.367   7.295  13.275  1.00  0.00     0.211 C 
ENDBRANCH  23  29
BRANCH  25  31
HETATM   31  O5  UNL     1      -8.793   8.561  15.803  1.00  0.00    -0.349 OA
HETATM   32  C26 UNL     1      -9.284   9.760  15.215  1.00  0.00     0.210 C 
ENDBRANCH  25  31
BRANCH  26  33
HETATM   33  O4  UNL     1      -6.248   8.173  15.371  1.00  0.00    -0.357 OA
HETATM   34  H36 UNL     1      -6.802   8.793  15.886  1.00  0.00     0.217 HD
ENDBRANCH  26  33
ENDBRANCH  20  21
ENDBRANCH   1  20
TORSDOF 12
ENDMDL
MODEL 2
REMARK minimizedAffinity -8.03303337
REMARK  12 active torsions:
REMARK  status: ('A' for Active; 'I' for Inactive)
REMARK    1  A    between atoms: O1_2  and  C2_3 
REMARK    2  A    between atoms: C3_6  and  C4_7 
REMARK    3  A    between atoms: C4_7  and  C5_8 
REMARK    4  A    between atoms: C6_9  and  C8_11 
REMARK    5  A    between atoms: C8_11  and  C9_12 
REMARK    6  A    between atoms: C10_13  and  C11_14 
REMARK    7  A    between atoms: C13_16  and  C14_17 
REMARK    8  A    between atoms: C14_17  and  C16_19 
REMARK    9  A    between atoms: C16_19  and  O2_20 
REMARK   10  A    between atoms: C16_19  and  C18_22 
REMARK   11  A    between atoms: C24_29  and  O4_30 
REMARK   12  A    between atoms: C25_31  and  O5_32 
ROOT
HETATM    1  C5  UNL     1      -5.835   3.948  12.306  1.00  0.00    -0.018 C 
HETATM    2  C6  UNL     1      -5.382   2.999  11.459  1.00  0.00    -0.084 C 
HETATM    3  C7  UNL     1      -5.950   1.609  11.344  1.00  0.00     0.043 C 
ENDROOT
BRANCH   2   4
HETATM    4  C8  UNL     1      -4.183   3.271  10.570  1.00  0.00     0.060 C 
BRANCH   4   5
HETATM    5  C9  UNL     1      -3.187   4.178  11.238  1.00  0.00    -0.022 C 
HETATM    6  C10 UNL     1      -1.862   4.121  11.024  1.00  0.00     0.003 C 
BRANCH   6   7
HETATM    7  C11 UNL     1      -0.843   4.964  11.649  1.00  0.00    -0.066 C 
HETATM    8  C12 UNL     1      -0.912   5.156  13.144  1.00  0.00     0.048 C 
HETATM    9  C13 UNL     1       0.086   5.542  10.857  1.00  0.00    -0.013 C 
BRANCH   9  10
HETATM   10  C14 UNL     1       1.259   6.425  11.269  1.00  0.00     0.037 C 
HETATM   11  C15 UNL     1       2.552   5.710  10.855  1.00  0.00     0.017 C 
BRANCH  10  12
HETATM   12  C16 UNL     1       1.125   7.844  10.642  1.00  0.00     0.165 C 
BRANCH  12  13
HETATM   13  O2  UNL     1       1.651   8.785  11.599  1.00  0.00    -0.387 OA
HETATM   14  C17 UNL     1       1.144   8.594  12.911  1.00  0.00     0.202 C 
ENDBRANCH  12  13
BRANCH  12  15
HETATM   15  C18 UNL     1       1.893   7.970   9.332  1.00  0.00     0.110 A 
HETATM   16  C19 UNL     1       3.388   8.063   9.411  1.00  0.00     0.051 C 
HETATM   17  O3  UNL     1       1.307   8.899   8.395  1.00  0.00    -0.367 OA
HETATM   18  C20 UNL     1       1.209   7.518   8.044  1.00  0.00     0.155 A 
HETATM   19  C21 UNL     1       1.951   7.133   6.815  1.00  0.00     0.042 C 
ENDBRANCH  12  15
ENDBRANCH  10  12
ENDBRANCH   9  10
ENDBRANCH   6   7
ENDBRANCH   4   5
ENDBRANCH   2   4
BRANCH   1  20
HETATM   20  C4  UNL     1      -7.001   3.868  13.257  1.00  0.00     0.085 C 
BRANCH  20  21
HETATM   21  C3  UNL     1      -7.320   5.195  13.915  1.00  0.00     0.023 A 
HETATM   22  N1  UNL     1      -8.647   5.467  14.040  1.00  0.00    -0.337 N 
HETATM   23  C2  UNL     1      -9.032   6.607  14.665  1.00  0.00     0.179 A 
ATOM     24  H1  UNL     1      -9.344   4.821  13.669  1.00  0.00     0.168 HD
HETATM   25  C25 UNL     1      -8.131   7.520  15.199  1.00  0.00     0.153 A 
HETATM   26  C24 UNL     1      -6.773   7.219  15.037  1.00  0.00     0.111 A 
HETATM   27  C22 UNL     1      -6.329   6.064  14.387  1.00  0.00    -0.003 A 
HETATM   28  C23 UNL     1      -4.863   5.764  14.276  1.00  0.00     0.053 C 
BRANCH  23  29
HETATM   29  O1  UNL     1     -10.384   6.864  14.747  1.00  0.00    -0.339 OA
HETATM   30  C1  UNL     1     -11.010   7.066  13.483  1.00  0.00     0.211 C 
ENDBRANCH  23  29
BRANCH  25  31
HETATM   31  O5  UNL     1      -8.362   8.696  15.862  1.00  0.00    -0.349 OA
HETATM   32  C26 UNL     1      -9.080   9.710  15.170  1.00  0.00     0.210 C 
ENDBRANCH  25  31
BRANCH  26  33
HETATM   33  O4  UNL     1      -5.841   8.091  15.551  1.00  0.00    -0.357 OA
HETATM   34  H36 UNL     1      -6.362   8.815  15.953  1.00  0.00     0.217 HD
ENDBRANCH  26  33
ENDBRANCH  20  21
ENDBRANCH   1  20
TORSDOF 12
ENDMDL
MODEL 3
REMARK minimizedAffinity -8.01543808
REMARK  12 active torsions:
REMARK  status: ('A' for Active; 'I' for Inactive)
REMARK    1  A    between atoms: O1_2  and  C2_3 
REMARK    2  A    between atoms: C3_6  and  C4_7 
REMARK    3  A    between atoms: C4_7  and  C5_8 
REMARK    4  A    between atoms: C6_9  and  C8_11 
REMARK    5  A    between atoms: C8_11  and  C9_12 
REMARK    6  A    between atoms: C10_13  and  C11_14 
REMARK    7  A    between atoms: C13_16  and  C14_17 
REMARK    8  A    between atoms: C14_17  and  C16_19 
REMARK    9  A    between atoms: C16_19  and  O2_20 
REMARK   10  A    between atoms: C16_19  and  C18_22 
REMARK   11  A    between atoms: C24_29  and  O4_30 
REMARK   12  A    between atoms: C25_31  and  O5_32 
ROOT
HETATM    1  C5  UNL     1      -4.571   7.868  13.062  1.00  0.00    -0.018 C 
HETATM    2  C6  UNL     1      -3.461   8.466  13.542  1.00  0.00    -0.084 C 
HETATM    3  C7  UNL     1      -3.163   8.676  15.004  1.00  0.00     0.043 C 
ENDROOT
BRANCH   2   4
HETATM    4  C8  UNL     1      -2.424   9.037  12.594  1.00  0.00     0.060 C 
BRANCH   4   5
HETATM    5  C9  UNL     1      -1.229   8.133  12.463  1.00  0.00    -0.022 C 
HETATM    6  C10 UNL     1      -0.022   8.409  12.985  1.00  0.00     0.003 C 
BRANCH   6   7
HETATM    7  C11 UNL     1       1.180   7.581  12.883  1.00  0.00    -0.066 C 
HETATM    8  C12 UNL     1       1.862   7.175  14.165  1.00  0.00     0.048 C 
HETATM    9  C13 UNL     1       1.625   7.245  11.653  1.00  0.00    -0.013 C 
BRANCH   9  10
HETATM   10  C14 UNL     1       2.820   6.372  11.289  1.00  0.00     0.037 C 
HETATM   11  C15 UNL     1       2.281   5.032  10.769  1.00  0.00     0.017 C 
BRANCH  10  12
HETATM   12  C16 UNL     1       3.736   7.096  10.257  1.00  0.00     0.165 C 
BRANCH  12  13
HETATM   13  O2  UNL     1       4.875   6.244  10.027  1.00  0.00    -0.387 OA
HETATM   14  C17 UNL     1       5.813   6.260  11.093  1.00  0.00     0.202 C 
ENDBRANCH  12  13
BRANCH  12  15
HETATM   15  C18 UNL     1       3.023   7.357   8.937  1.00  0.00     0.110 A 
HETATM   16  C19 UNL     1       3.203   8.707   8.307  1.00  0.00     0.051 C 
HETATM   17  O3  UNL     1       1.661   6.882   8.900  1.00  0.00    -0.367 OA
HETATM   18  C20 UNL     1       2.593   6.158   8.095  1.00  0.00     0.155 A 
HETATM   19  C21 UNL     1       2.342   6.233   6.632  1.00  0.00     0.042 C 
ENDBRANCH  12  15
ENDBRANCH  10  12
ENDBRANCH   9  10
ENDBRANCH   6   7
ENDBRANCH   4   5
ENDBRANCH   2   4
BRANCH   1  20
HETATM   20  C4  UNL     1      -5.704   7.244  13.836  1.00  0.00     0.085 C 
BRANCH  20  21
HETATM   21  C3  UNL     1      -6.031   5.838  13.378  1.00  0.00     0.023 A 
HETATM   22  N1  UNL     1      -4.952   5.084  13.033  1.00  0.00    -0.337 N 
HETATM   23  C2  UNL     1      -5.141   3.793  12.661  1.00  0.00     0.179 A 
ATOM     24  H1  UNL     1      -4.014   5.483  13.053  1.00  0.00     0.168 HD
HETATM   25  C25 UNL     1      -6.392   3.190  12.623  1.00  0.00     0.153 A 
HETATM   26  C24 UNL     1      -7.481   4.000  12.967  1.00  0.00     0.111 A 
HETATM   27  C22 UNL     1      -7.337   5.339  13.341  1.00  0.00    -0.003 A 
HETATM   28  C23 UNL     1      -8.532   6.153  13.743  1.00  0.00     0.053 C 
BRANCH  23  29
HETATM   29  O1  UNL     1      -4.029   3.068  12.289  1.00  0.00    -0.339 OA
HETATM   30  C1  UNL     1      -2.869   3.866  12.068  1.00  0.00     0.211 C 
ENDBRANCH  23  29
BRANCH  25  31
HETATM   31  O5  UNL     1      -6.739   1.908  12.285  1.00  0.00    -0.349 OA
HETATM   32  C26 UNL     1      -6.136   1.349  11.125  1.00  0.00     0.210 C 
ENDBRANCH  25  31
BRANCH  26  33
HETATM   33  O4  UNL     1      -8.742   3.447  12.947  1.00  0.00    -0.357 OA
HETATM   34  H36 UNL     1      -8.611   2.521  12.661  1.00  0.00     0.217 HD
ENDBRANCH  26  33
ENDBRANCH  20  21
ENDBRANCH   1  20
TORSDOF 12
ENDMDL
MODEL 4
REMARK minimizedAffinity -7.86846256
REMARK  12 active torsions:
REMARK  status: ('A' for Active; 'I' for Inactive)
REMARK    1  A    between atoms: O1_2  and  C2_3 
REMARK    2  A    between atoms: C3_6  and  C4_7 
REMARK    3  A    between atoms: C4_7  and  C5_8 
REMARK    4  A    between atoms: C6_9  and  C8_11 
REMARK    5  A    between atoms: C8_11  and  C9_12 
REMARK    6  A    between atoms: C10_13  and  C11_14 
REMARK    7  A    between atoms: C13_16  and  C14_17 
REMARK    8  A    between atoms: C14_17  and  C16_19 
REMARK    9  A    between atoms: C16_19  and  O2_20 
REMARK   10  A    between atoms: C16_19  and  C18_22 
REMARK   11  A    between atoms: C24_29  and  O4_30 
REMARK   12  A    between atoms: C25_31  and  O5_32 
ROOT
HETATM    1  C5  UNL     1      -3.828   3.472  11.612  1.00  0.00    -0.018 C 
HETATM    2  C6  UNL     1      -3.060   2.363  11.567  1.00  0.00    -0.084 C 
HETATM    3  C7  UNL     1      -3.565   0.960  11.775  1.00  0.00     0.043 C 
ENDROOT
BRANCH   2   4
HETATM    4  C8  UNL     1      -1.563   2.474  11.348  1.00  0.00     0.060 C 
BRANCH   4   5
HETATM    5  C9  UNL     1      -1.120   3.906  11.229  1.00  0.00    -0.022 C 
HETATM    6  C10 UNL     1      -0.592   4.613  12.242  1.00  0.00     0.003 C 
BRANCH   6   7
HETATM    7  C11 UNL     1      -0.155   6.008  12.195  1.00  0.00    -0.066 C 
HETATM    8  C12 UNL     1      -1.168   7.072  12.532  1.00  0.00     0.048 C 
HETATM    9  C13 UNL     1       1.119   6.268  11.830  1.00  0.00    -0.013 C 
BRANCH   9  10
HETATM   10  C14 UNL     1       1.816   7.621  11.740  1.00  0.00     0.037 C 
HETATM   11  C15 UNL     1       2.657   7.801  13.010  1.00  0.00     0.017 C 
BRANCH  10  12
HETATM   12  C16 UNL     1       2.663   7.717  10.435  1.00  0.00     0.165 C 
BRANCH  12  13
HETATM   13  O2  UNL     1       3.695   6.716  10.522  1.00  0.00    -0.387 OA
HETATM   14  C17 UNL     1       5.004   7.263  10.589  1.00  0.00     0.202 C 
ENDBRANCH  12  13
BRANCH  12  15
HETATM   15  C18 UNL     1       1.825   7.476   9.186  1.00  0.00     0.110 A 
HETATM   16  C19 UNL     1       0.458   8.093   9.137  1.00  0.00     0.051 C 
HETATM   17  O3  UNL     1       1.859   6.113   8.711  1.00  0.00    -0.367 OA
HETATM   18  C20 UNL     1       2.541   7.070   7.900  1.00  0.00     0.155 A 
HETATM   19  C21 UNL     1       1.962   7.265   6.545  1.00  0.00     0.042 C 
ENDBRANCH  12  15
ENDBRANCH  10  12
ENDBRANCH   9  10
ENDBRANCH   6   7
ENDBRANCH   4   5
ENDBRANCH   2   4
BRANCH   1  20
HETATM   20  C4  UNL     1      -5.318   3.566  11.816  1.00  0.00     0.085 C 
BRANCH  20  21
HETATM   21  C3  UNL     1      -5.701   4.472  12.968  1.00  0.00     0.023 A 
HETATM   22  N1  UNL     1      -4.762   5.399  13.304  1.00  0.00    -0.337 N 
HETATM   23  C2  UNL     1      -5.037   6.290  14.288  1.00  0.00     0.179 A 
ATOM     24  H1  UNL     1      -3.864   5.422  12.822  1.00  0.00     0.168 HD
HETATM   25  C25 UNL     1      -6.245   6.315  14.973  1.00  0.00     0.153 A 
HETATM   26  C24 UNL     1      -7.181   5.337  14.616  1.00  0.00     0.111 A 
HETATM   27  C22 UNL     1      -6.937   4.388  13.619  1.00  0.00    -0.003 A 
HETATM   28  C23 UNL     1      -7.989   3.387  13.241  1.00  0.00     0.053 C 
BRANCH  23  29
HETATM   29  O1  UNL     1      -4.052   7.195  14.622  1.00  0.00    -0.339 OA
HETATM   30  C1  UNL     1      -3.114   6.700  15.574  1.00  0.00     0.211 C 
ENDBRANCH  23  29
BRANCH  25  31
HETATM   31  O5  UNL     1      -6.672   7.151  15.971  1.00  0.00    -0.349 OA
HETATM   32  C26 UNL     1      -7.969   6.925  16.509  1.00  0.00     0.210 C 
ENDBRANCH  25  31
BRANCH  26  33
HETATM   33  O4  UNL     1      -8.395   5.321  15.264  1.00  0.00    -0.357 OA
HETATM   34  H36 UNL     1      -8.351   6.055  15.910  1.00  0.00     0.217 HD
ENDBRANCH  26  33
ENDBRANCH  20  21
ENDBRANCH   1  20
TORSDOF 12
ENDMDL
MODEL 5
REMARK minimizedAffinity -7.84211254
REMARK  12 active torsions:
REMARK  status: ('A' for Active; 'I' for Inactive)
REMARK    1  A    between atoms: O1_2  and  C2_3 
REMARK    2  A    between atoms: C3_6  and  C4_7 
REMARK    3  A    between atoms: C4_7  and  C5_8 
REMARK    4  A    between atoms: C6_9  and  C8_11 
REMARK    5  A    between atoms: C8_11  and  C9_12 
REMARK    6  A    between atoms: C10_13  and  C11_14 
REMARK    7  A    between atoms: C13_16  and  C14_17 
REMARK    8  A    between atoms: C14_17  and  C16_19 
REMARK    9  A    between atoms: C16_19  and  O2_20 
REMARK   10  A    between atoms: C16_19  and  C18_22 
REMARK   11  A    between atoms: C24_29  and  O4_30 
REMARK   12  A    between atoms: C25_31  and  O5_32 
ROOT
HETATM    1  C5  UNL     1      -0.941   5.162  12.080  1.00  0.00    -0.018 C 
HETATM    2  C6  UNL     1      -1.179   3.863  11.800  1.00  0.00    -0.084 C 
HETATM    3  C7  UNL     1      -0.113   2.829  11.553  1.00  0.00     0.043 C 
ENDROOT
BRANCH   2   4
HETATM    4  C8  UNL     1      -2.601   3.355  11.658  1.00  0.00     0.060 C 
BRANCH   4   5
HETATM    5  C9  UNL     1      -3.500   3.904  12.731  1.00  0.00    -0.022 C 
HETATM    6  C10 UNL     1      -3.495   5.188  13.128  1.00  0.00     0.003 C 
BRANCH   6   7
HETATM    7  C11 UNL     1      -4.332   5.779  14.172  1.00  0.00    -0.066 C 
HETATM    8  C12 UNL     1      -3.657   6.222  15.445  1.00  0.00     0.048 C 
HETATM    9  C13 UNL     1      -5.661   5.874  13.950  1.00  0.00    -0.013 C 
BRANCH   9  10
HETATM   10  C14 UNL     1      -6.727   6.478  14.858  1.00  0.00     0.037 C 
HETATM   11  C15 UNL     1      -6.639   8.004  14.734  1.00  0.00     0.017 C 
BRANCH  10  12
HETATM   12  C16 UNL     1      -8.137   5.922  14.494  1.00  0.00     0.165 C 
BRANCH  12  13
HETATM   13  O2  UNL     1      -8.972   7.053  14.177  1.00  0.00    -0.387 OA
HETATM   14  C17 UNL     1     -10.220   7.036  14.855  1.00  0.00     0.202 C 
ENDBRANCH  12  13
BRANCH  12  15
HETATM   15  C18 UNL     1      -8.093   4.974  13.302  1.00  0.00     0.110 A 
HETATM   16  C19 UNL     1      -8.183   5.579  11.932  1.00  0.00     0.051 C 
HETATM   17  O3  UNL     1      -8.902   3.790  13.463  1.00  0.00    -0.367 OA
HETATM   18  C20 UNL     1      -7.488   3.587  13.501  1.00  0.00     0.155 A 
HETATM   19  C21 UNL     1      -6.947   2.763  12.388  1.00  0.00     0.042 C 
ENDBRANCH  12  15
ENDBRANCH  10  12
ENDBRANCH   9  10
ENDBRANCH   6   7
ENDBRANCH   4   5
ENDBRANCH   2   4
BRANCH   1  20
HETATM   20  C4  UNL     1       0.388   5.849  12.259  1.00  0.00     0.085 C 
BRANCH  20  21
HETATM   21  C3  UNL     1       0.926   6.442  10.973  1.00  0.00     0.023 A 
HETATM   22  N1  UNL     1       1.898   5.706  10.367  1.00  0.00    -0.337 N 
HETATM   23  C2  UNL     1       2.404   6.129   9.183  1.00  0.00     0.179 A 
ATOM     24  H1  UNL     1       2.241   4.848  10.798  1.00  0.00     0.168 HD
HETATM   25  C25 UNL     1       1.970   7.283   8.542  1.00  0.00     0.153 A 
HETATM   26  C24 UNL     1       0.984   8.025   9.201  1.00  0.00     0.111 A 
HETATM   27  C22 UNL     1       0.444   7.637  10.431  1.00  0.00    -0.003 A 
HETATM   28  C23 UNL     1      -0.644   8.444  11.077  1.00  0.00     0.053 C 
BRANCH  23  29
HETATM   29  O1  UNL     1       3.407   5.375   8.612  1.00  0.00    -0.339 OA
HETATM   30  C1  UNL     1       3.764   4.223   9.372  1.00  0.00     0.211 C 
ENDBRANCH  23  29
BRANCH  25  31
HETATM   31  O5  UNL     1       2.370   7.828   7.350  1.00  0.00    -0.349 OA
HETATM   32  C26 UNL     1       1.820   7.279   6.159  1.00  0.00     0.210 C 
ENDBRANCH  25  31
BRANCH  26  33
HETATM   33  O4  UNL     1       0.520   9.176   8.605  1.00  0.00    -0.357 OA
HETATM   34  H36 UNL     1       1.025   9.255   7.772  1.00  0.00     0.217 HD
ENDBRANCH  26  33
ENDBRANCH  20  21
ENDBRANCH   1  20
TORSDOF 12
ENDMDL
MODEL 6
REMARK minimizedAffinity -7.82982635
REMARK  12 active torsions:
REMARK  status: ('A' for Active; 'I' for Inactive)
REMARK    1  A    between atoms: O1_2  and  C2_3 
REMARK    2  A    between atoms: C3_6  and  C4_7 
REMARK    3  A    between atoms: C4_7  and  C5_8 
REMARK    4  A    between atoms: C6_9  and  C8_11 
REMARK    5  A    between atoms: C8_11  and  C9_12 
REMARK    6  A    between atoms: C10_13  and  C11_14 
REMARK    7  A    between atoms: C13_16  and  C14_17 
REMARK    8  A    between atoms: C14_17  and  C16_19 
REMARK    9  A    between atoms: C16_19  and  O2_20 
REMARK   10  A    between atoms: C16_19  and  C18_22 
REMARK   11  A    between atoms: C24_29  and  O4_30 
REMARK   12  A    between atoms: C25_31  and  O5_32 
ROOT
HETATM    1  C5  UNL     1      -2.064   6.986  14.078  1.00  0.00    -0.018 C 
HETATM    2  C6  UNL     1      -2.463   8.193  13.623  1.00  0.00    -0.084 C 
HETATM    3  C7  UNL     1      -3.896   8.649  13.543  1.00  0.00     0.043 C 
ENDROOT
BRANCH   2   4
HETATM    4  C8  UNL     1      -1.449   9.187  13.090  1.00  0.00     0.060 C 
BRANCH   4   5
HETATM    5  C9  UNL     1      -0.542   8.564  12.065  1.00  0.00    -0.022 C 
HETATM    6  C10 UNL     1      -0.666   8.757  10.741  1.00  0.00     0.003 C 
BRANCH   6   7
HETATM    7  C11 UNL     1       0.173   8.172   9.695  1.00  0.00    -0.066 C 
HETATM    8  C12 UNL     1      -0.295   8.299   8.267  1.00  0.00     0.048 C 
HETATM    9  C13 UNL     1       1.304   7.533  10.063  1.00  0.00    -0.013 C 
BRANCH   9  10
HETATM   10  C14 UNL     1       2.351   6.879   9.169  1.00  0.00     0.037 C 
HETATM   11  C15 UNL     1       3.122   7.997   8.455  1.00  0.00     0.017 C 
BRANCH  10  12
HETATM   12  C16 UNL     1       3.277   5.942  10.000  1.00  0.00     0.165 C 
BRANCH  12  13
HETATM   13  O2  UNL     1       4.089   5.205   9.065  1.00  0.00    -0.387 OA
HETATM   14  C17 UNL     1       3.919   3.798   9.160  1.00  0.00     0.202 C 
ENDBRANCH  12  13
BRANCH  12  15
HETATM   15  C18 UNL     1       4.178   6.718  10.952  1.00  0.00     0.110 A 
HETATM   16  C19 UNL     1       3.515   7.533  12.024  1.00  0.00     0.051 C 
HETATM   17  O3  UNL     1       5.270   7.402  10.302  1.00  0.00    -0.367 OA
HETATM   18  C20 UNL     1       5.631   6.274  11.101  1.00  0.00     0.155 A 
HETATM   19  C21 UNL     1       6.467   6.593  12.288  1.00  0.00     0.042 C 
ENDBRANCH  12  15
ENDBRANCH  10  12
ENDBRANCH   9  10
ENDBRANCH   6   7
ENDBRANCH   4   5
ENDBRANCH   2   4
BRANCH   1  20
HETATM   20  C4  UNL     1      -2.912   5.875  14.642  1.00  0.00     0.085 C 
BRANCH  20  21
HETATM   21  C3  UNL     1      -3.654   5.097  13.575  1.00  0.00     0.023 A 
HETATM   22  N1  UNL     1      -2.857   4.426  12.698  1.00  0.00    -0.337 N 
HETATM   23  C2  UNL     1      -3.431   3.658  11.740  1.00  0.00     0.179 A 
ATOM     24  H1  UNL     1      -1.842   4.500  12.761  1.00  0.00     0.168 HD
HETATM   25  C25 UNL     1      -4.806   3.509  11.610  1.00  0.00     0.153 A 
HETATM   26  C24 UNL     1      -5.596   4.226  12.516  1.00  0.00     0.111 A 
HETATM   27  C22 UNL     1      -5.050   5.043  13.510  1.00  0.00    -0.003 A 
HETATM   28  C23 UNL     1      -5.938   5.759  14.486  1.00  0.00     0.053 C 
BRANCH  23  29
HETATM   29  O1  UNL     1      -2.594   3.016  10.851  1.00  0.00    -0.339 OA
HETATM   30  C1  UNL     1      -1.341   2.635  11.413  1.00  0.00     0.211 C 
ENDBRANCH  23  29
BRANCH  25  31
HETATM   31  O5  UNL     1      -5.528   2.767  10.712  1.00  0.00    -0.349 OA
HETATM   32  C26 UNL     1      -5.846   1.428  11.071  1.00  0.00     0.210 C 
ENDBRANCH  25  31
BRANCH  26  33
HETATM   33  O4  UNL     1      -6.964   4.110  12.429  1.00  0.00    -0.357 OA
HETATM   34  H36 UNL     1      -7.124   3.503  11.678  1.00  0.00     0.217 HD
ENDBRANCH  26  33
ENDBRANCH  20  21
ENDBRANCH   1  20
TORSDOF 12
ENDMDL
MODEL 7
REMARK minimizedAffinity -7.82256985
REMARK  12 active torsions:
REMARK  status: ('A' for Active; 'I' for Inactive)
REMARK    1  A    between atoms: O1_2  and  C2_3 
REMARK    2  A    between atoms: C3_6  and  C4_7 
REMARK    3  A    between atoms: C4_7  and  C5_8 
REMARK    4  A    between atoms: C6_9  and  C8_11 
REMARK    5  A    between atoms: C8_11  and  C9_12 
REMARK    6  A    between atoms: C10_13  and  C11_14 
REMARK    7  A    between atoms: C13_16  and  C14_17 
REMARK    8  A    between atoms: C14_17  and  C16_19 
REMARK    9  A    between atoms: C16_19  and  O2_20 
REMARK   10  A    between atoms: C16_19  and  C18_22 
REMARK   11  A    between atoms: C24_29  and  O4_30 
REMARK   12  A    between atoms: C25_31  and  O5_32 
ROOT
HETATM    1  C5  UNL     1      -0.654   6.736  11.744  1.00  0.00    -0.018 C 
HETATM    2  C6  UNL     1      -0.606   5.496  12.276  1.00  0.00    -0.084 C 
HETATM    3  C7  UNL     1       0.105   4.322  11.655  1.00  0.00     0.043 C 
ENDROOT
BRANCH   2   4
HETATM    4  C8  UNL     1      -1.344   5.184  13.564  1.00  0.00     0.060 C 
BRANCH   4   5
HETATM    5  C9  UNL     1      -2.818   5.001  13.332  1.00  0.00    -0.022 C 
HETATM    6  C10 UNL     1      -3.337   4.085  12.498  1.00  0.00     0.003 C 
BRANCH   6   7
HETATM    7  C11 UNL     1      -4.756   3.866  12.220  1.00  0.00    -0.066 C 
HETATM    8  C12 UNL     1      -5.121   3.194  10.920  1.00  0.00     0.048 C 
HETATM    9  C13 UNL     1      -5.661   4.296  13.126  1.00  0.00    -0.013 C 
BRANCH   9  10
HETATM   10  C14 UNL     1      -7.178   4.156  13.083  1.00  0.00     0.037 C 
HETATM   11  C15 UNL     1      -7.521   2.685  13.351  1.00  0.00     0.017 C 
BRANCH  10  12
HETATM   12  C16 UNL     1      -7.849   5.128  14.099  1.00  0.00     0.165 C 
BRANCH  12  13
HETATM   13  O2  UNL     1      -6.796   5.890  14.720  1.00  0.00    -0.387 OA
HETATM   14  C17 UNL     1      -6.822   5.832  16.138  1.00  0.00     0.202 C 
ENDBRANCH  12  13
BRANCH  12  15
HETATM   15  C18 UNL     1      -8.832   6.077  13.425  1.00  0.00     0.110 A 
HETATM   16  C19 UNL     1      -8.906   6.050  11.927  1.00  0.00     0.051 C 
HETATM   17  O3  UNL     1      -8.834   7.410  13.978  1.00  0.00    -0.367 OA
HETATM   18  C20 UNL     1      -9.994   6.624  14.251  1.00  0.00     0.155 A 
HETATM   19  C21 UNL     1     -11.253   7.140  13.651  1.00  0.00     0.042 C 
ENDBRANCH  12  15
ENDBRANCH  10  12
ENDBRANCH   9  10
ENDBRANCH   6   7
ENDBRANCH   4   5
ENDBRANCH   2   4
BRANCH   1  20
HETATM   20  C4  UNL     1       0.007   7.236  10.485  1.00  0.00     0.085 C 
BRANCH  20  21
HETATM   21  C3  UNL     1       1.518   7.133  10.529  1.00  0.00     0.023 A 
HETATM   22  N1  UNL     1       2.056   6.241   9.652  1.00  0.00    -0.337 N 
HETATM   23  C2  UNL     1       3.404   6.118   9.581  1.00  0.00     0.179 A 
ATOM     24  H1  UNL     1       1.453   5.674   9.058  1.00  0.00     0.168 HD
HETATM   25  C25 UNL     1       4.277   6.870  10.357  1.00  0.00     0.153 A 
HETATM   26  C24 UNL     1       3.690   7.764  11.260  1.00  0.00     0.111 A 
HETATM   27  C22 UNL     1       2.306   7.914  11.381  1.00  0.00    -0.003 A 
HETATM   28  C23 UNL     1       1.725   8.918  12.334  1.00  0.00     0.053 C 
BRANCH  23  29
HETATM   29  O1  UNL     1       3.913   5.185   8.703  1.00  0.00    -0.339 OA
HETATM   30  C1  UNL     1       3.945   3.859   9.226  1.00  0.00     0.211 C 
ENDBRANCH  23  29
BRANCH  25  31
HETATM   31  O5  UNL     1       5.647   6.868  10.389  1.00  0.00    -0.349 OA
HETATM   32  C26 UNL     1       6.283   5.920  11.236  1.00  0.00     0.210 C 
ENDBRANCH  25  31
BRANCH  26  33
HETATM   33  O4  UNL     1       4.513   8.533  12.051  1.00  0.00    -0.357 OA
HETATM   34  H36 UNL     1       5.423   8.269  11.807  1.00  0.00     0.217 HD
ENDBRANCH  26  33
ENDBRANCH  20  21
ENDBRANCH   1  20
TORSDOF 12
ENDMDL
MODEL 8
REMARK minimizedAffinity -7.75273752
REMARK  12 active torsions:
REMARK  status: ('A' for Active; 'I' for Inactive)
REMARK    1  A    between atoms: O1_2  and  C2_3 
REMARK    2  A    between atoms: C3_6  and  C4_7 
REMARK    3  A    between atoms: C4_7  and  C5_8 
REMARK    4  A    between atoms: C6_9  and  C8_11 
REMARK    5  A    between atoms: C8_11  and  C9_12 
REMARK    6  A    between atoms: C10_13  and  C11_14 
REMARK    7  A    between atoms: C13_16  and  C14_17 
REMARK    8  A    between atoms: C14_17  and  C16_19 
REMARK    9  A    between atoms: C16_19  and  O2_20 
REMARK   10  A    between atoms: C16_19  and  C18_22 
REMARK   11  A    between atoms: C24_29  and  O4_30 
REMARK   12  A    between atoms: C25_31  and  O5_32 
ROOT
HETATM    1  C5  UNL     1       0.535   6.689  13.608  1.00  0.00    -0.018 C 
HETATM    2  C6  UNL     1      -0.735   6.711  14.064  1.00  0.00    -0.084 C 
HETATM    3  C7  UNL     1      -1.610   7.937  14.110  1.00  0.00     0.043 C 
ENDROOT
BRANCH   2   4
HETATM    4  C8  UNL     1      -1.369   5.457  14.633  1.00  0.00     0.060 C 
BRANCH   4   5
HETATM    5  C9  UNL     1      -2.761   5.246  14.106  1.00  0.00    -0.022 C 
HETATM    6  C10 UNL     1      -3.054   4.447  13.065  1.00  0.00     0.003 C 
BRANCH   6   7
HETATM    7  C11 UNL     1      -4.381   4.210  12.498  1.00  0.00    -0.066 C 
HETATM    8  C12 UNL     1      -4.464   3.425  11.212  1.00  0.00     0.048 C 
HETATM    9  C13 UNL     1      -5.454   4.723  13.139  1.00  0.00    -0.013 C 
BRANCH   9  10
HETATM   10  C14 UNL     1      -6.927   4.584  12.770  1.00  0.00     0.037 C 
HETATM   11  C15 UNL     1      -7.479   3.352  13.500  1.00  0.00     0.017 C 
BRANCH  10  12
HETATM   12  C16 UNL     1      -7.704   5.890  13.115  1.00  0.00     0.165 C 
BRANCH  12  13
HETATM   13  O2  UNL     1      -9.093   5.534  13.256  1.00  0.00    -0.387 OA
HETATM   14  C17 UNL     1      -9.981   6.556  12.826  1.00  0.00     0.202 C 
ENDBRANCH  12  13
BRANCH  12  15
HETATM   15  C18 UNL     1      -7.211   6.531  14.406  1.00  0.00     0.110 A 
HETATM   16  C19 UNL     1      -6.272   7.695  14.287  1.00  0.00     0.051 C 
HETATM   17  O3  UNL     1      -6.826   5.582  15.423  1.00  0.00    -0.367 OA
HETATM   18  C20 UNL     1      -8.024   6.315  15.679  1.00  0.00     0.155 A 
HETATM   19  C21 UNL     1      -7.960   7.223  16.855  1.00  0.00     0.042 C 
ENDBRANCH  12  15
ENDBRANCH  10  12
ENDBRANCH   9  10
ENDBRANCH   6   7
ENDBRANCH   4   5
ENDBRANCH   2   4
BRANCH   1  20
HETATM   20  C4  UNL     1       1.331   7.821  13.011  1.00  0.00     0.085 C 
BRANCH  20  21
HETATM   21  C3  UNL     1       1.690   7.591  11.557  1.00  0.00     0.023 A 
HETATM   22  N1  UNL     1       2.866   6.936  11.355  1.00  0.00    -0.337 N 
HETATM   23  C2  UNL     1       3.245   6.636  10.088  1.00  0.00     0.179 A 
ATOM     24  H1  UNL     1       3.454   6.674  12.146  1.00  0.00     0.168 HD
HETATM   25  C25 UNL     1       2.482   6.957   8.972  1.00  0.00     0.153 A 
HETATM   26  C24 UNL     1       1.288   7.646   9.215  1.00  0.00     0.111 A 
HETATM   27  C22 UNL     1       0.864   7.991  10.501  1.00  0.00    -0.003 A 
HETATM   28  C23 UNL     1      -0.447   8.691  10.713  1.00  0.00     0.053 C 
BRANCH  23  29
HETATM   29  O1  UNL     1       4.455   5.999   9.919  1.00  0.00    -0.339 OA
HETATM   30  C1  UNL     1       5.417   6.313  10.923  1.00  0.00     0.211 C 
ENDBRANCH  23  29
BRANCH  25  31
HETATM   31  O5  UNL     1       2.722   6.713   7.645  1.00  0.00    -0.349 OA
HETATM   32  C26 UNL     1       1.814   7.268   6.702  1.00  0.00     0.210 C 
ENDBRANCH  25  31
BRANCH  26  33
HETATM   33  O4  UNL     1       0.496   7.985   8.141  1.00  0.00    -0.357 OA
HETATM   34  H36 UNL     1       0.975   7.655   7.355  1.00  0.00     0.217 HD
ENDBRANCH  26  33
ENDBRANCH  20  21
ENDBRANCH   1  20
TORSDOF 12
ENDMDL
MODEL 9
REMARK minimizedAffinity -7.73783445
REMARK  12 active torsions:
REMARK  status: ('A' for Active; 'I' for Inactive)
REMARK    1  A    between atoms: O1_2  and  C2_3 
REMARK    2  A    between atoms: C3_6  and  C4_7 
REMARK    3  A    between atoms: C4_7  and  C5_8 
REMARK    4  A    between atoms: C6_9  and  C8_11 
REMARK    5  A    between atoms: C8_11  and  C9_12 
REMARK    6  A    between atoms: C10_13  and  C11_14 
REMARK    7  A    between atoms: C13_16  and  C14_17 
REMARK    8  A    between atoms: C14_17  and  C16_19 
REMARK    9  A    between atoms: C16_19  and  O2_20 
REMARK   10  A    between atoms: C16_19  and  C18_22 
REMARK   11  A    between atoms: C24_29  and  O4_30 
REMARK   12  A    between atoms: C25_31  and  O5_32 
ROOT
HETATM    1  C5  UNL     1      -5.865   4.007  13.033  1.00  0.00    -0.018 C 
HETATM    2  C6  UNL     1      -5.099   3.229  12.239  1.00  0.00    -0.084 C 
HETATM    3  C7  UNL     1      -5.630   2.264  11.212  1.00  0.00     0.043 C 
ENDROOT
BRANCH   2   4
HETATM    4  C8  UNL     1      -3.589   3.240  12.379  1.00  0.00     0.060 C 
BRANCH   4   5
HETATM    5  C9  UNL     1      -3.029   4.633  12.287  1.00  0.00    -0.022 C 
HETATM    6  C10 UNL     1      -2.189   5.163  13.191  1.00  0.00     0.003 C 
BRANCH   6   7
HETATM    7  C11 UNL     1      -1.621   6.511  13.165  1.00  0.00    -0.066 C 
HETATM    8  C12 UNL     1      -1.325   7.173  14.487  1.00  0.00     0.048 C 
HETATM    9  C13 UNL     1      -1.415   7.097  11.965  1.00  0.00    -0.013 C 
BRANCH   9  10
HETATM   10  C14 UNL     1      -0.809   8.466  11.677  1.00  0.00     0.037 C 
HETATM   11  C15 UNL     1      -1.064   9.359  12.898  1.00  0.00     0.017 C 
BRANCH  10  12
HETATM   12  C16 UNL     1       0.704   8.334  11.329  1.00  0.00     0.165 C 
BRANCH  12  13
HETATM   13  O2  UNL     1       1.210   7.194  12.051  1.00  0.00    -0.387 OA
HETATM   14  C17 UNL     1       2.183   7.535  13.028  1.00  0.00     0.202 C 
ENDBRANCH  12  13
BRANCH  12  15
HETATM   15  C18 UNL     1       0.937   8.134   9.837  1.00  0.00     0.110 A 
HETATM   16  C19 UNL     1      -0.162   8.544   8.902  1.00  0.00     0.051 C 
HETATM   17  O3  UNL     1       1.535   6.864   9.501  1.00  0.00    -0.367 OA
HETATM   18  C20 UNL     1       2.375   8.008   9.338  1.00  0.00     0.155 A 
HETATM   19  C21 UNL     1       2.782   8.287   7.936  1.00  0.00     0.042 C 
ENDBRANCH  12  15
ENDBRANCH  10  12
ENDBRANCH   9  10
ENDBRANCH   6   7
ENDBRANCH   4   5
ENDBRANCH   2   4
BRANCH   1  20
HETATM   20  C4  UNL     1      -7.366   4.135  13.044  1.00  0.00     0.085 C 
BRANCH  20  21
HETATM   21  C3  UNL     1      -7.845   5.444  13.636  1.00  0.00     0.023 A 
HETATM   22  N1  UNL     1      -9.179   5.679  13.502  1.00  0.00    -0.337 N 
HETATM   23  C2  UNL     1      -9.709   6.801  14.048  1.00  0.00     0.179 A 
ATOM     24  H1  UNL     1      -9.771   5.021  12.997  1.00  0.00     0.168 HD
HETATM   25  C25 UNL     1      -8.956   7.730  14.755  1.00  0.00     0.153 A 
HETATM   26  C24 UNL     1      -7.585   7.467  14.859  1.00  0.00     0.111 A 
HETATM   27  C22 UNL     1      -6.991   6.333  14.299  1.00  0.00    -0.003 A 
HETATM   28  C23 UNL     1      -5.523   6.072  14.475  1.00  0.00     0.053 C 
BRANCH  23  29
HETATM   29  O1  UNL     1     -11.058   7.021  13.867  1.00  0.00    -0.339 OA
HETATM   30  C1  UNL     1     -11.367   7.780  12.701  1.00  0.00     0.211 C 
ENDBRANCH  23  29
BRANCH  25  31
HETATM   31  O5  UNL     1      -9.346   8.891  15.369  1.00  0.00    -0.349 OA
HETATM   32  C26 UNL     1     -10.029   8.780  16.612  1.00  0.00     0.210 C 
ENDBRANCH  25  31
BRANCH  26  33
HETATM   33  O4  UNL     1      -6.797   8.357  15.552  1.00  0.00    -0.357 OA
HETATM   34  H36 UNL     1      -7.406   9.062  15.850  1.00  0.00     0.217 HD
ENDBRANCH  26  33
ENDBRANCH  20  21
ENDBRANCH   1  20
TORSDOF 12
ENDMDL
