MODEL 1
REMARK minimizedAffinity -9.51861191
REMARK CNNscore 0.541509628
REMARK CNNaffinity 7.1342206
REMARK  8 active torsions:
REMARK  status: ('A' for Active; 'I' for Inactive)
REMARK    1  A    between atoms: C4_4  and  C5_5 
REMARK    2  A    between atoms: C5_5  and  C6_6 
REMARK    3  A    between atoms: C12_14  and  O3_15 
REMARK    4  A    between atoms: C20_24  and  O5_25 
REMARK    5  A    between atoms: C27_33  and  C28_34 
REMARK    6  A    between atoms: C28_34  and  C29_35 
REMARK    7  A    between atoms: C30_36  and  C32_38 
REMARK    8  A    between atoms: C32_38  and  O8_40 
ROOT
HETATM    1  C6  UNL     1      -3.669   5.646  14.252  1.00  0.00     0.014 A 
HETATM    2  C7  UNL     1      -2.308   5.859  13.949  1.00  0.00     0.096 A 
HETATM    3  O1  UNL     1      -1.604   6.666  14.798  1.00  0.00    -0.333 OA
HETATM    4  C8  UNL     1      -0.254   7.043  14.488  1.00  0.00     0.126 C 
HETATM    5  C9  UNL     1       0.501   5.918  13.764  1.00  0.00     0.129 C 
HETATM    6  C10 UNL     1      -0.302   5.353  12.624  1.00  0.00     0.174 C 
HETATM    7  O2  UNL     1       0.214   4.888  11.609  1.00  0.00    -0.292 OA
HETATM    8  C11 UNL     1      -1.754   5.259  12.820  1.00  0.00     0.078 A 
HETATM    9  C12 UNL     1      -2.554   4.524  11.932  1.00  0.00     0.095 A 
HETATM   10  C13 UNL     1      -3.920   4.355  12.186  1.00  0.00     0.032 A 
HETATM   11  C14 UNL     1      -4.469   4.906  13.352  1.00  0.00     0.092 A 
HETATM   12  O4  UNL     1      -5.786   4.757  13.693  1.00  0.00    -0.335 OA
HETATM   13  C15 UNL     1      -6.680   4.017  12.839  1.00  0.00     0.078 A 
HETATM   14  C16 UNL     1      -7.246   2.876  13.693  1.00  0.00     0.051 C 
HETATM   15  C17 UNL     1      -7.809   4.979  12.452  1.00  0.00     0.051 C 
HETATM   16  C18 UNL     1      -6.063   3.446  11.589  1.00  0.00     0.012 A 
HETATM   17  C19 UNL     1      -4.774   3.600  11.277  1.00  0.00     0.016 A 
HETATM   18  C20 UNL     1       1.912   6.369  13.356  1.00  0.00     0.144 C 
HETATM   19  C21 UNL     1       2.317   7.570  14.213  1.00  0.00     0.089 C 
HETATM   20  C22 UNL     1       1.964   7.296  15.680  1.00  0.00     0.025 C 
HETATM   21  C23 UNL     1       0.422   7.352  15.872  1.00  0.00     0.060 C 
HETATM   22  C24 UNL     1      -0.140   8.774  16.211  1.00  0.00     0.062 C 
HETATM   23  C25 UNL     1      -1.414   8.707  17.066  1.00  0.00     0.046 C 
HETATM   24  C26 UNL     1       0.825   9.731  16.921  1.00  0.00     0.046 C 
HETATM   25  O6  UNL     1      -0.495   9.369  14.942  1.00  0.00    -0.358 OA
HETATM   26  C27 UNL     1      -0.077   8.470  13.884  1.00  0.00     0.158 C 
HETATM   27  C33 UNL     1       1.452   8.730  13.753  1.00  0.00     0.171 C 
HETATM   28  O9  UNL     1       1.946   9.804  13.414  1.00  0.00    -0.294 OA
ENDROOT
BRANCH  26  29
HETATM   29  C28 UNL     1      -0.754   8.828  12.552  1.00  0.00     0.077 C 
BRANCH  29  30
HETATM   30  C29 UNL     1      -2.214   8.469  12.411  1.00  0.00    -0.010 C 
HETATM   31  C30 UNL     1      -3.258   9.022  13.061  1.00  0.00     0.008 C 
HETATM   32  C31 UNL     1      -4.679   8.614  12.818  1.00  0.00     0.055 C 
BRANCH  31  33
HETATM   33  C32 UNL     1      -3.069  10.098  14.054  1.00  0.00     0.171 C 
HETATM   34  O7  UNL     1      -2.472  11.146  13.891  1.00  0.00    -0.646 OA
BRANCH  33  35
HETATM   35  O8  UNL     1      -3.675   9.798  15.214  1.00  0.00    -0.773 OA
HETATM   36  H38 UNL     1      -3.430  10.549  15.794  1.00  0.00     0.167 HD
ENDBRANCH  33  35
ENDBRANCH  31  33
ENDBRANCH  29  30
ENDBRANCH  26  29
BRANCH  18  37
HETATM   37  O5  UNL     1       2.010   6.750  11.991  1.00  0.00    -0.394 OA
HETATM   38  H21 UNL     1       1.771   5.974  11.437  1.00  0.00     0.210 HD
ENDBRANCH  18  37
BRANCH   1  39
HETATM   39  C5  UNL     1      -4.275   6.178  15.538  1.00  0.00     0.072 C 
BRANCH  39  40
HETATM   40  C4  UNL     1      -5.725   5.819  15.718  1.00  0.00    -0.020 C 
HETATM   41  C2  UNL     1      -6.784   6.645  15.819  1.00  0.00    -0.091 C 
HETATM   42  C1  UNL     1      -6.724   8.148  15.825  1.00  0.00     0.042 C 
HETATM   43  C3  UNL     1      -8.181   6.091  15.926  1.00  0.00     0.042 C 
ENDBRANCH  39  40
ENDBRANCH   1  39
BRANCH   9  44
HETATM   44  O3  UNL     1      -2.028   3.937  10.805  1.00  0.00    -0.359 OA
HETATM   45  H11 UNL     1      -1.069   4.144  10.751  1.00  0.00     0.217 HD
ENDBRANCH   9  44
TORSDOF 8
ENDMDL
MODEL 2
REMARK minimizedAffinity -8.46914673
REMARK CNNscore 0.496385902
REMARK CNNaffinity 6.96066284
REMARK  8 active torsions:
REMARK  status: ('A' for Active; 'I' for Inactive)
REMARK    1  A    between atoms: C4_4  and  C5_5 
REMARK    2  A    between atoms: C5_5  and  C6_6 
REMARK    3  A    between atoms: C12_14  and  O3_15 
REMARK    4  A    between atoms: C20_24  and  O5_25 
REMARK    5  A    between atoms: C27_33  and  C28_34 
REMARK    6  A    between atoms: C28_34  and  C29_35 
REMARK    7  A    between atoms: C30_36  and  C32_38 
REMARK    8  A    between atoms: C32_38  and  O8_40 
ROOT
HETATM    1  C6  UNL     1       0.089   9.725  13.935  1.00  0.00     0.014 A 
HETATM    2  C7  UNL     1       1.197   9.106  13.319  1.00  0.00     0.096 A 
HETATM    3  O1  UNL     1       1.094   8.841  11.982  1.00  0.00    -0.333 OA
HETATM    4  C8  UNL     1       2.118   8.093  11.310  1.00  0.00     0.126 C 
HETATM    5  C9  UNL     1       3.511   8.388  11.885  1.00  0.00     0.129 C 
HETATM    6  C10 UNL     1       3.520   8.312  13.388  1.00  0.00     0.174 C 
HETATM    7  O2  UNL     1       4.509   7.968  14.034  1.00  0.00    -0.292 OA
HETATM    8  C11 UNL     1       2.319   8.792  14.082  1.00  0.00     0.078 A 
HETATM    9  C12 UNL     1       2.324   8.997  15.470  1.00  0.00     0.095 A 
HETATM   10  C13 UNL     1       1.208   9.554  16.107  1.00  0.00     0.032 A 
HETATM   11  C14 UNL     1       0.100   9.927  15.334  1.00  0.00     0.092 A 
HETATM   12  O4  UNL     1      -1.016  10.509  15.871  1.00  0.00    -0.335 OA
HETATM   13  C15 UNL     1      -1.096  10.757  17.288  1.00  0.00     0.078 A 
HETATM   14  C16 UNL     1      -1.312  12.267  17.450  1.00  0.00     0.051 C 
HETATM   15  C17 UNL     1      -2.332  10.004  17.793  1.00  0.00     0.051 C 
HETATM   16  C18 UNL     1       0.105  10.336  18.093  1.00  0.00     0.012 A 
HETATM   17  C19 UNL     1       1.186   9.773  17.548  1.00  0.00     0.016 A 
HETATM   18  C20 UNL     1       4.584   7.513  11.220  1.00  0.00     0.144 C 
HETATM   19  C21 UNL     1       4.050   7.005   9.880  1.00  0.00     0.089 C 
HETATM   20  C22 UNL     1       3.386   8.160   9.121  1.00  0.00     0.025 C 
HETATM   21  C23 UNL     1       2.042   8.539   9.806  1.00  0.00     0.060 C 
HETATM   22  C24 UNL     1       0.798   7.745   9.282  1.00  0.00     0.062 C 
HETATM   23  C25 UNL     1      -0.499   8.560   9.388  1.00  0.00     0.046 C 
HETATM   24  C26 UNL     1       0.884   7.228   7.840  1.00  0.00     0.046 C 
HETATM   25  O6  UNL     1       0.668   6.599  10.153  1.00  0.00    -0.358 OA
HETATM   26  C27 UNL     1       1.797   6.587  11.063  1.00  0.00     0.158 C 
HETATM   27  C33 UNL     1       2.959   6.001  10.211  1.00  0.00     0.171 C 
HETATM   28  O9  UNL     1       2.971   4.863   9.742  1.00  0.00    -0.294 OA
ENDROOT
BRANCH  26  29
HETATM   29  C28 UNL     1       1.539   5.652  12.254  1.00  0.00     0.077 C 
BRANCH  29  30
HETATM   30  C29 UNL     1       0.177   5.734  12.902  1.00  0.00    -0.010 C 
HETATM   31  C30 UNL     1      -0.895   4.956  12.652  1.00  0.00     0.008 C 
HETATM   32  C31 UNL     1      -2.195   5.099  13.382  1.00  0.00     0.055 C 
BRANCH  31  33
HETATM   33  C32 UNL     1      -0.852   3.881  11.640  1.00  0.00     0.171 C 
HETATM   34  O7  UNL     1      -1.380   3.890  10.544  1.00  0.00    -0.646 OA
BRANCH  33  35
HETATM   35  O8  UNL     1      -0.112   2.845  12.065  1.00  0.00    -0.773 OA
HETATM   36  H38 UNL     1      -0.211   2.190  11.343  1.00  0.00     0.167 HD
ENDBRANCH  33  35
ENDBRANCH  31  33
ENDBRANCH  29  30
ENDBRANCH  26  29
BRANCH  18  37
HETATM   37  O5  UNL     1       4.955   6.385  12.001  1.00  0.00    -0.394 OA
HETATM   38  H21 UNL     1       5.320   6.708  12.854  1.00  0.00     0.210 HD
ENDBRANCH  18  37
BRANCH   1  39
HETATM   39  C5  UNL     1      -1.099  10.196  13.114  1.00  0.00     0.072 C 
BRANCH  39  40
HETATM   40  C4  UNL     1      -2.130   9.127  12.874  1.00  0.00    -0.020 C 
HETATM   41  C2  UNL     1      -3.332   8.978  13.464  1.00  0.00    -0.091 C 
HETATM   42  C1  UNL     1      -3.883   9.850  14.559  1.00  0.00     0.042 C 
HETATM   43  C3  UNL     1      -4.264   7.874  13.036  1.00  0.00     0.042 C 
ENDBRANCH  39  40
ENDBRANCH   1  39
BRANCH   9  44
HETATM   44  O3  UNL     1       3.417   8.680  16.242  1.00  0.00    -0.359 OA
HETATM   45  H11 UNL     1       4.116   8.295  15.669  1.00  0.00     0.217 HD
ENDBRANCH   9  44
TORSDOF 8
ENDMDL
MODEL 3
REMARK minimizedAffinity -6.77910995
REMARK CNNscore 0.325632185
REMARK CNNaffinity 6.3872509
REMARK  8 active torsions:
REMARK  status: ('A' for Active; 'I' for Inactive)
REMARK    1  A    between atoms: C4_4  and  C5_5 
REMARK    2  A    between atoms: C5_5  and  C6_6 
REMARK    3  A    between atoms: C12_14  and  O3_15 
REMARK    4  A    between atoms: C20_24  and  O5_25 
REMARK    5  A    between atoms: C27_33  and  C28_34 
REMARK    6  A    between atoms: C28_34  and  C29_35 
REMARK    7  A    between atoms: C30_36  and  C32_38 
REMARK    8  A    between atoms: C32_38  and  O8_40 
ROOT
HETATM    1  C6  UNL     1       4.771  17.323  25.191  1.00  0.00     0.014 A 
HETATM    2  C7  UNL     1       6.109  17.458  24.766  1.00  0.00     0.096 A 
HETATM    3  O1  UNL     1       6.327  17.521  23.418  1.00  0.00    -0.333 OA
HETATM    4  C8  UNL     1       7.665  17.521  22.899  1.00  0.00     0.126 C 
HETATM    5  C9  UNL     1       8.637  18.268  23.825  1.00  0.00     0.129 C 
HETATM    6  C10 UNL     1       8.488  17.830  25.257  1.00  0.00     0.174 C 
HETATM    7  O2  UNL     1       9.422  17.827  26.056  1.00  0.00    -0.292 OA
HETATM    8  C11 UNL     1       7.129  17.514  25.714  1.00  0.00     0.078 A 
HETATM    9  C12 UNL     1       6.850  17.342  27.079  1.00  0.00     0.095 A 
HETATM   10  C13 UNL     1       5.533  17.145  27.512  1.00  0.00     0.032 A 
HETATM   11  C14 UNL     1       4.498  17.149  26.567  1.00  0.00     0.092 A 
HETATM   12  O4  UNL     1       3.181  16.998  26.909  1.00  0.00    -0.335 OA
HETATM   13  C15 UNL     1       2.805  16.817  28.288  1.00  0.00     0.078 A 
HETATM   14  C16 UNL     1       1.845  17.964  28.627  1.00  0.00     0.051 C 
HETATM   15  C17 UNL     1       2.056  15.481  28.364  1.00  0.00     0.051 C 
HETATM   16  C18 UNL     1       3.940  16.807  29.278  1.00  0.00     0.012 A 
HETATM   17  C19 UNL     1       5.217  16.960  28.923  1.00  0.00     0.016 A 
HETATM   18  C20 UNL     1      10.079  18.180  23.305  1.00  0.00     0.144 C 
HETATM   19  C21 UNL     1      10.050  17.839  21.814  1.00  0.00     0.089 C 
HETATM   20  C22 UNL     1       9.002  18.710  21.109  1.00  0.00     0.025 C 
HETATM   21  C23 UNL     1       7.573  18.244  21.507  1.00  0.00     0.060 C 
HETATM   22  C24 UNL     1       6.972  17.129  20.587  1.00  0.00     0.062 C 
HETATM   23  C25 UNL     1       5.440  17.202  20.510  1.00  0.00     0.046 C 
HETATM   24  C26 UNL     1       7.491  17.089  19.145  1.00  0.00     0.046 C 
HETATM   25  O6  UNL     1       7.320  15.873  21.214  1.00  0.00    -0.358 OA
HETATM   26  C27 UNL     1       8.174  16.153  22.351  1.00  0.00     0.158 C 
HETATM   27  C33 UNL     1       9.574  16.400  21.718  1.00  0.00     0.171 C 
HETATM   28  O9  UNL     1      10.212  15.554  21.094  1.00  0.00    -0.294 OA
ENDROOT
BRANCH  26  29
HETATM   29  C28 UNL     1       8.265  14.938  23.288  1.00  0.00     0.077 C 
BRANCH  29  30
HETATM   30  C29 UNL     1       7.095  13.984  23.283  1.00  0.00    -0.010 C 
HETATM   31  C30 UNL     1       7.116  12.666  23.004  1.00  0.00     0.008 C 
HETATM   32  C31 UNL     1       5.896  11.799  23.063  1.00  0.00     0.055 C 
BRANCH  31  33
HETATM   33  C32 UNL     1       8.367  11.973  22.636  1.00  0.00     0.171 C 
HETATM   34  O7  UNL     1       9.061  11.285  23.362  1.00  0.00    -0.646 OA
BRANCH  33  35
HETATM   35  O8  UNL     1       8.668  12.169  21.343  1.00  0.00    -0.773 OA
HETATM   36  H38 UNL     1       9.531  11.717  21.243  1.00  0.00     0.167 HD
ENDBRANCH  33  35
ENDBRANCH  31  33
ENDBRANCH  29  30
ENDBRANCH  26  29
BRANCH  18  37
HETATM   37  O5  UNL     1      10.859  17.193  23.966  1.00  0.00    -0.394 OA
HETATM   38  H21 UNL     1      10.899  17.422  24.921  1.00  0.00     0.210 HD
ENDBRANCH  18  37
BRANCH   1  39
HETATM   39  C5  UNL     1       3.625  17.385  24.196  1.00  0.00     0.072 C 
BRANCH  39  40
HETATM   40  C4  UNL     1       3.524  16.172  23.313  1.00  0.00    -0.020 C 
HETATM   41  C2  UNL     1       2.876  15.015  23.554  1.00  0.00    -0.091 C 
HETATM   42  C1  UNL     1       2.142  14.671  24.821  1.00  0.00     0.042 C 
HETATM   43  C3  UNL     1       2.829  13.932  22.508  1.00  0.00     0.042 C 
ENDBRANCH  39  40
ENDBRANCH   1  39
BRANCH   9  44
HETATM   44  O3  UNL     1       7.844  17.379  28.028  1.00  0.00    -0.359 OA
HETATM   45  H11 UNL     1       8.710  17.515  27.583  1.00  0.00     0.217 HD
ENDBRANCH   9  44
TORSDOF 8
ENDMDL
MODEL 4
REMARK minimizedAffinity -7.78002787
REMARK CNNscore 0.294711471
REMARK CNNaffinity 6.10660696
REMARK  8 active torsions:
REMARK  status: ('A' for Active; 'I' for Inactive)
REMARK    1  A    between atoms: C4_4  and  C5_5 
REMARK    2  A    between atoms: C5_5  and  C6_6 
REMARK    3  A    between atoms: C12_14  and  O3_15 
REMARK    4  A    between atoms: C20_24  and  O5_25 
REMARK    5  A    between atoms: C27_33  and  C28_34 
REMARK    6  A    between atoms: C28_34  and  C29_35 
REMARK    7  A    between atoms: C30_36  and  C32_38 
REMARK    8  A    between atoms: C32_38  and  O8_40 
ROOT
HETATM    1  C6  UNL     1      15.652  -4.118   6.009  1.00  0.00     0.014 A 
HETATM    2  C7  UNL     1      16.754  -3.417   6.542  1.00  0.00     0.096 A 
HETATM    3  O1  UNL     1      17.305  -3.913   7.691  1.00  0.00    -0.333 OA
HETATM    4  C8  UNL     1      18.338  -3.186   8.371  1.00  0.00     0.126 C 
HETATM    5  C9  UNL     1      19.257  -2.444   7.388  1.00  0.00     0.129 C 
HETATM    6  C10 UNL     1      18.469  -1.667   6.369  1.00  0.00     0.174 C 
HETATM    7  O2  UNL     1      18.877  -0.623   5.862  1.00  0.00    -0.292 OA
HETATM    8  C11 UNL     1      17.219  -2.275   5.896  1.00  0.00     0.078 A 
HETATM    9  C12 UNL     1      16.547  -1.759   4.776  1.00  0.00     0.095 A 
HETATM   10  C13 UNL     1      15.415  -2.408   4.271  1.00  0.00     0.032 A 
HETATM   11  C14 UNL     1      14.979  -3.592   4.882  1.00  0.00     0.092 A 
HETATM   12  O4  UNL     1      13.904  -4.308   4.430  1.00  0.00    -0.335 OA
HETATM   13  C15 UNL     1      13.156  -3.852   3.286  1.00  0.00     0.078 A 
HETATM   14  C16 UNL     1      13.220  -4.982   2.251  1.00  0.00     0.051 C 
HETATM   15  C17 UNL     1      11.709  -3.666   3.756  1.00  0.00     0.051 C 
HETATM   16  C18 UNL     1      13.641  -2.572   2.658  1.00  0.00     0.012 A 
HETATM   17  C19 UNL     1      14.696  -1.892   3.112  1.00  0.00     0.016 A 
HETATM   18  C20 UNL     1      20.300  -1.597   8.133  1.00  0.00     0.144 C 
HETATM   19  C21 UNL     1      20.443  -2.128   9.561  1.00  0.00     0.089 C 
HETATM   20  C22 UNL     1      20.537  -3.658   9.532  1.00  0.00     0.025 C 
HETATM   21  C23 UNL     1      19.152  -4.266   9.170  1.00  0.00     0.060 C 
HETATM   22  C24 UNL     1      18.223  -4.546  10.399  1.00  0.00     0.062 C 
HETATM   23  C25 UNL     1      17.272  -5.725  10.152  1.00  0.00     0.046 C 
HETATM   24  C26 UNL     1      18.930  -4.814  11.734  1.00  0.00     0.046 C 
HETATM   25  O6  UNL     1      17.416  -3.358  10.561  1.00  0.00    -0.358 OA
HETATM   26  C27 UNL     1      17.875  -2.362   9.612  1.00  0.00     0.158 C 
HETATM   27  C33 UNL     1      19.152  -1.771  10.277  1.00  0.00     0.171 C 
HETATM   28  O9  UNL     1      19.159  -1.159  11.344  1.00  0.00    -0.294 OA
ENDROOT
BRANCH  26  29
HETATM   29  C28 UNL     1      16.842  -1.238   9.444  1.00  0.00     0.077 C 
BRANCH  29  30
HETATM   30  C29 UNL     1      17.358   0.179   9.521  1.00  0.00    -0.010 C 
HETATM   31  C30 UNL     1      16.863   1.190  10.263  1.00  0.00     0.008 C 
HETATM   32  C31 UNL     1      17.477   2.556  10.295  1.00  0.00     0.055 C 
BRANCH  31  33
HETATM   33  C32 UNL     1      15.678   1.009  11.126  1.00  0.00     0.171 C 
HETATM   34  O7  UNL     1      14.581   0.607  10.783  1.00  0.00    -0.646 OA
BRANCH  33  35
HETATM   35  O8  UNL     1      15.952   1.328  12.400  1.00  0.00    -0.773 OA
HETATM   36  H38 UNL     1      15.087   1.223  12.847  1.00  0.00     0.167 HD
ENDBRANCH  33  35
ENDBRANCH  31  33
ENDBRANCH  29  30
ENDBRANCH  26  29
BRANCH  18  37
HETATM   37  O5  UNL     1      19.958  -0.219   8.209  1.00  0.00    -0.394 OA
HETATM   38  H21 UNL     1      19.887   0.130   7.293  1.00  0.00     0.210 HD
ENDBRANCH  18  37
BRANCH   1  39
HETATM   39  C5  UNL     1      15.197  -5.435   6.613  1.00  0.00     0.072 C 
BRANCH  39  40
HETATM   40  C4  UNL     1      14.258  -5.275   7.776  1.00  0.00    -0.020 C 
HETATM   41  C2  UNL     1      12.935  -5.526   7.824  1.00  0.00    -0.091 C 
HETATM   42  C1  UNL     1      12.090  -5.983   6.666  1.00  0.00     0.042 C 
HETATM   43  C3  UNL     1      12.171  -5.369   9.112  1.00  0.00     0.042 C 
ENDBRANCH  39  40
ENDBRANCH   1  39
BRANCH   9  44
HETATM   44  O3  UNL     1      16.983  -0.624   4.134  1.00  0.00    -0.359 OA
HETATM   45  H11 UNL     1      17.775  -0.274   4.598  1.00  0.00     0.217 HD
ENDBRANCH   9  44
TORSDOF 8
ENDMDL
MODEL 5
REMARK minimizedAffinity -9.40431404
REMARK CNNscore 0.280555427
REMARK CNNaffinity 7.12151146
REMARK  8 active torsions:
REMARK  status: ('A' for Active; 'I' for Inactive)
REMARK    1  A    between atoms: C4_4  and  C5_5 
REMARK    2  A    between atoms: C5_5  and  C6_6 
REMARK    3  A    between atoms: C12_14  and  O3_15 
REMARK    4  A    between atoms: C20_24  and  O5_25 
REMARK    5  A    between atoms: C27_33  and  C28_34 
REMARK    6  A    between atoms: C28_34  and  C29_35 
REMARK    7  A    between atoms: C30_36  and  C32_38 
REMARK    8  A    between atoms: C32_38  and  O8_40 
ROOT
HETATM    1  C6  UNL     1      -3.670   5.901  13.109  1.00  0.00     0.014 A 
HETATM    2  C7  UNL     1      -2.527   6.458  13.719  1.00  0.00     0.096 A 
HETATM    3  O1  UNL     1      -2.702   7.620  14.417  1.00  0.00    -0.333 OA
HETATM    4  C8  UNL     1      -1.571   8.322  14.952  1.00  0.00     0.126 C 
HETATM    5  C9  UNL     1      -0.467   7.358  15.415  1.00  0.00     0.129 C 
HETATM    6  C10 UNL     1      -0.162   6.319  14.371  1.00  0.00     0.174 C 
HETATM    7  O2  UNL     1       0.952   5.819  14.230  1.00  0.00    -0.292 OA
HETATM    8  C11 UNL     1      -1.297   5.819  13.584  1.00  0.00     0.078 A 
HETATM    9  C12 UNL     1      -1.163   4.683  12.771  1.00  0.00     0.095 A 
HETATM   10  C13 UNL     1      -2.276   4.153  12.107  1.00  0.00     0.032 A 
HETATM   11  C14 UNL     1      -3.527   4.757  12.289  1.00  0.00     0.092 A 
HETATM   12  O4  UNL     1      -4.672   4.283  11.707  1.00  0.00    -0.335 OA
HETATM   13  C15 UNL     1      -4.627   3.121  10.857  1.00  0.00     0.078 A 
HETATM   14  C16 UNL     1      -5.574   2.091  11.484  1.00  0.00     0.051 C 
HETATM   15  C17 UNL     1      -5.172   3.557   9.492  1.00  0.00     0.051 C 
HETATM   16  C18 UNL     1      -3.267   2.500  10.672  1.00  0.00     0.012 A 
HETATM   17  C19 UNL     1      -2.164   2.977  11.253  1.00  0.00     0.016 A 
HETATM   18  C20 UNL     1       0.773   8.124  15.898  1.00  0.00     0.144 C 
HETATM   19  C21 UNL     1       0.367   9.556  16.251  1.00  0.00     0.089 C 
HETATM   20  C22 UNL     1      -0.925   9.534  17.077  1.00  0.00     0.025 C 
HETATM   21  C23 UNL     1      -2.126   9.142  16.171  1.00  0.00     0.060 C 
HETATM   22  C24 UNL     1      -2.833  10.350  15.469  1.00  0.00     0.062 C 
HETATM   23  C25 UNL     1      -4.324  10.084  15.216  1.00  0.00     0.046 C 
HETATM   24  C26 UNL     1      -2.735  11.702  16.188  1.00  0.00     0.046 C 
HETATM   25  O6  UNL     1      -2.189  10.490  14.183  1.00  0.00    -0.358 OA
HETATM   26  C27 UNL     1      -1.087   9.550  14.121  1.00  0.00     0.158 C 
HETATM   27  C33 UNL     1       0.044  10.242  14.934  1.00  0.00     0.171 C 
HETATM   28  O9  UNL     1       0.573  11.308  14.620  1.00  0.00    -0.294 OA
ENDROOT
BRANCH  26  29
HETATM   29  C28 UNL     1      -0.605   9.355  12.675  1.00  0.00     0.077 C 
BRANCH  29  30
HETATM   30  C29 UNL     1       0.851   9.005  12.483  1.00  0.00    -0.010 C 
HETATM   31  C30 UNL     1       1.422   8.448  11.396  1.00  0.00     0.008 C 
HETATM   32  C31 UNL     1       2.891   8.174  11.295  1.00  0.00     0.055 C 
BRANCH  31  33
HETATM   33  C32 UNL     1       0.627   8.083  10.206  1.00  0.00     0.171 C 
HETATM   34  O7  UNL     1       0.385   8.791   9.246  1.00  0.00    -0.646 OA
BRANCH  33  35
HETATM   35  O8  UNL     1       0.193   6.815  10.282  1.00  0.00    -0.773 OA
HETATM   36  H38 UNL     1      -0.358   6.719   9.478  1.00  0.00     0.167 HD
ENDBRANCH  33  35
ENDBRANCH  31  33
ENDBRANCH  29  30
ENDBRANCH  26  29
BRANCH  18  37
HETATM   37  O5  UNL     1       1.810   8.188  14.929  1.00  0.00    -0.394 OA
HETATM   38  H21 UNL     1       2.089   7.270  14.716  1.00  0.00     0.210 HD
ENDBRANCH  18  37
BRANCH   1  39
HETATM   39  C5  UNL     1      -5.048   6.498  13.338  1.00  0.00     0.072 C 
BRANCH  39  40
HETATM   40  C4  UNL     1      -5.880   5.735  14.332  1.00  0.00    -0.020 C 
HETATM   41  C2  UNL     1      -6.782   6.215  15.210  1.00  0.00    -0.091 C 
HETATM   42  C1  UNL     1      -7.111   7.668  15.419  1.00  0.00     0.042 C 
HETATM   43  C3  UNL     1      -7.575   5.278  16.083  1.00  0.00     0.042 C 
ENDBRANCH  39  40
ENDBRANCH   1  39
BRANCH   9  44
HETATM   44  O3  UNL     1       0.047   4.047  12.613  1.00  0.00    -0.359 OA
HETATM   45  H11 UNL     1       0.733   4.529  13.125  1.00  0.00     0.217 HD
ENDBRANCH   9  44
TORSDOF 8
ENDMDL
MODEL 6
REMARK minimizedAffinity -7.7304678
REMARK CNNscore 0.273112416
REMARK CNNaffinity 6.78507948
REMARK  8 active torsions:
REMARK  status: ('A' for Active; 'I' for Inactive)
REMARK    1  A    between atoms: C4_4  and  C5_5 
REMARK    2  A    between atoms: C5_5  and  C6_6 
REMARK    3  A    between atoms: C12_14  and  O3_15 
REMARK    4  A    between atoms: C20_24  and  O5_25 
REMARK    5  A    between atoms: C27_33  and  C28_34 
REMARK    6  A    between atoms: C28_34  and  C29_35 
REMARK    7  A    between atoms: C30_36  and  C32_38 
REMARK    8  A    between atoms: C32_38  and  O8_40 
ROOT
HETATM    1  C6  UNL     1      -9.235   7.128  14.970  1.00  0.00     0.014 A 
HETATM    2  C7  UNL     1     -10.272   8.040  14.681  1.00  0.00     0.096 A 
HETATM    3  O1  UNL     1     -10.737   8.797  15.720  1.00  0.00    -0.333 OA
HETATM    4  C8  UNL     1     -11.879   9.648  15.542  1.00  0.00     0.126 C 
HETATM    5  C9  UNL     1     -11.929  10.248  14.128  1.00  0.00     0.129 C 
HETATM    6  C10 UNL     1     -11.721   9.198  13.071  1.00  0.00     0.174 C 
HETATM    7  O2  UNL     1     -12.228   9.266  11.952  1.00  0.00    -0.292 OA
HETATM    8  C11 UNL     1     -10.770   8.124  13.383  1.00  0.00     0.078 A 
HETATM    9  C12 UNL     1     -10.320   7.248  12.383  1.00  0.00     0.095 A 
HETATM   10  C13 UNL     1      -9.335   6.295  12.669  1.00  0.00     0.032 A 
HETATM   11  C14 UNL     1      -8.788   6.248  13.958  1.00  0.00     0.092 A 
HETATM   12  O4  UNL     1      -7.797   5.371  14.311  1.00  0.00    -0.335 OA
HETATM   13  C15 UNL     1      -7.276   4.437  13.347  1.00  0.00     0.078 A 
HETATM   14  C16 UNL     1      -5.772   4.718  13.245  1.00  0.00     0.051 C 
HETATM   15  C17 UNL     1      -7.499   3.037  13.931  1.00  0.00     0.051 C 
HETATM   16  C18 UNL     1      -7.891   4.505  11.974  1.00  0.00     0.012 A 
HETATM   17  C19 UNL     1      -8.853   5.371  11.649  1.00  0.00     0.016 A 
HETATM   18  C20 UNL     1     -13.203  11.081  13.923  1.00  0.00     0.144 C 
HETATM   19  C21 UNL     1     -13.762  11.480  15.290  1.00  0.00     0.089 C 
HETATM   20  C22 UNL     1     -12.621  11.981  16.184  1.00  0.00     0.025 C 
HETATM   21  C23 UNL     1     -11.722  10.786  16.612  1.00  0.00     0.060 C 
HETATM   22  C24 UNL     1     -12.173  10.073  17.931  1.00  0.00     0.062 C 
HETATM   23  C25 UNL     1     -10.990   9.458  18.693  1.00  0.00     0.046 C 
HETATM   24  C26 UNL     1     -12.953  10.933  18.933  1.00  0.00     0.046 C 
HETATM   25  O6  UNL     1     -13.037   8.991  17.516  1.00  0.00    -0.358 OA
HETATM   26  C27 UNL     1     -13.229   9.084  16.082  1.00  0.00     0.158 C 
HETATM   27  C33 UNL     1     -14.296  10.204  15.918  1.00  0.00     0.171 C 
HETATM   28  O9  UNL     1     -15.447  10.134  16.346  1.00  0.00    -0.294 OA
ENDROOT
BRANCH  26  29
HETATM   29  C28 UNL     1     -13.796   7.775  15.511  1.00  0.00     0.077 C 
BRANCH  29  30
HETATM   30  C29 UNL     1     -14.644   7.885  14.267  1.00  0.00    -0.010 C 
HETATM   31  C30 UNL     1     -15.508   6.971  13.783  1.00  0.00     0.008 C 
HETATM   32  C31 UNL     1     -16.332   7.197  12.552  1.00  0.00     0.055 C 
BRANCH  31  33
HETATM   33  C32 UNL     1     -15.719   5.673  14.456  1.00  0.00     0.171 C 
HETATM   34  O7  UNL     1     -16.754   5.267  14.949  1.00  0.00    -0.646 OA
BRANCH  33  35
HETATM   35  O8  UNL     1     -14.597   4.936  14.450  1.00  0.00    -0.773 OA
HETATM   36  H38 UNL     1     -14.849   4.143  14.967  1.00  0.00     0.167 HD
ENDBRANCH  33  35
ENDBRANCH  31  33
ENDBRANCH  29  30
ENDBRANCH  26  29
BRANCH  18  37
HETATM   37  O5  UNL     1     -14.223  10.388  13.217  1.00  0.00    -0.394 OA
HETATM   38  H21 UNL     1     -13.875  10.149  12.329  1.00  0.00     0.210 HD
ENDBRANCH  18  37
BRANCH   1  39
HETATM   39  C5  UNL     1      -8.581   7.097  16.340  1.00  0.00     0.072 C 
BRANCH  39  40
HETATM   40  C4  UNL     1      -7.108   6.797  16.301  1.00  0.00    -0.020 C 
HETATM   41  C2  UNL     1      -6.116   7.546  15.781  1.00  0.00    -0.091 C 
HETATM   42  C1  UNL     1      -6.294   8.855  15.062  1.00  0.00     0.042 C 
HETATM   43  C3  UNL     1      -4.680   7.106  15.901  1.00  0.00     0.042 C 
ENDBRANCH  39  40
ENDBRANCH   1  39
BRANCH   9  44
HETATM   44  O3  UNL     1     -10.811   7.306  11.099  1.00  0.00    -0.359 OA
HETATM   45  H11 UNL     1     -11.494   8.010  11.047  1.00  0.00     0.217 HD
ENDBRANCH   9  44
TORSDOF 8
ENDMDL
MODEL 7
REMARK minimizedAffinity -10.9569111
REMARK CNNscore 0.271595091
REMARK CNNaffinity 7.07233477
REMARK  8 active torsions:
REMARK  status: ('A' for Active; 'I' for Inactive)
REMARK    1  A    between atoms: C4_4  and  C5_5 
REMARK    2  A    between atoms: C5_5  and  C6_6 
REMARK    3  A    between atoms: C12_14  and  O3_15 
REMARK    4  A    between atoms: C20_24  and  O5_25 
REMARK    5  A    between atoms: C27_33  and  C28_34 
REMARK    6  A    between atoms: C28_34  and  C29_35 
REMARK    7  A    between atoms: C30_36  and  C32_38 
REMARK    8  A    between atoms: C32_38  and  O8_40 
ROOT
HETATM    1  C6  UNL     1      -4.130   6.381  14.125  1.00  0.00     0.014 A 
HETATM    2  C7  UNL     1      -2.721   6.435  14.067  1.00  0.00     0.096 A 
HETATM    3  O1  UNL     1      -2.118   7.502  14.671  1.00  0.00    -0.333 OA
HETATM    4  C8  UNL     1      -0.702   7.704  14.541  1.00  0.00     0.126 C 
HETATM    5  C9  UNL     1       0.062   6.372  14.489  1.00  0.00     0.129 C 
HETATM    6  C10 UNL     1      -0.558   5.413  13.509  1.00  0.00     0.174 C 
HETATM    7  O2  UNL     1       0.095   4.576  12.889  1.00  0.00    -0.292 OA
HETATM    8  C11 UNL     1      -2.022   5.428  13.406  1.00  0.00     0.078 A 
HETATM    9  C12 UNL     1      -2.705   4.413  12.718  1.00  0.00     0.095 A 
HETATM   10  C13 UNL     1      -4.105   4.379  12.714  1.00  0.00     0.032 A 
HETATM   11  C14 UNL     1      -4.811   5.357  13.429  1.00  0.00     0.092 A 
HETATM   12  O4  UNL     1      -6.177   5.376  13.506  1.00  0.00    -0.335 OA
HETATM   13  C15 UNL     1      -6.958   4.372  12.830  1.00  0.00     0.078 A 
HETATM   14  C16 UNL     1      -7.790   3.673  13.913  1.00  0.00     0.051 C 
HETATM   15  C17 UNL     1      -7.889   5.118  11.867  1.00  0.00     0.051 C 
HETATM   16  C18 UNL     1      -6.172   3.342  12.063  1.00  0.00     0.012 A 
HETATM   17  C19 UNL     1      -4.838   3.339  12.004  1.00  0.00     0.016 A 
HETATM   18  C20 UNL     1       1.563   6.602  14.256  1.00  0.00     0.144 C 
HETATM   19  C21 UNL     1       1.913   8.038  14.650  1.00  0.00     0.089 C 
HETATM   20  C22 UNL     1       1.257   8.375  15.995  1.00  0.00     0.025 C 
HETATM   21  C23 UNL     1      -0.279   8.527  15.810  1.00  0.00     0.060 C 
HETATM   22  C24 UNL     1      -0.751   9.975  15.445  1.00  0.00     0.062 C 
HETATM   23  C25 UNL     1      -2.166  10.273  15.961  1.00  0.00     0.046 C 
HETATM   24  C26 UNL     1       0.150  11.120  15.923  1.00  0.00     0.046 C 
HETATM   25  O6  UNL     1      -0.792  10.022  14.001  1.00  0.00    -0.358 OA
HETATM   26  C27 UNL     1      -0.270   8.770  13.489  1.00  0.00     0.158 C 
HETATM   27  C33 UNL     1       1.273   8.933  13.603  1.00  0.00     0.171 C 
HETATM   28  O9  UNL     1       1.929   9.776  12.993  1.00  0.00    -0.294 OA
ENDROOT
BRANCH  26  29
HETATM   29  C28 UNL     1      -0.637   8.580  12.009  1.00  0.00     0.077 C 
BRANCH  29  30
HETATM   30  C29 UNL     1       0.403   7.933  11.126  1.00  0.00    -0.010 C 
HETATM   31  C30 UNL     1       0.468   7.966   9.780  1.00  0.00     0.008 C 
HETATM   32  C31 UNL     1       1.570   7.317   9.000  1.00  0.00     0.055 C 
BRANCH  31  33
HETATM   33  C32 UNL     1      -0.546   8.675   8.974  1.00  0.00     0.171 C 
HETATM   34  O7  UNL     1      -1.316   9.534   9.361  1.00  0.00    -0.646 OA
BRANCH  33  35
HETATM   35  O8  UNL     1      -0.517   8.270   7.694  1.00  0.00    -0.773 OA
HETATM   36  H38 UNL     1      -1.260   8.762   7.288  1.00  0.00     0.167 HD
ENDBRANCH  33  35
ENDBRANCH  31  33
ENDBRANCH  29  30
ENDBRANCH  26  29
BRANCH  18  37
HETATM   37  O5  UNL     1       1.961   6.408  12.906  1.00  0.00    -0.394 OA
HETATM   38  H21 UNL     1       1.757   5.479  12.656  1.00  0.00     0.210 HD
ENDBRANCH  18  37
BRANCH   1  39
HETATM   39  C5  UNL     1      -4.917   7.390  14.942  1.00  0.00     0.072 C 
BRANCH  39  40
HETATM   40  C4  UNL     1      -6.352   7.529  14.513  1.00  0.00    -0.020 C 
HETATM   41  C2  UNL     1      -7.465   7.376  15.256  1.00  0.00    -0.091 C 
HETATM   42  C1  UNL     1      -7.500   6.969  16.704  1.00  0.00     0.042 C 
HETATM   43  C3  UNL     1      -8.825   7.628  14.660  1.00  0.00     0.042 C 
ENDBRANCH  39  40
ENDBRANCH   1  39
BRANCH   9  44
HETATM   44  O3  UNL     1      -2.033   3.418  12.047  1.00  0.00    -0.359 OA
HETATM   45  H11 UNL     1      -1.066   3.572  12.128  1.00  0.00     0.217 HD
ENDBRANCH   9  44
TORSDOF 8
ENDMDL
MODEL 8
REMARK minimizedAffinity -7.28932476
REMARK CNNscore 0.222576335
REMARK CNNaffinity 6.0017724
REMARK  8 active torsions:
REMARK  status: ('A' for Active; 'I' for Inactive)
REMARK    1  A    between atoms: C4_4  and  C5_5 
REMARK    2  A    between atoms: C5_5  and  C6_6 
REMARK    3  A    between atoms: C12_14  and  O3_15 
REMARK    4  A    between atoms: C20_24  and  O5_25 
REMARK    5  A    between atoms: C27_33  and  C28_34 
REMARK    6  A    between atoms: C28_34  and  C29_35 
REMARK    7  A    between atoms: C30_36  and  C32_38 
REMARK    8  A    between atoms: C32_38  and  O8_40 
ROOT
HETATM    1  C6  UNL     1     -13.076 -10.421  27.898  1.00  0.00     0.014 A 
HETATM    2  C7  UNL     1     -13.211 -11.027  26.632  1.00  0.00     0.096 A 
HETATM    3  O1  UNL     1     -12.801 -12.326  26.521  1.00  0.00    -0.333 OA
HETATM    4  C8  UNL     1     -12.779 -12.972  25.239  1.00  0.00     0.126 C 
HETATM    5  C9  UNL     1     -13.928 -12.495  24.339  1.00  0.00     0.129 C 
HETATM    6  C10 UNL     1     -14.031 -10.994  24.316  1.00  0.00     0.174 C 
HETATM    7  O2  UNL     1     -14.439 -10.366  23.341  1.00  0.00    -0.292 OA
HETATM    8  C11 UNL     1     -13.738 -10.292  25.572  1.00  0.00     0.078 A 
HETATM    9  C12 UNL     1     -14.046  -8.931  25.725  1.00  0.00     0.095 A 
HETATM   10  C13 UNL     1     -13.858  -8.298  26.959  1.00  0.00     0.032 A 
HETATM   11  C14 UNL     1     -13.386  -9.049  28.044  1.00  0.00     0.092 A 
HETATM   12  O4  UNL     1     -13.209  -8.517  29.293  1.00  0.00    -0.335 OA
HETATM   13  C15 UNL     1     -13.500  -7.128  29.539  1.00  0.00     0.078 A 
HETATM   14  C16 UNL     1     -14.563  -7.101  30.645  1.00  0.00     0.051 C 
HETATM   15  C17 UNL     1     -12.203  -6.495  30.056  1.00  0.00     0.051 C 
HETATM   16  C18 UNL     1     -13.996  -6.345  28.352  1.00  0.00     0.012 A 
HETATM   17  C19 UNL     1     -14.166  -6.885  27.143  1.00  0.00     0.016 A 
HETATM   18  C20 UNL     1     -13.836 -13.124  22.940  1.00  0.00     0.144 C 
HETATM   19  C21 UNL     1     -12.971 -14.383  23.017  1.00  0.00     0.089 C 
HETATM   20  C22 UNL     1     -13.384 -15.215  24.237  1.00  0.00     0.025 C 
HETATM   21  C23 UNL     1     -12.923 -14.506  25.542  1.00  0.00     0.060 C 
HETATM   22  C24 UNL     1     -11.482 -14.893  26.018  1.00  0.00     0.062 C 
HETATM   23  C25 UNL     1     -11.330 -14.802  27.543  1.00  0.00     0.046 C 
HETATM   24  C26 UNL     1     -10.981 -16.281  25.600  1.00  0.00     0.046 C 
HETATM   25  O6  UNL     1     -10.598 -13.912  25.431  1.00  0.00    -0.358 OA
HETATM   26  C27 UNL     1     -11.379 -13.059  24.556  1.00  0.00     0.158 C 
HETATM   27  C33 UNL     1     -11.549 -13.906  23.261  1.00  0.00     0.171 C 
HETATM   28  O9  UNL     1     -10.620 -14.264  22.540  1.00  0.00    -0.294 OA
ENDROOT
BRANCH  26  29
HETATM   29  C28 UNL     1     -10.615 -11.773  24.206  1.00  0.00     0.077 C 
BRANCH  29  30
HETATM   30  C29 UNL     1      -9.110 -11.824  24.316  1.00  0.00    -0.010 C 
HETATM   31  C30 UNL     1      -8.210 -11.255  23.489  1.00  0.00     0.008 C 
HETATM   32  C31 UNL     1      -6.731 -11.337  23.712  1.00  0.00     0.055 C 
BRANCH  31  33
HETATM   33  C32 UNL     1      -8.630 -10.484  22.302  1.00  0.00     0.171 C 
HETATM   34  O7  UNL     1      -9.521  -9.656  22.247  1.00  0.00    -0.646 OA
BRANCH  33  35
HETATM   35  O8  UNL     1      -7.874 -10.787  21.235  1.00  0.00    -0.773 OA
HETATM   36  H38 UNL     1      -8.284 -10.263  20.515  1.00  0.00     0.167 HD
ENDBRANCH  33  35
ENDBRANCH  31  33
ENDBRANCH  29  30
ENDBRANCH  26  29
BRANCH  18  37
HETATM   37  O5  UNL     1     -13.266 -12.258  21.968  1.00  0.00    -0.394 OA
HETATM   38  H21 UNL     1     -13.832 -11.457  21.900  1.00  0.00     0.210 HD
ENDBRANCH  18  37
BRANCH   1  39
HETATM   39  C5  UNL     1     -12.625 -11.225  29.105  1.00  0.00     0.072 C 
BRANCH  39  40
HETATM   40  C4  UNL     1     -13.739 -11.974  29.784  1.00  0.00    -0.020 C 
HETATM   41  C2  UNL     1     -13.649 -12.997  30.656  1.00  0.00    -0.091 C 
HETATM   42  C1  UNL     1     -12.372 -13.655  31.103  1.00  0.00     0.042 C 
HETATM   43  C3  UNL     1     -14.887 -13.576  31.289  1.00  0.00     0.042 C 
ENDBRANCH  39  40
ENDBRANCH   1  39
BRANCH   9  44
HETATM   44  O3  UNL     1     -14.552  -8.185  24.686  1.00  0.00    -0.359 OA
HETATM   45  H11 UNL     1     -14.622  -8.753  23.887  1.00  0.00     0.217 HD
ENDBRANCH   9  44
TORSDOF 8
ENDMDL
MODEL 9
REMARK minimizedAffinity -7.06921673
REMARK CNNscore 0.190165564
REMARK CNNaffinity 5.98522902
REMARK  8 active torsions:
REMARK  status: ('A' for Active; 'I' for Inactive)
REMARK    1  A    between atoms: C4_4  and  C5_5 
REMARK    2  A    between atoms: C5_5  and  C6_6 
REMARK    3  A    between atoms: C12_14  and  O3_15 
REMARK    4  A    between atoms: C20_24  and  O5_25 
REMARK    5  A    between atoms: C27_33  and  C28_34 
REMARK    6  A    between atoms: C28_34  and  C29_35 
REMARK    7  A    between atoms: C30_36  and  C32_38 
REMARK    8  A    between atoms: C32_38  and  O8_40 
ROOT
HETATM    1  C6  UNL     1      16.165  -4.627   6.029  1.00  0.00     0.014 A 
HETATM    2  C7  UNL     1      17.380  -4.405   6.710  1.00  0.00     0.096 A 
HETATM    3  O1  UNL     1      17.787  -5.375   7.582  1.00  0.00    -0.333 OA
HETATM    4  C8  UNL     1      18.939  -5.166   8.413  1.00  0.00     0.126 C 
HETATM    5  C9  UNL     1      20.016  -4.335   7.698  1.00  0.00     0.129 C 
HETATM    6  C10 UNL     1      19.434  -3.103   7.058  1.00  0.00     0.174 C 
HETATM    7  O2  UNL     1      20.068  -2.058   6.923  1.00  0.00    -0.292 OA
HETATM    8  C11 UNL     1      18.093  -3.231   6.475  1.00  0.00     0.078 A 
HETATM    9  C12 UNL     1      17.572  -2.228   5.644  1.00  0.00     0.095 A 
HETATM   10  C13 UNL     1      16.336  -2.407   5.009  1.00  0.00     0.032 A 
HETATM   11  C14 UNL     1      15.644  -3.611   5.195  1.00  0.00     0.092 A 
HETATM   12  O4  UNL     1      14.450  -3.882   4.584  1.00  0.00    -0.335 OA
HETATM   13  C15 UNL     1      13.841  -2.908   3.714  1.00  0.00     0.078 A 
HETATM   14  C16 UNL     1      13.683  -3.590   2.349  1.00  0.00     0.051 C 
HETATM   15  C17 UNL     1      12.458  -2.602   4.300  1.00  0.00     0.051 C 
HETATM   16  C18 UNL     1      14.603  -1.620   3.542  1.00  0.00     0.012 A 
HETATM   17  C19 UNL     1      15.770  -1.379   4.144  1.00  0.00     0.016 A 
HETATM   18  C20 UNL     1      21.200  -4.040   8.631  1.00  0.00     0.144 C 
HETATM   19  C21 UNL     1      21.197  -5.056   9.775  1.00  0.00     0.089 C 
HETATM   20  C22 UNL     1      20.960  -6.462   9.211  1.00  0.00     0.025 C 
HETATM   21  C23 UNL     1      19.485  -6.601   8.740  1.00  0.00     0.060 C 
HETATM   22  C24 UNL     1      18.492  -7.096   9.846  1.00  0.00     0.062 C 
HETATM   23  C25 UNL     1      17.314  -7.887   9.258  1.00  0.00     0.046 C 
HETATM   24  C26 UNL     1      19.097  -7.956  10.962  1.00  0.00     0.046 C 
HETATM   25  O6  UNL     1      17.956  -5.899  10.455  1.00  0.00    -0.358 OA
HETATM   26  C27 UNL     1      18.638  -4.753   9.886  1.00  0.00     0.158 C 
HETATM   27  C33 UNL     1      19.998  -4.713  10.642  1.00  0.00     0.171 C 
HETATM   28  O9  UNL     1      20.114  -4.531  11.853  1.00  0.00    -0.294 OA
ENDROOT
BRANCH  26  29
HETATM   29  C28 UNL     1      17.874  -3.452  10.178  1.00  0.00     0.077 C 
BRANCH  29  30
HETATM   30  C29 UNL     1      18.704  -2.229  10.489  1.00  0.00    -0.010 C 
HETATM   31  C30 UNL     1      18.382  -0.942  10.254  1.00  0.00     0.008 C 
HETATM   32  C31 UNL     1      19.267   0.204  10.638  1.00  0.00     0.055 C 
BRANCH  31  33
HETATM   33  C32 UNL     1      17.105  -0.568   9.613  1.00  0.00     0.171 C 
HETATM   34  O7  UNL     1      16.565  -1.132   8.680  1.00  0.00    -0.646 OA
BRANCH  33  35
HETATM   35  O8  UNL     1      16.558   0.503  10.210  1.00  0.00    -0.773 OA
HETATM   36  H38 UNL     1      15.764   0.680   9.665  1.00  0.00     0.167 HD
ENDBRANCH  33  35
ENDBRANCH  31  33
ENDBRANCH  29  30
ENDBRANCH  26  29
BRANCH  18  37
HETATM   37  O5  UNL     1      21.161  -2.738   9.199  1.00  0.00    -0.394 OA
HETATM   38  H21 UNL     1      21.186  -2.083   8.467  1.00  0.00     0.210 HD
ENDBRANCH  18  37
BRANCH   1  39
HETATM   39  C5  UNL     1      15.425  -5.946   6.163  1.00  0.00     0.072 C 
BRANCH  39  40
HETATM   40  C4  UNL     1      14.517  -6.013   7.361  1.00  0.00    -0.020 C 
HETATM   41  C2  UNL     1      13.170  -6.017   7.389  1.00  0.00    -0.091 C 
HETATM   42  C1  UNL     1      12.270  -5.898   6.190  1.00  0.00     0.042 C 
HETATM   43  C3  UNL     1      12.432  -6.160   8.694  1.00  0.00     0.042 C 
ENDBRANCH  39  40
ENDBRANCH   1  39
BRANCH   9  44
HETATM   44  O3  UNL     1      18.254  -1.056   5.412  1.00  0.00    -0.359 OA
HETATM   45  H11 UNL     1      19.093  -1.066   5.923  1.00  0.00     0.217 HD
ENDBRANCH   9  44
TORSDOF 8
ENDMDL
