MODEL 1
REMARK minimizedAffinity -7.62232685
REMARK CNNscore 0.729257345
REMARK CNNaffinity 7.06823587
REMARK  4 active torsions:
REMARK  status: ('A' for Active; 'I' for Inactive)
REMARK    1  A    between atoms: C4_4  and  C5_5 
REMARK    2  A    between atoms: C5_5  and  C6_7 
REMARK    3  A    between atoms: C6_7  and  C7_8 
REMARK    4  A    between atoms: C7_8  and  C9_10 
ROOT
HETATM    1  C9  UNL     1       2.496  53.394 -10.992  1.00  0.00    -0.002 C 
HETATM    2  C10 UNL     1       1.170  54.206 -11.109  1.00  0.00     0.006 C 
HETATM    3  C11 UNL     1       1.259  55.382 -10.114  1.00  0.00     0.011 C 
HETATM    4  C12 UNL     1       2.738  55.432  -9.696  1.00  0.00    -0.032 C 
HETATM    5  C13 UNL     1       3.471  56.195 -10.859  1.00  0.00     0.016 C 
HETATM    6  C14 UNL     1       3.116  56.184  -8.376  1.00  0.00     0.004 C 
HETATM    7  C15 UNL     1       1.958  56.510  -7.427  1.00  0.00     0.007 C 
HETATM    8  C16 UNL     1       2.391  57.283  -6.164  1.00  0.00     0.007 C 
HETATM    9  C17 UNL     1       3.910  57.560  -6.042  1.00  0.00     0.010 C 
HETATM   10  C18 UNL     1       4.341  58.150  -4.661  1.00  0.00     0.018 C 
HETATM   11  C19 UNL     1       4.125  57.177  -3.490  1.00  0.00     0.023 C 
HETATM   12  C20 UNL     1       3.582  59.459  -4.369  1.00  0.00     0.023 C 
HETATM   13  C21 UNL     1       5.841  58.484  -4.709  1.00  0.00     0.135 C 
HETATM   14  O2  UNL     1       6.383  59.175  -3.843  1.00  0.00    -0.297 OA
HETATM   15  C22 UNL     1       6.645  57.959  -5.875  1.00  0.00     0.080 C 
HETATM   16  C23 UNL     1       6.267  56.516  -6.157  1.00  0.00     0.018 C 
HETATM   17  C24 UNL     1       4.779  56.345  -6.427  1.00  0.00    -0.026 A 
HETATM   18  C25 UNL     1       4.208  54.963  -6.223  1.00  0.00     0.021 A 
HETATM   19  C26 UNL     1       4.300  55.518  -7.638  1.00  0.00    -0.027 A 
HETATM   20  C27 UNL     1       5.274  54.791  -8.550  1.00  0.00     0.011 C 
HETATM   21  C28 UNL     1       4.611  53.732  -9.457  1.00  0.00     0.011 C 
HETATM   22  C29 UNL     1       3.086  53.899  -9.633  1.00  0.00    -0.032 C 
HETATM   23  C30 UNL     1       2.363  53.139  -8.481  1.00  0.00     0.016 C 
ENDROOT
BRANCH   1  24
HETATM   24  C7  UNL     1       2.280  51.872 -11.227  1.00  0.00    -0.007 C 
HETATM   25  C8  UNL     1       3.593  51.083 -11.236  1.00  0.00     0.011 C 
BRANCH  24  26
HETATM   26  C6  UNL     1       1.477  51.567 -12.514  1.00  0.00     0.087 C 
BRANCH  26  27
HETATM   27  C5  UNL     1       2.224  50.720 -13.531  1.00  0.00     0.149 C 
HETATM   28  O1  UNL     1       1.994  49.521 -13.669  1.00  0.00    -0.293 OA
BRANCH  27  29
HETATM   29  C4  UNL     1       3.266  51.410 -14.347  1.00  0.00     0.052 C 
HETATM   30  C2  UNL     1       3.033  52.068 -15.498  1.00  0.00    -0.084 C 
HETATM   31  C1  UNL     1       1.679  52.265 -16.125  1.00  0.00     0.043 C 
HETATM   32  C3  UNL     1       4.169  52.691 -16.264  1.00  0.00     0.043 C 
ENDBRANCH  27  29
ENDBRANCH  26  27
ENDBRANCH  24  26
ENDBRANCH   1  24
TORSDOF 4
ENDMDL
MODEL 2
REMARK minimizedAffinity -7.44192934
REMARK CNNscore 0.660666227
REMARK CNNaffinity 6.71284819
REMARK  4 active torsions:
REMARK  status: ('A' for Active; 'I' for Inactive)
REMARK    1  A    between atoms: C4_4  and  C5_5 
REMARK    2  A    between atoms: C5_5  and  C6_7 
REMARK    3  A    between atoms: C6_7  and  C7_8 
REMARK    4  A    between atoms: C7_8  and  C9_10 
ROOT
HETATM    1  C9  UNL     1       4.616  54.827  -8.431  1.00  0.00    -0.002 C 
HETATM    2  C10 UNL     1       4.128  56.305  -8.505  1.00  0.00     0.006 C 
HETATM    3  C11 UNL     1       2.601  56.279  -8.727  1.00  0.00     0.011 C 
HETATM    4  C12 UNL     1       2.188  54.825  -8.442  1.00  0.00    -0.032 C 
HETATM    5  C13 UNL     1       2.089  54.724  -6.875  1.00  0.00     0.016 C 
HETATM    6  C14 UNL     1       0.817  54.314  -8.998  1.00  0.00     0.004 C 
HETATM    7  C15 UNL     1       0.156  55.185 -10.072  1.00  0.00     0.007 C 
HETATM    8  C16 UNL     1      -1.208  54.648 -10.552  1.00  0.00     0.007 C 
HETATM    9  C17 UNL     1      -1.659  53.312  -9.912  1.00  0.00     0.010 C 
HETATM   10  C18 UNL     1      -2.932  52.687 -10.569  1.00  0.00     0.018 C 
HETATM   11  C19 UNL     1      -2.712  52.254 -12.027  1.00  0.00     0.023 C 
HETATM   12  C20 UNL     1      -4.111  53.676 -10.514  1.00  0.00     0.023 C 
HETATM   13  C21 UNL     1      -3.339  51.435  -9.774  1.00  0.00     0.135 C 
HETATM   14  O2  UNL     1      -4.434  50.891  -9.932  1.00  0.00    -0.297 OA
HETATM   15  C22 UNL     1      -2.359  50.892  -8.761  1.00  0.00     0.080 C 
HETATM   16  C23 UNL     1      -0.957  50.895  -9.342  1.00  0.00     0.018 C 
HETATM   17  C24 UNL     1      -0.520  52.277  -9.805  1.00  0.00    -0.026 A 
HETATM   18  C25 UNL     1       0.593  52.330 -10.823  1.00  0.00     0.021 A 
HETATM   19  C26 UNL     1       0.867  52.825  -9.410  1.00  0.00    -0.027 A 
HETATM   20  C27 UNL     1       1.865  51.993  -8.621  1.00  0.00     0.011 C 
HETATM   21  C28 UNL     1       3.304  52.551  -8.647  1.00  0.00     0.011 C 
HETATM   22  C29 UNL     1       3.410  54.040  -9.046  1.00  0.00    -0.032 C 
HETATM   23  C30 UNL     1       3.512  54.136 -10.598  1.00  0.00     0.016 C 
ENDROOT
BRANCH   1  24
HETATM   24  C7  UNL     1       6.043  54.645  -9.021  1.00  0.00    -0.007 C 
HETATM   25  C8  UNL     1       6.458  53.174  -9.122  1.00  0.00     0.011 C 
BRANCH  24  26
HETATM   26  C6  UNL     1       7.122  55.441  -8.249  1.00  0.00     0.087 C 
BRANCH  26  27
HETATM   27  C5  UNL     1       7.008  55.343  -6.737  1.00  0.00     0.149 C 
HETATM   28  O1  UNL     1       7.119  54.271  -6.147  1.00  0.00    -0.293 OA
BRANCH  27  29
HETATM   29  C4  UNL     1       6.738  56.612  -5.997  1.00  0.00     0.052 C 
HETATM   30  C2  UNL     1       7.660  57.315  -5.312  1.00  0.00    -0.084 C 
HETATM   31  C1  UNL     1       9.122  56.971  -5.222  1.00  0.00     0.043 C 
HETATM   32  C3  UNL     1       7.267  58.561  -4.564  1.00  0.00     0.043 C 
ENDBRANCH  27  29
ENDBRANCH  26  27
ENDBRANCH  24  26
ENDBRANCH   1  24
TORSDOF 4
ENDMDL
MODEL 3
REMARK minimizedAffinity -7.53671598
REMARK CNNscore 0.659784198
REMARK CNNaffinity 6.96362495
REMARK  4 active torsions:
REMARK  status: ('A' for Active; 'I' for Inactive)
REMARK    1  A    between atoms: C4_4  and  C5_5 
REMARK    2  A    between atoms: C5_5  and  C6_7 
REMARK    3  A    between atoms: C6_7  and  C7_8 
REMARK    4  A    between atoms: C7_8  and  C9_10 
ROOT
HETATM    1  C9  UNL     1      -0.781  52.897 -11.433  1.00  0.00    -0.002 C 
HETATM    2  C10 UNL     1      -2.055  52.573 -10.595  1.00  0.00     0.006 C 
HETATM    3  C11 UNL     1      -1.951  53.361  -9.271  1.00  0.00     0.011 C 
HETATM    4  C12 UNL     1      -0.815  54.371  -9.504  1.00  0.00    -0.032 C 
HETATM    5  C13 UNL     1      -1.473  55.555 -10.303  1.00  0.00     0.016 C 
HETATM    6  C14 UNL     1      -0.124  55.019  -8.257  1.00  0.00     0.004 C 
HETATM    7  C15 UNL     1      -0.391  54.342  -6.908  1.00  0.00     0.007 C 
HETATM    8  C16 UNL     1       0.287  55.048  -5.717  1.00  0.00     0.007 C 
HETATM    9  C17 UNL     1       1.151  56.283  -6.078  1.00  0.00     0.010 C 
HETATM   10  C18 UNL     1       1.991  56.844  -4.887  1.00  0.00     0.018 C 
HETATM   11  C19 UNL     1       3.069  55.867  -4.390  1.00  0.00     0.023 C 
HETATM   12  C20 UNL     1       1.075  57.220  -3.707  1.00  0.00     0.023 C 
HETATM   13  C21 UNL     1       2.708  58.125  -5.344  1.00  0.00     0.135 C 
HETATM   14  O2  UNL     1       3.243  58.894  -4.542  1.00  0.00    -0.297 OA
HETATM   15  C22 UNL     1       2.720  58.439  -6.821  1.00  0.00     0.080 C 
HETATM   16  C23 UNL     1       3.018  57.181  -7.617  1.00  0.00     0.018 C 
HETATM   17  C24 UNL     1       2.029  56.061  -7.327  1.00  0.00    -0.026 A 
HETATM   18  C25 UNL     1       2.485  54.657  -7.642  1.00  0.00     0.021 A 
HETATM   19  C26 UNL     1       1.382  55.277  -8.488  1.00  0.00    -0.027 A 
HETATM   20  C27 UNL     1       1.756  55.537  -9.938  1.00  0.00     0.011 C 
HETATM   21  C28 UNL     1       1.301  54.426 -10.909  1.00  0.00     0.011 C 
HETATM   22  C29 UNL     1       0.183  53.510 -10.363  1.00  0.00    -0.032 C 
HETATM   23  C30 UNL     1       0.838  52.337  -9.575  1.00  0.00     0.016 C 
ENDROOT
BRANCH   1  24
HETATM   24  C7  UNL     1      -0.318  51.689 -12.295  1.00  0.00    -0.007 C 
HETATM   25  C8  UNL     1       0.778  50.862 -11.613  1.00  0.00     0.011 C 
BRANCH  24  26
HETATM   26  C6  UNL     1       0.142  52.100 -13.713  1.00  0.00     0.087 C 
BRANCH  26  27
HETATM   27  C5  UNL     1       1.007  51.066 -14.414  1.00  0.00     0.149 C 
HETATM   28  O1  UNL     1       0.576  49.953 -14.709  1.00  0.00    -0.293 OA
BRANCH  27  29
HETATM   29  C4  UNL     1       2.416  51.457 -14.715  1.00  0.00     0.052 C 
HETATM   30  C2  UNL     1       2.820  52.074 -15.842  1.00  0.00    -0.084 C 
HETATM   31  C1  UNL     1       1.915  52.519 -16.959  1.00  0.00     0.043 C 
HETATM   32  C3  UNL     1       4.277  52.383 -16.061  1.00  0.00     0.043 C 
ENDBRANCH  27  29
ENDBRANCH  26  27
ENDBRANCH  24  26
ENDBRANCH   1  24
TORSDOF 4
ENDMDL
MODEL 4
REMARK minimizedAffinity -7.03827381
REMARK CNNscore 0.646953821
REMARK CNNaffinity 6.68810081
REMARK  4 active torsions:
REMARK  status: ('A' for Active; 'I' for Inactive)
REMARK    1  A    between atoms: C4_4  and  C5_5 
REMARK    2  A    between atoms: C5_5  and  C6_7 
REMARK    3  A    between atoms: C6_7  and  C7_8 
REMARK    4  A    between atoms: C7_8  and  C9_10 
ROOT
HETATM    1  C9  UNL     1       5.955  55.769  -7.745  1.00  0.00    -0.002 C 
HETATM    2  C10 UNL     1       6.583  54.512  -8.419  1.00  0.00     0.006 C 
HETATM    3  C11 UNL     1       5.445  53.749  -9.129  1.00  0.00     0.011 C 
HETATM    4  C12 UNL     1       4.263  54.733  -9.145  1.00  0.00    -0.032 C 
HETATM    5  C13 UNL     1       4.544  55.695 -10.357  1.00  0.00     0.016 C 
HETATM    6  C14 UNL     1       2.821  54.165  -9.365  1.00  0.00     0.004 C 
HETATM    7  C15 UNL     1       2.658  52.650  -9.199  1.00  0.00     0.007 C 
HETATM    8  C16 UNL     1       1.223  52.150  -9.465  1.00  0.00     0.007 C 
HETATM    9  C17 UNL     1       0.187  53.250  -9.807  1.00  0.00     0.010 C 
HETATM   10  C18 UNL     1      -1.289  52.741  -9.860  1.00  0.00     0.018 C 
HETATM   11  C19 UNL     1      -1.814  52.258  -8.498  1.00  0.00     0.023 C 
HETATM   12  C20 UNL     1      -1.434  51.600 -10.884  1.00  0.00     0.023 C 
HETATM   13  C21 UNL     1      -2.197  53.895 -10.318  1.00  0.00     0.135 C 
HETATM   14  O2  UNL     1      -3.364  53.706 -10.670  1.00  0.00    -0.297 OA
HETATM   15  C22 UNL     1      -1.609  55.285 -10.353  1.00  0.00     0.080 C 
HETATM   16  C23 UNL     1      -0.787  55.532  -9.100  1.00  0.00     0.018 C 
HETATM   17  C24 UNL     1       0.317  54.501  -8.914  1.00  0.00    -0.026 A 
HETATM   18  C25 UNL     1       0.854  54.330  -7.515  1.00  0.00     0.021 A 
HETATM   19  C26 UNL     1       1.752  54.953  -8.574  1.00  0.00    -0.027 A 
HETATM   20  C27 UNL     1       2.099  56.415  -8.341  1.00  0.00     0.011 C 
HETATM   21  C28 UNL     1       3.465  56.631  -7.655  1.00  0.00     0.011 C 
HETATM   22  C29 UNL     1       4.427  55.425  -7.741  1.00  0.00    -0.032 C 
HETATM   23  C30 UNL     1       4.149  54.476  -6.538  1.00  0.00     0.016 C 
ENDROOT
BRANCH   1  24
HETATM   24  C7  UNL     1       6.669  56.147  -6.416  1.00  0.00    -0.007 C 
HETATM   25  C8  UNL     1       6.517  57.630  -6.065  1.00  0.00     0.011 C 
BRANCH  24  26
HETATM   26  C6  UNL     1       8.165  55.756  -6.402  1.00  0.00     0.087 C 
BRANCH  26  27
HETATM   27  C5  UNL     1       8.774  55.662  -5.013  1.00  0.00     0.149 C 
HETATM   28  O1  UNL     1       8.092  55.407  -4.023  1.00  0.00    -0.293 OA
BRANCH  27  29
HETATM   29  C4  UNL     1      10.242  55.910  -4.902  1.00  0.00     0.052 C 
HETATM   30  C2  UNL     1      11.156  54.984  -4.553  1.00  0.00    -0.084 C 
HETATM   31  C1  UNL     1      10.859  53.536  -4.272  1.00  0.00     0.043 C 
HETATM   32  C3  UNL     1      12.609  55.357  -4.429  1.00  0.00     0.043 C 
ENDBRANCH  27  29
ENDBRANCH  26  27
ENDBRANCH  24  26
ENDBRANCH   1  24
TORSDOF 4
ENDMDL
MODEL 5
REMARK minimizedAffinity -7.82443523
REMARK CNNscore 0.566121399
REMARK CNNaffinity 6.5791111
REMARK  4 active torsions:
REMARK  status: ('A' for Active; 'I' for Inactive)
REMARK    1  A    between atoms: C4_4  and  C5_5 
REMARK    2  A    between atoms: C5_5  and  C6_7 
REMARK    3  A    between atoms: C6_7  and  C7_8 
REMARK    4  A    between atoms: C7_8  and  C9_10 
ROOT
HETATM    1  C9  UNL     1       6.304  55.464  -8.215  1.00  0.00    -0.002 C 
HETATM    2  C10 UNL     1       6.807  54.200  -8.976  1.00  0.00     0.006 C 
HETATM    3  C11 UNL     1       5.574  53.520  -9.608  1.00  0.00     0.011 C 
HETATM    4  C12 UNL     1       4.449  54.563  -9.495  1.00  0.00    -0.032 C 
HETATM    5  C13 UNL     1       4.679  55.549 -10.698  1.00  0.00     0.016 C 
HETATM    6  C14 UNL     1       2.966  54.077  -9.608  1.00  0.00     0.004 C 
HETATM    7  C15 UNL     1       2.736  52.567  -9.473  1.00  0.00     0.007 C 
HETATM    8  C16 UNL     1       1.259  52.149  -9.630  1.00  0.00     0.007 C 
HETATM    9  C17 UNL     1       0.259  53.311  -9.852  1.00  0.00     0.010 C 
HETATM   10  C18 UNL     1      -1.242  52.880  -9.793  1.00  0.00     0.018 C 
HETATM   11  C19 UNL     1      -1.676  52.379  -8.406  1.00  0.00     0.023 C 
HETATM   12  C20 UNL     1      -1.532  51.783 -10.834  1.00  0.00     0.023 C 
HETATM   13  C21 UNL     1      -2.121  54.093 -10.140  1.00  0.00     0.135 C 
HETATM   14  O2  UNL     1      -3.322  53.975 -10.396  1.00  0.00    -0.297 OA
HETATM   15  C22 UNL     1      -1.465  55.452 -10.184  1.00  0.00     0.080 C 
HETATM   16  C23 UNL     1      -0.530  55.615  -8.999  1.00  0.00     0.018 C 
HETATM   17  C24 UNL     1       0.529  54.524  -8.937  1.00  0.00    -0.026 A 
HETATM   18  C25 UNL     1       1.171  54.279  -7.594  1.00  0.00     0.021 A 
HETATM   19  C26 UNL     1       2.010  54.891  -8.707  1.00  0.00    -0.027 A 
HETATM   20  C27 UNL     1       2.453  56.325  -8.462  1.00  0.00     0.011 C 
HETATM   21  C28 UNL     1       3.881  56.448  -7.890  1.00  0.00     0.011 C 
HETATM   22  C29 UNL     1       4.766  55.199  -8.092  1.00  0.00    -0.032 C 
HETATM   23  C30 UNL     1       4.539  54.225  -6.897  1.00  0.00     0.016 C 
ENDROOT
BRANCH   1  24
HETATM   24  C7  UNL     1       7.146  55.761  -6.941  1.00  0.00    -0.007 C 
HETATM   25  C8  UNL     1       7.277  54.542  -6.022  1.00  0.00     0.011 C 
BRANCH  24  26
HETATM   26  C6  UNL     1       6.615  56.970  -6.135  1.00  0.00     0.087 C 
BRANCH  26  27
HETATM   27  C5  UNL     1       7.658  57.641  -5.256  1.00  0.00     0.149 C 
HETATM   28  O1  UNL     1       8.797  57.195  -5.147  1.00  0.00    -0.293 OA
BRANCH  27  29
HETATM   29  C4  UNL     1       7.228  58.864  -4.516  1.00  0.00     0.052 C 
HETATM   30  C2  UNL     1       7.872  60.047  -4.542  1.00  0.00    -0.084 C 
HETATM   31  C1  UNL     1       9.097  60.349  -5.363  1.00  0.00     0.043 C 
HETATM   32  C3  UNL     1       7.374  61.205  -3.720  1.00  0.00     0.043 C 
ENDBRANCH  27  29
ENDBRANCH  26  27
ENDBRANCH  24  26
ENDBRANCH   1  24
TORSDOF 4
ENDMDL
MODEL 6
REMARK minimizedAffinity -7.76456499
REMARK CNNscore 0.542700887
REMARK CNNaffinity 5.82421684
REMARK  4 active torsions:
REMARK  status: ('A' for Active; 'I' for Inactive)
REMARK    1  A    between atoms: C4_4  and  C5_5 
REMARK    2  A    between atoms: C5_5  and  C6_7 
REMARK    3  A    between atoms: C6_7  and  C7_8 
REMARK    4  A    between atoms: C7_8  and  C9_10 
ROOT
HETATM    1  C9  UNL     1       6.861  67.306 -36.406  1.00  0.00    -0.002 C 
HETATM    2  C10 UNL     1       7.642  67.680 -37.702  1.00  0.00     0.006 C 
HETATM    3  C11 UNL     1       6.609  68.159 -38.743  1.00  0.00     0.011 C 
HETATM    4  C12 UNL     1       5.315  68.377 -37.940  1.00  0.00    -0.032 C 
HETATM    5  C13 UNL     1       5.480  69.789 -37.267  1.00  0.00     0.016 C 
HETATM    6  C14 UNL     1       3.955  68.421 -38.714  1.00  0.00     0.004 C 
HETATM    7  C15 UNL     1       3.978  67.898 -40.154  1.00  0.00     0.007 C 
HETATM    8  C16 UNL     1       2.617  68.001 -40.872  1.00  0.00     0.007 C 
HETATM    9  C17 UNL     1       1.455  68.567 -40.019  1.00  0.00     0.010 C 
HETATM   10  C18 UNL     1       0.053  68.460 -40.699  1.00  0.00     0.018 C 
HETATM   11  C19 UNL     1      -0.413  67.010 -40.905  1.00  0.00     0.023 C 
HETATM   12  C20 UNL     1       0.054  69.182 -42.059  1.00  0.00     0.023 C 
HETATM   13  C21 UNL     1      -0.988  69.155 -39.805  1.00  0.00     0.135 C 
HETATM   14  O2  UNL     1      -2.121  69.422 -40.212  1.00  0.00    -0.297 OA
HETATM   15  C22 UNL     1      -0.575  69.532 -38.402  1.00  0.00     0.080 C 
HETATM   16  C23 UNL     1       0.205  68.394 -37.768  1.00  0.00     0.018 C 
HETATM   17  C24 UNL     1       1.427  67.998 -38.584  1.00  0.00    -0.026 A 
HETATM   18  C25 UNL     1       1.976  66.612 -38.353  1.00  0.00     0.021 A 
HETATM   19  C26 UNL     1       2.794  67.811 -37.895  1.00  0.00    -0.027 A 
HETATM   20  C27 UNL     1       2.958  67.939 -36.389  1.00  0.00     0.011 C 
HETATM   21  C28 UNL     1       4.284  67.359 -35.854  1.00  0.00     0.011 C 
HETATM   22  C29 UNL     1       5.388  67.182 -36.920  1.00  0.00    -0.032 C 
HETATM   23  C30 UNL     1       5.223  65.782 -37.583  1.00  0.00     0.016 C 
ENDROOT
BRANCH   1  24
HETATM   24  C7  UNL     1       7.518  66.122 -35.640  1.00  0.00    -0.007 C 
HETATM   25  C8  UNL     1       7.859  64.942 -36.556  1.00  0.00     0.011 C 
BRANCH  24  26
HETATM   26  C6  UNL     1       6.668  65.629 -34.445  1.00  0.00     0.087 C 
BRANCH  26  27
HETATM   27  C5  UNL     1       7.034  64.241 -33.949  1.00  0.00     0.149 C 
HETATM   28  O1  UNL     1       8.165  63.972 -33.551  1.00  0.00    -0.293 OA
BRANCH  27  29
HETATM   29  C4  UNL     1       5.956  63.208 -33.981  1.00  0.00     0.052 C 
HETATM   30  C2  UNL     1       4.816  63.261 -33.267  1.00  0.00    -0.084 C 
HETATM   31  C1  UNL     1       4.413  64.392 -32.360  1.00  0.00     0.043 C 
HETATM   32  C3  UNL     1       3.815  62.139 -33.344  1.00  0.00     0.043 C 
ENDBRANCH  27  29
ENDBRANCH  26  27
ENDBRANCH  24  26
ENDBRANCH   1  24
TORSDOF 4
ENDMDL
MODEL 7
REMARK minimizedAffinity -7.22969437
REMARK CNNscore 0.469720334
REMARK CNNaffinity 5.44251013
REMARK  4 active torsions:
REMARK  status: ('A' for Active; 'I' for Inactive)
REMARK    1  A    between atoms: C4_4  and  C5_5 
REMARK    2  A    between atoms: C5_5  and  C6_7 
REMARK    3  A    between atoms: C6_7  and  C7_8 
REMARK    4  A    between atoms: C7_8  and  C9_10 
ROOT
HETATM    1  C9  UNL     1       4.980  67.717 -35.593  1.00  0.00    -0.002 C 
HETATM    2  C10 UNL     1       5.388  69.207 -35.386  1.00  0.00     0.006 C 
HETATM    3  C11 UNL     1       4.611  70.048 -36.420  1.00  0.00     0.011 C 
HETATM    4  C12 UNL     1       3.532  69.098 -36.967  1.00  0.00    -0.032 C 
HETATM    5  C13 UNL     1       2.381  69.120 -35.895  1.00  0.00     0.016 C 
HETATM    6  C14 UNL     1       2.857  69.444 -38.337  1.00  0.00     0.004 C 
HETATM    7  C15 UNL     1       3.563  70.503 -39.190  1.00  0.00     0.007 C 
HETATM    8  C16 UNL     1       2.831  70.823 -40.510  1.00  0.00     0.007 C 
HETATM    9  C17 UNL     1       1.543  70.004 -40.772  1.00  0.00     0.010 C 
HETATM   10  C18 UNL     1       0.945  70.196 -42.202  1.00  0.00     0.018 C 
HETATM   11  C19 UNL     1       1.861  69.670 -43.319  1.00  0.00     0.023 C 
HETATM   12  C20 UNL     1       0.638  71.682 -42.467  1.00  0.00     0.023 C 
HETATM   13  C21 UNL     1      -0.382  69.424 -42.295  1.00  0.00     0.135 C 
HETATM   14  O2  UNL     1      -1.173  69.597 -43.225  1.00  0.00    -0.297 OA
HETATM   15  C22 UNL     1      -0.712  68.452 -41.188  1.00  0.00     0.080 C 
HETATM   16  C23 UNL     1       0.518  67.636 -40.830  1.00  0.00     0.018 C 
HETATM   17  C24 UNL     1       1.698  68.508 -40.427  1.00  0.00    -0.026 A 
HETATM   18  C25 UNL     1       3.068  67.886 -40.538  1.00  0.00     0.021 A 
HETATM   19  C26 UNL     1       2.507  68.180 -39.154  1.00  0.00    -0.027 A 
HETATM   20  C27 UNL     1       2.209  66.952 -38.309  1.00  0.00     0.011 C 
HETATM   21  C28 UNL     1       3.335  66.589 -37.316  1.00  0.00     0.011 C 
HETATM   22  C29 UNL     1       4.322  67.738 -37.013  1.00  0.00    -0.032 C 
HETATM   23  C30 UNL     1       5.462  67.712 -38.074  1.00  0.00     0.016 C 
ENDROOT
BRANCH   1  24
HETATM   24  C7  UNL     1       6.149  66.736 -35.293  1.00  0.00    -0.007 C 
HETATM   25  C8  UNL     1       7.326  66.907 -36.259  1.00  0.00     0.011 C 
BRANCH  24  26
HETATM   26  C6  UNL     1       5.703  65.255 -35.267  1.00  0.00     0.087 C 
BRANCH  26  27
HETATM   27  C5  UNL     1       6.000  64.535 -33.963  1.00  0.00     0.149 C 
HETATM   28  O1  UNL     1       6.921  63.728 -33.863  1.00  0.00    -0.293 OA
BRANCH  27  29
HETATM   29  C4  UNL     1       5.108  64.842 -32.805  1.00  0.00     0.052 C 
HETATM   30  C2  UNL     1       4.193  63.997 -32.293  1.00  0.00    -0.084 C 
HETATM   31  C1  UNL     1       3.955  62.588 -32.763  1.00  0.00     0.043 C 
HETATM   32  C3  UNL     1       3.314  64.428 -31.149  1.00  0.00     0.043 C 
ENDBRANCH  27  29
ENDBRANCH  26  27
ENDBRANCH  24  26
ENDBRANCH   1  24
TORSDOF 4
ENDMDL
MODEL 8
REMARK minimizedAffinity -7.22423935
REMARK CNNscore 0.427029282
REMARK CNNaffinity 6.29268694
REMARK  4 active torsions:
REMARK  status: ('A' for Active; 'I' for Inactive)
REMARK    1  A    between atoms: C4_4  and  C5_5 
REMARK    2  A    between atoms: C5_5  and  C6_7 
REMARK    3  A    between atoms: C6_7  and  C7_8 
REMARK    4  A    between atoms: C7_8  and  C9_10 
ROOT
HETATM    1  C9  UNL     1      -1.891  49.893 -10.921  1.00  0.00    -0.002 C 
HETATM    2  C10 UNL     1      -0.740  48.972 -11.428  1.00  0.00     0.006 C 
HETATM    3  C11 UNL     1       0.589  49.720 -11.196  1.00  0.00     0.011 C 
HETATM    4  C12 UNL     1       0.224  50.889 -10.264  1.00  0.00    -0.032 C 
HETATM    5  C13 UNL     1       0.175  50.266  -8.821  1.00  0.00     0.016 C 
HETATM    6  C14 UNL     1       1.200  52.110 -10.179  1.00  0.00     0.004 C 
HETATM    7  C15 UNL     1       2.259  52.207 -11.282  1.00  0.00     0.007 C 
HETATM    8  C16 UNL     1       3.211  53.410 -11.121  1.00  0.00     0.007 C 
HETATM    9  C17 UNL     1       2.918  54.334  -9.913  1.00  0.00     0.010 C 
HETATM   10  C18 UNL     1       3.758  55.652  -9.899  1.00  0.00     0.018 C 
HETATM   11  C19 UNL     1       3.434  56.591 -11.072  1.00  0.00     0.023 C 
HETATM   12  C20 UNL     1       5.265  55.334  -9.913  1.00  0.00     0.023 C 
HETATM   13  C21 UNL     1       3.458  56.419  -8.600  1.00  0.00     0.135 C 
HETATM   14  O2  UNL     1       4.155  57.365  -8.227  1.00  0.00    -0.297 OA
HETATM   15  C22 UNL     1       2.284  55.964  -7.766  1.00  0.00     0.080 C 
HETATM   16  C23 UNL     1       1.095  55.666  -8.662  1.00  0.00     0.018 C 
HETATM   17  C24 UNL     1       1.414  54.627  -9.727  1.00  0.00    -0.026 A 
HETATM   18  C25 UNL     1       0.526  54.614 -10.948  1.00  0.00     0.021 A 
HETATM   19  C26 UNL     1       0.452  53.447  -9.974  1.00  0.00    -0.027 A 
HETATM   20  C27 UNL     1      -0.867  53.317  -9.229  1.00  0.00     0.011 C 
HETATM   21  C28 UNL     1      -1.846  52.306  -9.863  1.00  0.00     0.011 C 
HETATM   22  C29 UNL     1      -1.191  51.290 -10.824  1.00  0.00    -0.032 C 
HETATM   23  C30 UNL     1      -1.148  51.908 -12.253  1.00  0.00     0.016 C 
ENDROOT
BRANCH   1  24
HETATM   24  C7  UNL     1      -3.191  49.732 -11.759  1.00  0.00    -0.007 C 
HETATM   25  C8  UNL     1      -3.081  50.368 -13.148  1.00  0.00     0.011 C 
BRANCH  24  26
HETATM   26  C6  UNL     1      -4.447  50.269 -11.034  1.00  0.00     0.087 C 
BRANCH  26  27
HETATM   27  C5  UNL     1      -5.576  49.260 -10.907  1.00  0.00     0.149 C 
HETATM   28  O1  UNL     1      -5.764  48.389 -11.754  1.00  0.00    -0.293 OA
BRANCH  27  29
HETATM   29  C4  UNL     1      -6.460  49.384  -9.711  1.00  0.00     0.052 C 
HETATM   30  C2  UNL     1      -7.807  49.403  -9.747  1.00  0.00    -0.084 C 
HETATM   31  C1  UNL     1      -8.643  49.248 -10.988  1.00  0.00     0.043 C 
HETATM   32  C3  UNL     1      -8.601  49.577  -8.480  1.00  0.00     0.043 C 
ENDBRANCH  27  29
ENDBRANCH  26  27
ENDBRANCH  24  26
ENDBRANCH   1  24
TORSDOF 4
ENDMDL
MODEL 9
REMARK minimizedAffinity -7.53512716
REMARK CNNscore 0.407900214
REMARK CNNaffinity 5.7623291
REMARK  4 active torsions:
REMARK  status: ('A' for Active; 'I' for Inactive)
REMARK    1  A    between atoms: C4_4  and  C5_5 
REMARK    2  A    between atoms: C5_5  and  C6_7 
REMARK    3  A    between atoms: C6_7  and  C7_8 
REMARK    4  A    between atoms: C7_8  and  C9_10 
ROOT
HETATM    1  C9  UNL     1       6.991  66.254 -35.889  1.00  0.00    -0.002 C 
HETATM    2  C10 UNL     1       7.843  66.738 -37.101  1.00  0.00     0.006 C 
HETATM    3  C11 UNL     1       6.885  67.428 -38.095  1.00  0.00     0.011 C 
HETATM    4  C12 UNL     1       5.582  67.634 -37.305  1.00  0.00    -0.032 C 
HETATM    5  C13 UNL     1       5.822  68.927 -36.442  1.00  0.00     0.016 C 
HETATM    6  C14 UNL     1       4.257  67.882 -38.101  1.00  0.00     0.004 C 
HETATM    7  C15 UNL     1       4.296  67.556 -39.598  1.00  0.00     0.007 C 
HETATM    8  C16 UNL     1       2.972  67.855 -40.332  1.00  0.00     0.007 C 
HETATM    9  C17 UNL     1       1.823  68.389 -39.440  1.00  0.00     0.010 C 
HETATM   10  C18 UNL     1       0.443  68.480 -40.165  1.00  0.00     0.018 C 
HETATM   11  C19 UNL     1      -0.118  67.109 -40.578  1.00  0.00     0.023 C 
HETATM   12  C20 UNL     1       0.544  69.374 -41.415  1.00  0.00     0.023 C 
HETATM   13  C21 UNL     1      -0.578  69.125 -39.214  1.00  0.00     0.135 C 
HETATM   14  O2  UNL     1      -1.674  69.529 -39.610  1.00  0.00    -0.297 OA
HETATM   15  C22 UNL     1      -0.191  69.280 -37.762  1.00  0.00     0.080 C 
HETATM   16  C23 UNL     1       0.483  68.012 -37.267  1.00  0.00     0.018 C 
HETATM   17  C24 UNL     1       1.702  67.638 -38.097  1.00  0.00    -0.026 A 
HETATM   18  C25 UNL     1       2.142  66.196 -38.041  1.00  0.00     0.021 A 
HETATM   19  C26 UNL     1       3.026  67.258 -37.404  1.00  0.00    -0.027 A 
HETATM   20  C27 UNL     1       3.144  67.171 -35.891  1.00  0.00     0.011 C 
HETATM   21  C28 UNL     1       4.406  66.427 -35.404  1.00  0.00     0.011 C 
HETATM   22  C29 UNL     1       5.532  66.311 -36.455  1.00  0.00    -0.032 C 
HETATM   23  C30 UNL     1       5.293  65.028 -37.305  1.00  0.00     0.016 C 
ENDROOT
BRANCH   1  24
HETATM   24  C7  UNL     1       7.534  64.933 -35.274  1.00  0.00    -0.007 C 
HETATM   25  C8  UNL     1       7.629  64.989 -33.746  1.00  0.00     0.011 C 
BRANCH  24  26
HETATM   26  C6  UNL     1       8.896  64.504 -35.869  1.00  0.00     0.087 C 
BRANCH  26  27
HETATM   27  C5  UNL     1       9.165  63.011 -35.802  1.00  0.00     0.149 C 
HETATM   28  O1  UNL     1       8.462  62.255 -35.134  1.00  0.00    -0.293 OA
BRANCH  27  29
HETATM   29  C4  UNL     1      10.337  62.502 -36.573  1.00  0.00     0.052 C 
HETATM   30  C2  UNL     1      11.622  62.609 -36.183  1.00  0.00    -0.084 C 
HETATM   31  C1  UNL     1      12.086  63.208 -34.884  1.00  0.00     0.043 C 
HETATM   32  C3  UNL     1      12.731  62.097 -37.063  1.00  0.00     0.043 C 
ENDBRANCH  27  29
ENDBRANCH  26  27
ENDBRANCH  24  26
ENDBRANCH   1  24
TORSDOF 4
ENDMDL
