MODEL 1
REMARK minimizedAffinity -10.0501881
REMARK  6 active torsions:
REMARK  status: ('A' for Active; 'I' for Inactive)
REMARK    1  A    between atoms: C3_3  and  C4_4 
REMARK    2  A    between atoms: C4_4  and  O1_5 
REMARK    3  A    between atoms: C6_9  and  C7_10 
REMARK    4  A    between atoms: C7_10  and  C9_12 
REMARK    5  A    between atoms: C21_26  and  C22_27 
REMARK    6  A    between atoms: C22_27  and  O6_28 
ROOT
HETATM    1  C9  UNL     1       0.677   6.214  11.836  1.00  0.00     0.000 C 
HETATM    2  C10 UNL     1       0.660   4.738  11.336  1.00  0.00     0.006 C 
HETATM    3  C11 UNL     1      -0.744   4.179  11.594  1.00  0.00     0.006 C 
HETATM    4  C12 UNL     1      -1.547   5.392  12.033  1.00  0.00    -0.001 C 
HETATM    5  C13 UNL     1      -2.881   5.143  12.758  1.00  0.00    -0.002 C 
HETATM    6  C14 UNL     1      -3.791   4.273  11.885  1.00  0.00     0.040 C 
HETATM    7  C15 UNL     1      -5.197   4.201  12.350  1.00  0.00     0.159 A 
HETATM    8  O4  UNL     1      -5.403   3.917  13.732  1.00  0.00    -0.368 OA
HETATM    9  C16 UNL     1      -5.787   5.234  13.282  1.00  0.00     0.104 A 
HETATM   10  C17 UNL     1      -7.279   5.433  13.163  1.00  0.00     0.042 C 
HETATM   11  C18 UNL     1      -7.830   6.327  14.258  1.00  0.00     0.010 C 
HETATM   12  C19 UNL     1      -7.172   7.698  14.240  1.00  0.00     0.079 C 
HETATM   13  C20 UNL     1      -5.747   7.680  13.708  1.00  0.00     0.141 C 
HETATM   14  O5  UNL     1      -5.292   8.709  13.207  1.00  0.00    -0.297 OA
HETATM   15  C21 UNL     1      -4.925   6.371  13.871  1.00  0.00     0.079 C 
HETATM   16  C23 UNL     1      -3.558   6.511  13.081  1.00  0.00     0.011 C 
HETATM   17  C24 UNL     1      -2.556   7.493  13.758  1.00  0.00     0.007 C 
HETATM   18  C25 UNL     1      -1.206   7.614  13.033  1.00  0.00     0.010 C 
HETATM   19  C26 UNL     1      -0.530   6.245  12.832  1.00  0.00    -0.036 C 
HETATM   20  C27 UNL     1      -0.136   5.621  14.192  1.00  0.00     0.016 C 
ENDROOT
BRANCH   1  21
HETATM   21  C7  UNL     1       2.101   6.677  12.304  1.00  0.00     0.016 C 
HETATM   22  C8  UNL     1       2.047   7.402  13.653  1.00  0.00     0.013 C 
BRANCH  21  23
HETATM   23  C6  UNL     1       2.779   7.585  11.215  1.00  0.00     0.140 C 
HETATM   24  O3  UNL     1       2.340   7.206   9.892  1.00  0.00    -0.311 OA
HETATM   25  C5  UNL     1       2.902   6.148   9.249  1.00  0.00     0.292 C 
HETATM   26  C3  UNL     1       4.146   5.574   9.844  1.00  0.00     0.042 C 
HETATM   27  O2  UNL     1       2.423   5.717   8.208  1.00  0.00    -0.260 OA
HETATM   28  C2  UNL     1       4.858   6.311  10.727  1.00  0.00    -0.067 C 
HETATM   29  C1  UNL     1       6.180   5.924  11.322  1.00  0.00     0.044 C 
HETATM   30  C28 UNL     1       4.310   7.637  11.181  1.00  0.00     0.067 C 
BRANCH  26  31
HETATM   31  C4  UNL     1       4.554   4.237   9.300  1.00  0.00     0.209 C 
BRANCH  31  32
HETATM   32  O1  UNL     1       3.523   3.282   9.539  1.00  0.00    -0.396 OA
HETATM   33  H6  UNL     1       3.289   3.327  10.481  1.00  0.00     0.209 HD
ENDBRANCH  31  32
ENDBRANCH  26  31
ENDBRANCH  21  23
ENDBRANCH   1  21
BRANCH  15  34
HETATM   34  C22 UNL     1      -4.735   6.192  15.408  1.00  0.00     0.185 C 
BRANCH  34  35
HETATM   35  O6  UNL     1      -5.839   6.649  16.178  1.00  0.00    -0.400 OA
HETATM   36  H30 UNL     1      -5.567   6.654  17.111  1.00  0.00     0.209 HD
ENDBRANCH  34  35
ENDBRANCH  15  34
TORSDOF 6
ENDMDL
MODEL 2
REMARK minimizedAffinity -9.98128414
REMARK  6 active torsions:
REMARK  status: ('A' for Active; 'I' for Inactive)
REMARK    1  A    between atoms: C3_3  and  C4_4 
REMARK    2  A    between atoms: C4_4  and  O1_5 
REMARK    3  A    between atoms: C6_9  and  C7_10 
REMARK    4  A    between atoms: C7_10  and  C9_12 
REMARK    5  A    between atoms: C21_26  and  C22_27 
REMARK    6  A    between atoms: C22_27  and  O6_28 
ROOT
HETATM    1  C9  UNL     1      -1.777   4.929  11.053  1.00  0.00     0.000 C 
HETATM    2  C10 UNL     1      -2.311   3.546  10.575  1.00  0.00     0.006 C 
HETATM    3  C11 UNL     1      -3.676   3.323  11.237  1.00  0.00     0.006 C 
HETATM    4  C12 UNL     1      -3.984   4.656  11.900  1.00  0.00    -0.001 C 
HETATM    5  C13 UNL     1      -5.071   4.678  12.989  1.00  0.00    -0.002 C 
HETATM    6  C14 UNL     1      -6.382   4.125  12.423  1.00  0.00     0.040 C 
HETATM    7  C15 UNL     1      -7.565   4.357  13.286  1.00  0.00     0.159 A 
HETATM    8  O4  UNL     1      -7.431   4.024  14.666  1.00  0.00    -0.368 OA
HETATM    9  C16 UNL     1      -7.580   5.425  14.356  1.00  0.00     0.104 A 
HETATM   10  C17 UNL     1      -8.942   5.986  14.688  1.00  0.00     0.042 C 
HETATM   11  C18 UNL     1      -8.909   6.897  15.901  1.00  0.00     0.010 C 
HETATM   12  C19 UNL     1      -7.959   8.067  15.693  1.00  0.00     0.079 C 
HETATM   13  C20 UNL     1      -6.801   7.748  14.761  1.00  0.00     0.141 C 
HETATM   14  O5  UNL     1      -6.263   8.673  14.151  1.00  0.00    -0.297 OA
HETATM   15  C21 UNL     1      -6.327   6.271  14.666  1.00  0.00     0.079 C 
HETATM   16  C23 UNL     1      -5.256   6.139  13.505  1.00  0.00     0.011 C 
HETATM   17  C24 UNL     1      -3.887   6.793  13.856  1.00  0.00     0.007 C 
HETATM   18  C25 UNL     1      -2.817   6.643  12.762  1.00  0.00     0.010 C 
HETATM   19  C26 UNL     1      -2.598   5.171  12.364  1.00  0.00    -0.036 C 
HETATM   20  C27 UNL     1      -2.002   4.365  13.542  1.00  0.00     0.016 C 
ENDROOT
BRANCH   1  21
HETATM   21  C7  UNL     1      -0.210   4.997  11.077  1.00  0.00     0.016 C 
HETATM   22  C8  UNL     1       0.394   3.863  11.913  1.00  0.00     0.013 C 
BRANCH  21  23
HETATM   23  C6  UNL     1       0.281   6.394  11.602  1.00  0.00     0.140 C 
HETATM   24  O3  UNL     1      -0.212   7.457  10.758  1.00  0.00    -0.311 OA
HETATM   25  C5  UNL     1       0.412   7.764   9.589  1.00  0.00     0.292 C 
HETATM   26  C3  UNL     1       1.752   7.149   9.353  1.00  0.00     0.042 C 
HETATM   27  O2  UNL     1      -0.095   8.541   8.789  1.00  0.00    -0.260 OA
HETATM   28  C2  UNL     1       2.443   6.647  10.402  1.00  0.00    -0.067 C 
HETATM   29  C1  UNL     1       3.841   6.103  10.347  1.00  0.00     0.044 C 
HETATM   30  C28 UNL     1       1.790   6.608  11.757  1.00  0.00     0.067 C 
BRANCH  26  31
HETATM   31  C4  UNL     1       2.262   7.252   7.945  1.00  0.00     0.209 C 
BRANCH  31  32
HETATM   32  O1  UNL     1       2.663   8.592   7.674  1.00  0.00    -0.396 OA
HETATM   33  H6  UNL     1       1.931   9.179   7.926  1.00  0.00     0.209 HD
ENDBRANCH  31  32
ENDBRANCH  26  31
ENDBRANCH  21  23
ENDBRANCH   1  21
BRANCH  15  34
HETATM   34  C22 UNL     1      -5.754   5.929  16.075  1.00  0.00     0.185 C 
BRANCH  34  35
HETATM   35  O6  UNL     1      -4.408   6.345  16.262  1.00  0.00    -0.400 OA
HETATM   36  H30 UNL     1      -4.087   5.948  17.089  1.00  0.00     0.209 HD
ENDBRANCH  34  35
ENDBRANCH  15  34
TORSDOF 6
ENDMDL
MODEL 3
REMARK minimizedAffinity -9.8508873
REMARK  6 active torsions:
REMARK  status: ('A' for Active; 'I' for Inactive)
REMARK    1  A    between atoms: C3_3  and  C4_4 
REMARK    2  A    between atoms: C4_4  and  O1_5 
REMARK    3  A    between atoms: C6_9  and  C7_10 
REMARK    4  A    between atoms: C7_10  and  C9_12 
REMARK    5  A    between atoms: C21_26  and  C22_27 
REMARK    6  A    between atoms: C22_27  and  O6_28 
ROOT
HETATM    1  C9  UNL     1       1.695   6.910  11.270  1.00  0.00     0.000 C 
HETATM    2  C10 UNL     1       1.896   5.420  10.859  1.00  0.00     0.006 C 
HETATM    3  C11 UNL     1       0.605   4.668  11.201  1.00  0.00     0.006 C 
HETATM    4  C12 UNL     1      -0.367   5.768  11.596  1.00  0.00    -0.001 C 
HETATM    5  C13 UNL     1      -1.625   5.361  12.384  1.00  0.00    -0.002 C 
HETATM    6  C14 UNL     1      -2.409   4.306  11.597  1.00  0.00     0.040 C 
HETATM    7  C15 UNL     1      -3.773   4.047  12.118  1.00  0.00     0.159 A 
HETATM    8  O4  UNL     1      -3.895   3.824  13.520  1.00  0.00    -0.368 OA
HETATM    9  C16 UNL     1      -4.493   5.034  13.008  1.00  0.00     0.104 A 
HETATM   10  C17 UNL     1      -6.000   4.990  12.932  1.00  0.00     0.042 C 
HETATM   11  C18 UNL     1      -6.655   5.857  13.993  1.00  0.00     0.010 C 
HETATM   12  C19 UNL     1      -6.222   7.309  13.869  1.00  0.00     0.079 C 
HETATM   13  C20 UNL     1      -4.827   7.478  13.288  1.00  0.00     0.141 C 
HETATM   14  O5  UNL     1      -4.553   8.531  12.710  1.00  0.00    -0.297 OA
HETATM   15  C21 UNL     1      -3.805   6.326  13.497  1.00  0.00     0.079 C 
HETATM   16  C23 UNL     1      -2.499   6.626  12.650  1.00  0.00     0.011 C 
HETATM   17  C24 UNL     1      -1.646   7.792  13.231  1.00  0.00     0.007 C 
HETATM   18  C25 UNL     1      -0.352   8.074  12.451  1.00  0.00     0.010 C 
HETATM   19  C26 UNL     1       0.526   6.817  12.306  1.00  0.00    -0.036 C 
HETATM   20  C27 UNL     1       1.049   6.349  13.686  1.00  0.00     0.016 C 
ENDROOT
BRANCH   1  21
HETATM   21  C7  UNL     1       3.041   7.617  11.657  1.00  0.00     0.016 C 
HETATM   22  C8  UNL     1       2.800   9.013  12.242  1.00  0.00     0.013 C 
BRANCH  21  23
HETATM   23  C6  UNL     1       4.007   7.696  10.420  1.00  0.00     0.140 C 
HETATM   24  O3  UNL     1       4.883   6.548  10.386  1.00  0.00    -0.311 OA
HETATM   25  C5  UNL     1       6.001   6.503  11.158  1.00  0.00     0.292 C 
HETATM   26  C3  UNL     1       6.417   7.772  11.827  1.00  0.00     0.042 C 
HETATM   27  O2  UNL     1       6.652   5.471  11.264  1.00  0.00    -0.260 OA
HETATM   28  C2  UNL     1       5.932   8.949  11.370  1.00  0.00    -0.067 C 
HETATM   29  C1  UNL     1       6.339  10.309  11.857  1.00  0.00     0.044 C 
HETATM   30  C28 UNL     1       4.891   8.940  10.284  1.00  0.00     0.067 C 
BRANCH  26  31
HETATM   31  C4  UNL     1       7.450   7.617  12.904  1.00  0.00     0.209 C 
BRANCH  31  32
HETATM   32  O1  UNL     1       8.514   8.541  12.689  1.00  0.00    -0.396 OA
HETATM   33  H6  UNL     1       8.812   8.444  11.770  1.00  0.00     0.209 HD
ENDBRANCH  31  32
ENDBRANCH  26  31
ENDBRANCH  21  23
ENDBRANCH   1  21
BRANCH  15  34
HETATM   34  C22 UNL     1      -3.547   6.277  15.034  1.00  0.00     0.185 C 
BRANCH  34  35
HETATM   35  O6  UNL     1      -2.628   5.267  15.427  1.00  0.00    -0.400 OA
HETATM   36  H30 UNL     1      -2.657   5.200  16.395  1.00  0.00     0.209 HD
ENDBRANCH  34  35
ENDBRANCH  15  34
TORSDOF 6
ENDMDL
MODEL 4
REMARK minimizedAffinity -9.75235271
REMARK  6 active torsions:
REMARK  status: ('A' for Active; 'I' for Inactive)
REMARK    1  A    between atoms: C3_3  and  C4_4 
REMARK    2  A    between atoms: C4_4  and  O1_5 
REMARK    3  A    between atoms: C6_9  and  C7_10 
REMARK    4  A    between atoms: C7_10  and  C9_12 
REMARK    5  A    between atoms: C21_26  and  C22_27 
REMARK    6  A    between atoms: C22_27  and  O6_28 
ROOT
HETATM    1  C9  UNL     1       1.450   6.659  11.755  1.00  0.00     0.000 C 
HETATM    2  C10 UNL     1       1.631   5.156  11.386  1.00  0.00     0.006 C 
HETATM    3  C11 UNL     1       0.295   4.451  11.648  1.00  0.00     0.006 C 
HETATM    4  C12 UNL     1      -0.666   5.588  11.954  1.00  0.00    -0.001 C 
HETATM    5  C13 UNL     1      -1.988   5.236  12.657  1.00  0.00    -0.002 C 
HETATM    6  C14 UNL     1      -2.750   4.191  11.836  1.00  0.00     0.040 C 
HETATM    7  C15 UNL     1      -4.154   3.985  12.262  1.00  0.00     0.159 A 
HETATM    8  O4  UNL     1      -4.382   3.793  13.656  1.00  0.00    -0.368 OA
HETATM    9  C16 UNL     1      -4.903   5.011  13.082  1.00  0.00     0.104 A 
HETATM   10  C17 UNL     1      -6.402   5.013  12.900  1.00  0.00     0.042 C 
HETATM   11  C18 UNL     1      -7.101   5.920  13.896  1.00  0.00     0.010 C 
HETATM   12  C19 UNL     1      -6.613   7.356  13.779  1.00  0.00     0.079 C 
HETATM   13  C20 UNL     1      -5.176   7.470  13.295  1.00  0.00     0.141 C 
HETATM   14  O5  UNL     1      -4.828   8.502  12.720  1.00  0.00    -0.297 OA
HETATM   15  C21 UNL     1      -4.210   6.291  13.596  1.00  0.00     0.079 C 
HETATM   16  C23 UNL     1      -2.838   6.533  12.839  1.00  0.00     0.011 C 
HETATM   17  C24 UNL     1      -1.990   7.683  13.458  1.00  0.00     0.007 C 
HETATM   18  C25 UNL     1      -0.636   7.910  12.767  1.00  0.00     0.010 C 
HETATM   19  C26 UNL     1       0.208   6.622  12.707  1.00  0.00    -0.036 C 
HETATM   20  C27 UNL     1       0.618   6.166  14.128  1.00  0.00     0.016 C 
ENDROOT
BRANCH   1  21
HETATM   21  C7  UNL     1       2.787   7.332  12.224  1.00  0.00     0.016 C 
HETATM   22  C8  UNL     1       2.745   8.855  12.058  1.00  0.00     0.013 C 
BRANCH  21  23
HETATM   23  C6  UNL     1       4.017   6.725  11.456  1.00  0.00     0.140 C 
HETATM   24  O3  UNL     1       4.952   7.765  11.093  1.00  0.00    -0.311 OA
HETATM   25  C5  UNL     1       4.742   8.535   9.992  1.00  0.00     0.292 C 
HETATM   26  C3  UNL     1       3.671   8.095   9.048  1.00  0.00     0.042 C 
HETATM   27  O2  UNL     1       5.432   9.523   9.774  1.00  0.00    -0.260 OA
HETATM   28  C2  UNL     1       3.228   6.819   9.100  1.00  0.00    -0.067 C 
HETATM   29  C1  UNL     1       2.245   6.196   8.152  1.00  0.00     0.044 C 
HETATM   30  C28 UNL     1       3.736   5.912  10.188  1.00  0.00     0.067 C 
BRANCH  26  31
HETATM   31  C4  UNL     1       3.258   9.118   8.031  1.00  0.00     0.209 C 
BRANCH  31  32
HETATM   32  O1  UNL     1       1.842   9.278   8.053  1.00  0.00    -0.396 OA
HETATM   33  H6  UNL     1       1.442   8.396   7.985  1.00  0.00     0.209 HD
ENDBRANCH  31  32
ENDBRANCH  26  31
ENDBRANCH  21  23
ENDBRANCH   1  21
BRANCH  15  34
HETATM   34  C22 UNL     1      -4.062   6.264  15.148  1.00  0.00     0.185 C 
BRANCH  34  35
HETATM   35  O6  UNL     1      -4.241   7.534  15.761  1.00  0.00    -0.400 OA
HETATM   36  H30 UNL     1      -3.969   7.454  16.690  1.00  0.00     0.209 HD
ENDBRANCH  34  35
ENDBRANCH  15  34
TORSDOF 6
ENDMDL
MODEL 5
REMARK minimizedAffinity -9.41981316
REMARK  6 active torsions:
REMARK  status: ('A' for Active; 'I' for Inactive)
REMARK    1  A    between atoms: C3_3  and  C4_4 
REMARK    2  A    between atoms: C4_4  and  O1_5 
REMARK    3  A    between atoms: C6_9  and  C7_10 
REMARK    4  A    between atoms: C7_10  and  C9_12 
REMARK    5  A    between atoms: C21_26  and  C22_27 
REMARK    6  A    between atoms: C22_27  and  O6_28 
ROOT
HETATM    1  C9  UNL     1      -0.623   5.894  11.813  1.00  0.00     0.000 C 
HETATM    2  C10 UNL     1      -0.836   4.447  11.276  1.00  0.00     0.006 C 
HETATM    3  C11 UNL     1      -2.248   4.008  11.680  1.00  0.00     0.006 C 
HETATM    4  C12 UNL     1      -2.878   5.270  12.245  1.00  0.00    -0.001 C 
HETATM    5  C13 UNL     1      -4.137   5.113  13.115  1.00  0.00    -0.002 C 
HETATM    6  C14 UNL     1      -5.218   4.364  12.330  1.00  0.00     0.040 C 
HETATM    7  C15 UNL     1      -6.562   4.400  12.954  1.00  0.00     0.159 A 
HETATM    8  O4  UNL     1      -6.636   4.082  14.342  1.00  0.00    -0.368 OA
HETATM    9  C16 UNL     1      -6.942   5.445  13.979  1.00  0.00     0.104 A 
HETATM   10  C17 UNL     1      -8.413   5.781  14.042  1.00  0.00     0.042 C 
HETATM   11  C18 UNL     1      -8.748   6.677  15.220  1.00  0.00     0.010 C 
HETATM   12  C19 UNL     1      -7.971   7.983  15.164  1.00  0.00     0.079 C 
HETATM   13  C20 UNL     1      -6.624   7.858  14.469  1.00  0.00     0.141 C 
HETATM   14  O5  UNL     1      -6.135   8.861  13.948  1.00  0.00    -0.297 OA
HETATM   15  C21 UNL     1      -5.916   6.475  14.496  1.00  0.00     0.079 C 
HETATM   16  C23 UNL     1      -4.641   6.523  13.555  1.00  0.00     0.011 C 
HETATM   17  C24 UNL     1      -3.480   7.382  14.138  1.00  0.00     0.007 C 
HETATM   18  C25 UNL     1      -2.216   7.410  13.263  1.00  0.00     0.010 C 
HETATM   19  C26 UNL     1      -1.699   5.994  12.944  1.00  0.00    -0.036 C 
HETATM   20  C27 UNL     1      -1.214   5.283  14.230  1.00  0.00     0.016 C 
ENDROOT
BRANCH   1  21
HETATM   21  C7  UNL     1       0.883   6.208  12.123  1.00  0.00     0.016 C 
HETATM   22  C8  UNL     1       1.164   6.201  13.630  1.00  0.00     0.013 C 
BRANCH  21  23
HETATM   23  C6  UNL     1       1.310   7.581  11.488  1.00  0.00     0.140 C 
HETATM   24  O3  UNL     1       1.815   7.385  10.149  1.00  0.00    -0.311 OA
HETATM   25  C5  UNL     1       3.097   6.978   9.941  1.00  0.00     0.292 C 
HETATM   26  C3  UNL     1       4.015   7.000  11.118  1.00  0.00     0.042 C 
HETATM   27  O2  UNL     1       3.479   6.646   8.826  1.00  0.00    -0.260 OA
HETATM   28  C2  UNL     1       3.687   7.742  12.200  1.00  0.00    -0.067 C 
HETATM   29  C1  UNL     1       4.552   7.957  13.408  1.00  0.00     0.044 C 
HETATM   30  C28 UNL     1       2.346   8.423  12.239  1.00  0.00     0.067 C 
BRANCH  26  31
HETATM   31  C4  UNL     1       5.307   6.259  10.932  1.00  0.00     0.209 C 
BRANCH  31  32
HETATM   32  O1  UNL     1       5.060   5.011  10.290  1.00  0.00    -0.396 OA
HETATM   33  H6  UNL     1       4.355   4.558  10.780  1.00  0.00     0.209 HD
ENDBRANCH  31  32
ENDBRANCH  26  31
ENDBRANCH  21  23
ENDBRANCH   1  21
BRANCH  15  34
HETATM   34  C22 UNL     1      -5.569   6.218  15.994  1.00  0.00     0.185 C 
BRANCH  34  35
HETATM   35  O6  UNL     1      -6.537   5.434  16.678  1.00  0.00    -0.400 OA
HETATM   36  H30 UNL     1      -6.328   5.467  17.626  1.00  0.00     0.209 HD
ENDBRANCH  34  35
ENDBRANCH  15  34
TORSDOF 6
ENDMDL
MODEL 6
REMARK minimizedAffinity -9.32634735
REMARK  6 active torsions:
REMARK  status: ('A' for Active; 'I' for Inactive)
REMARK    1  A    between atoms: C3_3  and  C4_4 
REMARK    2  A    between atoms: C4_4  and  O1_5 
REMARK    3  A    between atoms: C6_9  and  C7_10 
REMARK    4  A    between atoms: C7_10  and  C9_12 
REMARK    5  A    between atoms: C21_26  and  C22_27 
REMARK    6  A    between atoms: C22_27  and  O6_28 
ROOT
HETATM    1  C9  UNL     1      -1.334   4.893  11.514  1.00  0.00     0.000 C 
HETATM    2  C10 UNL     1      -1.840   3.570  10.866  1.00  0.00     0.006 C 
HETATM    3  C11 UNL     1      -3.304   3.382  11.282  1.00  0.00     0.006 C 
HETATM    4  C12 UNL     1      -3.660   4.688  11.973  1.00  0.00    -0.001 C 
HETATM    5  C13 UNL     1      -4.910   4.704  12.870  1.00  0.00    -0.002 C 
HETATM    6  C14 UNL     1      -6.132   4.256  12.063  1.00  0.00     0.040 C 
HETATM    7  C15 UNL     1      -7.431   4.499  12.736  1.00  0.00     0.159 A 
HETATM    8  O4  UNL     1      -7.541   4.079  14.094  1.00  0.00    -0.368 OA
HETATM    9  C16 UNL     1      -7.576   5.503  13.858  1.00  0.00     0.104 A 
HETATM   10  C17 UNL     1      -8.950   6.115  14.000  1.00  0.00     0.042 C 
HETATM   11  C18 UNL     1      -9.079   6.951  15.260  1.00  0.00     0.010 C 
HETATM   12  C19 UNL     1      -8.058   8.078  15.287  1.00  0.00     0.079 C 
HETATM   13  C20 UNL     1      -6.776   7.753  14.536  1.00  0.00     0.141 C 
HETATM   14  O5  UNL     1      -6.106   8.683  14.084  1.00  0.00    -0.297 OA
HETATM   15  C21 UNL     1      -6.357   6.261  14.422  1.00  0.00     0.079 C 
HETATM   16  C23 UNL     1      -5.115   6.141  13.444  1.00  0.00     0.011 C 
HETATM   17  C24 UNL     1      -3.796   6.700  14.055  1.00  0.00     0.007 C 
HETATM   18  C25 UNL     1      -2.568   6.556  13.142  1.00  0.00     0.010 C 
HETATM   19  C26 UNL     1      -2.349   5.101  12.688  1.00  0.00    -0.036 C 
HETATM   20  C27 UNL     1      -1.991   4.197  13.892  1.00  0.00     0.016 C 
ENDROOT
BRANCH   1  21
HETATM   21  C7  UNL     1       0.209   4.876  11.797  1.00  0.00     0.016 C 
HETATM   22  C8  UNL     1       0.530   5.334  13.224  1.00  0.00     0.013 C 
BRANCH  21  23
HETATM   23  C6  UNL     1       0.979   5.757  10.748  1.00  0.00     0.140 C 
HETATM   24  O3  UNL     1       2.261   6.167  11.272  1.00  0.00    -0.311 OA
HETATM   25  C5  UNL     1       2.361   7.226  12.119  1.00  0.00     0.292 C 
HETATM   26  C3  UNL     1       1.153   8.091  12.270  1.00  0.00     0.042 C 
HETATM   27  O2  UNL     1       3.411   7.472  12.699  1.00  0.00    -0.260 OA
HETATM   28  C2  UNL     1       0.180   8.038  11.332  1.00  0.00    -0.067 C 
HETATM   29  C1  UNL     1      -1.033   8.920  11.281  1.00  0.00     0.044 C 
HETATM   30  C28 UNL     1       0.282   7.020  10.229  1.00  0.00     0.067 C 
BRANCH  26  31
HETATM   31  C4  UNL     1       1.192   9.043  13.429  1.00  0.00     0.209 C 
BRANCH  31  32
HETATM   32  O1  UNL     1       0.133   9.991  13.312  1.00  0.00    -0.396 OA
HETATM   33  H6  UNL     1       0.174  10.373  12.421  1.00  0.00     0.209 HD
ENDBRANCH  31  32
ENDBRANCH  26  31
ENDBRANCH  21  23
ENDBRANCH   1  21
BRANCH  15  34
HETATM   34  C22 UNL     1      -6.040   5.808  15.880  1.00  0.00     0.185 C 
BRANCH  34  35
HETATM   35  O6  UNL     1      -4.736   6.164  16.319  1.00  0.00    -0.400 OA
HETATM   36  H30 UNL     1      -4.570   5.703  17.157  1.00  0.00     0.209 HD
ENDBRANCH  34  35
ENDBRANCH  15  34
TORSDOF 6
ENDMDL
MODEL 7
REMARK minimizedAffinity -9.25761604
REMARK  6 active torsions:
REMARK  status: ('A' for Active; 'I' for Inactive)
REMARK    1  A    between atoms: C3_3  and  C4_4 
REMARK    2  A    between atoms: C4_4  and  O1_5 
REMARK    3  A    between atoms: C6_9  and  C7_10 
REMARK    4  A    between atoms: C7_10  and  C9_12 
REMARK    5  A    between atoms: C21_26  and  C22_27 
REMARK    6  A    between atoms: C22_27  and  O6_28 
ROOT
HETATM    1  C9  UNL     1       0.766   6.232  13.616  1.00  0.00     0.000 C 
HETATM    2  C10 UNL     1       0.078   7.364  14.436  1.00  0.00     0.006 C 
HETATM    3  C11 UNL     1      -1.436   7.131  14.365  1.00  0.00     0.006 C 
HETATM    4  C12 UNL     1      -1.567   5.773  13.696  1.00  0.00    -0.001 C 
HETATM    5  C13 UNL     1      -2.935   5.400  13.097  1.00  0.00    -0.002 C 
HETATM    6  C14 UNL     1      -4.016   5.493  14.178  1.00  0.00     0.040 C 
HETATM    7  C15 UNL     1      -5.315   4.890  13.796  1.00  0.00     0.159 A 
HETATM    8  O4  UNL     1      -5.843   5.253  12.523  1.00  0.00    -0.368 OA
HETATM    9  C16 UNL     1      -5.432   3.879  12.678  1.00  0.00     0.104 A 
HETATM   10  C17 UNL     1      -6.579   2.905  12.808  1.00  0.00     0.042 C 
HETATM   11  C18 UNL     1      -6.757   2.058  11.561  1.00  0.00     0.010 C 
HETATM   12  C19 UNL     1      -5.500   1.262  11.244  1.00  0.00     0.079 C 
HETATM   13  C20 UNL     1      -4.221   1.939  11.711  1.00  0.00     0.141 C 
HETATM   14  O5  UNL     1      -3.237   1.237  11.950  1.00  0.00    -0.297 OA
HETATM   15  C21 UNL     1      -4.213   3.489  11.816  1.00  0.00     0.079 C 
HETATM   16  C23 UNL     1      -2.863   3.960  12.500  1.00  0.00     0.011 C 
HETATM   17  C24 UNL     1      -1.617   3.789  11.582  1.00  0.00     0.007 C 
HETATM   18  C25 UNL     1      -0.301   4.278  12.208  1.00  0.00     0.010 C 
HETATM   19  C26 UNL     1      -0.392   5.739  12.686  1.00  0.00    -0.036 C 
HETATM   20  C27 UNL     1      -0.581   6.699  11.487  1.00  0.00     0.016 C 
ENDROOT
BRANCH   1  21
HETATM   21  C7  UNL     1       2.139   6.679  13.001  1.00  0.00     0.016 C 
HETATM   22  C8  UNL     1       2.783   7.808  13.813  1.00  0.00     0.013 C 
BRANCH  21  23
HETATM   23  C6  UNL     1       1.964   7.108  11.500  1.00  0.00     0.140 C 
HETATM   24  O3  UNL     1       2.425   6.063  10.616  1.00  0.00    -0.311 OA
HETATM   25  C5  UNL     1       3.749   5.918  10.340  1.00  0.00     0.292 C 
HETATM   26  C3  UNL     1       4.657   7.023  10.768  1.00  0.00     0.042 C 
HETATM   27  O2  UNL     1       4.162   4.936   9.735  1.00  0.00    -0.260 OA
HETATM   28  C2  UNL     1       4.133   8.238  11.050  1.00  0.00    -0.067 C 
HETATM   29  C1  UNL     1       4.919   9.473  11.380  1.00  0.00     0.044 C 
HETATM   30  C28 UNL     1       2.638   8.407  11.046  1.00  0.00     0.067 C 
BRANCH  26  31
HETATM   31  C4  UNL     1       6.121   6.695  10.735  1.00  0.00     0.209 C 
BRANCH  31  32
HETATM   32  O1  UNL     1       6.383   5.572  11.573  1.00  0.00    -0.396 OA
HETATM   33  H6  UNL     1       5.987   5.749  12.441  1.00  0.00     0.209 HD
ENDBRANCH  31  32
ENDBRANCH  26  31
ENDBRANCH  21  23
ENDBRANCH   1  21
BRANCH  15  34
HETATM   34  C22 UNL     1      -4.375   4.003  10.353  1.00  0.00     0.185 C 
BRANCH  34  35
HETATM   35  O6  UNL     1      -3.563   3.312   9.411  1.00  0.00    -0.400 OA
HETATM   36  H30 UNL     1      -3.602   3.801   8.573  1.00  0.00     0.209 HD
ENDBRANCH  34  35
ENDBRANCH  15  34
TORSDOF 6
ENDMDL
MODEL 8
REMARK minimizedAffinity -9.04888916
REMARK  6 active torsions:
REMARK  status: ('A' for Active; 'I' for Inactive)
REMARK    1  A    between atoms: C3_3  and  C4_4 
REMARK    2  A    between atoms: C4_4  and  O1_5 
REMARK    3  A    between atoms: C6_9  and  C7_10 
REMARK    4  A    between atoms: C7_10  and  C9_12 
REMARK    5  A    between atoms: C21_26  and  C22_27 
REMARK    6  A    between atoms: C22_27  and  O6_28 
ROOT
HETATM    1  C9  UNL     1      -2.554   8.523  15.056  1.00  0.00     0.000 C 
HETATM    2  C10 UNL     1      -1.539   8.555  16.238  1.00  0.00     0.006 C 
HETATM    3  C11 UNL     1      -0.136   8.375  15.646  1.00  0.00     0.006 C 
HETATM    4  C12 UNL     1      -0.357   8.456  14.145  1.00  0.00    -0.001 C 
HETATM    5  C13 UNL     1       0.755   7.917  13.228  1.00  0.00    -0.002 C 
HETATM    6  C14 UNL     1       2.076   8.627  13.544  1.00  0.00     0.040 C 
HETATM    7  C15 UNL     1       3.146   8.397  12.545  1.00  0.00     0.159 A 
HETATM    8  O4  UNL     1       3.381   7.047  12.152  1.00  0.00    -0.368 OA
HETATM    9  C16 UNL     1       2.844   7.926  11.140  1.00  0.00     0.104 A 
HETATM   10  C17 UNL     1       3.848   8.341  10.091  1.00  0.00     0.042 C 
HETATM   11  C18 UNL     1       3.595   7.668   8.755  1.00  0.00     0.010 C 
HETATM   12  C19 UNL     1       2.205   7.988   8.226  1.00  0.00     0.079 C 
HETATM   13  C20 UNL     1       1.185   8.249   9.322  1.00  0.00     0.141 C 
HETATM   14  O5  UNL     1       0.208   8.954   9.062  1.00  0.00    -0.297 OA
HETATM   15  C21 UNL     1       1.408   7.571  10.702  1.00  0.00     0.079 C 
HETATM   16  C23 UNL     1       0.347   8.133  11.738  1.00  0.00     0.011 C 
HETATM   17  C24 UNL     1      -1.101   7.626  11.469  1.00  0.00     0.007 C 
HETATM   18  C25 UNL     1      -2.142   8.123  12.485  1.00  0.00     0.010 C 
HETATM   19  C26 UNL     1      -1.742   7.792  13.935  1.00  0.00    -0.036 C 
HETATM   20  C27 UNL     1      -1.735   6.263  14.169  1.00  0.00     0.016 C 
ENDROOT
BRANCH   1  21
HETATM   21  C7  UNL     1      -3.966   7.989  15.485  1.00  0.00     0.016 C 
HETATM   22  C8  UNL     1      -3.945   6.479  15.747  1.00  0.00     0.013 C 
BRANCH  21  23
HETATM   23  C6  UNL     1      -5.051   8.348  14.407  1.00  0.00     0.140 C 
HETATM   24  O3  UNL     1      -6.326   8.602  15.035  1.00  0.00    -0.311 OA
HETATM   25  C5  UNL     1      -7.140   7.574  15.398  1.00  0.00     0.292 C 
HETATM   26  C3  UNL     1      -6.785   6.215  14.891  1.00  0.00     0.042 C 
HETATM   27  O2  UNL     1      -8.137   7.771  16.081  1.00  0.00    -0.260 OA
HETATM   28  C2  UNL     1      -5.948   6.101  13.835  1.00  0.00    -0.067 C 
HETATM   29  C1  UNL     1      -5.587   4.821  13.140  1.00  0.00     0.044 C 
HETATM   30  C28 UNL     1      -5.298   7.340  13.280  1.00  0.00     0.067 C 
BRANCH  26  31
HETATM   31  C4  UNL     1      -7.504   5.078  15.556  1.00  0.00     0.209 C 
BRANCH  31  32
HETATM   32  O1  UNL     1      -8.698   5.556  16.171  1.00  0.00    -0.396 OA
HETATM   33  H6  UNL     1      -8.463   6.318  16.725  1.00  0.00     0.209 HD
ENDBRANCH  31  32
ENDBRANCH  26  31
ENDBRANCH  21  23
ENDBRANCH   1  21
BRANCH  15  34
HETATM   34  C22 UNL     1       1.263   6.041  10.439  1.00  0.00     0.185 C 
BRANCH  34  35
HETATM   35  O6  UNL     1       1.448   5.242  11.600  1.00  0.00    -0.400 OA
HETATM   36  H30 UNL     1       1.507   4.315  11.314  1.00  0.00     0.209 HD
ENDBRANCH  34  35
ENDBRANCH  15  34
TORSDOF 6
ENDMDL
MODEL 9
REMARK minimizedAffinity -9.04664707
REMARK  6 active torsions:
REMARK  status: ('A' for Active; 'I' for Inactive)
REMARK    1  A    between atoms: C3_3  and  C4_4 
REMARK    2  A    between atoms: C4_4  and  O1_5 
REMARK    3  A    between atoms: C6_9  and  C7_10 
REMARK    4  A    between atoms: C7_10  and  C9_12 
REMARK    5  A    between atoms: C21_26  and  C22_27 
REMARK    6  A    between atoms: C22_27  and  O6_28 
ROOT
HETATM    1  C9  UNL     1      -2.442   7.933  13.765  1.00  0.00     0.000 C 
HETATM    2  C10 UNL     1      -2.324   6.685  12.840  1.00  0.00     0.006 C 
HETATM    3  C11 UNL     1      -3.720   6.061  12.725  1.00  0.00     0.006 C 
HETATM    4  C12 UNL     1      -4.631   7.072  13.404  1.00  0.00    -0.001 C 
HETATM    5  C13 UNL     1      -6.030   6.598  13.834  1.00  0.00    -0.002 C 
HETATM    6  C14 UNL     1      -6.780   6.033  12.624  1.00  0.00     0.040 C 
HETATM    7  C15 UNL     1      -8.227   5.808  12.853  1.00  0.00     0.159 A 
HETATM    8  O4  UNL     1      -8.589   5.108  14.042  1.00  0.00    -0.368 OA
HETATM    9  C16 UNL     1      -8.979   6.496  13.970  1.00  0.00     0.104 A 
HETATM   10  C17 UNL     1     -10.453   6.708  13.720  1.00  0.00     0.042 C 
HETATM   11  C18 UNL     1     -11.178   7.214  14.953  1.00  0.00     0.010 C 
HETATM   12  C19 UNL     1     -10.592   8.529  15.443  1.00  0.00     0.079 C 
HETATM   13  C20 UNL     1      -9.114   8.689  15.126  1.00  0.00     0.141 C 
HETATM   14  O5  UNL     1      -8.652   9.827  15.028  1.00  0.00    -0.297 OA
HETATM   15  C21 UNL     1      -8.254   7.402  14.988  1.00  0.00     0.079 C 
HETATM   16  C23 UNL     1      -6.809   7.792  14.467  1.00  0.00     0.011 C 
HETATM   17  C24 UNL     1      -5.948   8.525  15.539  1.00  0.00     0.007 C 
HETATM   18  C25 UNL     1      -4.526   8.877  15.072  1.00  0.00     0.010 C 
HETATM   19  C26 UNL     1      -3.763   7.643  14.553  1.00  0.00    -0.036 C 
HETATM   20  C27 UNL     1      -3.510   6.632  15.697  1.00  0.00     0.016 C 
ENDROOT
BRANCH   1  21
HETATM   21  C7  UNL     1      -1.112   8.242  14.537  1.00  0.00     0.016 C 
HETATM   22  C8  UNL     1      -0.118   9.021  13.667  1.00  0.00     0.013 C 
BRANCH  21  23
HETATM   23  C6  UNL     1      -0.457   6.917  15.073  1.00  0.00     0.140 C 
HETATM   24  O3  UNL     1       0.414   7.197  16.191  1.00  0.00    -0.311 OA
HETATM   25  C5  UNL     1       1.680   7.650  15.990  1.00  0.00     0.292 C 
HETATM   26  C3  UNL     1       2.209   7.594  14.595  1.00  0.00     0.042 C 
HETATM   27  O2  UNL     1       2.361   8.051  16.926  1.00  0.00    -0.260 OA
HETATM   28  C2  UNL     1       1.606   6.788  13.691  1.00  0.00    -0.067 C 
HETATM   29  C1  UNL     1       2.083   6.535  12.291  1.00  0.00     0.044 C 
HETATM   30  C28 UNL     1       0.345   6.067  14.082  1.00  0.00     0.067 C 
BRANCH  26  31
HETATM   31  C4  UNL     1       3.465   8.380  14.357  1.00  0.00     0.209 C 
BRANCH  31  32
HETATM   32  O1  UNL     1       4.596   7.625  14.785  1.00  0.00    -0.396 OA
HETATM   33  H6  UNL     1       4.426   7.322  15.691  1.00  0.00     0.209 HD
ENDBRANCH  31  32
ENDBRANCH  26  31
ENDBRANCH  21  23
ENDBRANCH   1  21
BRANCH  15  34
HETATM   34  C22 UNL     1      -8.246   6.757  16.407  1.00  0.00     0.185 C 
BRANCH  34  35
HETATM   35  O6  UNL     1      -7.076   7.047  17.160  1.00  0.00    -0.400 OA
HETATM   36  H30 UNL     1      -7.082   6.477  17.947  1.00  0.00     0.209 HD
ENDBRANCH  34  35
ENDBRANCH  15  34
TORSDOF 6
ENDMDL
