MODEL 1
REMARK minimizedAffinity -9.23885536
REMARK CNNscore 0.594339252
REMARK CNNaffinity 7.187572
REMARK  11 active torsions:
REMARK  status: ('A' for Active; 'I' for Inactive)
REMARK    1  A    between atoms: C3_4  and  O2_5 
REMARK    2  A    between atoms: O2_5  and  C4_6 
REMARK    3  A    between atoms: C7_9  and  C8_10 
REMARK    4  A    between atoms: N1_11  and  C9_13 
REMARK    5  A    between atoms: C9_13  and  C10_14 
REMARK    6  A    between atoms: C10_14  and  C11_15 
REMARK    7  A    between atoms: C22_26  and  C23_27 
REMARK    8  A    between atoms: C29_35  and  O5_36 
REMARK    9  A    between atoms: C33_40  and  O6_41 
REMARK   10  A    between atoms: C36_44  and  O7_45 
REMARK   11  A    between atoms: C37_46  and  O8_47 
ROOT
HETATM    1  C4  UNL     1      -6.918  45.470 -19.020  1.00  0.00     0.127 C 
HETATM    2  C5  UNL     1      -5.996  44.876 -20.078  1.00  0.00     0.033 C 
HETATM    3  C6  UNL     1      -4.723  45.705 -20.211  1.00  0.00     0.021 C 
HETATM    4  C7  UNL     1      -4.951  47.217 -20.524  1.00  0.00     0.026 C 
HETATM    5  C17 UNL     1      -3.566  47.944 -20.258  1.00  0.00     0.009 C 
HETATM    6  C18 UNL     1      -2.496  47.762 -21.352  1.00  0.00     0.007 C 
HETATM    7  C19 UNL     1      -2.223  49.034 -22.148  1.00  0.00     0.013 C 
HETATM    8  C20 UNL     1      -1.863  50.311 -21.315  1.00  0.00    -0.005 C 
HETATM    9  C21 UNL     1      -2.400  51.506 -22.139  1.00  0.00     0.019 C 
HETATM   10  C22 UNL     1      -0.316  50.413 -21.075  1.00  0.00     0.028 C 
HETATM   11  C27 UNL     1      -0.077  49.570 -19.817  1.00  0.00     0.013 C 
HETATM   12  C28 UNL     1      -1.334  49.694 -18.960  1.00  0.00     0.040 C 
HETATM   13  C29 UNL     1      -2.458  50.240 -19.869  1.00  0.00     0.070 C 
HETATM   14  C30 UNL     1      -3.762  49.410 -19.829  1.00  0.00     0.026 C 
HETATM   15  C31 UNL     1      -4.485  49.444 -18.461  1.00  0.00     0.011 C 
HETATM   16  C32 UNL     1      -5.508  48.305 -18.282  1.00  0.00     0.039 C 
HETATM   17  C33 UNL     1      -6.097  47.832 -19.627  1.00  0.00     0.073 C 
HETATM   18  C34 UNL     1      -7.294  46.886 -19.437  1.00  0.00     0.071 C 
ENDROOT
BRANCH   1  19
HETATM   19  O2  UNL     1      -8.134  44.724 -18.936  1.00  0.00    -0.356 OA
BRANCH  19  20
HETATM   20  C3  UNL     1      -9.300  45.538 -18.801  1.00  0.00     0.263 C 
HETATM   21  O1  UNL     1      -9.788  45.528 -17.465  1.00  0.00    -0.354 OA
HETATM   22  C2  UNL     1     -10.845  46.477 -17.240  1.00  0.00     0.151 C 
HETATM   23  C1  UNL     1     -10.247  47.766 -16.688  1.00  0.00     0.042 C 
HETATM   24  C37 UNL     1     -11.750  46.684 -18.480  1.00  0.00     0.175 C 
HETATM   25  C36 UNL     1     -11.782  45.396 -19.316  1.00  0.00     0.154 C 
HETATM   26  C35 UNL     1     -10.375  44.952 -19.722  1.00  0.00     0.095 C 
BRANCH  24  27
HETATM   27  O8  UNL     1     -11.265  47.755 -19.297  1.00  0.00    -0.390 OA
HETATM   28  H51 UNL     1     -11.954  47.946 -19.960  1.00  0.00     0.210 HD
ENDBRANCH  24  27
BRANCH  25  29
HETATM   29  O7  UNL     1     -12.445  44.355 -18.595  1.00  0.00    -0.393 OA
HETATM   30  H49 UNL     1     -11.818  44.005 -17.931  1.00  0.00     0.210 HD
ENDBRANCH  25  29
ENDBRANCH  19  20
ENDBRANCH   1  19
BRANCH  17  31
HETATM   31  O6  UNL     1      -6.640  49.019 -20.243  1.00  0.00    -0.389 OA
HETATM   32  H43 UNL     1      -7.397  49.318 -19.707  1.00  0.00     0.210 HD
ENDBRANCH  17  31
BRANCH   4  33
HETATM   33  C8  UNL     1      -5.344  47.430 -21.993  1.00  0.00     0.068 C 
HETATM   34  N1  UNL     1      -6.535  47.197 -22.427  1.00  0.00    -0.401 N 
ATOM     35  H1  UNL     1      -7.286  46.874 -21.817  1.00  0.00     0.158 HD
BRANCH  34  36
HETATM   36  C9  UNL     1      -6.732  47.430 -23.863  1.00  0.00     0.123 C 
BRANCH  36  37
HETATM   37  C10 UNL     1      -6.087  48.764 -24.241  1.00  0.00     0.058 C 
BRANCH  37  38
HETATM   38  C11 UNL     1      -5.112  48.615 -25.382  1.00  0.00    -0.057 A 
HETATM   39  C12 UNL     1      -5.561  48.263 -26.662  1.00  0.00     0.007 A 
HETATM   40  C13 UNL     1      -4.653  48.113 -27.712  1.00  0.00     0.001 A 
HETATM   41  C14 UNL     1      -3.291  48.308 -27.492  1.00  0.00     0.000 A 
HETATM   42  C15 UNL     1      -2.834  48.649 -26.221  1.00  0.00     0.001 A 
HETATM   43  C16 UNL     1      -3.739  48.802 -25.170  1.00  0.00     0.007 A 
ENDBRANCH  37  38
ENDBRANCH  36  37
ENDBRANCH  34  36
ENDBRANCH   4  33
BRANCH  13  44
HETATM   44  O5  UNL     1      -2.744  51.559 -19.383  1.00  0.00    -0.389 OA
HETATM   45  H37 UNL     1      -3.547  51.884 -19.826  1.00  0.00     0.210 HD
ENDBRANCH  13  44
BRANCH  10  46
HETATM   46  C23 UNL     1       0.258  51.804 -20.946  1.00  0.00    -0.045 A 
HETATM   47  C24 UNL     1       0.764  52.606 -21.885  1.00  0.00     0.087 A 
HETATM   48  C25 UNL     1       1.167  53.845 -21.226  1.00  0.00     0.283 A 
HETATM   49  O3  UNL     1       1.673  54.802 -21.784  1.00  0.00    -0.260 OA
HETATM   50  O4  UNL     1       0.881  53.759 -19.900  1.00  0.00    -0.314 OA
HETATM   51  C26 UNL     1       0.286  52.490 -19.632  1.00  0.00     0.213 A 
ENDBRANCH  10  46
TORSDOF 11
ENDMDL
MODEL 2
REMARK minimizedAffinity -9.31979179
REMARK CNNscore 0.571972907
REMARK CNNaffinity 6.97521925
REMARK  11 active torsions:
REMARK  status: ('A' for Active; 'I' for Inactive)
REMARK    1  A    between atoms: C3_4  and  O2_5 
REMARK    2  A    between atoms: O2_5  and  C4_6 
REMARK    3  A    between atoms: C7_9  and  C8_10 
REMARK    4  A    between atoms: N1_11  and  C9_13 
REMARK    5  A    between atoms: C9_13  and  C10_14 
REMARK    6  A    between atoms: C10_14  and  C11_15 
REMARK    7  A    between atoms: C22_26  and  C23_27 
REMARK    8  A    between atoms: C29_35  and  O5_36 
REMARK    9  A    between atoms: C33_40  and  O6_41 
REMARK   10  A    between atoms: C36_44  and  O7_45 
REMARK   11  A    between atoms: C37_46  and  O8_47 
ROOT
HETATM    1  C4  UNL     1      -7.823  46.428 -20.341  1.00  0.00     0.127 C 
HETATM    2  C5  UNL     1      -6.964  45.853 -21.460  1.00  0.00     0.033 C 
HETATM    3  C6  UNL     1      -5.583  46.500 -21.466  1.00  0.00     0.021 C 
HETATM    4  C7  UNL     1      -5.587  48.058 -21.574  1.00  0.00     0.026 C 
HETATM    5  C17 UNL     1      -4.121  48.537 -21.198  1.00  0.00     0.009 C 
HETATM    6  C18 UNL     1      -3.055  48.350 -22.295  1.00  0.00     0.007 C 
HETATM    7  C19 UNL     1      -2.583  49.663 -22.909  1.00  0.00     0.013 C 
HETATM    8  C20 UNL     1      -2.072  50.754 -21.908  1.00  0.00    -0.005 C 
HETATM    9  C21 UNL     1      -2.410  52.112 -22.568  1.00  0.00     0.019 C 
HETATM   10  C22 UNL     1      -0.533  50.600 -21.640  1.00  0.00     0.028 C 
HETATM   11  C27 UNL     1      -0.453  49.573 -20.505  1.00  0.00     0.013 C 
HETATM   12  C28 UNL     1      -1.704  49.761 -19.653  1.00  0.00     0.040 C 
HETATM   13  C29 UNL     1      -2.713  50.578 -20.490  1.00  0.00     0.070 C 
HETATM   14  C30 UNL     1      -4.122  49.946 -20.577  1.00  0.00     0.026 C 
HETATM   15  C31 UNL     1      -4.872  49.902 -19.224  1.00  0.00     0.011 C 
HETATM   16  C32 UNL     1      -6.051  48.908 -19.211  1.00  0.00     0.039 C 
HETATM   17  C33 UNL     1      -6.660  48.706 -20.614  1.00  0.00     0.073 C 
HETATM   18  C34 UNL     1      -7.984  47.926 -20.566  1.00  0.00     0.071 C 
ENDROOT
BRANCH   1  19
HETATM   19  O2  UNL     1      -9.135  45.859 -20.371  1.00  0.00    -0.356 OA
BRANCH  19  20
HETATM   20  C3  UNL     1      -9.740  45.742 -19.082  1.00  0.00     0.263 C 
HETATM   21  O1  UNL     1     -10.537  46.880 -18.778  1.00  0.00    -0.354 OA
HETATM   22  C2  UNL     1     -11.313  46.725 -17.577  1.00  0.00     0.151 C 
HETATM   23  C1  UNL     1     -12.707  46.229 -17.946  1.00  0.00     0.042 C 
HETATM   24  C37 UNL     1     -10.603  45.865 -16.502  1.00  0.00     0.175 C 
HETATM   25  C36 UNL     1      -9.082  46.012 -16.646  1.00  0.00     0.154 C 
HETATM   26  C35 UNL     1      -8.610  45.643 -18.054  1.00  0.00     0.095 C 
BRANCH  24  27
HETATM   27  O8  UNL     1     -10.950  44.483 -16.638  1.00  0.00    -0.390 OA
HETATM   28  H51 UNL     1     -10.615  44.022 -15.848  1.00  0.00     0.210 HD
ENDBRANCH  24  27
BRANCH  25  29
HETATM   29  O7  UNL     1      -8.680  47.344 -16.318  1.00  0.00    -0.393 OA
HETATM   30  H49 UNL     1      -8.890  47.916 -17.084  1.00  0.00     0.210 HD
ENDBRANCH  25  29
ENDBRANCH  19  20
ENDBRANCH   1  19
BRANCH  17  31
HETATM   31  O6  UNL     1      -7.012  50.030 -21.070  1.00  0.00    -0.389 OA
HETATM   32  H43 UNL     1      -7.735  50.361 -20.506  1.00  0.00     0.210 HD
ENDBRANCH  17  31
BRANCH   4  33
HETATM   33  C8  UNL     1      -5.902  48.517 -23.005  1.00  0.00     0.068 C 
HETATM   34  N1  UNL     1      -6.233  47.689 -23.936  1.00  0.00    -0.401 N 
ATOM     35  H1  UNL     1      -6.320  46.686 -23.770  1.00  0.00     0.158 HD
BRANCH  34  36
HETATM   36  C9  UNL     1      -6.477  48.294 -25.250  1.00  0.00     0.123 C 
BRANCH  36  37
HETATM   37  C10 UNL     1      -7.196  47.277 -26.138  1.00  0.00     0.058 C 
BRANCH  37  38
HETATM   38  C11 UNL     1      -6.744  47.364 -27.575  1.00  0.00    -0.057 A 
HETATM   39  C12 UNL     1      -7.571  46.909 -28.611  1.00  0.00     0.007 A 
HETATM   40  C13 UNL     1      -7.143  46.979 -29.938  1.00  0.00     0.001 A 
HETATM   41  C14 UNL     1      -5.886  47.499 -30.240  1.00  0.00     0.000 A 
HETATM   42  C15 UNL     1      -5.053  47.947 -29.217  1.00  0.00     0.001 A 
HETATM   43  C16 UNL     1      -5.479  47.880 -27.890  1.00  0.00     0.007 A 
ENDBRANCH  37  38
ENDBRANCH  36  37
ENDBRANCH  34  36
ENDBRANCH   4  33
BRANCH  13  44
HETATM   44  O5  UNL     1      -2.824  51.848 -19.834  1.00  0.00    -0.389 OA
HETATM   45  H37 UNL     1      -3.560  52.341 -20.237  1.00  0.00     0.210 HD
ENDBRANCH  13  44
BRANCH  10  46
HETATM   46  C23 UNL     1       0.227  51.864 -21.319  1.00  0.00    -0.045 A 
HETATM   47  C24 UNL     1       0.781  52.757 -22.141  1.00  0.00     0.087 A 
HETATM   48  C25 UNL     1       1.382  53.798 -21.312  1.00  0.00     0.283 A 
HETATM   49  O3  UNL     1       1.977  54.772 -21.735  1.00  0.00    -0.260 OA
HETATM   50  O4  UNL     1       1.163  53.507 -20.002  1.00  0.00    -0.314 OA
HETATM   51  C26 UNL     1       0.420  52.291 -19.912  1.00  0.00     0.213 A 
ENDBRANCH  10  46
TORSDOF 11
ENDMDL
MODEL 3
REMARK minimizedAffinity -9.03713131
REMARK CNNscore 0.46956265
REMARK CNNaffinity 6.77672768
REMARK  11 active torsions:
REMARK  status: ('A' for Active; 'I' for Inactive)
REMARK    1  A    between atoms: C3_4  and  O2_5 
REMARK    2  A    between atoms: O2_5  and  C4_6 
REMARK    3  A    between atoms: C7_9  and  C8_10 
REMARK    4  A    between atoms: N1_11  and  C9_13 
REMARK    5  A    between atoms: C9_13  and  C10_14 
REMARK    6  A    between atoms: C10_14  and  C11_15 
REMARK    7  A    between atoms: C22_26  and  C23_27 
REMARK    8  A    between atoms: C29_35  and  O5_36 
REMARK    9  A    between atoms: C33_40  and  O6_41 
REMARK   10  A    between atoms: C36_44  and  O7_45 
REMARK   11  A    between atoms: C37_46  and  O8_47 
ROOT
HETATM    1  C4  UNL     1      -7.847  46.199 -20.869  1.00  0.00     0.127 C 
HETATM    2  C5  UNL     1      -6.896  45.646 -21.924  1.00  0.00     0.033 C 
HETATM    3  C6  UNL     1      -5.531  46.319 -21.825  1.00  0.00     0.021 C 
HETATM    4  C7  UNL     1      -5.556  47.877 -21.928  1.00  0.00     0.026 C 
HETATM    5  C17 UNL     1      -4.132  48.380 -21.442  1.00  0.00     0.009 C 
HETATM    6  C18 UNL     1      -2.984  48.219 -22.458  1.00  0.00     0.007 C 
HETATM    7  C19 UNL     1      -2.493  49.544 -23.030  1.00  0.00     0.013 C 
HETATM    8  C20 UNL     1      -2.077  50.639 -21.990  1.00  0.00    -0.005 C 
HETATM    9  C21 UNL     1      -2.391  51.994 -22.667  1.00  0.00     0.019 C 
HETATM   10  C22 UNL     1      -0.560  50.511 -21.610  1.00  0.00     0.028 C 
HETATM   11  C27 UNL     1      -0.544  49.480 -20.476  1.00  0.00     0.013 C 
HETATM   12  C28 UNL     1      -1.858  49.641 -19.717  1.00  0.00     0.040 C 
HETATM   13  C29 UNL     1      -2.818  50.444 -20.624  1.00  0.00     0.070 C 
HETATM   14  C30 UNL     1      -4.204  49.786 -20.817  1.00  0.00     0.026 C 
HETATM   15  C31 UNL     1      -5.052  49.721 -19.524  1.00  0.00     0.011 C 
HETATM   16  C32 UNL     1      -6.209  48.705 -19.602  1.00  0.00     0.039 C 
HETATM   17  C33 UNL     1      -6.709  48.500 -21.047  1.00  0.00     0.073 C 
HETATM   18  C34 UNL     1      -8.018  47.695 -21.100  1.00  0.00     0.071 C 
ENDROOT
BRANCH   1  19
HETATM   19  O2  UNL     1      -9.141  45.607 -20.998  1.00  0.00    -0.356 OA
BRANCH  19  20
HETATM   20  C3  UNL     1      -9.181  44.504 -21.906  1.00  0.00     0.263 C 
HETATM   21  O1  UNL     1     -10.014  44.785 -23.025  1.00  0.00    -0.354 OA
HETATM   22  C2  UNL     1      -9.938  43.783 -24.054  1.00  0.00     0.151 C 
HETATM   23  C1  UNL     1      -8.911  44.215 -25.095  1.00  0.00     0.042 C 
HETATM   24  C37 UNL     1      -9.705  42.356 -23.496  1.00  0.00     0.175 C 
HETATM   25  C36 UNL     1     -10.320  42.244 -22.094  1.00  0.00     0.154 C 
HETATM   26  C35 UNL     1      -9.764  43.309 -21.147  1.00  0.00     0.095 C 
BRANCH  24  27
HETATM   27  O8  UNL     1      -8.306  42.059 -23.414  1.00  0.00    -0.390 OA
HETATM   28  H51 UNL     1      -8.225  41.107 -23.220  1.00  0.00     0.210 HD
ENDBRANCH  24  27
BRANCH  25  29
HETATM   29  O7  UNL     1     -11.744  42.338 -22.170  1.00  0.00    -0.393 OA
HETATM   30  H49 UNL     1     -11.975  43.282 -22.285  1.00  0.00     0.210 HD
ENDBRANCH  25  29
ENDBRANCH  19  20
ENDBRANCH   1  19
BRANCH  17  31
HETATM   31  O6  UNL     1      -7.052  49.820 -21.522  1.00  0.00    -0.389 OA
HETATM   32  H43 UNL     1      -7.820  50.134 -21.012  1.00  0.00     0.210 HD
ENDBRANCH  17  31
BRANCH   4  33
HETATM   33  C8  UNL     1      -5.773  48.338 -23.376  1.00  0.00     0.068 C 
HETATM   34  N1  UNL     1      -6.167  47.532 -24.302  1.00  0.00    -0.401 N 
ATOM     35  H1  UNL     1      -6.371  46.549 -24.122  1.00  0.00     0.158 HD
BRANCH  34  36
HETATM   36  C9  UNL     1      -6.300  48.133 -25.635  1.00  0.00     0.123 C 
BRANCH  36  37
HETATM   37  C10 UNL     1      -7.166  47.221 -26.505  1.00  0.00     0.058 C 
BRANCH  37  38
HETATM   38  C11 UNL     1      -6.831  47.353 -27.969  1.00  0.00    -0.057 A 
HETATM   39  C12 UNL     1      -7.732  46.915 -28.949  1.00  0.00     0.007 A 
HETATM   40  C13 UNL     1      -7.411  47.027 -30.303  1.00  0.00     0.001 A 
HETATM   41  C14 UNL     1      -6.188  47.573 -30.689  1.00  0.00     0.000 A 
HETATM   42  C15 UNL     1      -5.282  48.004 -29.722  1.00  0.00     0.001 A 
HETATM   43  C16 UNL     1      -5.601  47.895 -28.368  1.00  0.00     0.007 A 
ENDBRANCH  37  38
ENDBRANCH  36  37
ENDBRANCH  34  36
ENDBRANCH   4  33
BRANCH  13  44
HETATM   44  O5  UNL     1      -3.001  51.708 -19.973  1.00  0.00    -0.389 OA
HETATM   45  H37 UNL     1      -3.714  52.190 -20.427  1.00  0.00     0.210 HD
ENDBRANCH  13  44
BRANCH  10  46
HETATM   46  C23 UNL     1       0.151  51.788 -21.227  1.00  0.00    -0.045 A 
HETATM   47  C24 UNL     1       0.735  52.702 -22.004  1.00  0.00     0.087 A 
HETATM   48  C25 UNL     1       1.260  53.746 -21.128  1.00  0.00     0.283 A 
HETATM   49  O3  UNL     1       1.859  54.737 -21.502  1.00  0.00    -0.260 OA
HETATM   50  O4  UNL     1       0.966  53.434 -19.838  1.00  0.00    -0.314 OA
HETATM   51  C26 UNL     1       0.247  52.202 -19.807  1.00  0.00     0.213 A 
ENDBRANCH  10  46
TORSDOF 11
ENDMDL
MODEL 4
REMARK minimizedAffinity -8.88943005
REMARK CNNscore 0.455469728
REMARK CNNaffinity 7.23273277
REMARK  11 active torsions:
REMARK  status: ('A' for Active; 'I' for Inactive)
REMARK    1  A    between atoms: C3_4  and  O2_5 
REMARK    2  A    between atoms: O2_5  and  C4_6 
REMARK    3  A    between atoms: C7_9  and  C8_10 
REMARK    4  A    between atoms: N1_11  and  C9_13 
REMARK    5  A    between atoms: C9_13  and  C10_14 
REMARK    6  A    between atoms: C10_14  and  C11_15 
REMARK    7  A    between atoms: C22_26  and  C23_27 
REMARK    8  A    between atoms: C29_35  and  O5_36 
REMARK    9  A    between atoms: C33_40  and  O6_41 
REMARK   10  A    between atoms: C36_44  and  O7_45 
REMARK   11  A    between atoms: C37_46  and  O8_47 
ROOT
HETATM    1  C4  UNL     1      -3.053  50.198 -11.127  1.00  0.00     0.127 C 
HETATM    2  C5  UNL     1      -1.758  49.635 -11.700  1.00  0.00     0.033 C 
HETATM    3  C6  UNL     1      -0.548  50.285 -11.038  1.00  0.00     0.021 C 
HETATM    4  C7  UNL     1      -0.508  51.844 -11.125  1.00  0.00     0.026 C 
HETATM    5  C17 UNL     1       0.594  52.322 -10.088  1.00  0.00     0.009 C 
HETATM    6  C18 UNL     1       2.057  52.147 -10.541  1.00  0.00     0.007 C 
HETATM    7  C19 UNL     1       2.758  53.467 -10.844  1.00  0.00     0.013 C 
HETATM    8  C20 UNL     1       2.720  54.549  -9.712  1.00  0.00    -0.005 C 
HETATM    9  C21 UNL     1       2.731  55.913 -10.445  1.00  0.00     0.019 C 
HETATM   10  C22 UNL     1       3.942  54.396  -8.740  1.00  0.00     0.028 C 
HETATM   11  C27 UNL     1       3.474  53.359  -7.713  1.00  0.00     0.013 C 
HETATM   12  C28 UNL     1       1.966  53.538  -7.564  1.00  0.00     0.040 C 
HETATM   13  C29 UNL     1       1.478  54.360  -8.778  1.00  0.00     0.070 C 
HETATM   14  C30 UNL     1       0.287  53.726  -9.534  1.00  0.00     0.026 C 
HETATM   15  C31 UNL     1      -1.020  53.669  -8.708  1.00  0.00     0.011 C 
HETATM   16  C32 UNL     1      -2.054  52.672  -9.269  1.00  0.00     0.039 C 
HETATM   17  C33 UNL     1      -1.914  52.482 -10.793  1.00  0.00     0.073 C 
HETATM   18  C34 UNL     1      -3.094  51.698 -11.392  1.00  0.00     0.071 C 
ENDROOT
BRANCH   1  19
HETATM   19  O2  UNL     1      -4.186  49.628 -11.786  1.00  0.00    -0.356 OA
BRANCH  19  20
HETATM   20  C3  UNL     1      -5.131  49.034 -10.895  1.00  0.00     0.263 C 
HETATM   21  O1  UNL     1      -6.016  48.159 -11.585  1.00  0.00    -0.354 OA
HETATM   22  C2  UNL     1      -6.861  47.398 -10.706  1.00  0.00     0.151 C 
HETATM   23  C1  UNL     1      -6.214  46.042 -10.443  1.00  0.00     0.042 C 
HETATM   24  C37 UNL     1      -7.250  48.168  -9.419  1.00  0.00     0.175 C 
HETATM   25  C36 UNL     1      -7.283  49.675  -9.711  1.00  0.00     0.154 C 
HETATM   26  C35 UNL     1      -5.949  50.170 -10.273  1.00  0.00     0.095 C 
BRANCH  24  27
HETATM   27  O8  UNL     1      -6.311  47.920  -8.367  1.00  0.00    -0.390 OA
HETATM   28  H51 UNL     1      -6.691  48.288  -7.549  1.00  0.00     0.210 HD
ENDBRANCH  24  27
BRANCH  25  29
HETATM   29  O7  UNL     1      -8.348  49.981 -10.612  1.00  0.00    -0.393 OA
HETATM   30  H49 UNL     1      -8.060  49.731 -11.513  1.00  0.00     0.210 HD
ENDBRANCH  25  29
ENDBRANCH  19  20
ENDBRANCH   1  19
BRANCH  17  31
HETATM   31  O6  UNL     1      -2.013  53.809 -11.353  1.00  0.00    -0.389 OA
HETATM   32  H43 UNL     1      -2.920  54.133 -11.203  1.00  0.00     0.210 HD
ENDBRANCH  17  31
BRANCH   4  33
HETATM   33  C8  UNL     1      -0.101  52.315 -12.528  1.00  0.00     0.068 C 
HETATM   34  N1  UNL     1       0.383  51.509 -13.410  1.00  0.00    -0.401 N 
ATOM     35  H1  UNL     1       0.508  50.513 -13.231  1.00  0.00     0.158 HD
BRANCH  34  36
HETATM   36  C9  UNL     1       0.742  52.130 -14.691  1.00  0.00     0.123 C 
BRANCH  36  37
HETATM   37  C10 UNL     1       1.227  51.043 -15.650  1.00  0.00     0.058 C 
BRANCH  37  38
HETATM   38  C11 UNL     1       0.701  51.249 -17.049  1.00  0.00    -0.057 A 
HETATM   39  C12 UNL     1      -0.057  50.252 -17.679  1.00  0.00     0.007 A 
HETATM   40  C13 UNL     1      -0.530  50.442 -18.979  1.00  0.00     0.001 A 
HETATM   41  C14 UNL     1      -0.247  51.624 -19.660  1.00  0.00     0.000 A 
HETATM   42  C15 UNL     1       0.513  52.617 -19.045  1.00  0.00     0.001 A 
HETATM   43  C16 UNL     1       0.985  52.431 -17.746  1.00  0.00     0.007 A 
ENDBRANCH  37  38
ENDBRANCH  36  37
ENDBRANCH  34  36
ENDBRANCH   4  33
BRANCH  13  44
HETATM   44  O5  UNL     1       1.058  55.624  -8.247  1.00  0.00    -0.389 OA
HETATM   45  H37 UNL     1       0.603  56.119  -8.950  1.00  0.00     0.210 HD
ENDBRANCH  13  44
BRANCH  10  46
HETATM   46  C23 UNL     1       4.447  55.659  -8.085  1.00  0.00    -0.045 A 
HETATM   47  C24 UNL     1       5.454  55.827  -7.225  1.00  0.00     0.087 A 
HETATM   48  C25 UNL     1       5.525  57.252  -6.913  1.00  0.00     0.283 A 
HETATM   49  O3  UNL     1       6.330  57.763  -6.156  1.00  0.00    -0.260 OA
HETATM   50  O4  UNL     1       4.558  57.910  -7.607  1.00  0.00    -0.314 OA
HETATM   51  C26 UNL     1       3.826  56.970  -8.393  1.00  0.00     0.213 A 
ENDBRANCH  10  46
TORSDOF 11
ENDMDL
MODEL 5
REMARK minimizedAffinity -11.1666613
REMARK CNNscore 0.309974283
REMARK CNNaffinity 7.06171751
REMARK  11 active torsions:
REMARK  status: ('A' for Active; 'I' for Inactive)
REMARK    1  A    between atoms: C3_4  and  O2_5 
REMARK    2  A    between atoms: O2_5  and  C4_6 
REMARK    3  A    between atoms: C7_9  and  C8_10 
REMARK    4  A    between atoms: N1_11  and  C9_13 
REMARK    5  A    between atoms: C9_13  and  C10_14 
REMARK    6  A    between atoms: C10_14  and  C11_15 
REMARK    7  A    between atoms: C22_26  and  C23_27 
REMARK    8  A    between atoms: C29_35  and  O5_36 
REMARK    9  A    between atoms: C33_40  and  O6_41 
REMARK   10  A    between atoms: C36_44  and  O7_45 
REMARK   11  A    between atoms: C37_46  and  O8_47 
ROOT
HETATM    1  C4  UNL     1      -8.584  47.383 -22.957  1.00  0.00     0.127 C 
HETATM    2  C5  UNL     1      -7.475  46.414 -23.349  1.00  0.00     0.033 C 
HETATM    3  C6  UNL     1      -6.134  46.874 -22.787  1.00  0.00     0.021 C 
HETATM    4  C7  UNL     1      -5.712  48.322 -23.191  1.00  0.00     0.026 C 
HETATM    5  C17 UNL     1      -4.514  48.723 -22.232  1.00  0.00     0.009 C 
HETATM    6  C18 UNL     1      -3.145  48.106 -22.579  1.00  0.00     0.007 C 
HETATM    7  C19 UNL     1      -2.144  49.122 -23.119  1.00  0.00     0.013 C 
HETATM    8  C20 UNL     1      -1.900  50.393 -22.237  1.00  0.00    -0.005 C 
HETATM    9  C21 UNL     1      -1.562  51.528 -23.233  1.00  0.00     0.019 C 
HETATM   10  C22 UNL     1      -0.742  50.154 -21.206  1.00  0.00     0.028 C 
HETATM   11  C27 UNL     1      -1.439  49.502 -20.007  1.00  0.00     0.013 C 
HETATM   12  C28 UNL     1      -2.854  50.069 -19.959  1.00  0.00     0.040 C 
HETATM   13  C29 UNL     1      -3.139  50.713 -21.334  1.00  0.00     0.070 C 
HETATM   14  C30 UNL     1      -4.458  50.243 -21.991  1.00  0.00     0.026 C 
HETATM   15  C31 UNL     1      -5.729  50.681 -21.225  1.00  0.00     0.011 C 
HETATM   16  C32 UNL     1      -6.984  49.871 -21.610  1.00  0.00     0.039 C 
HETATM   17  C33 UNL     1      -6.914  49.338 -23.055  1.00  0.00     0.073 C 
HETATM   18  C34 UNL     1      -8.257  48.757 -23.527  1.00  0.00     0.071 C 
ENDROOT
BRANCH   1  19
HETATM   19  O2  UNL     1      -9.830  46.980 -23.530  1.00  0.00    -0.356 OA
BRANCH  19  20
HETATM   20  C3  UNL     1      -9.838  46.994 -24.958  1.00  0.00     0.263 C 
HETATM   21  O1  UNL     1      -9.156  48.133 -25.470  1.00  0.00    -0.354 OA
HETATM   22  C2  UNL     1      -8.976  48.094 -26.896  1.00  0.00     0.151 C 
HETATM   23  C1  UNL     1      -7.601  47.512 -27.207  1.00  0.00     0.042 C 
HETATM   24  C37 UNL     1     -10.139  47.389 -27.636  1.00  0.00     0.175 C 
HETATM   25  C36 UNL     1     -11.440  47.568 -26.841  1.00  0.00     0.154 C 
HETATM   26  C35 UNL     1     -11.300  47.053 -25.407  1.00  0.00     0.095 C 
BRANCH  24  27
HETATM   27  O8  UNL     1      -9.878  45.989 -27.789  1.00  0.00    -0.390 OA
HETATM   28  H51 UNL     1     -10.552  45.635 -28.397  1.00  0.00     0.210 HD
ENDBRANCH  24  27
BRANCH  25  29
HETATM   29  O7  UNL     1     -11.835  48.942 -26.841  1.00  0.00    -0.393 OA
HETATM   30  H49 UNL     1     -11.276  49.413 -26.191  1.00  0.00     0.210 HD
ENDBRANCH  25  29
ENDBRANCH  19  20
ENDBRANCH   1  19
BRANCH  17  31
HETATM   31  O6  UNL     1      -6.688  50.501 -23.880  1.00  0.00    -0.389 OA
HETATM   32  H43 UNL     1      -7.485  51.061 -23.837  1.00  0.00     0.210 HD
ENDBRANCH  17  31
BRANCH   4  33
HETATM   33  C8  UNL     1      -5.218  48.374 -24.644  1.00  0.00     0.068 C 
HETATM   34  N1  UNL     1      -4.649  49.420 -25.139  1.00  0.00    -0.401 N 
ATOM     35  H1  UNL     1      -4.480  50.263 -24.590  1.00  0.00     0.158 HD
BRANCH  34  36
HETATM   36  C9  UNL     1      -4.260  49.308 -26.550  1.00  0.00     0.123 C 
BRANCH  36  37
HETATM   37  C10 UNL     1      -2.754  49.055 -26.631  1.00  0.00     0.058 C 
BRANCH  37  38
HETATM   38  C11 UNL     1      -1.975  50.336 -26.795  1.00  0.00    -0.057 A 
HETATM   39  C12 UNL     1      -0.610  50.386 -26.482  1.00  0.00     0.007 A 
HETATM   40  C13 UNL     1       0.104  51.577 -26.622  1.00  0.00     0.001 A 
HETATM   41  C14 UNL     1      -0.540  52.729 -27.071  1.00  0.00     0.000 A 
HETATM   42  C15 UNL     1      -1.899  52.692 -27.376  1.00  0.00     0.001 A 
HETATM   43  C16 UNL     1      -2.614  51.502 -27.239  1.00  0.00     0.007 A 
ENDBRANCH  37  38
ENDBRANCH  36  37
ENDBRANCH  34  36
ENDBRANCH   4  33
BRANCH  13  44
HETATM   44  O5  UNL     1      -3.228  52.123 -21.093  1.00  0.00    -0.389 OA
HETATM   45  H37 UNL     1      -3.555  52.556 -21.901  1.00  0.00     0.210 HD
ENDBRANCH  13  44
BRANCH  10  46
HETATM   46  C23 UNL     1       0.067  51.365 -20.804  1.00  0.00    -0.045 A 
HETATM   47  C24 UNL     1       0.852  52.147 -21.546  1.00  0.00     0.087 A 
HETATM   48  C25 UNL     1       1.387  53.184 -20.668  1.00  0.00     0.283 A 
HETATM   49  O3  UNL     1       2.146  54.071 -21.014  1.00  0.00    -0.260 OA
HETATM   50  O4  UNL     1       0.898  53.002 -19.413  1.00  0.00    -0.314 OA
HETATM   51  C26 UNL     1       0.033  51.866 -19.409  1.00  0.00     0.213 A 
ENDBRANCH  10  46
TORSDOF 11
ENDMDL
MODEL 6
REMARK minimizedAffinity -9.73558712
REMARK CNNscore 0.275211394
REMARK CNNaffinity 6.59024811
REMARK  11 active torsions:
REMARK  status: ('A' for Active; 'I' for Inactive)
REMARK    1  A    between atoms: C3_4  and  O2_5 
REMARK    2  A    between atoms: O2_5  and  C4_6 
REMARK    3  A    between atoms: C7_9  and  C8_10 
REMARK    4  A    between atoms: N1_11  and  C9_13 
REMARK    5  A    between atoms: C9_13  and  C10_14 
REMARK    6  A    between atoms: C10_14  and  C11_15 
REMARK    7  A    between atoms: C22_26  and  C23_27 
REMARK    8  A    between atoms: C29_35  and  O5_36 
REMARK    9  A    between atoms: C33_40  and  O6_41 
REMARK   10  A    between atoms: C36_44  and  O7_45 
REMARK   11  A    between atoms: C37_46  and  O8_47 
ROOT
HETATM    1  C4  UNL     1      -3.968  51.089 -24.109  1.00  0.00     0.127 C 
HETATM    2  C5  UNL     1      -2.930  50.089 -23.614  1.00  0.00     0.033 C 
HETATM    3  C6  UNL     1      -3.592  48.768 -23.236  1.00  0.00     0.021 C 
HETATM    4  C7  UNL     1      -4.734  48.883 -22.177  1.00  0.00     0.026 C 
HETATM    5  C17 UNL     1      -5.512  47.500 -22.205  1.00  0.00     0.009 C 
HETATM    6  C18 UNL     1      -4.813  46.327 -21.490  1.00  0.00     0.007 C 
HETATM    7  C19 UNL     1      -5.509  45.905 -20.200  1.00  0.00     0.013 C 
HETATM    8  C20 UNL     1      -7.036  45.574 -20.311  1.00  0.00    -0.005 C 
HETATM    9  C21 UNL     1      -7.642  45.956 -18.940  1.00  0.00     0.019 C 
HETATM   10  C22 UNL     1      -7.263  44.059 -20.651  1.00  0.00     0.028 C 
HETATM   11  C27 UNL     1      -7.177  44.002 -22.180  1.00  0.00     0.013 C 
HETATM   12  C28 UNL     1      -7.704  45.337 -22.700  1.00  0.00     0.040 C 
HETATM   13  C29 UNL     1      -7.701  46.326 -21.512  1.00  0.00     0.070 C 
HETATM   14  C30 UNL     1      -6.990  47.667 -21.809  1.00  0.00     0.026 C 
HETATM   15  C31 UNL     1      -7.705  48.532 -22.874  1.00  0.00     0.011 C 
HETATM   16  C32 UNL     1      -6.802  49.626 -23.479  1.00  0.00     0.039 C 
HETATM   17  C33 UNL     1      -5.705  50.087 -22.497  1.00  0.00     0.073 C 
HETATM   18  C34 UNL     1      -4.972  51.345 -22.993  1.00  0.00     0.071 C 
ENDROOT
BRANCH   1  19
HETATM   19  O2  UNL     1      -3.353  52.344 -24.411  1.00  0.00    -0.356 OA
BRANCH  19  20
HETATM   20  C3  UNL     1      -2.230  52.238 -25.287  1.00  0.00     0.263 C 
HETATM   21  O1  UNL     1      -1.363  53.358 -25.156  1.00  0.00    -0.354 OA
HETATM   22  C2  UNL     1      -0.128  53.207 -25.877  1.00  0.00     0.151 C 
HETATM   23  C1  UNL     1       0.937  52.659 -24.932  1.00  0.00     0.042 C 
HETATM   24  C37 UNL     1      -0.285  52.395 -27.187  1.00  0.00     0.175 C 
HETATM   25  C36 UNL     1      -1.702  52.585 -27.745  1.00  0.00     0.154 C 
HETATM   26  C35 UNL     1      -2.769  52.198 -26.719  1.00  0.00     0.095 C 
BRANCH  24  27
HETATM   27  O8  UNL     1      -0.061  50.999 -26.956  1.00  0.00    -0.390 OA
HETATM   28  H51 UNL     1      -0.007  50.568 -27.828  1.00  0.00     0.210 HD
ENDBRANCH  24  27
BRANCH  25  29
HETATM   29  O7  UNL     1      -1.888  53.936 -28.172  1.00  0.00    -0.393 OA
HETATM   30  H49 UNL     1      -2.040  54.483 -27.376  1.00  0.00     0.210 HD
ENDBRANCH  25  29
ENDBRANCH  19  20
ENDBRANCH   1  19
BRANCH  17  31
HETATM   31  O6  UNL     1      -6.410  50.499 -21.306  1.00  0.00    -0.389 OA
HETATM   32  H43 UNL     1      -6.931  51.294 -21.523  1.00  0.00     0.210 HD
ENDBRANCH  17  31
BRANCH   4  33
HETATM   33  C8  UNL     1      -4.168  49.102 -20.767  1.00  0.00     0.068 C 
HETATM   34  N1  UNL     1      -2.988  49.581 -20.566  1.00  0.00    -0.401 N 
ATOM     35  H1  UNL     1      -2.372  49.856 -21.331  1.00  0.00     0.158 HD
BRANCH  34  36
HETATM   36  C9  UNL     1      -2.597  49.702 -19.157  1.00  0.00     0.123 C 
BRANCH  36  37
HETATM   37  C10 UNL     1      -1.072  49.634 -19.059  1.00  0.00     0.058 C 
BRANCH  37  38
HETATM   38  C11 UNL     1      -0.416  50.888 -19.581  1.00  0.00    -0.057 A 
HETATM   39  C12 UNL     1      -0.334  52.035 -18.780  1.00  0.00     0.007 A 
HETATM   40  C13 UNL     1       0.261  53.198 -19.272  1.00  0.00     0.001 A 
HETATM   41  C14 UNL     1       0.774  53.226 -20.568  1.00  0.00     0.000 A 
HETATM   42  C15 UNL     1       0.690  52.093 -21.374  1.00  0.00     0.001 A 
HETATM   43  C16 UNL     1       0.097  50.929 -20.885  1.00  0.00     0.007 A 
ENDBRANCH  37  38
ENDBRANCH  36  37
ENDBRANCH  34  36
ENDBRANCH   4  33
BRANCH  13  44
HETATM   44  O5  UNL     1      -9.080  46.596 -21.228  1.00  0.00    -0.389 OA
HETATM   45  H37 UNL     1      -9.127  47.328 -20.588  1.00  0.00     0.210 HD
ENDBRANCH  13  44
BRANCH  10  46
HETATM   46  C23 UNL     1      -8.534  43.432 -20.129  1.00  0.00    -0.045 A 
HETATM   47  C24 UNL     1      -8.829  43.005 -18.900  1.00  0.00     0.087 A 
HETATM   48  C25 UNL     1     -10.198  42.496 -18.933  1.00  0.00     0.283 A 
HETATM   49  O3  UNL     1     -10.792  42.024 -17.982  1.00  0.00    -0.260 OA
HETATM   50  O4  UNL     1     -10.696  42.641 -20.190  1.00  0.00    -0.314 OA
HETATM   51  C26 UNL     1      -9.704  43.243 -21.020  1.00  0.00     0.213 A 
ENDBRANCH  10  46
TORSDOF 11
ENDMDL
MODEL 7
REMARK minimizedAffinity -8.52493286
REMARK CNNscore 0.274855971
REMARK CNNaffinity 6.14617109
REMARK  11 active torsions:
REMARK  status: ('A' for Active; 'I' for Inactive)
REMARK    1  A    between atoms: C3_4  and  O2_5 
REMARK    2  A    between atoms: O2_5  and  C4_6 
REMARK    3  A    between atoms: C7_9  and  C8_10 
REMARK    4  A    between atoms: N1_11  and  C9_13 
REMARK    5  A    between atoms: C9_13  and  C10_14 
REMARK    6  A    between atoms: C10_14  and  C11_15 
REMARK    7  A    between atoms: C22_26  and  C23_27 
REMARK    8  A    between atoms: C29_35  and  O5_36 
REMARK    9  A    between atoms: C33_40  and  O6_41 
REMARK   10  A    between atoms: C36_44  and  O7_45 
REMARK   11  A    between atoms: C37_46  and  O8_47 
ROOT
HETATM    1  C4  UNL     1      -7.272  46.559 -29.264  1.00  0.00     0.127 C 
HETATM    2  C5  UNL     1      -7.133  45.433 -28.246  1.00  0.00     0.033 C 
HETATM    3  C6  UNL     1      -8.503  44.981 -27.753  1.00  0.00     0.021 C 
HETATM    4  C7  UNL     1      -9.391  46.112 -27.144  1.00  0.00     0.026 C 
HETATM    5  C17 UNL     1     -10.860  45.523 -27.042  1.00  0.00     0.009 C 
HETATM    6  C18 UNL     1     -11.108  44.545 -25.876  1.00  0.00     0.007 C 
HETATM    7  C19 UNL     1     -12.004  45.121 -24.785  1.00  0.00     0.013 C 
HETATM    8  C20 UNL     1     -13.387  45.691 -25.251  1.00  0.00    -0.005 C 
HETATM    9  C21 UNL     1     -13.715  46.838 -24.266  1.00  0.00     0.019 C 
HETATM   10  C22 UNL     1     -14.492  44.576 -25.241  1.00  0.00     0.028 C 
HETATM   11  C27 UNL     1     -14.351  43.899 -26.609  1.00  0.00     0.013 C 
HETATM   12  C28 UNL     1     -13.883  44.974 -27.585  1.00  0.00     0.040 C 
HETATM   13  C29 UNL     1     -13.343  46.154 -26.747  1.00  0.00     0.070 C 
HETATM   14  C30 UNL     1     -11.928  46.626 -27.155  1.00  0.00     0.026 C 
HETATM   15  C31 UNL     1     -11.861  47.252 -28.569  1.00  0.00     0.011 C 
HETATM   16  C32 UNL     1     -10.431  47.315 -29.142  1.00  0.00     0.039 C 
HETATM   17  C33 UNL     1      -9.362  47.417 -28.034  1.00  0.00     0.073 C 
HETATM   18  C34 UNL     1      -7.969  47.738 -28.598  1.00  0.00     0.071 C 
ENDROOT
BRANCH   1  19
HETATM   19  O2  UNL     1      -5.985  47.019 -29.685  1.00  0.00    -0.356 OA
BRANCH  19  20
HETATM   20  C3  UNL     1      -5.861  47.165 -31.100  1.00  0.00     0.263 C 
HETATM   21  O1  UNL     1      -6.878  46.445 -31.787  1.00  0.00    -0.354 OA
HETATM   22  C2  UNL     1      -6.907  46.712 -33.199  1.00  0.00     0.151 C 
HETATM   23  C1  UNL     1      -7.925  47.814 -33.476  1.00  0.00     0.042 C 
HETATM   24  C37 UNL     1      -5.504  46.989 -33.794  1.00  0.00     0.175 C 
HETATM   25  C36 UNL     1      -4.442  46.230 -32.986  1.00  0.00     0.154 C 
HETATM   26  C35 UNL     1      -4.498  46.594 -31.501  1.00  0.00     0.095 C 
BRANCH  24  27
HETATM   27  O8  UNL     1      -5.199  48.388 -33.762  1.00  0.00    -0.390 OA
HETATM   28  H51 UNL     1      -4.392  48.519 -34.292  1.00  0.00     0.210 HD
ENDBRANCH  24  27
BRANCH  25  29
HETATM   29  O7  UNL     1      -4.601  44.821 -33.161  1.00  0.00    -0.393 OA
HETATM   30  H49 UNL     1      -5.350  44.533 -32.602  1.00  0.00     0.210 HD
ENDBRANCH  25  29
ENDBRANCH  19  20
ENDBRANCH   1  19
BRANCH  17  31
HETATM   31  O6  UNL     1      -9.734  48.571 -27.251  1.00  0.00    -0.389 OA
HETATM   32  H43 UNL     1      -9.622  49.363 -27.808  1.00  0.00     0.210 HD
ENDBRANCH  17  31
BRANCH   4  33
HETATM   33  C8  UNL     1      -8.916  46.497 -25.736  1.00  0.00     0.068 C 
HETATM   34  N1  UNL     1      -7.986  45.848 -25.122  1.00  0.00    -0.401 N 
ATOM     35  H1  UNL     1      -7.504  45.055 -25.543  1.00  0.00     0.158 HD
BRANCH  34  36
HETATM   36  C9  UNL     1      -7.672  46.336 -23.774  1.00  0.00     0.123 C 
BRANCH  36  37
HETATM   37  C10 UNL     1      -7.372  47.834 -23.845  1.00  0.00     0.058 C 
BRANCH  37  38
HETATM   38  C11 UNL     1      -5.947  48.104 -24.256  1.00  0.00    -0.057 A 
HETATM   39  C12 UNL     1      -5.604  48.216 -25.610  1.00  0.00     0.007 A 
HETATM   40  C13 UNL     1      -4.281  48.453 -25.987  1.00  0.00     0.001 A 
HETATM   41  C14 UNL     1      -3.289  48.575 -25.015  1.00  0.00     0.000 A 
HETATM   42  C15 UNL     1      -3.618  48.458 -23.666  1.00  0.00     0.001 A 
HETATM   43  C16 UNL     1      -4.940  48.223 -23.287  1.00  0.00     0.007 A 
ENDBRANCH  37  38
ENDBRANCH  36  37
ENDBRANCH  34  36
ENDBRANCH   4  33
BRANCH  13  44
HETATM   44  O5  UNL     1     -14.262  47.234 -26.960  1.00  0.00    -0.389 OA
HETATM   45  H37 UNL     1     -13.883  48.043 -26.573  1.00  0.00     0.210 HD
ENDBRANCH  13  44
BRANCH  10  46
HETATM   46  C23 UNL     1     -15.907  45.029 -24.973  1.00  0.00    -0.045 A 
HETATM   47  C24 UNL     1     -16.818  45.518 -25.816  1.00  0.00     0.087 A 
HETATM   48  C25 UNL     1     -18.028  45.784 -25.042  1.00  0.00     0.283 A 
HETATM   49  O3  UNL     1     -19.062  46.240 -25.495  1.00  0.00    -0.260 OA
HETATM   50  O4  UNL     1     -17.813  45.437 -23.746  1.00  0.00    -0.314 OA
HETATM   51  C26 UNL     1     -16.485  44.932 -23.610  1.00  0.00     0.213 A 
ENDBRANCH  10  46
TORSDOF 11
ENDMDL
MODEL 8
REMARK minimizedAffinity -8.34863758
REMARK CNNscore 0.244459718
REMARK CNNaffinity 6.42129898
REMARK  11 active torsions:
REMARK  status: ('A' for Active; 'I' for Inactive)
REMARK    1  A    between atoms: C3_4  and  O2_5 
REMARK    2  A    between atoms: O2_5  and  C4_6 
REMARK    3  A    between atoms: C7_9  and  C8_10 
REMARK    4  A    between atoms: N1_11  and  C9_13 
REMARK    5  A    between atoms: C9_13  and  C10_14 
REMARK    6  A    between atoms: C10_14  and  C11_15 
REMARK    7  A    between atoms: C22_26  and  C23_27 
REMARK    8  A    between atoms: C29_35  and  O5_36 
REMARK    9  A    between atoms: C33_40  and  O6_41 
REMARK   10  A    between atoms: C36_44  and  O7_45 
REMARK   11  A    between atoms: C37_46  and  O8_47 
ROOT
HETATM    1  C4  UNL     1      -0.222  50.101 -13.819  1.00  0.00     0.127 C 
HETATM    2  C5  UNL     1      -1.087  51.351 -13.712  1.00  0.00     0.033 C 
HETATM    3  C6  UNL     1      -0.308  52.491 -13.064  1.00  0.00     0.021 C 
HETATM    4  C7  UNL     1       0.291  52.164 -11.659  1.00  0.00     0.026 C 
HETATM    5  C17 UNL     1       1.339  53.312 -11.341  1.00  0.00     0.009 C 
HETATM    6  C18 UNL     1       0.738  54.660 -10.896  1.00  0.00     0.007 C 
HETATM    7  C19 UNL     1       0.985  54.975  -9.425  1.00  0.00     0.013 C 
HETATM    8  C20 UNL     1       2.475  54.918  -8.943  1.00  0.00    -0.005 C 
HETATM    9  C21 UNL     1       2.412  54.481  -7.459  1.00  0.00     0.019 C 
HETATM   10  C22 UNL     1       3.180  56.309  -9.115  1.00  0.00     0.028 C 
HETATM   11  C27 UNL     1       3.686  56.294 -10.562  1.00  0.00     0.013 C 
HETATM   12  C28 UNL     1       4.020  54.843 -10.896  1.00  0.00     0.040 C 
HETATM   13  C29 UNL     1       3.331  53.956  -9.835  1.00  0.00     0.070 C 
HETATM   14  C30 UNL     1       2.473  52.814 -10.426  1.00  0.00     0.026 C 
HETATM   15  C31 UNL     1       3.294  51.739 -11.178  1.00  0.00     0.011 C 
HETATM   16  C32 UNL     1       2.441  50.864 -12.118  1.00  0.00     0.039 C 
HETATM   17  C33 UNL     1       0.980  50.743 -11.637  1.00  0.00     0.073 C 
HETATM   18  C34 UNL     1       0.198  49.675 -12.418  1.00  0.00     0.071 C 
ENDROOT
BRANCH   1  19
HETATM   19  O2  UNL     1      -0.970  49.017 -14.377  1.00  0.00    -0.356 OA
BRANCH  19  20
HETATM   20  C3  UNL     1      -1.147  49.109 -15.791  1.00  0.00     0.263 C 
HETATM   21  O1  UNL     1      -1.486  50.433 -16.187  1.00  0.00    -0.354 OA
HETATM   22  C2  UNL     1      -1.490  50.615 -17.613  1.00  0.00     0.151 C 
HETATM   23  C1  UNL     1      -0.133  51.159 -18.049  1.00  0.00     0.042 C 
HETATM   24  C37 UNL     1      -1.938  49.349 -18.386  1.00  0.00     0.175 C 
HETATM   25  C36 UNL     1      -2.912  48.536 -17.523  1.00  0.00     0.154 C 
HETATM   26  C35 UNL     1      -2.298  48.172 -16.169  1.00  0.00     0.095 C 
BRANCH  24  27
HETATM   27  O8  UNL     1      -0.814  48.526 -18.719  1.00  0.00    -0.390 OA
HETATM   28  H51 UNL     1      -1.130  47.843 -19.338  1.00  0.00     0.210 HD
ENDBRANCH  24  27
BRANCH  25  29
HETATM   29  O7  UNL     1      -4.131  49.257 -17.340  1.00  0.00    -0.393 OA
HETATM   30  H49 UNL     1      -3.974  49.943 -16.660  1.00  0.00     0.210 HD
ENDBRANCH  25  29
ENDBRANCH  19  20
ENDBRANCH   1  19
BRANCH  17  31
HETATM   31  O6  UNL     1       1.066  50.243 -10.285  1.00  0.00    -0.389 OA
HETATM   32  H43 UNL     1       1.415  49.334 -10.320  1.00  0.00     0.210 HD
ENDBRANCH  17  31
BRANCH   4  33
HETATM   33  C8  UNL     1      -0.794  52.173 -10.573  1.00  0.00     0.068 C 
HETATM   34  N1  UNL     1      -1.981  52.628 -10.791  1.00  0.00    -0.401 N 
ATOM     35  H1  UNL     1      -2.270  52.990 -11.700  1.00  0.00     0.158 HD
BRANCH  34  36
HETATM   36  C9  UNL     1      -2.886  52.584  -9.637  1.00  0.00     0.123 C 
BRANCH  36  37
HETATM   37  C10 UNL     1      -2.755  51.221  -8.954  1.00  0.00     0.058 C 
BRANCH  37  38
HETATM   38  C11 UNL     1      -3.832  50.263  -9.396  1.00  0.00    -0.057 A 
HETATM   39  C12 UNL     1      -4.925  50.716 -10.146  1.00  0.00     0.007 A 
HETATM   40  C13 UNL     1      -5.927  49.828 -10.541  1.00  0.00     0.001 A 
HETATM   41  C14 UNL     1      -5.848  48.483 -10.186  1.00  0.00     0.000 A 
HETATM   42  C15 UNL     1      -4.769  48.024  -9.433  1.00  0.00     0.001 A 
HETATM   43  C16 UNL     1      -3.765  48.909  -9.039  1.00  0.00     0.007 A 
ENDBRANCH  37  38
ENDBRANCH  36  37
ENDBRANCH  34  36
ENDBRANCH   4  33
BRANCH  13  44
HETATM   44  O5  UNL     1       4.392  53.377  -9.064  1.00  0.00    -0.389 OA
HETATM   45  H37 UNL     1       4.014  52.694  -8.482  1.00  0.00     0.210 HD
ENDBRANCH  13  44
BRANCH  10  46
HETATM   46  C23 UNL     1       4.277  56.638  -8.131  1.00  0.00    -0.045 A 
HETATM   47  C24 UNL     1       4.264  57.470  -7.088  1.00  0.00     0.087 A 
HETATM   48  C25 UNL     1       5.583  57.404  -6.464  1.00  0.00     0.283 A 
HETATM   49  O3  UNL     1       5.924  58.039  -5.483  1.00  0.00    -0.260 OA
HETATM   50  O4  UNL     1       6.357  56.520  -7.147  1.00  0.00    -0.314 OA
HETATM   51  C26 UNL     1       5.599  55.971  -8.225  1.00  0.00     0.213 A 
ENDBRANCH  10  46
TORSDOF 11
ENDMDL
MODEL 9
REMARK minimizedAffinity -9.15916634
REMARK CNNscore 0.243461639
REMARK CNNaffinity 6.8508935
REMARK  11 active torsions:
REMARK  status: ('A' for Active; 'I' for Inactive)
REMARK    1  A    between atoms: C3_4  and  O2_5 
REMARK    2  A    between atoms: O2_5  and  C4_6 
REMARK    3  A    between atoms: C7_9  and  C8_10 
REMARK    4  A    between atoms: N1_11  and  C9_13 
REMARK    5  A    between atoms: C9_13  and  C10_14 
REMARK    6  A    between atoms: C10_14  and  C11_15 
REMARK    7  A    between atoms: C22_26  and  C23_27 
REMARK    8  A    between atoms: C29_35  and  O5_36 
REMARK    9  A    between atoms: C33_40  and  O6_41 
REMARK   10  A    between atoms: C36_44  and  O7_45 
REMARK   11  A    between atoms: C37_46  and  O8_47 
ROOT
HETATM    1  C4  UNL     1       3.106  50.369 -13.467  1.00  0.00     0.127 C 
HETATM    2  C5  UNL     1       2.306  49.081 -13.615  1.00  0.00     0.033 C 
HETATM    3  C6  UNL     1       1.640  49.015 -14.986  1.00  0.00     0.021 C 
HETATM    4  C7  UNL     1       0.720  50.230 -15.330  1.00  0.00     0.026 C 
HETATM    5  C17 UNL     1       0.436  50.149 -16.888  1.00  0.00     0.009 C 
HETATM    6  C18 UNL     1      -0.601  49.095 -17.325  1.00  0.00     0.007 C 
HETATM    7  C19 UNL     1      -1.910  49.703 -17.816  1.00  0.00     0.013 C 
HETATM    8  C20 UNL     1      -1.795  50.777 -18.950  1.00  0.00    -0.005 C 
HETATM    9  C21 UNL     1      -2.980  51.746 -18.724  1.00  0.00     0.019 C 
HETATM   10  C22 UNL     1      -1.846  50.110 -20.370  1.00  0.00     0.028 C 
HETATM   11  C27 UNL     1      -0.392  49.713 -20.648  1.00  0.00     0.013 C 
HETATM   12  C28 UNL     1       0.487  50.746 -19.950  1.00  0.00     0.040 C 
HETATM   13  C29 UNL     1      -0.401  51.490 -18.927  1.00  0.00     0.070 C 
HETATM   14  C30 UNL     1       0.189  51.541 -17.498  1.00  0.00     0.026 C 
HETATM   15  C31 UNL     1       1.484  52.380 -17.385  1.00  0.00     0.011 C 
HETATM   16  C32 UNL     1       2.295  52.083 -16.107  1.00  0.00     0.039 C 
HETATM   17  C33 UNL     1       1.400  51.602 -14.947  1.00  0.00     0.073 C 
HETATM   18  C34 UNL     1       2.159  51.553 -13.610  1.00  0.00     0.071 C 
ENDROOT
BRANCH   1  19
HETATM   19  O2  UNL     1       3.685  50.454 -12.162  1.00  0.00    -0.356 OA
BRANCH  19  20
HETATM   20  C3  UNL     1       3.098  51.462 -11.337  1.00  0.00     0.263 C 
HETATM   21  O1  UNL     1       4.088  52.171 -10.601  1.00  0.00    -0.354 OA
HETATM   22  C2  UNL     1       3.565  53.314  -9.902  1.00  0.00     0.151 C 
HETATM   23  C1  UNL     1       3.756  54.556 -10.767  1.00  0.00     0.042 C 
HETATM   24  C37 UNL     1       2.112  53.110  -9.406  1.00  0.00     0.175 C 
HETATM   25  C36 UNL     1       1.868  51.622  -9.123  1.00  0.00     0.154 C 
HETATM   26  C35 UNL     1       2.162  50.758 -10.351  1.00  0.00     0.095 C 
BRANCH  24  27
HETATM   27  O8  UNL     1       1.167  53.557 -10.385  1.00  0.00    -0.390 OA
HETATM   28  H51 UNL     1       0.291  53.561  -9.960  1.00  0.00     0.210 HD
ENDBRANCH  24  27
BRANCH  25  29
HETATM   29  O7  UNL     1       2.657  51.193  -8.012  1.00  0.00    -0.393 OA
HETATM   30  H49 UNL     1       3.574  51.067  -8.328  1.00  0.00     0.210 HD
ENDBRANCH  25  29
ENDBRANCH  19  20
ENDBRANCH   1  19
BRANCH  17  31
HETATM   31  O6  UNL     1       0.403  52.633 -14.783  1.00  0.00    -0.389 OA
HETATM   32  H43 UNL     1       0.850  53.439 -14.465  1.00  0.00     0.210 HD
ENDBRANCH  17  31
BRANCH   4  33
HETATM   33  C8  UNL     1      -0.618  50.146 -14.581  1.00  0.00     0.068 C 
HETATM   34  N1  UNL     1      -1.611  50.920 -14.858  1.00  0.00    -0.401 N 
ATOM     35  H1  UNL     1      -1.569  51.618 -15.601  1.00  0.00     0.158 HD
BRANCH  34  36
HETATM   36  C9  UNL     1      -2.806  50.722 -14.030  1.00  0.00     0.123 C 
BRANCH  36  37
HETATM   37  C10 UNL     1      -3.402  52.087 -13.684  1.00  0.00     0.058 C 
BRANCH  37  38
HETATM   38  C11 UNL     1      -3.165  52.458 -12.242  1.00  0.00    -0.057 A 
HETATM   39  C12 UNL     1      -2.202  51.781 -11.481  1.00  0.00     0.007 A 
HETATM   40  C13 UNL     1      -1.995  52.118 -10.142  1.00  0.00     0.001 A 
HETATM   41  C14 UNL     1      -2.751  53.129  -9.552  1.00  0.00     0.000 A 
HETATM   42  C15 UNL     1      -3.717  53.802 -10.297  1.00  0.00     0.001 A 
HETATM   43  C16 UNL     1      -3.924  53.469 -11.636  1.00  0.00     0.007 A 
ENDBRANCH  37  38
ENDBRANCH  36  37
ENDBRANCH  34  36
ENDBRANCH   4  33
BRANCH  13  44
HETATM   44  O5  UNL     1      -0.520  52.832 -19.418  1.00  0.00    -0.389 OA
HETATM   45  H37 UNL     1      -0.943  53.376 -18.732  1.00  0.00     0.210 HD
ENDBRANCH  13  44
BRANCH  10  46
HETATM   46  C23 UNL     1      -2.433  50.940 -21.486  1.00  0.00    -0.045 A 
HETATM   47  C24 UNL     1      -3.706  51.086 -21.859  1.00  0.00     0.087 A 
HETATM   48  C25 UNL     1      -3.725  52.013 -22.988  1.00  0.00     0.283 A 
HETATM   49  O3  UNL     1      -4.725  52.371 -23.582  1.00  0.00    -0.260 OA
HETATM   50  O4  UNL     1      -2.454  52.411 -23.259  1.00  0.00    -0.314 OA
HETATM   51  C26 UNL     1      -1.561  51.783 -22.339  1.00  0.00     0.213 A 
ENDBRANCH  10  46
TORSDOF 11
ENDMDL
