MODEL 1
REMARK minimizedAffinity -10.0572138
REMARK CNNscore 0.673985779
REMARK CNNaffinity 7.54348803
REMARK  12 active torsions:
REMARK  status: ('A' for Active; 'I' for Inactive)
REMARK    1  A    between atoms: O1_2  and  C2_3 
REMARK    2  A    between atoms: C2_3  and  C3_4 
REMARK    3  A    between atoms: C3_4  and  C4_5 
REMARK    4  A    between atoms: C4_5  and  O2_6 
REMARK    5  A    between atoms: O2_6  and  C5_7 
REMARK    6  A    between atoms: C20_23  and  C21_24 
REMARK    7  A    between atoms: C21_24  and  O4_26 
REMARK    8  A    between atoms: C21_24  and  C23_27 
REMARK    9  A    between atoms: C23_27  and  O5_28 
REMARK   10  A    between atoms: C23_27  and  C24_29 
REMARK   11  A    between atoms: C30_36  and  O7_37 
REMARK   12  A    between atoms: C35_42  and  O8_43 
ROOT
HETATM    1  C5  UNL     1      -9.335   7.138  15.437  1.00  0.00     0.122 C 
HETATM    2  C6  UNL     1      -8.879   5.770  15.942  1.00  0.00     0.033 C 
HETATM    3  C7  UNL     1      -7.365   5.570  15.837  1.00  0.00     0.013 C 
HETATM    4  C8  UNL     1      -6.784   5.874  14.418  1.00  0.00    -0.026 C 
HETATM    5  C9  UNL     1      -7.336   4.810  13.435  1.00  0.00     0.016 C 
HETATM    6  C10 UNL     1      -7.241   7.291  13.985  1.00  0.00     0.071 C 
HETATM    7  C11 UNL     1      -8.770   7.451  14.049  1.00  0.00     0.045 C 
HETATM    8  C12 UNL     1      -6.579   8.381  14.828  1.00  0.00     0.154 C 
HETATM    9  O3  UNL     1      -7.123   9.453  15.088  1.00  0.00    -0.293 OA
HETATM   10  C13 UNL     1      -5.187   8.184  15.282  1.00  0.00     0.057 C 
HETATM   11  C14 UNL     1      -4.543   7.026  15.075  1.00  0.00    -0.037 C 
HETATM   12  C15 UNL     1      -5.210   5.784  14.475  1.00  0.00     0.026 C 
HETATM   13  C16 UNL     1      -4.501   5.439  13.137  1.00  0.00     0.011 C 
HETATM   14  C17 UNL     1      -2.962   5.340  13.266  1.00  0.00     0.014 C 
HETATM   15  C18 UNL     1      -2.348   6.593  13.917  1.00  0.00    -0.002 C 
HETATM   16  C19 UNL     1      -2.551   7.800  12.960  1.00  0.00     0.019 C 
HETATM   17  C20 UNL     1      -0.873   6.443  14.415  1.00  0.00     0.034 C 
HETATM   18  C33 UNL     1      -0.738   7.544  15.505  1.00  0.00     0.012 C 
HETATM   19  C34 UNL     1      -2.175   7.941  15.916  1.00  0.00     0.044 C 
HETATM   20  C35 UNL     1      -3.060   6.851  15.295  1.00  0.00     0.089 C 
ENDROOT
BRANCH  17  21
HETATM   21  C21 UNL     1       0.373   6.171  13.494  1.00  0.00     0.087 C 
HETATM   22  C22 UNL     1       0.033   4.961  12.576  1.00  0.00     0.049 C 
BRANCH  21  23
HETATM   23  O4  UNL     1       1.424   5.694  14.353  1.00  0.00    -0.387 OA
HETATM   24  H34 UNL     1       1.097   4.900  14.811  1.00  0.00     0.210 HD
ENDBRANCH  21  23
BRANCH  21  25
HETATM   25  C23 UNL     1       0.939   7.314  12.575  1.00  0.00     0.181 C 
BRANCH  25  26
HETATM   26  O5  UNL     1      -0.067   8.330  12.341  1.00  0.00    -0.390 OA
HETATM   27  H36 UNL     1       0.369   9.088  11.915  1.00  0.00     0.210 HD
ENDBRANCH  25  26
BRANCH  25  28
HETATM   28  C24 UNL     1       1.600   7.003  11.209  1.00  0.00     0.158 C 
HETATM   29  O6  UNL     1       1.343   7.950  10.168  1.00  0.00    -0.374 OA
HETATM   30  C25 UNL     1       2.558   8.136   9.413  1.00  0.00     0.159 C 
HETATM   31  C26 UNL     1       3.381   6.867   9.635  1.00  0.00     0.027 C 
HETATM   32  C30 UNL     1       2.287   8.495   7.940  1.00  0.00     0.170 C 
HETATM   33  C27 UNL     1       2.943   5.683   8.745  1.00  0.00     0.034 C 
HETATM   34  C31 UNL     1       3.088   6.584  11.116  1.00  0.00     0.020 C 
HETATM   35  C28 UNL     1       2.492   6.066   7.371  1.00  0.00    -0.028 C 
HETATM   36  C29 UNL     1       2.195   7.322   7.014  1.00  0.00     0.003 C 
HETATM   37  C32 UNL     1       4.080   7.325  12.010  1.00  0.00     0.013 C 
BRANCH  32  38
HETATM   38  O7  UNL     1       3.347   9.314   7.439  1.00  0.00    -0.389 OA
HETATM   39  H45 UNL     1       4.111   8.731   7.287  1.00  0.00     0.210 HD
ENDBRANCH  32  38
ENDBRANCH  25  28
ENDBRANCH  21  25
ENDBRANCH  17  21
BRANCH  20  40
HETATM   40  O8  UNL     1      -2.938   5.705  16.156  1.00  0.00    -0.384 OA
HETATM   41  H54 UNL     1      -3.324   5.953  17.014  1.00  0.00     0.211 HD
ENDBRANCH  20  40
BRANCH   1  42
HETATM   42  O2  UNL     1     -10.763   7.124  15.328  1.00  0.00    -0.386 OA
BRANCH  42  43
HETATM   43  C4  UNL     1     -11.245   6.669  14.063  1.00  0.00     0.170 C 
BRANCH  43  44
HETATM   44  C3  UNL     1     -12.754   6.449  14.112  1.00  0.00     0.052 C 
BRANCH  44  45
HETATM   45  C2  UNL     1     -13.503   7.589  13.432  1.00  0.00     0.169 C 
BRANCH  45  46
HETATM   46  O1  UNL     1     -14.229   7.140  12.286  1.00  0.00    -0.396 OA
HETATM   47  C1  UNL     1     -15.638   7.259  12.427  1.00  0.00     0.201 C 
ENDBRANCH  45  46
ENDBRANCH  44  45
ENDBRANCH  43  44
ENDBRANCH  42  43
ENDBRANCH   1  42
TORSDOF 12
ENDMDL
MODEL 2
REMARK minimizedAffinity -7.42795897
REMARK CNNscore 0.649585128
REMARK CNNaffinity 6.81119776
REMARK  12 active torsions:
REMARK  status: ('A' for Active; 'I' for Inactive)
REMARK    1  A    between atoms: O1_2  and  C2_3 
REMARK    2  A    between atoms: C2_3  and  C3_4 
REMARK    3  A    between atoms: C3_4  and  C4_5 
REMARK    4  A    between atoms: C4_5  and  O2_6 
REMARK    5  A    between atoms: O2_6  and  C5_7 
REMARK    6  A    between atoms: C20_23  and  C21_24 
REMARK    7  A    between atoms: C21_24  and  O4_26 
REMARK    8  A    between atoms: C21_24  and  C23_27 
REMARK    9  A    between atoms: C23_27  and  O5_28 
REMARK   10  A    between atoms: C23_27  and  C24_29 
REMARK   11  A    between atoms: C30_36  and  O7_37 
REMARK   12  A    between atoms: C35_42  and  O8_43 
ROOT
HETATM    1  C5  UNL     1      -3.101  15.694  18.603  1.00  0.00     0.122 C 
HETATM    2  C6  UNL     1      -2.501  14.826  19.708  1.00  0.00     0.033 C 
HETATM    3  C7  UNL     1      -1.916  13.513  19.183  1.00  0.00     0.013 C 
HETATM    4  C8  UNL     1      -2.902  12.692  18.290  1.00  0.00    -0.026 C 
HETATM    5  C9  UNL     1      -4.070  12.208  19.186  1.00  0.00     0.016 C 
HETATM    6  C10 UNL     1      -3.437  13.613  17.163  1.00  0.00     0.071 C 
HETATM    7  C11 UNL     1      -4.067  14.902  17.717  1.00  0.00     0.045 C 
HETATM    8  C12 UNL     1      -2.341  13.973  16.159  1.00  0.00     0.154 C 
HETATM    9  O3  UNL     1      -2.312  15.040  15.549  1.00  0.00    -0.293 OA
HETATM   10  C13 UNL     1      -1.312  12.963  15.834  1.00  0.00     0.057 C 
HETATM   11  C14 UNL     1      -1.252  11.794  16.488  1.00  0.00    -0.037 C 
HETATM   12  C15 UNL     1      -2.140  11.450  17.688  1.00  0.00     0.026 C 
HETATM   13  C16 UNL     1      -3.022  10.228  17.316  1.00  0.00     0.011 C 
HETATM   14  C17 UNL     1      -2.212   9.033  16.756  1.00  0.00     0.014 C 
HETATM   15  C18 UNL     1      -1.303   9.443  15.583  1.00  0.00    -0.002 C 
HETATM   16  C19 UNL     1      -2.198   9.864  14.384  1.00  0.00     0.019 C 
HETATM   17  C20 UNL     1      -0.196   8.410  15.193  1.00  0.00     0.034 C 
HETATM   18  C33 UNL     1       0.881   9.275  14.478  1.00  0.00     0.012 C 
HETATM   19  C34 UNL     1       0.610  10.743  14.881  1.00  0.00     0.044 C 
HETATM   20  C35 UNL     1      -0.390  10.638  16.041  1.00  0.00     0.089 C 
ENDROOT
BRANCH  17  21
HETATM   21  C21 UNL     1      -0.461   6.964  14.631  1.00  0.00     0.087 C 
HETATM   22  C22 UNL     1      -1.740   7.023  13.746  1.00  0.00     0.049 C 
BRANCH  21  23
HETATM   23  O4  UNL     1      -0.832   6.147  15.756  1.00  0.00    -0.387 OA
HETATM   24  H34 UNL     1      -1.612   6.552  16.174  1.00  0.00     0.210 HD
ENDBRANCH  21  23
BRANCH  21  25
HETATM   25  C23 UNL     1       0.651   6.223  13.803  1.00  0.00     0.181 C 
BRANCH  25  26
HETATM   26  O5  UNL     1       1.921   6.260  14.500  1.00  0.00    -0.390 OA
HETATM   27  H36 UNL     1       2.529   5.656  14.041  1.00  0.00     0.210 HD
ENDBRANCH  25  26
BRANCH  25  28
HETATM   28  C24 UNL     1       0.932   6.581  12.322  1.00  0.00     0.158 C 
HETATM   29  O6  UNL     1       2.288   6.417  11.893  1.00  0.00    -0.374 OA
HETATM   30  C25 UNL     1       2.277   5.868  10.558  1.00  0.00     0.159 C 
HETATM   31  C26 UNL     1       0.922   6.251   9.964  1.00  0.00     0.027 C 
HETATM   32  C30 UNL     1       3.504   6.304   9.734  1.00  0.00     0.170 C 
HETATM   33  C27 UNL     1       0.868   7.699   9.431  1.00  0.00     0.034 C 
HETATM   34  C31 UNL     1       0.008   6.078  11.186  1.00  0.00     0.020 C 
HETATM   35  C28 UNL     1       2.138   8.182   8.803  1.00  0.00    -0.028 C 
HETATM   36  C29 UNL     1       3.315   7.560   8.943  1.00  0.00     0.003 C 
HETATM   37  C32 UNL     1      -0.495   4.639  11.281  1.00  0.00     0.013 C 
BRANCH  32  38
HETATM   38  O7  UNL     1       3.836   5.284   8.788  1.00  0.00    -0.389 OA
HETATM   39  H45 UNL     1       3.179   5.335   8.072  1.00  0.00     0.210 HD
ENDBRANCH  32  38
ENDBRANCH  25  28
ENDBRANCH  21  25
ENDBRANCH  17  21
BRANCH  20  40
HETATM   40  O8  UNL     1       0.385  10.275  17.198  1.00  0.00    -0.384 OA
HETATM   41  H54 UNL     1       0.984  11.020  17.383  1.00  0.00     0.211 HD
ENDBRANCH  20  40
BRANCH   1  42
HETATM   42  O2  UNL     1      -3.848  16.751  19.216  1.00  0.00    -0.386 OA
BRANCH  42  43
HETATM   43  C4  UNL     1      -5.166  16.913  18.690  1.00  0.00     0.170 C 
BRANCH  43  44
HETATM   44  C3  UNL     1      -5.397  18.358  18.260  1.00  0.00     0.052 C 
BRANCH  44  45
HETATM   45  C2  UNL     1      -6.155  18.430  16.939  1.00  0.00     0.169 C 
BRANCH  45  46
HETATM   46  O1  UNL     1      -5.758  17.394  16.039  1.00  0.00    -0.396 OA
HETATM   47  C1  UNL     1      -6.362  17.499  14.756  1.00  0.00     0.201 C 
ENDBRANCH  45  46
ENDBRANCH  44  45
ENDBRANCH  43  44
ENDBRANCH  42  43
ENDBRANCH   1  42
TORSDOF 12
ENDMDL
MODEL 3
REMARK minimizedAffinity -8.15328026
REMARK CNNscore 0.632656276
REMARK CNNaffinity 7.16890669
REMARK  12 active torsions:
REMARK  status: ('A' for Active; 'I' for Inactive)
REMARK    1  A    between atoms: O1_2  and  C2_3 
REMARK    2  A    between atoms: C2_3  and  C3_4 
REMARK    3  A    between atoms: C3_4  and  C4_5 
REMARK    4  A    between atoms: C4_5  and  O2_6 
REMARK    5  A    between atoms: O2_6  and  C5_7 
REMARK    6  A    between atoms: C20_23  and  C21_24 
REMARK    7  A    between atoms: C21_24  and  O4_26 
REMARK    8  A    between atoms: C21_24  and  C23_27 
REMARK    9  A    between atoms: C23_27  and  O5_28 
REMARK   10  A    between atoms: C23_27  and  C24_29 
REMARK   11  A    between atoms: C30_36  and  O7_37 
REMARK   12  A    between atoms: C35_42  and  O8_43 
ROOT
HETATM    1  C5  UNL     1      -3.067  14.994  17.499  1.00  0.00     0.122 C 
HETATM    2  C6  UNL     1      -1.814  15.158  16.640  1.00  0.00     0.033 C 
HETATM    3  C7  UNL     1      -1.428  13.875  15.898  1.00  0.00     0.013 C 
HETATM    4  C8  UNL     1      -1.322  12.618  16.821  1.00  0.00    -0.026 C 
HETATM    5  C9  UNL     1      -0.125  12.828  17.782  1.00  0.00     0.016 C 
HETATM    6  C10 UNL     1      -2.639  12.481  17.629  1.00  0.00     0.071 C 
HETATM    7  C11 UNL     1      -2.979  13.763  18.407  1.00  0.00     0.045 C 
HETATM    8  C12 UNL     1      -3.817  12.103  16.730  1.00  0.00     0.154 C 
HETATM    9  O3  UNL     1      -4.973  12.456  16.953  1.00  0.00    -0.293 OA
HETATM   10  C13 UNL     1      -3.579  11.199  15.585  1.00  0.00     0.057 C 
HETATM   11  C14 UNL     1      -2.341  10.807  15.252  1.00  0.00    -0.037 C 
HETATM   12  C15 UNL     1      -1.074  11.342  15.928  1.00  0.00     0.026 C 
HETATM   13  C16 UNL     1      -0.347  10.159  16.623  1.00  0.00     0.011 C 
HETATM   14  C17 UNL     1      -0.111   8.949  15.687  1.00  0.00     0.014 C 
HETATM   15  C18 UNL     1      -1.406   8.481  14.997  1.00  0.00    -0.002 C 
HETATM   16  C19 UNL     1      -2.367   7.916  16.079  1.00  0.00     0.019 C 
HETATM   17  C20 UNL     1      -1.214   7.520  13.779  1.00  0.00     0.034 C 
HETATM   18  C33 UNL     1      -2.520   7.706  12.954  1.00  0.00     0.012 C 
HETATM   19  C34 UNL     1      -3.159   9.031  13.428  1.00  0.00     0.044 C 
HETATM   20  C35 UNL     1      -2.059   9.706  14.259  1.00  0.00     0.089 C 
ENDROOT
BRANCH  17  21
HETATM   21  C21 UNL     1      -0.596   6.074  13.852  1.00  0.00     0.087 C 
HETATM   22  C22 UNL     1      -1.534   5.115  13.063  1.00  0.00     0.049 C 
BRANCH  21  23
HETATM   23  O4  UNL     1      -0.706   5.648  15.221  1.00  0.00    -0.387 OA
HETATM   24  H34 UNL     1      -1.646   5.683  15.470  1.00  0.00     0.210 HD
ENDBRANCH  21  23
BRANCH  21  25
HETATM   25  C23 UNL     1       0.871   5.818  13.349  1.00  0.00     0.181 C 
BRANCH  25  26
HETATM   26  O5  UNL     1       1.831   6.117  14.392  1.00  0.00    -0.390 OA
HETATM   27  H36 UNL     1       2.699   5.790  14.101  1.00  0.00     0.210 HD
ENDBRANCH  25  26
BRANCH  25  28
HETATM   28  C24 UNL     1       1.403   6.456  12.042  1.00  0.00     0.158 C 
HETATM   29  O6  UNL     1       0.431   6.659  11.012  1.00  0.00    -0.374 OA
HETATM   30  C25 UNL     1       0.697   7.929  10.381  1.00  0.00     0.159 C 
HETATM   31  C26 UNL     1       2.176   8.217  10.638  1.00  0.00     0.027 C 
HETATM   32  C30 UNL     1       0.269   7.952   8.902  1.00  0.00     0.170 C 
HETATM   33  C27 UNL     1       3.126   7.474   9.673  1.00  0.00     0.034 C 
HETATM   34  C31 UNL     1       2.330   7.696  12.075  1.00  0.00     0.020 C 
HETATM   35  C28 UNL     1       2.611   7.330   8.276  1.00  0.00    -0.028 C 
HETATM   36  C29 UNL     1       1.334   7.539   7.934  1.00  0.00     0.003 C 
HETATM   37  C32 UNL     1       1.992   8.794  13.082  1.00  0.00     0.013 C 
BRANCH  32  38
HETATM   38  O7  UNL     1      -0.112   9.280   8.530  1.00  0.00    -0.389 OA
HETATM   39  H45 UNL     1       0.707   9.795   8.431  1.00  0.00     0.210 HD
ENDBRANCH  32  38
ENDBRANCH  25  28
ENDBRANCH  21  25
ENDBRANCH  17  21
BRANCH  20  40
HETATM   40  O8  UNL     1      -1.142  10.279  13.309  1.00  0.00    -0.384 OA
HETATM   41  H54 UNL     1      -1.627  10.974  12.831  1.00  0.00     0.211 HD
ENDBRANCH  20  40
BRANCH   1  42
HETATM   42  O2  UNL     1      -3.187  16.144  18.343  1.00  0.00    -0.386 OA
BRANCH  42  43
HETATM   43  C4  UNL     1      -2.908  15.886  19.721  1.00  0.00     0.170 C 
BRANCH  43  44
HETATM   44  C3  UNL     1      -4.114  16.237  20.586  1.00  0.00     0.052 C 
BRANCH  44  45
HETATM   45  C2  UNL     1      -4.105  15.458  21.895  1.00  0.00     0.169 C 
BRANCH  45  46
HETATM   46  O1  UNL     1      -5.403  14.968  22.234  1.00  0.00    -0.396 OA
HETATM   47  C1  UNL     1      -5.947  15.568  23.402  1.00  0.00     0.201 C 
ENDBRANCH  45  46
ENDBRANCH  44  45
ENDBRANCH  43  44
ENDBRANCH  42  43
ENDBRANCH   1  42
TORSDOF 12
ENDMDL
MODEL 4
REMARK minimizedAffinity -7.44164038
REMARK CNNscore 0.621911585
REMARK CNNaffinity 7.27205658
REMARK  12 active torsions:
REMARK  status: ('A' for Active; 'I' for Inactive)
REMARK    1  A    between atoms: O1_2  and  C2_3 
REMARK    2  A    between atoms: C2_3  and  C3_4 
REMARK    3  A    between atoms: C3_4  and  C4_5 
REMARK    4  A    between atoms: C4_5  and  O2_6 
REMARK    5  A    between atoms: O2_6  and  C5_7 
REMARK    6  A    between atoms: C20_23  and  C21_24 
REMARK    7  A    between atoms: C21_24  and  O4_26 
REMARK    8  A    between atoms: C21_24  and  C23_27 
REMARK    9  A    between atoms: C23_27  and  O5_28 
REMARK   10  A    between atoms: C23_27  and  C24_29 
REMARK   11  A    between atoms: C30_36  and  O7_37 
REMARK   12  A    between atoms: C35_42  and  O8_43 
ROOT
HETATM    1  C5  UNL     1      -6.450   6.259  15.324  1.00  0.00     0.122 C 
HETATM    2  C6  UNL     1      -7.080   6.819  16.598  1.00  0.00     0.033 C 
HETATM    3  C7  UNL     1      -8.547   7.214  16.413  1.00  0.00     0.013 C 
HETATM    4  C8  UNL     1      -8.799   8.158  15.193  1.00  0.00    -0.026 C 
HETATM    5  C9  UNL     1      -8.117   9.518  15.489  1.00  0.00     0.016 C 
HETATM    6  C10 UNL     1      -8.179   7.512  13.927  1.00  0.00     0.071 C 
HETATM    7  C11 UNL     1      -6.692   7.172  14.119  1.00  0.00     0.045 C 
HETATM    8  C12 UNL     1      -8.939   6.254  13.504  1.00  0.00     0.154 C 
HETATM    9  O3  UNL     1      -8.401   5.299  12.948  1.00  0.00    -0.293 OA
HETATM   10  C13 UNL     1     -10.405   6.212  13.688  1.00  0.00     0.057 C 
HETATM   11  C14 UNL     1     -11.057   7.195  14.325  1.00  0.00    -0.037 C 
HETATM   12  C15 UNL     1     -10.352   8.368  15.016  1.00  0.00     0.026 C 
HETATM   13  C16 UNL     1     -10.784   9.685  14.317  1.00  0.00     0.011 C 
HETATM   14  C17 UNL     1     -12.319   9.842  14.196  1.00  0.00     0.014 C 
HETATM   15  C18 UNL     1     -12.982   8.618  13.538  1.00  0.00    -0.002 C 
HETATM   16  C19 UNL     1     -12.513   8.534  12.059  1.00  0.00     0.019 C 
HETATM   17  C20 UNL     1     -14.534   8.522  13.699  1.00  0.00     0.034 C 
HETATM   18  C33 UNL     1     -14.831   7.006  13.516  1.00  0.00     0.012 C 
HETATM   19  C34 UNL     1     -13.491   6.263  13.728  1.00  0.00     0.044 C 
HETATM   20  C35 UNL     1     -12.561   7.326  14.329  1.00  0.00     0.089 C 
ENDROOT
BRANCH  17  21
HETATM   21  C21 UNL     1     -15.574   9.545  13.108  1.00  0.00     0.087 C 
HETATM   22  C22 UNL     1     -14.780  10.763  12.553  1.00  0.00     0.049 C 
BRANCH  21  23
HETATM   23  O4  UNL     1     -16.314  10.070  14.224  1.00  0.00    -0.387 OA
HETATM   24  H34 UNL     1     -15.679  10.472  14.841  1.00  0.00     0.210 HD
ENDBRANCH  21  23
BRANCH  21  25
HETATM   25  C23 UNL     1     -16.581   9.090  11.990  1.00  0.00     0.181 C 
BRANCH  25  26
HETATM   26  O5  UNL     1     -15.902   8.309  10.975  1.00  0.00    -0.390 OA
HETATM   27  H36 UNL     1     -16.580   7.913  10.402  1.00  0.00     0.210 HD
ENDBRANCH  25  26
BRANCH  25  28
HETATM   28  C24 UNL     1     -17.487  10.107  11.253  1.00  0.00     0.158 C 
HETATM   29  O6  UNL     1     -17.657   9.881   9.850  1.00  0.00    -0.374 OA
HETATM   30  C25 UNL     1     -19.032  10.156   9.510  1.00  0.00     0.159 C 
HETATM   31  C26 UNL     1     -19.544  11.107  10.591  1.00  0.00     0.027 C 
HETATM   32  C30 UNL     1     -19.190  10.658   8.062  1.00  0.00     0.170 C 
HETATM   33  C27 UNL     1     -19.135  12.578  10.363  1.00  0.00     0.034 C 
HETATM   34  C31 UNL     1     -18.858  10.529  11.837  1.00  0.00     0.020 C 
HETATM   35  C28 UNL     1     -19.103  13.004   8.929  1.00  0.00    -0.028 C 
HETATM   36  C29 UNL     1     -19.122  12.145   7.903  1.00  0.00     0.003 C 
HETATM   37  C32 UNL     1     -19.718   9.433  12.464  1.00  0.00     0.013 C 
BRANCH  32  38
HETATM   38  O7  UNL     1     -20.465  10.261   7.550  1.00  0.00    -0.389 OA
HETATM   39  H45 UNL     1     -21.130  10.842   7.958  1.00  0.00     0.210 HD
ENDBRANCH  32  38
ENDBRANCH  25  28
ENDBRANCH  21  25
ENDBRANCH  17  21
BRANCH  20  40
HETATM   40  O8  UNL     1     -12.927   7.433  15.716  1.00  0.00    -0.384 OA
HETATM   41  H54 UNL     1     -12.716   6.578  16.132  1.00  0.00     0.211 HD
ENDBRANCH  20  40
BRANCH   1  42
HETATM   42  O2  UNL     1      -5.034   6.174  15.523  1.00  0.00    -0.386 OA
BRANCH  42  43
HETATM   43  C4  UNL     1      -4.280   6.111  14.311  1.00  0.00     0.170 C 
BRANCH  43  44
HETATM   44  C3  UNL     1      -4.787   4.979  13.423  1.00  0.00     0.052 C 
BRANCH  44  45
HETATM   45  C2  UNL     1      -3.674   3.992  13.091  1.00  0.00     0.169 C 
BRANCH  45  46
HETATM   46  O1  UNL     1      -3.874   3.369  11.822  1.00  0.00    -0.396 OA
HETATM   47  C1  UNL     1      -3.309   2.067  11.736  1.00  0.00     0.201 C 
ENDBRANCH  45  46
ENDBRANCH  44  45
ENDBRANCH  43  44
ENDBRANCH  42  43
ENDBRANCH   1  42
TORSDOF 12
ENDMDL
MODEL 5
REMARK minimizedAffinity -7.84310436
REMARK CNNscore 0.618112504
REMARK CNNaffinity 6.83367205
REMARK  12 active torsions:
REMARK  status: ('A' for Active; 'I' for Inactive)
REMARK    1  A    between atoms: O1_2  and  C2_3 
REMARK    2  A    between atoms: C2_3  and  C3_4 
REMARK    3  A    between atoms: C3_4  and  C4_5 
REMARK    4  A    between atoms: C4_5  and  O2_6 
REMARK    5  A    between atoms: O2_6  and  C5_7 
REMARK    6  A    between atoms: C20_23  and  C21_24 
REMARK    7  A    between atoms: C21_24  and  O4_26 
REMARK    8  A    between atoms: C21_24  and  C23_27 
REMARK    9  A    between atoms: C23_27  and  O5_28 
REMARK   10  A    between atoms: C23_27  and  C24_29 
REMARK   11  A    between atoms: C30_36  and  O7_37 
REMARK   12  A    between atoms: C35_42  and  O8_43 
ROOT
HETATM    1  C5  UNL     1      -3.612  15.614  17.235  1.00  0.00     0.122 C 
HETATM    2  C6  UNL     1      -2.298  15.768  16.471  1.00  0.00     0.033 C 
HETATM    3  C7  UNL     1      -1.791  14.447  15.885  1.00  0.00     0.013 C 
HETATM    4  C8  UNL     1      -1.710  13.283  16.925  1.00  0.00    -0.026 C 
HETATM    5  C9  UNL     1      -0.611  13.639  17.958  1.00  0.00     0.016 C 
HETATM    6  C10 UNL     1      -3.084  13.147  17.629  1.00  0.00     0.071 C 
HETATM    7  C11 UNL     1      -3.548  14.474  18.255  1.00  0.00     0.045 C 
HETATM    8  C12 UNL     1      -4.161  12.631  16.674  1.00  0.00     0.154 C 
HETATM    9  O3  UNL     1      -5.347  12.940  16.767  1.00  0.00    -0.293 OA
HETATM   10  C13 UNL     1      -3.783  11.645  15.640  1.00  0.00     0.057 C 
HETATM   11  C14 UNL     1      -2.504  11.291  15.448  1.00  0.00    -0.037 C 
HETATM   12  C15 UNL     1      -1.327  11.949  16.176  1.00  0.00     0.026 C 
HETATM   13  C16 UNL     1      -0.611  10.871  17.034  1.00  0.00     0.011 C 
HETATM   14  C17 UNL     1      -0.239   9.598  16.235  1.00  0.00     0.014 C 
HETATM   15  C18 UNL     1      -1.446   9.004  15.486  1.00  0.00    -0.002 C 
HETATM   16  C19 UNL     1      -2.472   8.486  16.532  1.00  0.00     0.019 C 
HETATM   17  C20 UNL     1      -1.106   7.951  14.382  1.00  0.00     0.034 C 
HETATM   18  C33 UNL     1      -2.341   7.995  13.438  1.00  0.00     0.012 C 
HETATM   19  C34 UNL     1      -3.079   9.322  13.733  1.00  0.00     0.044 C 
HETATM   20  C35 UNL     1      -2.087  10.124  14.587  1.00  0.00     0.089 C 
ENDROOT
BRANCH  17  21
HETATM   21  C21 UNL     1      -0.432   6.553  14.637  1.00  0.00     0.087 C 
HETATM   22  C22 UNL     1      -1.538   5.463  14.526  1.00  0.00     0.049 C 
BRANCH  21  23
HETATM   23  O4  UNL     1      -0.037   6.532  16.021  1.00  0.00    -0.387 OA
HETATM   24  H34 UNL     1      -0.832   6.686  16.560  1.00  0.00     0.210 HD
ENDBRANCH  21  23
BRANCH  21  25
HETATM   25  C23 UNL     1       0.779   6.087  13.750  1.00  0.00     0.181 C 
BRANCH  25  26
HETATM   26  O5  UNL     1       2.038   6.361  14.414  1.00  0.00    -0.390 OA
HETATM   27  H36 UNL     1       2.741   5.912  13.915  1.00  0.00     0.210 HD
ENDBRANCH  25  26
BRANCH  25  28
HETATM   28  C24 UNL     1       0.930   6.545  12.279  1.00  0.00     0.158 C 
HETATM   29  O6  UNL     1       2.227   6.361  11.703  1.00  0.00    -0.374 OA
HETATM   30  C25 UNL     1       2.059   5.917  10.340  1.00  0.00     0.159 C 
HETATM   31  C26 UNL     1       0.672   6.397   9.916  1.00  0.00     0.027 C 
HETATM   32  C30 UNL     1       3.218   6.365   9.429  1.00  0.00     0.170 C 
HETATM   33  C27 UNL     1       0.633   7.883   9.496  1.00  0.00     0.034 C 
HETATM   34  C31 UNL     1      -0.125   6.167  11.209  1.00  0.00     0.020 C 
HETATM   35  C28 UNL     1       1.856   8.362   8.779  1.00  0.00    -0.028 C 
HETATM   36  C29 UNL     1       3.011   7.685   8.754  1.00  0.00     0.003 C 
HETATM   37  C32 UNL     1      -0.683   4.746  11.250  1.00  0.00     0.013 C 
BRANCH  32  38
HETATM   38  O7  UNL     1       3.407   5.409   8.382  1.00  0.00    -0.389 OA
HETATM   39  H45 UNL     1       2.686   5.539   7.742  1.00  0.00     0.210 HD
ENDBRANCH  32  38
ENDBRANCH  25  28
ENDBRANCH  21  25
ENDBRANCH  17  21
BRANCH  20  40
HETATM   40  O8  UNL     1      -1.117  10.659  13.669  1.00  0.00    -0.384 OA
HETATM   41  H54 UNL     1      -1.589  11.283  13.090  1.00  0.00     0.211 HD
ENDBRANCH  20  40
BRANCH   1  42
HETATM   42  O2  UNL     1      -3.857  16.825  17.957  1.00  0.00    -0.386 OA
BRANCH  42  43
HETATM   43  C4  UNL     1      -3.550  16.744  19.350  1.00  0.00     0.170 C 
BRANCH  43  44
HETATM   44  C3  UNL     1      -2.409  17.694  19.703  1.00  0.00     0.052 C 
BRANCH  44  45
HETATM   45  C2  UNL     1      -1.085  16.951  19.826  1.00  0.00     0.169 C 
BRANCH  45  46
HETATM   46  O1  UNL     1      -0.762  16.656  21.186  1.00  0.00    -0.396 OA
HETATM   47  C1  UNL     1       0.632  16.495  21.415  1.00  0.00     0.201 C 
ENDBRANCH  45  46
ENDBRANCH  44  45
ENDBRANCH  43  44
ENDBRANCH  42  43
ENDBRANCH   1  42
TORSDOF 12
ENDMDL
MODEL 6
REMARK minimizedAffinity -7.4170742
REMARK CNNscore 0.603720427
REMARK CNNaffinity 6.44572783
REMARK  12 active torsions:
REMARK  status: ('A' for Active; 'I' for Inactive)
REMARK    1  A    between atoms: O1_2  and  C2_3 
REMARK    2  A    between atoms: C2_3  and  C3_4 
REMARK    3  A    between atoms: C3_4  and  C4_5 
REMARK    4  A    between atoms: C4_5  and  O2_6 
REMARK    5  A    between atoms: O2_6  and  C5_7 
REMARK    6  A    between atoms: C20_23  and  C21_24 
REMARK    7  A    between atoms: C21_24  and  O4_26 
REMARK    8  A    between atoms: C21_24  and  C23_27 
REMARK    9  A    between atoms: C23_27  and  O5_28 
REMARK   10  A    between atoms: C23_27  and  C24_29 
REMARK   11  A    between atoms: C30_36  and  O7_37 
REMARK   12  A    between atoms: C35_42  and  O8_43 
ROOT
HETATM    1  C5  UNL     1      -3.035  15.756  18.705  1.00  0.00     0.122 C 
HETATM    2  C6  UNL     1      -2.454  14.870  19.806  1.00  0.00     0.033 C 
HETATM    3  C7  UNL     1      -1.873  13.559  19.271  1.00  0.00     0.013 C 
HETATM    4  C8  UNL     1      -2.856  12.758  18.357  1.00  0.00    -0.026 C 
HETATM    5  C9  UNL     1      -4.038  12.272  19.234  1.00  0.00     0.016 C 
HETATM    6  C10 UNL     1      -3.371  13.696  17.236  1.00  0.00     0.071 C 
HETATM    7  C11 UNL     1      -3.997  14.983  17.799  1.00  0.00     0.045 C 
HETATM    8  C12 UNL     1      -2.261  14.060  16.248  1.00  0.00     0.154 C 
HETATM    9  O3  UNL     1      -2.217  15.134  15.652  1.00  0.00    -0.293 OA
HETATM   10  C13 UNL     1      -1.237  13.046  15.922  1.00  0.00     0.057 C 
HETATM   11  C14 UNL     1      -1.194  11.868  16.561  1.00  0.00    -0.037 C 
HETATM   12  C15 UNL     1      -2.097  11.516  17.748  1.00  0.00     0.026 C 
HETATM   13  C16 UNL     1      -2.986  10.306  17.351  1.00  0.00     0.011 C 
HETATM   14  C17 UNL     1      -2.180   9.112  16.784  1.00  0.00     0.014 C 
HETATM   15  C18 UNL     1      -1.254   9.529  15.626  1.00  0.00    -0.002 C 
HETATM   16  C19 UNL     1      -2.132   9.973  14.423  1.00  0.00     0.019 C 
HETATM   17  C20 UNL     1      -0.151   8.492  15.235  1.00  0.00     0.034 C 
HETATM   18  C33 UNL     1       0.940   9.357  14.543  1.00  0.00     0.012 C 
HETATM   19  C34 UNL     1       0.677  10.822  14.961  1.00  0.00     0.044 C 
HETATM   20  C35 UNL     1      -0.336  10.711  16.109  1.00  0.00     0.089 C 
ENDROOT
BRANCH  17  21
HETATM   21  C21 UNL     1      -0.421   7.055  14.653  1.00  0.00     0.087 C 
HETATM   22  C22 UNL     1      -1.651   7.150  13.703  1.00  0.00     0.049 C 
BRANCH  21  23
HETATM   23  O4  UNL     1      -0.871   6.243  15.752  1.00  0.00    -0.387 OA
HETATM   24  H34 UNL     1      -1.661   6.665  16.131  1.00  0.00     0.210 HD
ENDBRANCH  21  23
BRANCH  21  25
HETATM   25  C23 UNL     1       0.714   6.291  13.879  1.00  0.00     0.181 C 
BRANCH  25  26
HETATM   26  O5  UNL     1       1.971   6.381  14.592  1.00  0.00    -0.390 OA
HETATM   27  H36 UNL     1       2.596   5.764  14.174  1.00  0.00     0.210 HD
ENDBRANCH  25  26
BRANCH  25  28
HETATM   28  C24 UNL     1       1.013   6.579  12.387  1.00  0.00     0.158 C 
HETATM   29  O6  UNL     1       2.378   6.418  11.988  1.00  0.00    -0.374 OA
HETATM   30  C25 UNL     1       2.399   5.804  10.682  1.00  0.00     0.159 C 
HETATM   31  C26 UNL     1       1.048   6.133  10.048  1.00  0.00     0.027 C 
HETATM   32  C30 UNL     1       3.632   6.218   9.857  1.00  0.00     0.170 C 
HETATM   33  C27 UNL     1       0.979   7.551   9.442  1.00  0.00     0.034 C 
HETATM   34  C31 UNL     1       0.117   6.005  11.263  1.00  0.00     0.020 C 
HETATM   35  C28 UNL     1       2.251   8.024   8.811  1.00  0.00    -0.028 C 
HETATM   36  C29 UNL     1       3.435   7.431   9.001  1.00  0.00     0.003 C 
HETATM   37  C32 UNL     1      -0.364   4.564  11.421  1.00  0.00     0.013 C 
BRANCH  32  38
HETATM   38  O7  UNL     1       3.996   5.159   8.968  1.00  0.00    -0.389 OA
HETATM   39  H45 UNL     1       3.351   5.162   8.240  1.00  0.00     0.210 HD
ENDBRANCH  32  38
ENDBRANCH  25  28
ENDBRANCH  21  25
ENDBRANCH  17  21
BRANCH  20  40
HETATM   40  O8  UNL     1       0.423  10.327  17.270  1.00  0.00    -0.384 OA
HETATM   41  H54 UNL     1       1.026  11.064  17.471  1.00  0.00     0.211 HD
ENDBRANCH  20  40
BRANCH   1  42
HETATM   42  O2  UNL     1      -3.779  16.812  19.324  1.00  0.00    -0.386 OA
BRANCH  42  43
HETATM   43  C4  UNL     1      -4.415  16.435  20.547  1.00  0.00     0.170 C 
BRANCH  43  44
HETATM   44  C3  UNL     1      -3.892  17.281  21.704  1.00  0.00     0.052 C 
BRANCH  44  45
HETATM   45  C2  UNL     1      -5.031  17.774  22.590  1.00  0.00     0.169 C 
BRANCH  45  46
HETATM   46  O1  UNL     1      -5.821  16.695  23.092  1.00  0.00    -0.396 OA
HETATM   47  C1  UNL     1      -6.679  17.072  24.160  1.00  0.00     0.201 C 
ENDBRANCH  45  46
ENDBRANCH  44  45
ENDBRANCH  43  44
ENDBRANCH  42  43
ENDBRANCH   1  42
TORSDOF 12
ENDMDL
MODEL 7
REMARK minimizedAffinity -7.22336102
REMARK CNNscore 0.572908342
REMARK CNNaffinity 6.41272116
REMARK  12 active torsions:
REMARK  status: ('A' for Active; 'I' for Inactive)
REMARK    1  A    between atoms: O1_2  and  C2_3 
REMARK    2  A    between atoms: C2_3  and  C3_4 
REMARK    3  A    between atoms: C3_4  and  C4_5 
REMARK    4  A    between atoms: C4_5  and  O2_6 
REMARK    5  A    between atoms: O2_6  and  C5_7 
REMARK    6  A    between atoms: C20_23  and  C21_24 
REMARK    7  A    between atoms: C21_24  and  O4_26 
REMARK    8  A    between atoms: C21_24  and  C23_27 
REMARK    9  A    between atoms: C23_27  and  O5_28 
REMARK   10  A    between atoms: C23_27  and  C24_29 
REMARK   11  A    between atoms: C30_36  and  O7_37 
REMARK   12  A    between atoms: C35_42  and  O8_43 
ROOT
HETATM    1  C5  UNL     1      -8.233  15.184  22.561  1.00  0.00     0.122 C 
HETATM    2  C6  UNL     1      -8.211  15.023  24.080  1.00  0.00     0.033 C 
HETATM    3  C7  UNL     1      -9.001  13.804  24.562  1.00  0.00     0.013 C 
HETATM    4  C8  UNL     1     -10.460  13.735  24.005  1.00  0.00    -0.026 C 
HETATM    5  C9  UNL     1     -11.260  14.918  24.609  1.00  0.00     0.016 C 
HETATM    6  C10 UNL     1     -10.410  13.855  22.460  1.00  0.00     0.071 C 
HETATM    7  C11 UNL     1      -9.657  15.115  22.001  1.00  0.00     0.045 C 
HETATM    8  C12 UNL     1      -9.778  12.620  21.817  1.00  0.00     0.154 C 
HETATM    9  O3  UNL     1      -9.135  12.663  20.770  1.00  0.00    -0.293 OA
HETATM   10  C13 UNL     1     -10.020  11.296  22.427  1.00  0.00     0.057 C 
HETATM   11  C14 UNL     1     -10.675  11.174  23.591  1.00  0.00    -0.037 C 
HETATM   12  C15 UNL     1     -11.115  12.369  24.443  1.00  0.00     0.026 C 
HETATM   13  C16 UNL     1     -12.664  12.361  24.543  1.00  0.00     0.011 C 
HETATM   14  C17 UNL     1     -13.243  11.000  25.002  1.00  0.00     0.014 C 
HETATM   15  C18 UNL     1     -12.732   9.828  24.142  1.00  0.00    -0.002 C 
HETATM   16  C19 UNL     1     -13.292   9.989  22.702  1.00  0.00     0.019 C 
HETATM   17  C20 UNL     1     -12.964   8.401  24.738  1.00  0.00     0.034 C 
HETATM   18  C33 UNL     1     -11.881   7.530  24.041  1.00  0.00     0.012 C 
HETATM   19  C34 UNL     1     -10.822   8.506  23.476  1.00  0.00     0.044 C 
HETATM   20  C35 UNL     1     -11.160   9.852  24.133  1.00  0.00     0.089 C 
ENDROOT
BRANCH  17  21
HETATM   21  C21 UNL     1     -14.370   7.745  25.002  1.00  0.00     0.087 C 
HETATM   22  C22 UNL     1     -15.452   8.849  24.826  1.00  0.00     0.049 C 
BRANCH  21  23
HETATM   23  O4  UNL     1     -14.412   7.411  26.401  1.00  0.00    -0.387 OA
HETATM   24  H34 UNL     1     -14.262   8.228  26.907  1.00  0.00     0.210 HD
ENDBRANCH  21  23
BRANCH  21  25
HETATM   25  C23 UNL     1     -14.829   6.498  24.161  1.00  0.00     0.181 C 
BRANCH  25  26
HETATM   26  O5  UNL     1     -16.246   6.254  24.337  1.00  0.00    -0.390 OA
HETATM   27  H36 UNL     1     -16.517   5.591  23.681  1.00  0.00     0.210 HD
ENDBRANCH  25  26
BRANCH  25  28
HETATM   28  C24 UNL     1     -14.112   5.131  24.282  1.00  0.00     0.158 C 
HETATM   29  O6  UNL     1     -14.576   4.280  25.334  1.00  0.00    -0.374 OA
HETATM   30  C25 UNL     1     -14.602   2.923  24.842  1.00  0.00     0.159 C 
HETATM   31  C26 UNL     1     -13.600   2.882  23.689  1.00  0.00     0.027 C 
HETATM   32  C30 UNL     1     -14.363   1.888  25.958  1.00  0.00     0.170 C 
HETATM   33  C27 UNL     1     -12.132   2.747  24.149  1.00  0.00     0.034 C 
HETATM   34  C31 UNL     1     -13.851   4.250  23.035  1.00  0.00     0.020 C 
HETATM   35  C28 UNL     1     -11.933   1.891  25.360  1.00  0.00    -0.028 C 
HETATM   36  C29 UNL     1     -12.930   1.513  26.169  1.00  0.00     0.003 C 
HETATM   37  C32 UNL     1     -14.971   4.153  22.002  1.00  0.00     0.013 C 
BRANCH  32  38
HETATM   38  O7  UNL     1     -15.051   0.674  25.645  1.00  0.00    -0.389 OA
HETATM   39  H45 UNL     1     -14.539   0.227  24.949  1.00  0.00     0.210 HD
ENDBRANCH  32  38
ENDBRANCH  25  28
ENDBRANCH  21  25
ENDBRANCH  17  21
BRANCH  20  40
HETATM   40  O8  UNL     1     -10.640   9.779  25.473  1.00  0.00    -0.384 OA
HETATM   41  H54 UNL     1      -9.672   9.715  25.398  1.00  0.00     0.211 HD
ENDBRANCH  20  40
BRANCH   1  42
HETATM   42  O2  UNL     1      -7.705  16.475  22.237  1.00  0.00    -0.386 OA
BRANCH  42  43
HETATM   43  C4  UNL     1      -6.573  16.439  21.365  1.00  0.00     0.170 C 
BRANCH  43  44
HETATM   44  C3  UNL     1      -5.474  15.558  21.952  1.00  0.00     0.052 C 
BRANCH  44  45
HETATM   45  C2  UNL     1      -4.208  15.613  21.105  1.00  0.00     0.169 C 
BRANCH  45  46
HETATM   46  O1  UNL     1      -4.435  15.149  19.774  1.00  0.00    -0.396 OA
HETATM   47  C1  UNL     1      -3.449  14.233  19.318  1.00  0.00     0.201 C 
ENDBRANCH  45  46
ENDBRANCH  44  45
ENDBRANCH  43  44
ENDBRANCH  42  43
ENDBRANCH   1  42
TORSDOF 12
ENDMDL
MODEL 8
REMARK minimizedAffinity -7.82725763
REMARK CNNscore 0.547664404
REMARK CNNaffinity 6.58704805
REMARK  12 active torsions:
REMARK  status: ('A' for Active; 'I' for Inactive)
REMARK    1  A    between atoms: O1_2  and  C2_3 
REMARK    2  A    between atoms: C2_3  and  C3_4 
REMARK    3  A    between atoms: C3_4  and  C4_5 
REMARK    4  A    between atoms: C4_5  and  O2_6 
REMARK    5  A    between atoms: O2_6  and  C5_7 
REMARK    6  A    between atoms: C20_23  and  C21_24 
REMARK    7  A    between atoms: C21_24  and  O4_26 
REMARK    8  A    between atoms: C21_24  and  C23_27 
REMARK    9  A    between atoms: C23_27  and  O5_28 
REMARK   10  A    between atoms: C23_27  and  C24_29 
REMARK   11  A    between atoms: C30_36  and  O7_37 
REMARK   12  A    between atoms: C35_42  and  O8_43 
ROOT
HETATM    1  C5  UNL     1      -3.388  15.844  16.484  1.00  0.00     0.122 C 
HETATM    2  C6  UNL     1      -2.189  15.903  15.538  1.00  0.00     0.033 C 
HETATM    3  C7  UNL     1      -1.738  14.520  15.061  1.00  0.00     0.013 C 
HETATM    4  C8  UNL     1      -1.497  13.499  16.219  1.00  0.00    -0.026 C 
HETATM    5  C9  UNL     1      -0.279  13.986  17.043  1.00  0.00     0.016 C 
HETATM    6  C10 UNL     1      -2.764  13.450  17.112  1.00  0.00     0.071 C 
HETATM    7  C11 UNL     1      -3.167  14.844  17.622  1.00  0.00     0.045 C 
HETATM    8  C12 UNL     1      -3.947  12.813  16.381  1.00  0.00     0.154 C 
HETATM    9  O3  UNL     1      -5.116  13.128  16.593  1.00  0.00    -0.293 OA
HETATM   10  C13 UNL     1      -3.689  11.704  15.439  1.00  0.00     0.057 C 
HETATM   11  C14 UNL     1      -2.440  11.332  15.125  1.00  0.00    -0.037 C 
HETATM   12  C15 UNL     1      -1.190  12.081  15.600  1.00  0.00     0.026 C 
HETATM   13  C16 UNL     1      -0.346  11.123  16.483  1.00  0.00     0.011 C 
HETATM   14  C17 UNL     1      -0.058   9.759  15.809  1.00  0.00     0.014 C 
HETATM   15  C18 UNL     1      -1.342   9.072  15.309  1.00  0.00    -0.002 C 
HETATM   16  C19 UNL     1      -2.210   8.688  16.539  1.00  0.00     0.019 C 
HETATM   17  C20 UNL     1      -1.129   7.887  14.311  1.00  0.00     0.034 C 
HETATM   18  C33 UNL     1      -2.479   7.807  13.542  1.00  0.00     0.012 C 
HETATM   19  C34 UNL     1      -3.197   9.158  13.763  1.00  0.00     0.044 C 
HETATM   20  C35 UNL     1      -2.118  10.065  14.369  1.00  0.00     0.089 C 
ENDROOT
BRANCH  17  21
HETATM   21  C21 UNL     1      -0.400   6.534  14.648  1.00  0.00     0.087 C 
HETATM   22  C22 UNL     1      -1.471   5.406  14.660  1.00  0.00     0.049 C 
BRANCH  21  23
HETATM   23  O4  UNL     1       0.040   6.634  16.014  1.00  0.00    -0.387 OA
HETATM   24  H34 UNL     1      -0.741   6.804  16.568  1.00  0.00     0.210 HD
ENDBRANCH  21  23
BRANCH  21  25
HETATM   25  C23 UNL     1       0.796   6.039  13.756  1.00  0.00     0.181 C 
BRANCH  25  26
HETATM   26  O5  UNL     1       2.063   6.290  14.413  1.00  0.00    -0.390 OA
HETATM   27  H36 UNL     1       2.755   5.824  13.912  1.00  0.00     0.210 HD
ENDBRANCH  25  26
BRANCH  25  28
HETATM   28  C24 UNL     1       0.948   6.488  12.282  1.00  0.00     0.158 C 
HETATM   29  O6  UNL     1       2.225   6.236  11.688  1.00  0.00    -0.374 OA
HETATM   30  C25 UNL     1       2.015   5.801  10.328  1.00  0.00     0.159 C 
HETATM   31  C26 UNL     1       0.648   6.353   9.924  1.00  0.00     0.027 C 
HETATM   32  C30 UNL     1       3.181   6.187   9.399  1.00  0.00     0.170 C 
HETATM   33  C27 UNL     1       0.681   7.838   9.503  1.00  0.00     0.034 C 
HETATM   34  C31 UNL     1      -0.140   6.166  11.229  1.00  0.00     0.020 C 
HETATM   35  C28 UNL     1       1.917   8.252   8.767  1.00  0.00    -0.028 C 
HETATM   36  C29 UNL     1       3.034   7.516   8.726  1.00  0.00     0.003 C 
HETATM   37  C32 UNL     1      -0.771   4.776  11.280  1.00  0.00     0.013 C 
BRANCH  32  38
HETATM   38  O7  UNL     1       3.304   5.221   8.351  1.00  0.00    -0.389 OA
HETATM   39  H45 UNL     1       2.582   5.389   7.722  1.00  0.00     0.210 HD
ENDBRANCH  32  38
ENDBRANCH  25  28
ENDBRANCH  21  25
ENDBRANCH  17  21
BRANCH  20  40
HETATM   40  O8  UNL     1      -1.288  10.482  13.270  1.00  0.00    -0.384 OA
HETATM   41  H54 UNL     1      -1.845  11.025  12.685  1.00  0.00     0.211 HD
ENDBRANCH  20  40
BRANCH   1  42
HETATM   42  O2  UNL     1      -3.559  17.137  17.074  1.00  0.00    -0.386 OA
BRANCH  42  43
HETATM   43  C4  UNL     1      -3.132  18.217  16.241  1.00  0.00     0.170 C 
BRANCH  43  44
HETATM   44  C3  UNL     1      -4.334  18.914  15.611  1.00  0.00     0.052 C 
BRANCH  44  45
HETATM   45  C2  UNL     1      -5.467  19.085  16.617  1.00  0.00     0.169 C 
BRANCH  45  46
HETATM   46  O1  UNL     1      -6.741  19.166  15.977  1.00  0.00    -0.396 OA
HETATM   47  C1  UNL     1      -6.677  19.677  14.652  1.00  0.00     0.201 C 
ENDBRANCH  45  46
ENDBRANCH  44  45
ENDBRANCH  43  44
ENDBRANCH  42  43
ENDBRANCH   1  42
TORSDOF 12
ENDMDL
MODEL 9
REMARK minimizedAffinity -9.02719593
REMARK CNNscore 0.479751587
REMARK CNNaffinity 6.67613745
REMARK  12 active torsions:
REMARK  status: ('A' for Active; 'I' for Inactive)
REMARK    1  A    between atoms: O1_2  and  C2_3 
REMARK    2  A    between atoms: C2_3  and  C3_4 
REMARK    3  A    between atoms: C3_4  and  C4_5 
REMARK    4  A    between atoms: C4_5  and  O2_6 
REMARK    5  A    between atoms: O2_6  and  C5_7 
REMARK    6  A    between atoms: C20_23  and  C21_24 
REMARK    7  A    between atoms: C21_24  and  O4_26 
REMARK    8  A    between atoms: C21_24  and  C23_27 
REMARK    9  A    between atoms: C23_27  and  O5_28 
REMARK   10  A    between atoms: C23_27  and  C24_29 
REMARK   11  A    between atoms: C30_36  and  O7_37 
REMARK   12  A    between atoms: C35_42  and  O8_43 
ROOT
HETATM    1  C5  UNL     1      -6.231   7.567  14.932  1.00  0.00     0.122 C 
HETATM    2  C6  UNL     1      -5.649   6.213  15.334  1.00  0.00     0.033 C 
HETATM    3  C7  UNL     1      -4.120   6.221  15.410  1.00  0.00     0.013 C 
HETATM    4  C8  UNL     1      -3.426   6.778  14.126  1.00  0.00    -0.026 C 
HETATM    5  C9  UNL     1      -3.702   5.791  12.963  1.00  0.00     0.016 C 
HETATM    6  C10 UNL     1      -4.025   8.171  13.799  1.00  0.00     0.071 C 
HETATM    7  C11 UNL     1      -5.557   8.128  13.676  1.00  0.00     0.045 C 
HETATM    8  C12 UNL     1      -3.627   9.216  14.842  1.00  0.00     0.154 C 
HETATM    9  O3  UNL     1      -4.343  10.167  15.147  1.00  0.00    -0.293 OA
HETATM   10  C13 UNL     1      -2.283   9.137  15.453  1.00  0.00     0.057 C 
HETATM   11  C14 UNL     1      -1.463   8.107  15.203  1.00  0.00    -0.037 C 
HETATM   12  C15 UNL     1      -1.873   6.880  14.382  1.00  0.00     0.026 C 
HETATM   13  C16 UNL     1      -0.970   6.805  13.121  1.00  0.00     0.011 C 
HETATM   14  C17 UNL     1       0.542   6.884  13.442  1.00  0.00     0.014 C 
HETATM   15  C18 UNL     1       0.892   8.109  14.308  1.00  0.00    -0.002 C 
HETATM   16  C19 UNL     1       0.634   9.395  13.475  1.00  0.00     0.019 C 
HETATM   17  C20 UNL     1       2.305   8.081  14.978  1.00  0.00     0.034 C 
HETATM   18  C33 UNL     1       2.154   9.039  16.194  1.00  0.00     0.012 C 
HETATM   19  C34 UNL     1       0.637   9.194  16.452  1.00  0.00     0.044 C 
HETATM   20  C35 UNL     1      -0.006   8.093  15.598  1.00  0.00     0.089 C 
ENDROOT
BRANCH  17  21
HETATM   21  C21 UNL     1       3.676   8.091  14.207  1.00  0.00     0.087 C 
HETATM   22  C22 UNL     1       3.435   7.474  12.798  1.00  0.00     0.049 C 
BRANCH  21  23
HETATM   23  O4  UNL     1       4.532   7.149  14.877  1.00  0.00    -0.387 OA
HETATM   24  H34 UNL     1       4.087   6.284  14.869  1.00  0.00     0.210 HD
ENDBRANCH  21  23
BRANCH  21  25
HETATM   25  C23 UNL     1       4.457   9.440  14.002  1.00  0.00     0.181 C 
BRANCH  25  26
HETATM   26  O5  UNL     1       4.339   9.899  12.633  1.00  0.00    -0.390 OA
HETATM   27  H36 UNL     1       4.688  10.806  12.592  1.00  0.00     0.210 HD
ENDBRANCH  25  26
BRANCH  25  28
HETATM   28  C24 UNL     1       5.945   9.585  14.406  1.00  0.00     0.158 C 
HETATM   29  O6  UNL     1       6.294   9.047  15.686  1.00  0.00    -0.374 OA
HETATM   30  C25 UNL     1       7.581   8.405  15.572  1.00  0.00     0.159 C 
HETATM   31  C26 UNL     1       8.268   9.064  14.376  1.00  0.00     0.027 C 
HETATM   32  C30 UNL     1       8.376   8.443  16.891  1.00  0.00     0.170 C 
HETATM   33  C27 UNL     1       8.914  10.427  14.709  1.00  0.00     0.034 C 
HETATM   34  C31 UNL     1       7.082   9.234  13.415  1.00  0.00     0.020 C 
HETATM   35  C28 UNL     1       9.515  10.517  16.076  1.00  0.00    -0.028 C 
HETATM   36  C29 UNL     1       9.270   9.633  17.051  1.00  0.00     0.003 C 
HETATM   37  C32 UNL     1       6.901   7.983  12.559  1.00  0.00     0.013 C 
BRANCH  32  38
HETATM   38  O7  UNL     1       9.223   7.294  16.977  1.00  0.00    -0.389 OA
HETATM   39  H45 UNL     1       9.972   7.446  16.375  1.00  0.00     0.210 HD
ENDBRANCH  32  38
ENDBRANCH  25  28
ENDBRANCH  21  25
ENDBRANCH  17  21
BRANCH  20  40
HETATM   40  O8  UNL     1       0.175   6.869  16.332  1.00  0.00    -0.384 OA
HETATM   41  H54 UNL     1      -0.339   6.952  17.153  1.00  0.00     0.211 HD
ENDBRANCH  20  40
BRANCH   1  42
HETATM   42  O2  UNL     1      -7.620   7.388  14.632  1.00  0.00    -0.386 OA
BRANCH  42  43
HETATM   43  C4  UNL     1      -7.944   6.090  14.130  1.00  0.00     0.170 C 
BRANCH  43  44
HETATM   44  C3  UNL     1      -9.136   6.166  13.182  1.00  0.00     0.052 C 
BRANCH  44  45
HETATM   45  C2  UNL     1     -10.304   6.912  13.816  1.00  0.00     0.169 C 
BRANCH  45  46
HETATM   46  O1  UNL     1     -11.173   7.477  12.833  1.00  0.00    -0.396 OA
HETATM   47  C1  UNL     1     -11.551   8.818  13.117  1.00  0.00     0.201 C 
ENDBRANCH  45  46
ENDBRANCH  44  45
ENDBRANCH  43  44
ENDBRANCH  42  43
ENDBRANCH   1  42
TORSDOF 12
ENDMDL
