MODEL 1
REMARK minimizedAffinity -9.16974831
REMARK  7 active torsions:
REMARK  status: ('A' for Active; 'I' for Inactive)
REMARK    1  A    between atoms: C2_2  and  C30_32 
REMARK    2  A    between atoms: C3_3  and  C4_4 
REMARK    3  A    between atoms: C4_4  and  C5_5 
REMARK    4  A    between atoms: C5_5  and  C6_6 
REMARK    5  A    between atoms: C6_6  and  C8_8 
REMARK    6  A    between atoms: C29_30  and  O2_31 
REMARK    7  A    between atoms: C30_32  and  O3_33 
ROOT
HETATM    1  C8  UNL     1      -3.008   8.331  15.203  1.00  0.00    -0.002 C 
HETATM    2  C9  UNL     1      -1.914   8.052  16.275  1.00  0.00     0.007 C 
HETATM    3  C10 UNL     1      -0.562   7.942  15.546  1.00  0.00     0.015 C 
HETATM    4  C11 UNL     1      -0.818   8.520  14.146  1.00  0.00    -0.010 C 
HETATM    5  C12 UNL     1      -0.731  10.076  14.264  1.00  0.00     0.021 C 
HETATM    6  C13 UNL     1       0.117   8.131  12.998  1.00  0.00    -0.039 C 
HETATM    7  C14 UNL     1      -0.354   8.119  11.722  1.00  0.00    -0.066 C 
HETATM    8  C15 UNL     1      -1.822   8.435  11.410  1.00  0.00     0.036 C 
HETATM    9  C16 UNL     1      -2.782   8.653  12.598  1.00  0.00     0.015 C 
HETATM   10  C17 UNL     1      -2.274   7.966  13.872  1.00  0.00    -0.029 C 
HETATM   11  C18 UNL     1      -2.320   6.421  13.663  1.00  0.00     0.016 C 
HETATM   12  C19 UNL     1       0.541   7.707  10.519  1.00  0.00    -0.015 C 
HETATM   13  C20 UNL     1       0.208   6.221  10.246  1.00  0.00     0.020 C 
HETATM   14  C21 UNL     1       0.230   8.545   9.255  1.00  0.00     0.021 C 
HETATM   15  C22 UNL     1       1.142   8.217   8.081  1.00  0.00     0.080 C 
HETATM   16  C23 UNL     1       2.595   8.409   8.433  1.00  0.00     0.135 C 
HETATM   17  O1  UNL     1       3.351   8.936   7.613  1.00  0.00    -0.297 OA
HETATM   18  C24 UNL     1       3.112   7.804   9.748  1.00  0.00     0.018 C 
HETATM   19  C25 UNL     1       4.392   8.593  10.140  1.00  0.00     0.023 C 
HETATM   20  C26 UNL     1       3.546   6.356   9.471  1.00  0.00     0.023 C 
HETATM   21  C27 UNL     1       2.046   7.978  10.884  1.00  0.00     0.016 C 
HETATM   22  C28 UNL     1       2.396   7.246  12.193  1.00  0.00     0.043 C 
HETATM   23  C29 UNL     1       1.549   7.776  13.354  1.00  0.00     0.148 C 
ENDROOT
BRANCH   1  24
HETATM   24  C6  UNL     1      -4.364   7.655  15.553  1.00  0.00    -0.014 C 
HETATM   25  C7  UNL     1      -4.238   6.148  15.789  1.00  0.00     0.010 C 
BRANCH  24  26
HETATM   26  C5  UNL     1      -5.497   7.943  14.525  1.00  0.00     0.008 C 
BRANCH  26  27
HETATM   27  C4  UNL     1      -5.740   6.928  13.398  1.00  0.00     0.028 C 
BRANCH  27  28
HETATM   28  C3  UNL     1      -6.670   5.801  13.741  1.00  0.00    -0.022 C 
HETATM   29  C2  UNL     1      -6.522   4.496  13.436  1.00  0.00    -0.064 C 
HETATM   30  C1  UNL     1      -5.359   3.928  12.667  1.00  0.00     0.045 C 
BRANCH  29  31
HETATM   31  C30 UNL     1      -7.546   3.482  13.872  1.00  0.00     0.197 C 
BRANCH  31  32
HETATM   32  O3  UNL     1      -8.704   3.634  13.066  1.00  0.00    -0.397 OA
HETATM   33  H48 UNL     1      -9.329   2.942  13.340  1.00  0.00     0.209 HD
ENDBRANCH  31  32
ENDBRANCH  29  31
ENDBRANCH  27  28
ENDBRANCH  26  27
ENDBRANCH  24  26
ENDBRANCH   1  24
BRANCH  23  34
HETATM   34  O2  UNL     1       2.203   8.941  13.856  1.00  0.00    -0.391 OA
HETATM   35  H45 UNL     1       1.880   9.695  13.337  1.00  0.00     0.210 HD
ENDBRANCH  23  34
TORSDOF 7
ENDMDL
MODEL 2
REMARK minimizedAffinity -9.14836311
REMARK  7 active torsions:
REMARK  status: ('A' for Active; 'I' for Inactive)
REMARK    1  A    between atoms: C2_2  and  C30_32 
REMARK    2  A    between atoms: C3_3  and  C4_4 
REMARK    3  A    between atoms: C4_4  and  C5_5 
REMARK    4  A    between atoms: C5_5  and  C6_6 
REMARK    5  A    between atoms: C6_6  and  C8_8 
REMARK    6  A    between atoms: C29_30  and  O2_31 
REMARK    7  A    between atoms: C30_32  and  O3_33 
ROOT
HETATM    1  C8  UNL     1      -2.367   5.662  12.949  1.00  0.00    -0.002 C 
HETATM    2  C9  UNL     1      -2.343   4.972  11.554  1.00  0.00     0.007 C 
HETATM    3  C10 UNL     1      -0.907   5.073  11.007  1.00  0.00     0.015 C 
HETATM    4  C11 UNL     1      -0.048   5.469  12.217  1.00  0.00    -0.010 C 
HETATM    5  C12 UNL     1       0.252   4.162  13.020  1.00  0.00     0.021 C 
HETATM    6  C13 UNL     1       1.308   6.140  11.980  1.00  0.00    -0.039 C 
HETATM    7  C14 UNL     1       1.809   6.991  12.916  1.00  0.00    -0.066 C 
HETATM    8  C15 UNL     1       1.020   7.338  14.184  1.00  0.00     0.036 C 
HETATM    9  C16 UNL     1      -0.415   6.787  14.316  1.00  0.00     0.015 C 
HETATM   10  C17 UNL     1      -1.030   6.472  12.946  1.00  0.00    -0.029 C 
HETATM   11  C18 UNL     1      -1.239   7.809  12.169  1.00  0.00     0.016 C 
HETATM   12  C19 UNL     1       3.168   7.722  12.718  1.00  0.00    -0.015 C 
HETATM   13  C20 UNL     1       2.806   9.130  12.190  1.00  0.00     0.020 C 
HETATM   14  C21 UNL     1       3.950   7.855  14.048  1.00  0.00     0.021 C 
HETATM   15  C22 UNL     1       5.317   8.499  13.874  1.00  0.00     0.080 C 
HETATM   16  C23 UNL     1       6.173   7.737  12.895  1.00  0.00     0.135 C 
HETATM   17  O1  UNL     1       7.368   7.561  13.146  1.00  0.00    -0.297 OA
HETATM   18  C24 UNL     1       5.554   7.333  11.548  1.00  0.00     0.018 C 
HETATM   19  C25 UNL     1       6.378   6.131  11.009  1.00  0.00     0.023 C 
HETATM   20  C26 UNL     1       5.756   8.493  10.561  1.00  0.00     0.023 C 
HETATM   21  C27 UNL     1       4.068   6.875  11.746  1.00  0.00     0.016 C 
HETATM   22  C28 UNL     1       3.306   6.623  10.432  1.00  0.00     0.043 C 
HETATM   23  C29 UNL     1       2.034   5.809  10.689  1.00  0.00     0.148 C 
ENDROOT
BRANCH   1  24
HETATM   24  C6  UNL     1      -3.715   6.386  13.227  1.00  0.00    -0.014 C 
HETATM   25  C7  UNL     1      -3.549   7.661  14.059  1.00  0.00     0.010 C 
BRANCH  24  26
HETATM   26  C5  UNL     1      -4.804   5.472  13.862  1.00  0.00     0.008 C 
BRANCH  26  27
HETATM   27  C4  UNL     1      -5.938   4.951  12.966  1.00  0.00     0.028 C 
BRANCH  27  28
HETATM   28  C3  UNL     1      -5.613   3.716  12.176  1.00  0.00    -0.022 C 
HETATM   29  C2  UNL     1      -6.345   2.587  12.086  1.00  0.00    -0.064 C 
HETATM   30  C1  UNL     1      -7.656   2.363  12.791  1.00  0.00     0.045 C 
BRANCH  29  31
HETATM   31  C30 UNL     1      -5.883   1.437  11.232  1.00  0.00     0.197 C 
BRANCH  31  32
HETATM   32  O3  UNL     1      -4.467   1.360  11.302  1.00  0.00    -0.397 OA
HETATM   33  H48 UNL     1      -4.202   0.587  10.777  1.00  0.00     0.209 HD
ENDBRANCH  31  32
ENDBRANCH  29  31
ENDBRANCH  27  28
ENDBRANCH  26  27
ENDBRANCH  24  26
ENDBRANCH   1  24
BRANCH  23  34
HETATM   34  O2  UNL     1       2.410   4.433  10.711  1.00  0.00    -0.391 OA
HETATM   35  H45 UNL     1       2.673   4.223  11.621  1.00  0.00     0.210 HD
ENDBRANCH  23  34
TORSDOF 7
ENDMDL
MODEL 3
REMARK minimizedAffinity -8.99351501
REMARK  7 active torsions:
REMARK  status: ('A' for Active; 'I' for Inactive)
REMARK    1  A    between atoms: C2_2  and  C30_32 
REMARK    2  A    between atoms: C3_3  and  C4_4 
REMARK    3  A    between atoms: C4_4  and  C5_5 
REMARK    4  A    between atoms: C5_5  and  C6_6 
REMARK    5  A    between atoms: C6_6  and  C8_8 
REMARK    6  A    between atoms: C29_30  and  O2_31 
REMARK    7  A    between atoms: C30_32  and  O3_33 
ROOT
HETATM    1  C8  UNL     1       1.455   7.141  12.382  1.00  0.00    -0.002 C 
HETATM    2  C9  UNL     1       1.736   5.644  12.062  1.00  0.00     0.007 C 
HETATM    3  C10 UNL     1       0.389   4.898  12.095  1.00  0.00     0.015 C 
HETATM    4  C11 UNL     1      -0.678   6.004  12.057  1.00  0.00    -0.010 C 
HETATM    5  C12 UNL     1      -0.848   6.433  10.564  1.00  0.00     0.021 C 
HETATM    6  C13 UNL     1      -2.087   5.696  12.571  1.00  0.00    -0.039 C 
HETATM    7  C14 UNL     1      -2.848   6.699  13.087  1.00  0.00    -0.066 C 
HETATM    8  C15 UNL     1      -2.305   8.127  13.216  1.00  0.00     0.036 C 
HETATM    9  C16 UNL     1      -0.825   8.373  12.853  1.00  0.00     0.015 C 
HETATM   10  C17 UNL     1       0.010   7.093  12.975  1.00  0.00    -0.029 C 
HETATM   11  C18 UNL     1       0.082   6.680  14.478  1.00  0.00     0.016 C 
HETATM   12  C19 UNL     1      -4.275   6.442  13.649  1.00  0.00    -0.015 C 
HETATM   13  C20 UNL     1      -4.099   6.309  15.180  1.00  0.00     0.020 C 
HETATM   14  C21 UNL     1      -5.236   7.616  13.339  1.00  0.00     0.021 C 
HETATM   15  C22 UNL     1      -6.661   7.361  13.811  1.00  0.00     0.080 C 
HETATM   16  C23 UNL     1      -7.234   6.107  13.203  1.00  0.00     0.135 C 
HETATM   17  O1  UNL     1      -8.402   6.106  12.807  1.00  0.00    -0.297 OA
HETATM   18  C24 UNL     1      -6.382   4.828  13.234  1.00  0.00     0.018 C 
HETATM   19  C25 UNL     1      -6.905   3.903  12.100  1.00  0.00     0.023 C 
HETATM   20  C26 UNL     1      -6.652   4.105  14.562  1.00  0.00     0.023 C 
HETATM   21  C27 UNL     1      -4.878   5.168  12.951  1.00  0.00     0.016 C 
HETATM   22  C28 UNL     1      -3.918   3.978  13.140  1.00  0.00     0.043 C 
HETATM   23  C29 UNL     1      -2.568   4.260  12.471  1.00  0.00     0.148 C 
ENDROOT
BRANCH   1  24
HETATM   24  C6  UNL     1       2.607   7.798  13.195  1.00  0.00    -0.014 C 
HETATM   25  C7  UNL     1       2.339   9.267  13.534  1.00  0.00     0.010 C 
BRANCH  24  26
HETATM   26  C5  UNL     1       4.010   7.648  12.536  1.00  0.00     0.008 C 
BRANCH  26  27
HETATM   27  C4  UNL     1       4.103   6.992  11.150  1.00  0.00     0.028 C 
BRANCH  27  28
HETATM   28  C3  UNL     1       3.620   7.837  10.008  1.00  0.00    -0.022 C 
HETATM   29  C2  UNL     1       3.031   7.415   8.871  1.00  0.00    -0.064 C 
HETATM   30  C1  UNL     1       2.754   5.973   8.539  1.00  0.00     0.045 C 
BRANCH  29  31
HETATM   31  C30 UNL     1       2.587   8.400   7.823  1.00  0.00     0.197 C 
BRANCH  31  32
HETATM   32  O3  UNL     1       3.551   9.439   7.740  1.00  0.00    -0.397 OA
HETATM   33  H48 UNL     1       3.260  10.034   7.030  1.00  0.00     0.209 HD
ENDBRANCH  31  32
ENDBRANCH  29  31
ENDBRANCH  27  28
ENDBRANCH  26  27
ENDBRANCH  24  26
ENDBRANCH   1  24
BRANCH  23  34
HETATM   34  O2  UNL     1      -2.697   3.910  11.094  1.00  0.00    -0.391 OA
HETATM   35  H45 UNL     1      -3.037   4.693  10.632  1.00  0.00     0.210 HD
ENDBRANCH  23  34
TORSDOF 7
ENDMDL
MODEL 4
REMARK minimizedAffinity -8.83305836
REMARK  7 active torsions:
REMARK  status: ('A' for Active; 'I' for Inactive)
REMARK    1  A    between atoms: C2_2  and  C30_32 
REMARK    2  A    between atoms: C3_3  and  C4_4 
REMARK    3  A    between atoms: C4_4  and  C5_5 
REMARK    4  A    between atoms: C5_5  and  C6_6 
REMARK    5  A    between atoms: C6_6  and  C8_8 
REMARK    6  A    between atoms: C29_30  and  O2_31 
REMARK    7  A    between atoms: C30_32  and  O3_33 
ROOT
HETATM    1  C8  UNL     1      -3.538   7.269  14.847  1.00  0.00    -0.002 C 
HETATM    2  C9  UNL     1      -4.054   5.923  14.260  1.00  0.00     0.007 C 
HETATM    3  C10 UNL     1      -2.993   5.408  13.270  1.00  0.00     0.015 C 
HETATM    4  C11 UNL     1      -1.735   6.238  13.568  1.00  0.00    -0.010 C 
HETATM    5  C12 UNL     1      -1.032   5.587  14.802  1.00  0.00     0.021 C 
HETATM    6  C13 UNL     1      -0.657   6.370  12.488  1.00  0.00    -0.039 C 
HETATM    7  C14 UNL     1       0.129   7.480  12.455  1.00  0.00    -0.066 C 
HETATM    8  C15 UNL     1      -0.076   8.633  13.446  1.00  0.00     0.036 C 
HETATM    9  C16 UNL     1      -1.279   8.553  14.409  1.00  0.00     0.015 C 
HETATM   10  C17 UNL     1      -2.389   7.649  13.858  1.00  0.00    -0.029 C 
HETATM   11  C18 UNL     1      -3.001   8.321  12.590  1.00  0.00     0.016 C 
HETATM   12  C19 UNL     1       1.221   7.682  11.367  1.00  0.00    -0.015 C 
HETATM   13  C20 UNL     1       0.570   8.581  10.290  1.00  0.00     0.020 C 
HETATM   14  C21 UNL     1       2.478   8.384  11.935  1.00  0.00     0.021 C 
HETATM   15  C22 UNL     1       3.595   8.528  10.912  1.00  0.00     0.080 C 
HETATM   16  C23 UNL     1       4.012   7.194  10.349  1.00  0.00     0.135 C 
HETATM   17  O1  UNL     1       5.211   6.956  10.180  1.00  0.00    -0.297 OA
HETATM   18  C24 UNL     1       2.914   6.232   9.868  1.00  0.00     0.018 C 
HETATM   19  C25 UNL     1       3.519   4.801   9.891  1.00  0.00     0.023 C 
HETATM   20  C26 UNL     1       2.598   6.562   8.401  1.00  0.00     0.023 C 
HETATM   21  C27 UNL     1       1.687   6.274  10.843  1.00  0.00     0.016 C 
HETATM   22  C28 UNL     1       0.463   5.481  10.348  1.00  0.00     0.043 C 
HETATM   23  C29 UNL     1      -0.521   5.230  11.497  1.00  0.00     0.148 C 
ENDROOT
BRANCH   1  24
HETATM   24  C6  UNL     1      -4.692   8.275  15.122  1.00  0.00    -0.014 C 
HETATM   25  C7  UNL     1      -4.235   9.512  15.901  1.00  0.00     0.010 C 
BRANCH  24  26
HETATM   26  C5  UNL     1      -5.934   7.638  15.811  1.00  0.00     0.008 C 
BRANCH  26  27
HETATM   27  C4  UNL     1      -7.100   7.164  14.929  1.00  0.00     0.028 C 
BRANCH  27  28
HETATM   28  C3  UNL     1      -7.225   5.675  14.781  1.00  0.00    -0.022 C 
HETATM   29  C2  UNL     1      -7.632   4.993  13.691  1.00  0.00    -0.064 C 
HETATM   30  C1  UNL     1      -8.051   5.632  12.394  1.00  0.00     0.045 C 
BRANCH  29  31
HETATM   31  C30 UNL     1      -7.687   3.489  13.701  1.00  0.00     0.197 C 
BRANCH  31  32
HETATM   32  O3  UNL     1      -8.781   3.070  12.901  1.00  0.00    -0.397 OA
HETATM   33  H48 UNL     1      -8.766   2.099  12.892  1.00  0.00     0.209 HD
ENDBRANCH  31  32
ENDBRANCH  29  31
ENDBRANCH  27  28
ENDBRANCH  26  27
ENDBRANCH  24  26
ENDBRANCH   1  24
BRANCH  23  34
HETATM   34  O2  UNL     1      -0.072   4.066  12.189  1.00  0.00    -0.391 OA
HETATM   35  H45 UNL     1       0.564   4.361  12.860  1.00  0.00     0.210 HD
ENDBRANCH  23  34
TORSDOF 7
ENDMDL
MODEL 5
REMARK minimizedAffinity -8.82793713
REMARK  7 active torsions:
REMARK  status: ('A' for Active; 'I' for Inactive)
REMARK    1  A    between atoms: C2_2  and  C30_32 
REMARK    2  A    between atoms: C3_3  and  C4_4 
REMARK    3  A    between atoms: C4_4  and  C5_5 
REMARK    4  A    between atoms: C5_5  and  C6_6 
REMARK    5  A    between atoms: C6_6  and  C8_8 
REMARK    6  A    between atoms: C29_30  and  O2_31 
REMARK    7  A    between atoms: C30_32  and  O3_33 
ROOT
HETATM    1  C8  UNL     1       1.113   6.242  12.793  1.00  0.00    -0.002 C 
HETATM    2  C9  UNL     1       0.547   7.524  13.469  1.00  0.00     0.007 C 
HETATM    3  C10 UNL     1      -0.971   7.329  13.643  1.00  0.00     0.015 C 
HETATM    4  C11 UNL     1      -1.206   5.827  13.423  1.00  0.00    -0.010 C 
HETATM    5  C12 UNL     1      -0.866   5.103  14.766  1.00  0.00     0.021 C 
HETATM    6  C13 UNL     1      -2.603   5.342  13.023  1.00  0.00    -0.039 C 
HETATM    7  C14 UNL     1      -2.735   4.205  12.288  1.00  0.00    -0.066 C 
HETATM    8  C15 UNL     1      -1.509   3.423  11.800  1.00  0.00     0.036 C 
HETATM    9  C16 UNL     1      -0.114   4.026  12.067  1.00  0.00     0.015 C 
HETATM   10  C17 UNL     1      -0.179   5.547  12.253  1.00  0.00    -0.029 C 
HETATM   11  C18 UNL     1      -0.590   6.202  10.898  1.00  0.00     0.016 C 
HETATM   12  C19 UNL     1      -4.125   3.679  11.830  1.00  0.00    -0.015 C 
HETATM   13  C20 UNL     1      -4.298   4.181  10.377  1.00  0.00     0.020 C 
HETATM   14  C21 UNL     1      -4.192   2.133  11.854  1.00  0.00     0.021 C 
HETATM   15  C22 UNL     1      -5.565   1.590  11.483  1.00  0.00     0.080 C 
HETATM   16  C23 UNL     1      -6.641   2.126  12.392  1.00  0.00     0.135 C 
HETATM   17  O1  UNL     1      -7.527   1.366  12.794  1.00  0.00    -0.297 OA
HETATM   18  C24 UNL     1      -6.677   3.638  12.664  1.00  0.00     0.018 C 
HETATM   19  C25 UNL     1      -7.445   3.842  14.000  1.00  0.00     0.023 C 
HETATM   20  C26 UNL     1      -7.514   4.303  11.561  1.00  0.00     0.023 C 
HETATM   21  C27 UNL     1      -5.222   4.197  12.830  1.00  0.00     0.016 C 
HETATM   22  C28 UNL     1      -5.145   5.732  12.927  1.00  0.00     0.043 C 
HETATM   23  C29 UNL     1      -3.786   6.173  13.483  1.00  0.00     0.148 C 
ENDROOT
BRANCH   1  24
HETATM   24  C6  UNL     1       2.290   6.555  11.824  1.00  0.00    -0.014 C 
HETATM   25  C7  UNL     1       2.547   8.056  11.662  1.00  0.00     0.010 C 
BRANCH  24  26
HETATM   26  C5  UNL     1       2.155   5.882  10.427  1.00  0.00     0.008 C 
BRANCH  26  27
HETATM   27  C4  UNL     1       2.759   6.594   9.208  1.00  0.00     0.028 C 
BRANCH  27  28
HETATM   28  C3  UNL     1       2.871   5.755   7.968  1.00  0.00    -0.022 C 
HETATM   29  C2  UNL     1       3.492   4.565   7.838  1.00  0.00    -0.064 C 
HETATM   30  C1  UNL     1       4.209   3.852   8.954  1.00  0.00     0.045 C 
BRANCH  29  31
HETATM   31  C30 UNL     1       3.499   3.841   6.519  1.00  0.00     0.197 C 
BRANCH  31  32
HETATM   32  O3  UNL     1       4.298   2.674   6.647  1.00  0.00    -0.397 OA
HETATM   33  H48 UNL     1       4.250   2.207   5.797  1.00  0.00     0.209 HD
ENDBRANCH  31  32
ENDBRANCH  29  31
ENDBRANCH  27  28
ENDBRANCH  26  27
ENDBRANCH  24  26
ENDBRANCH   1  24
BRANCH  23  34
HETATM   34  O2  UNL     1      -3.872   6.108  14.906  1.00  0.00    -0.391 OA
HETATM   35  H45 UNL     1      -3.633   5.204  15.165  1.00  0.00     0.210 HD
ENDBRANCH  23  34
TORSDOF 7
ENDMDL
MODEL 6
REMARK minimizedAffinity -8.76714039
REMARK  7 active torsions:
REMARK  status: ('A' for Active; 'I' for Inactive)
REMARK    1  A    between atoms: C2_2  and  C30_32 
REMARK    2  A    between atoms: C3_3  and  C4_4 
REMARK    3  A    between atoms: C4_4  and  C5_5 
REMARK    4  A    between atoms: C5_5  and  C6_6 
REMARK    5  A    between atoms: C6_6  and  C8_8 
REMARK    6  A    between atoms: C29_30  and  O2_31 
REMARK    7  A    between atoms: C30_32  and  O3_33 
ROOT
HETATM    1  C8  UNL     1      -2.679   5.341  13.261  1.00  0.00    -0.002 C 
HETATM    2  C9  UNL     1      -2.685   4.671  11.856  1.00  0.00     0.007 C 
HETATM    3  C10 UNL     1      -1.283   4.853  11.246  1.00  0.00     0.015 C 
HETATM    4  C11 UNL     1      -0.390   5.277  12.422  1.00  0.00    -0.010 C 
HETATM    5  C12 UNL     1       0.013   3.978  13.191  1.00  0.00     0.021 C 
HETATM    6  C13 UNL     1       0.917   6.020  12.133  1.00  0.00    -0.039 C 
HETATM    7  C14 UNL     1       1.418   6.884  13.058  1.00  0.00    -0.066 C 
HETATM    8  C15 UNL     1       0.671   7.174  14.365  1.00  0.00     0.036 C 
HETATM    9  C16 UNL     1      -0.727   6.548  14.554  1.00  0.00     0.015 C 
HETATM   10  C17 UNL     1      -1.388   6.220  13.209  1.00  0.00    -0.029 C 
HETATM   11  C18 UNL     1      -1.700   7.553  12.463  1.00  0.00     0.016 C 
HETATM   12  C19 UNL     1       2.727   7.686  12.809  1.00  0.00    -0.015 C 
HETATM   13  C20 UNL     1       2.270   9.080  12.318  1.00  0.00     0.020 C 
HETATM   14  C21 UNL     1       3.561   7.843  14.104  1.00  0.00     0.021 C 
HETATM   15  C22 UNL     1       4.885   8.559  13.878  1.00  0.00     0.080 C 
HETATM   16  C23 UNL     1       5.732   7.854  12.850  1.00  0.00     0.135 C 
HETATM   17  O1  UNL     1       6.945   7.737  13.043  1.00  0.00    -0.297 OA
HETATM   18  C24 UNL     1       5.073   7.435  11.526  1.00  0.00     0.018 C 
HETATM   19  C25 UNL     1       5.931   6.285  10.932  1.00  0.00     0.023 C 
HETATM   20  C26 UNL     1       5.170   8.617  10.549  1.00  0.00     0.023 C 
HETATM   21  C27 UNL     1       3.623   6.899  11.785  1.00  0.00     0.016 C 
HETATM   22  C28 UNL     1       2.815   6.624  10.503  1.00  0.00     0.043 C 
HETATM   23  C29 UNL     1       1.599   5.743  10.806  1.00  0.00     0.148 C 
ENDROOT
BRANCH   1  24
HETATM   24  C6  UNL     1      -4.049   5.992  13.610  1.00  0.00    -0.014 C 
HETATM   25  C7  UNL     1      -4.244   6.202  15.115  1.00  0.00     0.010 C 
BRANCH  24  26
HETATM   26  C5  UNL     1      -5.275   5.243  13.011  1.00  0.00     0.008 C 
BRANCH  26  27
HETATM   27  C4  UNL     1      -6.432   4.864  13.947  1.00  0.00     0.028 C 
BRANCH  27  28
HETATM   28  C3  UNL     1      -7.661   5.717  13.824  1.00  0.00    -0.022 C 
HETATM   29  C2  UNL     1      -8.267   6.423  14.800  1.00  0.00    -0.064 C 
HETATM   30  C1  UNL     1      -7.803   6.472  16.231  1.00  0.00     0.045 C 
BRANCH  29  31
HETATM   31  C30 UNL     1      -9.492   7.247  14.505  1.00  0.00     0.197 C 
BRANCH  31  32
HETATM   32  O3  UNL     1     -10.619   6.608  15.085  1.00  0.00    -0.397 OA
HETATM   33  H48 UNL     1     -11.384   7.181  14.916  1.00  0.00     0.209 HD
ENDBRANCH  31  32
ENDBRANCH  29  31
ENDBRANCH  27  28
ENDBRANCH  26  27
ENDBRANCH  24  26
ENDBRANCH   1  24
BRANCH  23  34
HETATM   34  O2  UNL     1       2.045   4.387  10.790  1.00  0.00    -0.391 OA
HETATM   35  H45 UNL     1       2.361   4.181  11.684  1.00  0.00     0.210 HD
ENDBRANCH  23  34
TORSDOF 7
ENDMDL
MODEL 7
REMARK minimizedAffinity -8.63619423
REMARK  7 active torsions:
REMARK  status: ('A' for Active; 'I' for Inactive)
REMARK    1  A    between atoms: C2_2  and  C30_32 
REMARK    2  A    between atoms: C3_3  and  C4_4 
REMARK    3  A    between atoms: C4_4  and  C5_5 
REMARK    4  A    between atoms: C5_5  and  C6_6 
REMARK    5  A    between atoms: C6_6  and  C8_8 
REMARK    6  A    between atoms: C29_30  and  O2_31 
REMARK    7  A    between atoms: C30_32  and  O3_33 
ROOT
HETATM    1  C8  UNL     1       2.958   7.086  10.815  1.00  0.00    -0.002 C 
HETATM    2  C9  UNL     1       2.868   5.541  10.655  1.00  0.00     0.007 C 
HETATM    3  C10 UNL     1       1.486   5.097  11.168  1.00  0.00     0.015 C 
HETATM    4  C11 UNL     1       0.664   6.392  11.264  1.00  0.00    -0.010 C 
HETATM    5  C12 UNL     1       0.130   6.709   9.829  1.00  0.00     0.021 C 
HETATM    6  C13 UNL     1      -0.557   6.432  12.187  1.00  0.00    -0.039 C 
HETATM    7  C14 UNL     1      -0.944   7.614  12.738  1.00  0.00    -0.066 C 
HETATM    8  C15 UNL     1      -0.150   8.904  12.500  1.00  0.00     0.036 C 
HETATM    9  C16 UNL     1       1.172   8.803  11.710  1.00  0.00     0.015 C 
HETATM   10  C17 UNL     1       1.772   7.393  11.785  1.00  0.00    -0.029 C 
HETATM   11  C18 UNL     1       2.219   7.114  13.253  1.00  0.00     0.016 C 
HETATM   12  C19 UNL     1      -2.159   7.712  13.704  1.00  0.00    -0.015 C 
HETATM   13  C20 UNL     1      -1.558   7.686  15.129  1.00  0.00     0.020 C 
HETATM   14  C21 UNL     1      -2.951   9.027  13.502  1.00  0.00     0.021 C 
HETATM   15  C22 UNL     1      -4.190   9.118  14.381  1.00  0.00     0.080 C 
HETATM   16  C23 UNL     1      -5.126   7.960  14.147  1.00  0.00     0.135 C 
HETATM   17  O1  UNL     1      -6.342   8.166  14.095  1.00  0.00    -0.297 OA
HETATM   18  C24 UNL     1      -4.538   6.540  14.131  1.00  0.00     0.018 C 
HETATM   19  C25 UNL     1      -5.528   5.645  13.336  1.00  0.00     0.023 C 
HETATM   20  C26 UNL     1      -4.518   6.014  15.574  1.00  0.00     0.023 C 
HETATM   21  C27 UNL     1      -3.153   6.533  13.397  1.00  0.00     0.016 C 
HETATM   22  C28 UNL     1      -2.401   5.192  13.486  1.00  0.00     0.043 C 
HETATM   23  C29 UNL     1      -1.286   5.125  12.437  1.00  0.00     0.148 C 
ENDROOT
BRANCH   1  24
HETATM   24  C6  UNL     1       4.397   7.560  11.171  1.00  0.00    -0.014 C 
HETATM   25  C7  UNL     1       4.890   8.701  10.277  1.00  0.00     0.010 C 
BRANCH  24  26
HETATM   26  C5  UNL     1       5.449   6.413  11.205  1.00  0.00     0.008 C 
BRANCH  26  27
HETATM   27  C4  UNL     1       6.606   6.508  12.211  1.00  0.00     0.028 C 
BRANCH  27  28
HETATM   28  C3  UNL     1       6.312   7.300  13.452  1.00  0.00    -0.022 C 
HETATM   29  C2  UNL     1       7.202   7.869  14.289  1.00  0.00    -0.064 C 
HETATM   30  C1  UNL     1       8.697   7.799  14.120  1.00  0.00     0.045 C 
BRANCH  29  31
HETATM   31  C30 UNL     1       6.739   8.650  15.490  1.00  0.00     0.197 C 
BRANCH  31  32
HETATM   32  O3  UNL     1       7.180   7.982  16.662  1.00  0.00    -0.397 OA
HETATM   33  H48 UNL     1       6.905   8.528  17.416  1.00  0.00     0.209 HD
ENDBRANCH  31  32
ENDBRANCH  29  31
ENDBRANCH  27  28
ENDBRANCH  26  27
ENDBRANCH  24  26
ENDBRANCH   1  24
BRANCH  23  34
HETATM   34  O2  UNL     1      -1.880   4.685  11.217  1.00  0.00    -0.391 OA
HETATM   35  H45 UNL     1      -2.203   5.476  10.756  1.00  0.00     0.210 HD
ENDBRANCH  23  34
TORSDOF 7
ENDMDL
MODEL 8
REMARK minimizedAffinity -8.50292492
REMARK  7 active torsions:
REMARK  status: ('A' for Active; 'I' for Inactive)
REMARK    1  A    between atoms: C2_2  and  C30_32 
REMARK    2  A    between atoms: C3_3  and  C4_4 
REMARK    3  A    between atoms: C4_4  and  C5_5 
REMARK    4  A    between atoms: C5_5  and  C6_6 
REMARK    5  A    between atoms: C6_6  and  C8_8 
REMARK    6  A    between atoms: C29_30  and  O2_31 
REMARK    7  A    between atoms: C30_32  and  O3_33 
ROOT
HETATM    1  C8  UNL     1      -1.905   4.883  12.810  1.00  0.00    -0.002 C 
HETATM    2  C9  UNL     1      -1.121   5.592  11.668  1.00  0.00     0.007 C 
HETATM    3  C10 UNL     1      -0.920   7.062  12.082  1.00  0.00     0.015 C 
HETATM    4  C11 UNL     1      -1.245   7.099  13.584  1.00  0.00    -0.010 C 
HETATM    5  C12 UNL     1       0.031   6.615  14.346  1.00  0.00     0.021 C 
HETATM    6  C13 UNL     1      -1.641   8.432  14.226  1.00  0.00    -0.039 C 
HETATM    7  C14 UNL     1      -2.455   8.436  15.317  1.00  0.00    -0.066 C 
HETATM    8  C15 UNL     1      -3.033   7.134  15.887  1.00  0.00     0.036 C 
HETATM    9  C16 UNL     1      -2.760   5.825  15.117  1.00  0.00     0.015 C 
HETATM   10  C17 UNL     1      -2.460   6.088  13.636  1.00  0.00    -0.029 C 
HETATM   11  C18 UNL     1      -3.751   6.634  12.951  1.00  0.00     0.016 C 
HETATM   12  C19 UNL     1      -2.913   9.758  15.996  1.00  0.00    -0.015 C 
HETATM   13  C20 UNL     1      -4.320  10.051  15.423  1.00  0.00     0.020 C 
HETATM   14  C21 UNL     1      -3.002   9.614  17.535  1.00  0.00     0.021 C 
HETATM   15  C22 UNL     1      -3.375  10.913  18.234  1.00  0.00     0.080 C 
HETATM   16  C23 UNL     1      -2.400  12.018  17.917  1.00  0.00     0.135 C 
HETATM   17  O1  UNL     1      -2.031  12.777  18.817  1.00  0.00    -0.297 OA
HETATM   18  C24 UNL     1      -2.015  12.249  16.447  1.00  0.00     0.018 C 
HETATM   19  C25 UNL     1      -0.647  12.986  16.444  1.00  0.00     0.023 C 
HETATM   20  C26 UNL     1      -3.043  13.208  15.827  1.00  0.00     0.023 C 
HETATM   21  C27 UNL     1      -1.847  10.877  15.706  1.00  0.00     0.016 C 
HETATM   22  C28 UNL     1      -1.639  11.005  14.185  1.00  0.00     0.043 C 
HETATM   23  C29 UNL     1      -1.089   9.699  13.601  1.00  0.00     0.148 C 
ENDROOT
BRANCH   1  24
HETATM   24  C6  UNL     1      -2.880   3.796  12.270  1.00  0.00    -0.014 C 
HETATM   25  C7  UNL     1      -3.047   3.846  10.749  1.00  0.00     0.010 C 
BRANCH  24  26
HETATM   26  C5  UNL     1      -4.274   3.799  12.963  1.00  0.00     0.008 C 
BRANCH  26  27
HETATM   27  C4  UNL     1      -5.470   3.203  12.205  1.00  0.00     0.028 C 
BRANCH  27  28
HETATM   28  C3  UNL     1      -6.624   4.139  11.992  1.00  0.00    -0.022 C 
HETATM   29  C2  UNL     1      -7.417   4.687  12.935  1.00  0.00    -0.064 C 
HETATM   30  C1  UNL     1      -7.281   4.438  14.413  1.00  0.00     0.045 C 
BRANCH  29  31
HETATM   31  C30 UNL     1      -8.530   5.626  12.553  1.00  0.00     0.197 C 
BRANCH  31  32
HETATM   32  O3  UNL     1      -9.465   5.678  13.619  1.00  0.00    -0.397 OA
HETATM   33  H48 UNL     1     -10.147   6.321  13.363  1.00  0.00     0.209 HD
ENDBRANCH  31  32
ENDBRANCH  29  31
ENDBRANCH  27  28
ENDBRANCH  26  27
ENDBRANCH  24  26
ENDBRANCH   1  24
BRANCH  23  34
HETATM   34  O2  UNL     1       0.327   9.722  13.776  1.00  0.00    -0.391 OA
HETATM   35  H45 UNL     1       0.512   9.353  14.655  1.00  0.00     0.210 HD
ENDBRANCH  23  34
TORSDOF 7
ENDMDL
MODEL 9
REMARK minimizedAffinity -8.49864388
REMARK  7 active torsions:
REMARK  status: ('A' for Active; 'I' for Inactive)
REMARK    1  A    between atoms: C2_2  and  C30_32 
REMARK    2  A    between atoms: C3_3  and  C4_4 
REMARK    3  A    between atoms: C4_4  and  C5_5 
REMARK    4  A    between atoms: C5_5  and  C6_6 
REMARK    5  A    between atoms: C6_6  and  C8_8 
REMARK    6  A    between atoms: C29_30  and  O2_31 
REMARK    7  A    between atoms: C30_32  and  O3_33 
ROOT
HETATM    1  C8  UNL     1      -1.855   5.939  12.108  1.00  0.00    -0.002 C 
HETATM    2  C9  UNL     1      -2.379   6.604  13.415  1.00  0.00     0.007 C 
HETATM    3  C10 UNL     1      -1.333   7.642  13.863  1.00  0.00     0.015 C 
HETATM    4  C11 UNL     1      -0.419   7.836  12.643  1.00  0.00    -0.010 C 
HETATM    5  C12 UNL     1      -1.135   8.839  11.682  1.00  0.00     0.021 C 
HETATM    6  C13 UNL     1       0.994   8.388  12.853  1.00  0.00    -0.039 C 
HETATM    7  C14 UNL     1       1.983   8.051  11.981  1.00  0.00    -0.066 C 
HETATM    8  C15 UNL     1       1.728   7.082  10.820  1.00  0.00     0.036 C 
HETATM    9  C16 UNL     1       0.344   6.405  10.734  1.00  0.00     0.015 C 
HETATM   10  C17 UNL     1      -0.347   6.351  12.103  1.00  0.00    -0.029 C 
HETATM   11  C18 UNL     1       0.455   5.391  13.034  1.00  0.00     0.016 C 
HETATM   12  C19 UNL     1       3.443   8.558  12.158  1.00  0.00    -0.015 C 
HETATM   13  C20 UNL     1       4.198   7.407  12.863  1.00  0.00     0.020 C 
HETATM   14  C21 UNL     1       4.116   8.861  10.797  1.00  0.00     0.021 C 
HETATM   15  C22 UNL     1       5.520   9.431  10.940  1.00  0.00     0.080 C 
HETATM   16  C23 UNL     1       5.528  10.693  11.764  1.00  0.00     0.135 C 
HETATM   17  O1  UNL     1       6.232  11.643  11.409  1.00  0.00    -0.297 OA
HETATM   18  C24 UNL     1       4.770  10.695  13.101  1.00  0.00     0.018 C 
HETATM   19  C25 UNL     1       4.451  12.176  13.443  1.00  0.00     0.023 C 
HETATM   20  C26 UNL     1       5.721  10.178  14.191  1.00  0.00     0.023 C 
HETATM   21  C27 UNL     1       3.420   9.909  12.963  1.00  0.00     0.016 C 
HETATM   22  C28 UNL     1       2.675   9.700  14.294  1.00  0.00     0.043 C 
HETATM   23  C29 UNL     1       1.216   9.303  14.043  1.00  0.00     0.148 C 
ENDROOT
BRANCH   1  24
HETATM   24  C6  UNL     1      -2.250   4.437  12.011  1.00  0.00    -0.014 C 
HETATM   25  C7  UNL     1      -1.489   3.688  10.914  1.00  0.00     0.010 C 
BRANCH  24  26
HETATM   26  C5  UNL     1      -3.781   4.196  11.860  1.00  0.00     0.008 C 
BRANCH  26  27
HETATM   27  C4  UNL     1      -4.588   3.798  13.105  1.00  0.00     0.028 C 
BRANCH  27  28
HETATM   28  C3  UNL     1      -6.079   3.812  12.933  1.00  0.00    -0.022 C 
HETATM   29  C2  UNL     1      -6.907   4.867  13.071  1.00  0.00    -0.064 C 
HETATM   30  C1  UNL     1      -6.463   6.257  13.441  1.00  0.00     0.045 C 
BRANCH  29  31
HETATM   31  C30 UNL     1      -8.388   4.716  12.846  1.00  0.00     0.197 C 
BRANCH  31  32
HETATM   32  O3  UNL     1      -8.743   3.358  13.054  1.00  0.00    -0.397 OA
HETATM   33  H48 UNL     1      -9.706   3.299  12.944  1.00  0.00     0.209 HD
ENDBRANCH  31  32
ENDBRANCH  29  31
ENDBRANCH  27  28
ENDBRANCH  26  27
ENDBRANCH  24  26
ENDBRANCH   1  24
BRANCH  23  34
HETATM   34  O2  UNL     1       0.479  10.508  13.843  1.00  0.00    -0.391 OA
HETATM   35  H45 UNL     1       0.535  10.724  12.898  1.00  0.00     0.210 HD
ENDBRANCH  23  34
TORSDOF 7
ENDMDL
