MODEL 1
REMARK minimizedAffinity -10.334794
REMARK  11 active torsions:
REMARK  status: ('A' for Active; 'I' for Inactive)
REMARK    1  A    between atoms: C6_6  and  C8_8 
REMARK    2  A    between atoms: C8_8  and  O1_9 
REMARK    3  A    between atoms: O1_9  and  C9_10 
REMARK    4  A    between atoms: C10_12  and  C11_13 
REMARK    5  A    between atoms: C11_13  and  O3_14 
REMARK    6  A    between atoms: C12_15  and  O4_16 
REMARK    7  A    between atoms: C13_17  and  O5_18 
REMARK    8  A    between atoms: C14_19  and  O6_20 
REMARK    9  A    between atoms: C20_26  and  C21_27 
REMARK   10  A    between atoms: C21_27  and  C22_28 
REMARK   11  A    between atoms: C26_34  and  O9_35 
ROOT
HETATM    1  C1  UNL     1      -1.833  49.234 -17.523  1.00  0.00     0.015 C 
HETATM    2  C2  UNL     1      -1.876  50.139 -18.517  1.00  0.00    -0.084 C 
HETATM    3  C3  UNL     1      -3.174  50.465 -19.218  1.00  0.00     0.034 C 
HETATM    4  C4  UNL     1      -3.059  50.443 -20.747  1.00  0.00     0.010 C 
HETATM    5  C5  UNL     1      -1.858  51.282 -21.230  1.00  0.00     0.005 C 
HETATM    6  C6  UNL     1      -1.841  51.614 -22.768  1.00  0.00    -0.018 C 
HETATM    7  C7  UNL     1      -3.067  52.516 -23.093  1.00  0.00     0.018 C 
HETATM    8  C15 UNL     1      -0.560  52.430 -23.144  1.00  0.00     0.012 C 
HETATM    9  C16 UNL     1       0.338  52.782 -21.959  1.00  0.00     0.002 C 
HETATM   10  C17 UNL     1       0.709  51.536 -21.167  1.00  0.00     0.010 C 
HETATM   11  C18 UNL     1      -0.513  50.757 -20.608  1.00  0.00    -0.032 C 
HETATM   12  C19 UNL     1      -0.247  49.252 -20.940  1.00  0.00     0.016 C 
HETATM   13  C20 UNL     1      -0.605  50.833 -19.024  1.00  0.00     0.025 C 
ENDROOT
BRANCH   6  14
HETATM   14  C8  UNL     1      -1.917  50.356 -23.673  1.00  0.00     0.180 C 
BRANCH  14  15
HETATM   15  O1  UNL     1      -2.152  50.730 -25.036  1.00  0.00    -0.358 OA
BRANCH  15  16
HETATM   16  C9  UNL     1      -1.181  51.660 -25.527  1.00  0.00     0.291 C 
HETATM   17  O2  UNL     1       0.020  50.997 -25.914  1.00  0.00    -0.348 OA
HETATM   18  C10 UNL     1       1.016  51.927 -26.376  1.00  0.00     0.179 C 
HETATM   19  C12 UNL     1       0.547  52.632 -27.660  1.00  0.00     0.180 C 
HETATM   20  C13 UNL     1      -0.811  53.312 -27.412  1.00  0.00     0.183 C 
HETATM   21  C14 UNL     1      -1.824  52.392 -26.724  1.00  0.00     0.204 C 
BRANCH  18  22
HETATM   22  C11 UNL     1       2.334  51.177 -26.579  1.00  0.00     0.198 C 
BRANCH  22  23
HETATM   23  O3  UNL     1       3.224  51.958 -27.373  1.00  0.00    -0.398 OA
HETATM   24  H17 UNL     1       3.989  51.391 -27.582  1.00  0.00     0.209 HD
ENDBRANCH  22  23
ENDBRANCH  18  22
BRANCH  19  25
HETATM   25  O4  UNL     1       0.437  51.696 -28.742  1.00  0.00    -0.390 OA
HETATM   26  H19 UNL     1      -0.032  52.175 -29.452  1.00  0.00     0.210 HD
ENDBRANCH  19  25
BRANCH  20  27
HETATM   27  O5  UNL     1      -1.351  53.762 -28.666  1.00  0.00    -0.390 OA
HETATM   28  H21 UNL     1      -1.976  53.052 -28.935  1.00  0.00     0.210 HD
ENDBRANCH  20  27
BRANCH  21  29
HETATM   29  O6  UNL     1      -2.337  51.467 -27.709  1.00  0.00    -0.388 OA
HETATM   30  H23 UNL     1      -2.487  50.630 -27.223  1.00  0.00     0.210 HD
ENDBRANCH  21  29
ENDBRANCH  15  16
ENDBRANCH  14  15
ENDBRANCH   6  14
BRANCH  13  31
HETATM   31  C21 UNL     1      -0.376  52.198 -18.308  1.00  0.00     0.037 C 
BRANCH  31  32
HETATM   32  C22 UNL     1       0.951  52.492 -17.673  1.00  0.00    -0.010 C 
HETATM   33  C23 UNL     1       1.346  52.107 -16.449  1.00  0.00     0.044 C 
HETATM   34  C24 UNL     1       2.713  52.388 -15.950  1.00  0.00     0.291 C 
HETATM   35  C26 UNL     1       0.660  51.299 -15.414  1.00  0.00     0.181 C 
HETATM   36  O7  UNL     1       3.506  53.173 -16.438  1.00  0.00    -0.260 OA
HETATM   37  O8  UNL     1       2.938  51.610 -14.855  1.00  0.00    -0.315 OA
HETATM   38  C25 UNL     1       1.847  50.693 -14.692  1.00  0.00     0.215 C 
BRANCH  35  39
HETATM   39  O9  UNL     1      -0.070  52.156 -14.546  1.00  0.00    -0.389 OA
HETATM   40  H40 UNL     1      -0.700  52.654 -15.095  1.00  0.00     0.210 HD
ENDBRANCH  35  39
ENDBRANCH  31  32
ENDBRANCH  13  31
TORSDOF 11
ENDMDL
MODEL 2
REMARK minimizedAffinity -9.79602528
REMARK  11 active torsions:
REMARK  status: ('A' for Active; 'I' for Inactive)
REMARK    1  A    between atoms: C6_6  and  C8_8 
REMARK    2  A    between atoms: C8_8  and  O1_9 
REMARK    3  A    between atoms: O1_9  and  C9_10 
REMARK    4  A    between atoms: C10_12  and  C11_13 
REMARK    5  A    between atoms: C11_13  and  O3_14 
REMARK    6  A    between atoms: C12_15  and  O4_16 
REMARK    7  A    between atoms: C13_17  and  O5_18 
REMARK    8  A    between atoms: C14_19  and  O6_20 
REMARK    9  A    between atoms: C20_26  and  C21_27 
REMARK   10  A    between atoms: C21_27  and  C22_28 
REMARK   11  A    between atoms: C26_34  and  O9_35 
ROOT
HETATM    1  C1  UNL     1      -1.820  50.436 -26.259  1.00  0.00     0.015 C 
HETATM    2  C2  UNL     1      -2.483  49.892 -25.222  1.00  0.00    -0.084 C 
HETATM    3  C3  UNL     1      -3.149  48.542 -25.346  1.00  0.00     0.034 C 
HETATM    4  C4  UNL     1      -4.594  48.529 -24.835  1.00  0.00     0.010 C 
HETATM    5  C5  UNL     1      -4.695  49.152 -23.427  1.00  0.00     0.005 C 
HETATM    6  C6  UNL     1      -6.047  48.886 -22.667  1.00  0.00    -0.018 C 
HETATM    7  C7  UNL     1      -6.171  47.359 -22.398  1.00  0.00     0.018 C 
HETATM    8  C15 UNL     1      -6.046  49.598 -21.273  1.00  0.00     0.012 C 
HETATM    9  C16 UNL     1      -4.744  50.318 -20.929  1.00  0.00     0.002 C 
HETATM   10  C17 UNL     1      -4.352  51.293 -22.029  1.00  0.00     0.010 C 
HETATM   11  C18 UNL     1      -4.162  50.630 -23.421  1.00  0.00    -0.032 C 
HETATM   12  C19 UNL     1      -4.924  51.546 -24.436  1.00  0.00     0.016 C 
HETATM   13  C20 UNL     1      -2.645  50.642 -23.895  1.00  0.00     0.025 C 
ENDROOT
BRANCH   6  14
HETATM   14  C8  UNL     1      -7.301  49.338 -23.460  1.00  0.00     0.180 C 
BRANCH  14  15
HETATM   15  O1  UNL     1      -8.405  48.463 -23.198  1.00  0.00    -0.358 OA
BRANCH  15  16
HETATM   16  C9  UNL     1      -8.870  47.796 -24.377  1.00  0.00     0.291 C 
HETATM   17  O2  UNL     1     -10.252  47.464 -24.271  1.00  0.00    -0.348 OA
HETATM   18  C10 UNL     1     -10.721  46.761 -25.436  1.00  0.00     0.179 C 
HETATM   19  C12 UNL     1     -10.647  47.662 -26.680  1.00  0.00     0.180 C 
HETATM   20  C13 UNL     1      -9.211  48.185 -26.858  1.00  0.00     0.183 C 
HETATM   21  C14 UNL     1      -8.615  48.750 -25.563  1.00  0.00     0.204 C 
BRANCH  18  22
HETATM   22  C11 UNL     1     -12.142  46.261 -25.170  1.00  0.00     0.198 C 
BRANCH  22  23
HETATM   23  O3  UNL     1     -12.952  47.326 -24.677  1.00  0.00    -0.398 OA
HETATM   24  H17 UNL     1     -13.800  46.932 -24.402  1.00  0.00     0.209 HD
ENDBRANCH  22  23
ENDBRANCH  18  22
BRANCH  19  25
HETATM   25  O4  UNL     1     -11.560  48.763 -26.564  1.00  0.00    -0.390 OA
HETATM   26  H19 UNL     1     -11.323  49.372 -27.290  1.00  0.00     0.210 HD
ENDBRANCH  19  25
BRANCH  20  27
HETATM   27  O5  UNL     1      -9.200  49.205 -27.871  1.00  0.00    -0.390 OA
HETATM   28  H21 UNL     1      -9.237  50.050 -27.371  1.00  0.00     0.210 HD
ENDBRANCH  20  27
BRANCH  21  29
HETATM   29  O6  UNL     1      -9.187  50.057 -25.336  1.00  0.00    -0.388 OA
HETATM   30  H23 UNL     1      -9.266  50.138 -24.363  1.00  0.00     0.210 HD
ENDBRANCH  21  29
ENDBRANCH  15  16
ENDBRANCH  14  15
ENDBRANCH   6  14
BRANCH  13  31
HETATM   31  C21 UNL     1      -1.525  50.259 -22.882  1.00  0.00     0.037 C 
BRANCH  31  32
HETATM   32  C22 UNL     1      -0.642  51.328 -22.309  1.00  0.00    -0.010 C 
HETATM   33  C23 UNL     1       0.062  52.233 -23.008  1.00  0.00     0.044 C 
HETATM   34  C24 UNL     1       0.844  53.297 -22.335  1.00  0.00     0.291 C 
HETATM   35  C26 UNL     1       0.166  52.471 -24.467  1.00  0.00     0.181 C 
HETATM   36  O7  UNL     1       1.143  53.328 -21.155  1.00  0.00    -0.260 OA
HETATM   37  O8  UNL     1       1.165  54.244 -23.261  1.00  0.00    -0.315 OA
HETATM   38  C25 UNL     1       0.491  53.950 -24.492  1.00  0.00     0.215 C 
BRANCH  35  39
HETATM   39  O9  UNL     1       1.243  51.711 -24.999  1.00  0.00    -0.389 OA
HETATM   40  H40 UNL     1       1.066  50.776 -24.794  1.00  0.00     0.210 HD
ENDBRANCH  35  39
ENDBRANCH  31  32
ENDBRANCH  13  31
TORSDOF 11
ENDMDL
MODEL 3
REMARK minimizedAffinity -9.78327274
REMARK  11 active torsions:
REMARK  status: ('A' for Active; 'I' for Inactive)
REMARK    1  A    between atoms: C6_6  and  C8_8 
REMARK    2  A    between atoms: C8_8  and  O1_9 
REMARK    3  A    between atoms: O1_9  and  C9_10 
REMARK    4  A    between atoms: C10_12  and  C11_13 
REMARK    5  A    between atoms: C11_13  and  O3_14 
REMARK    6  A    between atoms: C12_15  and  O4_16 
REMARK    7  A    between atoms: C13_17  and  O5_18 
REMARK    8  A    between atoms: C14_19  and  O6_20 
REMARK    9  A    between atoms: C20_26  and  C21_27 
REMARK   10  A    between atoms: C21_27  and  C22_28 
REMARK   11  A    between atoms: C26_34  and  O9_35 
ROOT
HETATM    1  C1  UNL     1      -1.749  50.712 -25.537  1.00  0.00     0.015 C 
HETATM    2  C2  UNL     1      -2.487  50.064 -24.617  1.00  0.00    -0.084 C 
HETATM    3  C3  UNL     1      -3.038  48.685 -24.892  1.00  0.00     0.034 C 
HETATM    4  C4  UNL     1      -4.528  48.549 -24.557  1.00  0.00     0.010 C 
HETATM    5  C5  UNL     1      -4.833  49.076 -23.139  1.00  0.00     0.005 C 
HETATM    6  C6  UNL     1      -6.241  48.679 -22.560  1.00  0.00    -0.018 C 
HETATM    7  C7  UNL     1      -6.289  47.134 -22.390  1.00  0.00     0.018 C 
HETATM    8  C15 UNL     1      -6.450  49.302 -21.139  1.00  0.00     0.012 C 
HETATM    9  C16 UNL     1      -5.249  50.079 -20.605  1.00  0.00     0.002 C 
HETATM   10  C17 UNL     1      -4.802  51.144 -21.597  1.00  0.00     0.010 C 
HETATM   11  C18 UNL     1      -4.409  50.582 -22.990  1.00  0.00    -0.032 C 
HETATM   12  C19 UNL     1      -5.111  51.509 -24.037  1.00  0.00     0.016 C 
HETATM   13  C20 UNL     1      -2.852  50.719 -23.279  1.00  0.00     0.025 C 
ENDROOT
BRANCH   6  14
HETATM   14  C8  UNL     1      -7.424  49.099 -23.470  1.00  0.00     0.180 C 
BRANCH  14  15
HETATM   15  O1  UNL     1      -8.564  48.263 -23.233  1.00  0.00    -0.358 OA
BRANCH  15  16
HETATM   16  C9  UNL     1      -9.096  47.705 -24.439  1.00  0.00     0.291 C 
HETATM   17  O2  UNL     1     -10.513  47.567 -24.363  1.00  0.00    -0.348 OA
HETATM   18  C10 UNL     1     -11.055  46.973 -25.556  1.00  0.00     0.179 C 
HETATM   19  C12 UNL     1     -10.833  47.892 -26.769  1.00  0.00     0.180 C 
HETATM   20  C13 UNL     1      -9.335  48.213 -26.910  1.00  0.00     0.183 C 
HETATM   21  C14 UNL     1      -8.689  48.648 -25.591  1.00  0.00     0.204 C 
BRANCH  18  22
HETATM   22  C11 UNL     1     -12.536  46.670 -25.326  1.00  0.00     0.198 C 
BRANCH  22  23
HETATM   23  O3  UNL     1     -13.339  47.451 -26.209  1.00  0.00    -0.398 OA
HETATM   24  H17 UNL     1     -14.266  47.321 -25.938  1.00  0.00     0.209 HD
ENDBRANCH  22  23
ENDBRANCH  18  22
BRANCH  19  25
HETATM   25  O4  UNL     1     -11.584  49.107 -26.630  1.00  0.00    -0.390 OA
HETATM   26  H19 UNL     1     -11.252  49.698 -27.333  1.00  0.00     0.210 HD
ENDBRANCH  19  25
BRANCH  20  27
HETATM   27  O5  UNL     1      -9.163  49.251 -27.890  1.00  0.00    -0.390 OA
HETATM   28  H21 UNL     1      -9.090  50.078 -27.363  1.00  0.00     0.210 HD
ENDBRANCH  20  27
BRANCH  21  29
HETATM   29  O6  UNL     1      -9.076  50.016 -25.329  1.00  0.00    -0.388 OA
HETATM   30  H23 UNL     1      -9.161  50.077 -24.355  1.00  0.00     0.210 HD
ENDBRANCH  21  29
ENDBRANCH  15  16
ENDBRANCH  14  15
ENDBRANCH   6  14
BRANCH  13  31
HETATM   31  C21 UNL     1      -1.832  50.345 -22.163  1.00  0.00     0.037 C 
BRANCH  31  32
HETATM   32  C22 UNL     1      -0.936  51.403 -21.589  1.00  0.00    -0.010 C 
HETATM   33  C23 UNL     1      -0.832  51.734 -20.292  1.00  0.00     0.044 C 
HETATM   34  C24 UNL     1       0.145  52.746 -19.824  1.00  0.00     0.291 C 
HETATM   35  C26 UNL     1      -1.498  51.182 -19.089  1.00  0.00     0.181 C 
HETATM   36  O7  UNL     1       0.747  53.538 -20.527  1.00  0.00    -0.260 OA
HETATM   37  O8  UNL     1       0.266  52.633 -18.472  1.00  0.00    -0.315 OA
HETATM   38  C25 UNL     1      -0.460  51.479 -18.026  1.00  0.00     0.215 C 
BRANCH  35  39
HETATM   39  O9  UNL     1      -2.697  51.902 -18.835  1.00  0.00    -0.389 OA
HETATM   40  H40 UNL     1      -3.255  51.823 -19.628  1.00  0.00     0.210 HD
ENDBRANCH  35  39
ENDBRANCH  31  32
ENDBRANCH  13  31
TORSDOF 11
ENDMDL
MODEL 4
REMARK minimizedAffinity -9.56354046
REMARK  11 active torsions:
REMARK  status: ('A' for Active; 'I' for Inactive)
REMARK    1  A    between atoms: C6_6  and  C8_8 
REMARK    2  A    between atoms: C8_8  and  O1_9 
REMARK    3  A    between atoms: O1_9  and  C9_10 
REMARK    4  A    between atoms: C10_12  and  C11_13 
REMARK    5  A    between atoms: C11_13  and  O3_14 
REMARK    6  A    between atoms: C12_15  and  O4_16 
REMARK    7  A    between atoms: C13_17  and  O5_18 
REMARK    8  A    between atoms: C14_19  and  O6_20 
REMARK    9  A    between atoms: C20_26  and  C21_27 
REMARK   10  A    between atoms: C21_27  and  C22_28 
REMARK   11  A    between atoms: C26_34  and  O9_35 
ROOT
HETATM    1  C1  UNL     1      -5.227  48.631 -24.979  1.00  0.00     0.015 C 
HETATM    2  C2  UNL     1      -4.069  48.983 -24.391  1.00  0.00    -0.084 C 
HETATM    3  C3  UNL     1      -3.356  48.040 -23.450  1.00  0.00     0.034 C 
HETATM    4  C4  UNL     1      -2.935  48.701 -22.133  1.00  0.00     0.010 C 
HETATM    5  C5  UNL     1      -2.181  50.023 -22.387  1.00  0.00     0.005 C 
HETATM    6  C6  UNL     1      -1.409  50.609 -21.147  1.00  0.00    -0.018 C 
HETATM    7  C7  UNL     1      -0.278  49.616 -20.755  1.00  0.00     0.018 C 
HETATM    8  C15 UNL     1      -0.721  51.965 -21.514  1.00  0.00     0.012 C 
HETATM    9  C16 UNL     1      -0.881  52.382 -22.975  1.00  0.00     0.002 C 
HETATM   10  C17 UNL     1      -2.348  52.398 -23.380  1.00  0.00     0.010 C 
HETATM   11  C18 UNL     1      -3.065  51.032 -23.206  1.00  0.00    -0.032 C 
HETATM   12  C19 UNL     1      -4.424  51.350 -22.499  1.00  0.00     0.016 C 
HETATM   13  C20 UNL     1      -3.456  50.373 -24.599  1.00  0.00     0.025 C 
ENDROOT
BRANCH   6  14
HETATM   14  C8  UNL     1      -2.311  50.825 -19.903  1.00  0.00     0.180 C 
BRANCH  14  15
HETATM   15  O1  UNL     1      -1.660  51.675 -18.951  1.00  0.00    -0.358 OA
BRANCH  15  16
HETATM   16  C9  UNL     1      -0.947  50.937 -17.952  1.00  0.00     0.291 C 
HETATM   17  O2  UNL     1      -0.080  51.786 -17.203  1.00  0.00    -0.348 OA
HETATM   18  C10 UNL     1       0.668  51.048 -16.221  1.00  0.00     0.179 C 
HETATM   19  C12 UNL     1      -0.272  50.446 -15.163  1.00  0.00     0.180 C 
HETATM   20  C13 UNL     1      -1.339  49.577 -15.850  1.00  0.00     0.183 C 
HETATM   21  C14 UNL     1      -2.003  50.276 -17.041  1.00  0.00     0.204 C 
BRANCH  18  22
HETATM   22  C11 UNL     1       1.715  51.975 -15.601  1.00  0.00     0.198 C 
BRANCH  22  23
HETATM   23  O3  UNL     1       1.624  53.274 -16.183  1.00  0.00    -0.398 OA
HETATM   24  H17 UNL     1       2.387  53.785 -15.855  1.00  0.00     0.209 HD
ENDBRANCH  22  23
ENDBRANCH  18  22
BRANCH  19  25
HETATM   25  O4  UNL     1      -0.901  51.482 -14.395  1.00  0.00    -0.390 OA
HETATM   26  H19 UNL     1      -1.603  51.034 -13.884  1.00  0.00     0.210 HD
ENDBRANCH  19  25
BRANCH  20  27
HETATM   27  O5  UNL     1      -2.345  49.214 -14.890  1.00  0.00    -0.390 OA
HETATM   28  H21 UNL     1      -3.067  49.867 -15.029  1.00  0.00     0.210 HD
ENDBRANCH  20  27
BRANCH  21  29
HETATM   29  O6  UNL     1      -2.951  51.239 -16.528  1.00  0.00    -0.388 OA
HETATM   30  H23 UNL     1      -2.924  51.988 -17.159  1.00  0.00     0.210 HD
ENDBRANCH  21  29
ENDBRANCH  15  16
ENDBRANCH  14  15
ENDBRANCH   6  14
BRANCH  13  31
HETATM   31  C21 UNL     1      -2.420  50.371 -25.762  1.00  0.00     0.037 C 
BRANCH  31  32
HETATM   32  C22 UNL     1      -2.192  51.623 -26.558  1.00  0.00    -0.010 C 
HETATM   33  C23 UNL     1      -1.020  52.037 -27.064  1.00  0.00     0.044 C 
HETATM   34  C24 UNL     1      -0.923  53.255 -27.904  1.00  0.00     0.291 C 
HETATM   35  C26 UNL     1       0.328  51.423 -27.028  1.00  0.00     0.181 C 
HETATM   36  O7  UNL     1      -1.777  54.117 -28.016  1.00  0.00    -0.260 OA
HETATM   37  O8  UNL     1       0.281  53.242 -28.541  1.00  0.00    -0.315 OA
HETATM   38  C25 UNL     1       0.933  51.988 -28.298  1.00  0.00     0.215 C 
BRANCH  35  39
HETATM   39  O9  UNL     1       1.035  51.889 -25.887  1.00  0.00    -0.389 OA
HETATM   40  H40 UNL     1       0.507  51.653 -25.104  1.00  0.00     0.210 HD
ENDBRANCH  35  39
ENDBRANCH  31  32
ENDBRANCH  13  31
TORSDOF 11
ENDMDL
MODEL 5
REMARK minimizedAffinity -9.38836765
REMARK  11 active torsions:
REMARK  status: ('A' for Active; 'I' for Inactive)
REMARK    1  A    between atoms: C6_6  and  C8_8 
REMARK    2  A    between atoms: C8_8  and  O1_9 
REMARK    3  A    between atoms: O1_9  and  C9_10 
REMARK    4  A    between atoms: C10_12  and  C11_13 
REMARK    5  A    between atoms: C11_13  and  O3_14 
REMARK    6  A    between atoms: C12_15  and  O4_16 
REMARK    7  A    between atoms: C13_17  and  O5_18 
REMARK    8  A    between atoms: C14_19  and  O6_20 
REMARK    9  A    between atoms: C20_26  and  C21_27 
REMARK   10  A    between atoms: C21_27  and  C22_28 
REMARK   11  A    between atoms: C26_34  and  O9_35 
ROOT
HETATM    1  C1  UNL     1       4.320  63.053 -32.503  1.00  0.00     0.015 C 
HETATM    2  C2  UNL     1       5.036  63.883 -33.282  1.00  0.00    -0.084 C 
HETATM    3  C3  UNL     1       5.753  65.077 -32.694  1.00  0.00     0.034 C 
HETATM    4  C4  UNL     1       5.495  66.378 -33.463  1.00  0.00     0.010 C 
HETATM    5  C5  UNL     1       5.727  66.189 -34.976  1.00  0.00     0.005 C 
HETATM    6  C6  UNL     1       5.829  67.517 -35.814  1.00  0.00    -0.018 C 
HETATM    7  C7  UNL     1       7.090  68.301 -35.349  1.00  0.00     0.018 C 
HETATM    8  C15 UNL     1       6.023  67.199 -37.334  1.00  0.00     0.012 C 
HETATM    9  C16 UNL     1       6.141  65.711 -37.660  1.00  0.00     0.002 C 
HETATM   10  C17 UNL     1       4.961  64.933 -37.096  1.00  0.00     0.010 C 
HETATM   11  C18 UNL     1       4.801  65.060 -35.556  1.00  0.00    -0.032 C 
HETATM   12  C19 UNL     1       3.282  65.344 -35.307  1.00  0.00     0.016 C 
HETATM   13  C20 UNL     1       5.106  63.695 -34.802  1.00  0.00     0.025 C 
ENDROOT
BRANCH   6  14
HETATM   14  C8  UNL     1       4.598  68.447 -35.651  1.00  0.00     0.180 C 
BRANCH  14  15
HETATM   15  O1  UNL     1       3.387  67.732 -35.924  1.00  0.00    -0.358 OA
BRANCH  15  16
HETATM   16  C9  UNL     1       2.613  68.339 -36.965  1.00  0.00     0.291 C 
HETATM   17  O2  UNL     1       2.716  67.602 -38.181  1.00  0.00    -0.348 OA
HETATM   18  C10 UNL     1       1.971  68.223 -39.244  1.00  0.00     0.179 C 
HETATM   19  C12 UNL     1       0.466  68.214 -38.928  1.00  0.00     0.180 C 
HETATM   20  C13 UNL     1       0.216  68.895 -37.571  1.00  0.00     0.183 C 
HETATM   21  C14 UNL     1       1.153  68.391 -36.468  1.00  0.00     0.204 C 
BRANCH  18  22
HETATM   22  C11 UNL     1       2.289  67.502 -40.555  1.00  0.00     0.198 C 
BRANCH  22  23
HETATM   23  O3  UNL     1       1.178  66.705 -40.957  1.00  0.00    -0.398 OA
HETATM   24  H17 UNL     1       1.473  66.171 -41.717  1.00  0.00     0.209 HD
ENDBRANCH  22  23
ENDBRANCH  18  22
BRANCH  19  25
HETATM   25  O4  UNL     1      -0.040  66.872 -38.905  1.00  0.00    -0.390 OA
HETATM   26  H19 UNL     1      -0.937  66.941 -38.525  1.00  0.00     0.210 HD
ENDBRANCH  19  25
BRANCH  20  27
HETATM   27  O5  UNL     1      -1.148  68.674 -37.174  1.00  0.00    -0.390 OA
HETATM   28  H21 UNL     1      -1.106  67.907 -36.561  1.00  0.00     0.210 HD
ENDBRANCH  20  27
BRANCH  21  29
HETATM   29  O6  UNL     1       0.684  67.094 -36.035  1.00  0.00    -0.388 OA
HETATM   30  H23 UNL     1       1.493  66.589 -35.813  1.00  0.00     0.210 HD
ENDBRANCH  21  29
ENDBRANCH  15  16
ENDBRANCH  14  15
ENDBRANCH   6  14
BRANCH  13  31
HETATM   31  C21 UNL     1       6.350  62.854 -35.216  1.00  0.00     0.037 C 
BRANCH  31  32
HETATM   32  C22 UNL     1       7.425  62.570 -34.209  1.00  0.00    -0.010 C 
HETATM   33  C23 UNL     1       8.744  62.509 -34.454  1.00  0.00     0.044 C 
HETATM   34  C24 UNL     1       9.727  62.297 -33.365  1.00  0.00     0.291 C 
HETATM   35  C26 UNL     1       9.513  62.716 -35.702  1.00  0.00     0.181 C 
HETATM   36  O7  UNL     1       9.474  61.916 -32.236  1.00  0.00    -0.260 OA
HETATM   37  O8  UNL     1      10.965  62.613 -33.837  1.00  0.00    -0.315 OA
HETATM   38  C25 UNL     1      10.841  63.188 -35.145  1.00  0.00     0.215 C 
BRANCH  35  39
HETATM   39  O9  UNL     1       9.667  61.476 -36.380  1.00  0.00    -0.389 OA
HETATM   40  H40 UNL     1       8.773  61.130 -36.556  1.00  0.00     0.210 HD
ENDBRANCH  35  39
ENDBRANCH  31  32
ENDBRANCH  13  31
TORSDOF 11
ENDMDL
MODEL 6
REMARK minimizedAffinity -9.37297916
REMARK  11 active torsions:
REMARK  status: ('A' for Active; 'I' for Inactive)
REMARK    1  A    between atoms: C6_6  and  C8_8 
REMARK    2  A    between atoms: C8_8  and  O1_9 
REMARK    3  A    between atoms: O1_9  and  C9_10 
REMARK    4  A    between atoms: C10_12  and  C11_13 
REMARK    5  A    between atoms: C11_13  and  O3_14 
REMARK    6  A    between atoms: C12_15  and  O4_16 
REMARK    7  A    between atoms: C13_17  and  O5_18 
REMARK    8  A    between atoms: C14_19  and  O6_20 
REMARK    9  A    between atoms: C20_26  and  C21_27 
REMARK   10  A    between atoms: C21_27  and  C22_28 
REMARK   11  A    between atoms: C26_34  and  O9_35 
ROOT
HETATM    1  C1  UNL     1       0.489  52.680 -27.394  1.00  0.00     0.015 C 
HETATM    2  C2  UNL     1      -0.060  52.035 -26.349  1.00  0.00    -0.084 C 
HETATM    3  C3  UNL     1       0.034  50.532 -26.224  1.00  0.00     0.034 C 
HETATM    4  C4  UNL     1      -1.310  49.864 -25.912  1.00  0.00     0.010 C 
HETATM    5  C5  UNL     1      -2.013  50.550 -24.722  1.00  0.00     0.005 C 
HETATM    6  C6  UNL     1      -3.217  49.751 -24.098  1.00  0.00    -0.018 C 
HETATM    7  C7  UNL     1      -2.668  48.432 -23.483  1.00  0.00     0.018 C 
HETATM    8  C15 UNL     1      -3.872  50.562 -22.931  1.00  0.00     0.012 C 
HETATM    9  C16 UNL     1      -3.179  51.885 -22.610  1.00  0.00     0.002 C 
HETATM   10  C17 UNL     1      -3.048  52.749 -23.856  1.00  0.00     0.010 C 
HETATM   11  C18 UNL     1      -2.254  52.076 -25.009  1.00  0.00    -0.032 C 
HETATM   12  C19 UNL     1      -3.098  52.317 -26.304  1.00  0.00     0.016 C 
HETATM   13  C20 UNL     1      -0.858  52.786 -25.275  1.00  0.00     0.025 C 
ENDROOT
BRANCH   6  14
HETATM   14  C8  UNL     1      -4.314  49.381 -25.129  1.00  0.00     0.180 C 
BRANCH  14  15
HETATM   15  O1  UNL     1      -3.723  48.956 -26.363  1.00  0.00    -0.358 OA
BRANCH  15  16
HETATM   16  C9  UNL     1      -4.564  48.058 -27.095  1.00  0.00     0.291 C 
HETATM   17  O2  UNL     1      -5.939  48.262 -26.776  1.00  0.00    -0.348 OA
HETATM   18  C10 UNL     1      -6.790  47.340 -27.481  1.00  0.00     0.179 C 
HETATM   19  C12 UNL     1      -6.718  47.584 -28.997  1.00  0.00     0.180 C 
HETATM   20  C13 UNL     1      -5.256  47.497 -29.468  1.00  0.00     0.183 C 
HETATM   21  C14 UNL     1      -4.297  48.312 -28.594  1.00  0.00     0.204 C 
BRANCH  18  22
HETATM   22  C11 UNL     1      -8.215  47.477 -26.941  1.00  0.00     0.198 C 
BRANCH  22  23
HETATM   23  O3  UNL     1      -8.418  48.789 -26.421  1.00  0.00    -0.398 OA
HETATM   24  H17 UNL     1      -9.286  48.786 -25.976  1.00  0.00     0.209 HD
ENDBRANCH  22  23
ENDBRANCH  18  22
BRANCH  19  25
HETATM   25  O4  UNL     1      -7.266  48.867 -29.332  1.00  0.00    -0.390 OA
HETATM   26  H19 UNL     1      -7.020  49.018 -30.264  1.00  0.00     0.210 HD
ENDBRANCH  19  25
BRANCH  20  27
HETATM   27  O5  UNL     1      -5.168  47.957 -30.827  1.00  0.00    -0.390 OA
HETATM   28  H21 UNL     1      -4.884  48.895 -30.753  1.00  0.00     0.210 HD
ENDBRANCH  20  27
BRANCH  21  29
HETATM   29  O6  UNL     1      -4.446  49.708 -28.939  1.00  0.00    -0.388 OA
HETATM   30  H23 UNL     1      -4.315  50.196 -28.100  1.00  0.00     0.210 HD
ENDBRANCH  21  29
ENDBRANCH  15  16
ENDBRANCH  14  15
ENDBRANCH   6  14
BRANCH  13  31
HETATM   31  C21 UNL     1       0.043  53.179 -24.066  1.00  0.00     0.037 C 
BRANCH  31  32
HETATM   32  C22 UNL     1       0.136  52.266 -22.879  1.00  0.00    -0.010 C 
HETATM   33  C23 UNL     1       0.402  52.634 -21.616  1.00  0.00     0.044 C 
HETATM   34  C24 UNL     1       0.393  51.655 -20.503  1.00  0.00     0.291 C 
HETATM   35  C26 UNL     1       0.644  53.969 -21.021  1.00  0.00     0.181 C 
HETATM   36  O7  UNL     1       0.405  50.442 -20.616  1.00  0.00    -0.260 OA
HETATM   37  O8  UNL     1       0.357  52.342 -19.327  1.00  0.00    -0.315 OA
HETATM   38  C25 UNL     1       0.173  53.738 -19.599  1.00  0.00     0.215 C 
BRANCH  35  39
HETATM   39  O9  UNL     1       2.036  54.258 -21.047  1.00  0.00    -0.389 OA
HETATM   40  H40 UNL     1       2.322  54.216 -21.976  1.00  0.00     0.210 HD
ENDBRANCH  35  39
ENDBRANCH  31  32
ENDBRANCH  13  31
TORSDOF 11
ENDMDL
MODEL 7
REMARK minimizedAffinity -9.25998116
REMARK  11 active torsions:
REMARK  status: ('A' for Active; 'I' for Inactive)
REMARK    1  A    between atoms: C6_6  and  C8_8 
REMARK    2  A    between atoms: C8_8  and  O1_9 
REMARK    3  A    between atoms: O1_9  and  C9_10 
REMARK    4  A    between atoms: C10_12  and  C11_13 
REMARK    5  A    between atoms: C11_13  and  O3_14 
REMARK    6  A    between atoms: C12_15  and  O4_16 
REMARK    7  A    between atoms: C13_17  and  O5_18 
REMARK    8  A    between atoms: C14_19  and  O6_20 
REMARK    9  A    between atoms: C20_26  and  C21_27 
REMARK   10  A    between atoms: C21_27  and  C22_28 
REMARK   11  A    between atoms: C26_34  and  O9_35 
ROOT
HETATM    1  C1  UNL     1      -0.025  53.894 -25.226  1.00  0.00     0.015 C 
HETATM    2  C2  UNL     1      -0.420  52.609 -25.194  1.00  0.00    -0.084 C 
HETATM    3  C3  UNL     1       0.106  51.607 -26.197  1.00  0.00     0.034 C 
HETATM    4  C4  UNL     1      -0.998  50.768 -26.851  1.00  0.00     0.010 C 
HETATM    5  C5  UNL     1      -1.941  50.160 -25.792  1.00  0.00     0.005 C 
HETATM    6  C6  UNL     1      -2.890  49.016 -26.310  1.00  0.00    -0.018 C 
HETATM    7  C7  UNL     1      -2.014  47.809 -26.752  1.00  0.00     0.018 C 
HETATM    8  C15 UNL     1      -3.823  48.509 -25.161  1.00  0.00     0.012 C 
HETATM    9  C16 UNL     1      -3.571  49.163 -23.804  1.00  0.00     0.002 C 
HETATM   10  C17 UNL     1      -3.628  50.680 -23.911  1.00  0.00     0.010 C 
HETATM   11  C18 UNL     1      -2.604  51.281 -24.913  1.00  0.00    -0.032 C 
HETATM   12  C19 UNL     1      -3.403  52.319 -25.768  1.00  0.00     0.016 C 
HETATM   13  C20 UNL     1      -1.466  52.117 -24.185  1.00  0.00     0.025 C 
ENDROOT
BRANCH   6  14
HETATM   14  C8  UNL     1      -3.766  49.441 -27.517  1.00  0.00     0.180 C 
BRANCH  14  15
HETATM   15  O1  UNL     1      -4.097  48.304 -28.325  1.00  0.00    -0.358 OA
BRANCH  15  16
HETATM   16  C9  UNL     1      -5.022  48.621 -29.370  1.00  0.00     0.291 C 
HETATM   17  O2  UNL     1      -4.619  48.045 -30.610  1.00  0.00    -0.348 OA
HETATM   18  C10 UNL     1      -5.524  48.387 -31.675  1.00  0.00     0.179 C 
HETATM   19  C12 UNL     1      -6.916  47.787 -31.418  1.00  0.00     0.180 C 
HETATM   20  C13 UNL     1      -7.436  48.248 -30.046  1.00  0.00     0.183 C 
HETATM   21  C14 UNL     1      -6.400  48.085 -28.928  1.00  0.00     0.204 C 
BRANCH  18  22
HETATM   22  C11 UNL     1      -4.926  47.913 -33.000  1.00  0.00     0.198 C 
BRANCH  22  23
HETATM   23  O3  UNL     1      -3.501  47.948 -32.935  1.00  0.00    -0.398 OA
HETATM   24  H17 UNL     1      -3.172  47.765 -33.834  1.00  0.00     0.209 HD
ENDBRANCH  22  23
ENDBRANCH  18  22
BRANCH  19  25
HETATM   25  O4  UNL     1      -6.868  46.354 -31.469  1.00  0.00    -0.390 OA
HETATM   26  H19 UNL     1      -7.730  46.054 -31.122  1.00  0.00     0.210 HD
ENDBRANCH  19  25
BRANCH  20  27
HETATM   27  O5  UNL     1      -8.619  47.503 -29.712  1.00  0.00    -0.390 OA
HETATM   28  H21 UNL     1      -8.298  46.779 -29.129  1.00  0.00     0.210 HD
ENDBRANCH  20  27
BRANCH  21  29
HETATM   29  O6  UNL     1      -6.344  46.687 -28.566  1.00  0.00    -0.388 OA
HETATM   30  H23 UNL     1      -5.407  46.519 -28.334  1.00  0.00     0.210 HD
ENDBRANCH  21  29
ENDBRANCH  15  16
ENDBRANCH  14  15
ENDBRANCH   6  14
BRANCH  13  31
HETATM   31  C21 UNL     1      -0.794  51.541 -22.903  1.00  0.00     0.037 C 
BRANCH  31  32
HETATM   32  C22 UNL     1      -0.042  52.456 -21.981  1.00  0.00    -0.010 C 
HETATM   33  C23 UNL     1      -0.050  52.410 -20.640  1.00  0.00     0.044 C 
HETATM   34  C24 UNL     1       0.794  53.317 -19.826  1.00  0.00     0.291 C 
HETATM   35  C26 UNL     1      -0.732  51.489 -19.701  1.00  0.00     0.181 C 
HETATM   36  O7  UNL     1       1.359  54.319 -20.226  1.00  0.00    -0.260 OA
HETATM   37  O8  UNL     1       0.842  52.832 -18.554  1.00  0.00    -0.315 OA
HETATM   38  C25 UNL     1       0.205  51.548 -18.512  1.00  0.00     0.215 C 
BRANCH  35  39
HETATM   39  O9  UNL     1      -2.008  52.014 -19.360  1.00  0.00    -0.389 OA
HETATM   40  H40 UNL     1      -2.507  52.123 -20.189  1.00  0.00     0.210 HD
ENDBRANCH  35  39
ENDBRANCH  31  32
ENDBRANCH  13  31
TORSDOF 11
ENDMDL
MODEL 8
REMARK minimizedAffinity -9.18157291
REMARK  11 active torsions:
REMARK  status: ('A' for Active; 'I' for Inactive)
REMARK    1  A    between atoms: C6_6  and  C8_8 
REMARK    2  A    between atoms: C8_8  and  O1_9 
REMARK    3  A    between atoms: O1_9  and  C9_10 
REMARK    4  A    between atoms: C10_12  and  C11_13 
REMARK    5  A    between atoms: C11_13  and  O3_14 
REMARK    6  A    between atoms: C12_15  and  O4_16 
REMARK    7  A    between atoms: C13_17  and  O5_18 
REMARK    8  A    between atoms: C14_19  and  O6_20 
REMARK    9  A    between atoms: C20_26  and  C21_27 
REMARK   10  A    between atoms: C21_27  and  C22_28 
REMARK   11  A    between atoms: C26_34  and  O9_35 
ROOT
HETATM    1  C1  UNL     1      -3.836  51.984 -25.020  1.00  0.00     0.015 C 
HETATM    2  C2  UNL     1      -2.939  51.339 -24.255  1.00  0.00    -0.084 C 
HETATM    3  C3  UNL     1      -2.767  49.841 -24.352  1.00  0.00     0.034 C 
HETATM    4  C4  UNL     1      -2.769  49.140 -22.988  1.00  0.00     0.010 C 
HETATM    5  C5  UNL     1      -1.792  49.822 -22.007  1.00  0.00     0.005 C 
HETATM    6  C6  UNL     1      -1.454  48.999 -20.709  1.00  0.00    -0.018 C 
HETATM    7  C7  UNL     1      -0.703  47.702 -21.127  1.00  0.00     0.018 C 
HETATM    8  C15 UNL     1      -0.490  49.806 -19.778  1.00  0.00     0.012 C 
HETATM    9  C16 UNL     1      -0.039  51.151 -20.345  1.00  0.00     0.002 C 
HETATM   10  C17 UNL     1      -1.235  52.003 -20.746  1.00  0.00     0.010 C 
HETATM   11  C18 UNL     1      -2.156  51.337 -21.806  1.00  0.00    -0.032 C 
HETATM   12  C19 UNL     1      -3.618  51.538 -21.287  1.00  0.00     0.016 C 
HETATM   13  C20 UNL     1      -2.098  52.081 -23.209  1.00  0.00     0.025 C 
ENDROOT
BRANCH   6  14
HETATM   14  C8  UNL     1      -2.708  48.586 -19.896  1.00  0.00     0.180 C 
BRANCH  14  15
HETATM   15  O1  UNL     1      -3.878  49.236 -20.409  1.00  0.00    -0.358 OA
BRANCH  15  16
HETATM   16  C9  UNL     1      -5.058  48.438 -20.266  1.00  0.00     0.291 C 
HETATM   17  O2  UNL     1      -4.735  47.053 -20.157  1.00  0.00    -0.348 OA
HETATM   18  C10 UNL     1      -5.916  46.239 -20.050  1.00  0.00     0.179 C 
HETATM   19  C12 UNL     1      -6.674  46.550 -18.748  1.00  0.00     0.180 C 
HETATM   20  C13 UNL     1      -6.998  48.053 -18.683  1.00  0.00     0.183 C 
HETATM   21  C14 UNL     1      -5.791  48.940 -19.005  1.00  0.00     0.204 C 
BRANCH  18  22
HETATM   22  C11 UNL     1      -5.509  44.767 -20.142  1.00  0.00     0.198 C 
BRANCH  22  23
HETATM   23  O3  UNL     1      -4.151  44.661 -20.565  1.00  0.00    -0.398 OA
HETATM   24  H17 UNL     1      -3.981  43.716 -20.734  1.00  0.00     0.209 HD
ENDBRANCH  22  23
ENDBRANCH  18  22
BRANCH  19  25
HETATM   25  O4  UNL     1      -5.898  46.165 -17.604  1.00  0.00    -0.390 OA
HETATM   26  H19 UNL     1      -6.357  46.556 -16.837  1.00  0.00     0.210 HD
ENDBRANCH  19  25
BRANCH  20  27
HETATM   27  O5  UNL     1      -7.489  48.375 -17.370  1.00  0.00    -0.390 OA
HETATM   28  H21 UNL     1      -6.705  48.723 -16.892  1.00  0.00     0.210 HD
ENDBRANCH  20  27
BRANCH  21  29
HETATM   29  O6  UNL     1      -4.924  48.959 -17.849  1.00  0.00    -0.388 OA
HETATM   30  H23 UNL     1      -4.015  49.008 -18.210  1.00  0.00     0.210 HD
ENDBRANCH  21  29
ENDBRANCH  15  16
ENDBRANCH  14  15
ENDBRANCH   6  14
BRANCH  13  31
HETATM   31  C21 UNL     1      -0.718  52.513 -23.789  1.00  0.00     0.037 C 
BRANCH  31  32
HETATM   32  C22 UNL     1      -0.659  53.285 -25.074  1.00  0.00    -0.010 C 
HETATM   33  C23 UNL     1       0.002  52.924 -26.185  1.00  0.00     0.044 C 
HETATM   34  C24 UNL     1      -0.071  53.727 -27.429  1.00  0.00     0.291 C 
HETATM   35  C26 UNL     1       0.808  51.719 -26.491  1.00  0.00     0.181 C 
HETATM   36  O7  UNL     1      -0.492  54.867 -27.521  1.00  0.00    -0.260 OA
HETATM   37  O8  UNL     1       0.401  52.970 -28.457  1.00  0.00    -0.315 OA
HETATM   38  C25 UNL     1       0.634  51.632 -27.993  1.00  0.00     0.215 C 
BRANCH  35  39
HETATM   39  O9  UNL     1       2.169  51.958 -26.157  1.00  0.00    -0.389 OA
HETATM   40  H40 UNL     1       2.199  52.185 -25.211  1.00  0.00     0.210 HD
ENDBRANCH  35  39
ENDBRANCH  31  32
ENDBRANCH  13  31
TORSDOF 11
ENDMDL
MODEL 9
REMARK minimizedAffinity -9.13657475
REMARK  11 active torsions:
REMARK  status: ('A' for Active; 'I' for Inactive)
REMARK    1  A    between atoms: C6_6  and  C8_8 
REMARK    2  A    between atoms: C8_8  and  O1_9 
REMARK    3  A    between atoms: O1_9  and  C9_10 
REMARK    4  A    between atoms: C10_12  and  C11_13 
REMARK    5  A    between atoms: C11_13  and  O3_14 
REMARK    6  A    between atoms: C12_15  and  O4_16 
REMARK    7  A    between atoms: C13_17  and  O5_18 
REMARK    8  A    between atoms: C14_19  and  O6_20 
REMARK    9  A    between atoms: C20_26  and  C21_27 
REMARK   10  A    between atoms: C21_27  and  C22_28 
REMARK   11  A    between atoms: C26_34  and  O9_35 
ROOT
HETATM    1  C1  UNL     1      -3.900  52.167 -25.133  1.00  0.00     0.015 C 
HETATM    2  C2  UNL     1      -3.056  51.429 -24.389  1.00  0.00    -0.084 C 
HETATM    3  C3  UNL     1      -3.011  49.925 -24.525  1.00  0.00     0.034 C 
HETATM    4  C4  UNL     1      -3.066  49.192 -23.179  1.00  0.00     0.010 C 
HETATM    5  C5  UNL     1      -2.031  49.765 -22.188  1.00  0.00     0.005 C 
HETATM    6  C6  UNL     1      -1.759  48.883 -20.913  1.00  0.00    -0.018 C 
HETATM    7  C7  UNL     1      -1.120  47.540 -21.368  1.00  0.00     0.018 C 
HETATM    8  C15 UNL     1      -0.727  49.583 -19.968  1.00  0.00     0.012 C 
HETATM    9  C16 UNL     1      -0.167  50.900 -20.503  1.00  0.00     0.002 C 
HETATM   10  C17 UNL     1      -1.289  51.858 -20.876  1.00  0.00     0.010 C 
HETATM   11  C18 UNL     1      -2.266  51.300 -21.946  1.00  0.00    -0.032 C 
HETATM   12  C19 UNL     1      -3.704  51.609 -21.413  1.00  0.00     0.016 C 
HETATM   13  C20 UNL     1      -2.152  52.071 -23.330  1.00  0.00     0.025 C 
ENDROOT
BRANCH   6  14
HETATM   14  C8  UNL     1      -3.040  48.557 -20.102  1.00  0.00     0.180 C 
BRANCH  14  15
HETATM   15  O1  UNL     1      -3.797  47.527 -20.750  1.00  0.00    -0.358 OA
BRANCH  15  16
HETATM   16  C9  UNL     1      -5.210  47.708 -20.604  1.00  0.00     0.291 C 
HETATM   17  O2  UNL     1      -5.762  48.394 -21.725  1.00  0.00    -0.348 OA
HETATM   18  C10 UNL     1      -7.175  48.612 -21.572  1.00  0.00     0.179 C 
HETATM   19  C12 UNL     1      -7.932  47.274 -21.542  1.00  0.00     0.180 C 
HETATM   20  C13 UNL     1      -7.360  46.379 -20.429  1.00  0.00     0.183 C 
HETATM   21  C14 UNL     1      -5.830  46.303 -20.449  1.00  0.00     0.204 C 
BRANCH  18  22
HETATM   22  C11 UNL     1      -7.658  49.522 -22.703  1.00  0.00     0.198 C 
BRANCH  22  23
HETATM   23  O3  UNL     1      -6.905  50.734 -22.711  1.00  0.00    -0.398 OA
HETATM   24  H17 UNL     1      -7.332  51.327 -23.356  1.00  0.00     0.209 HD
ENDBRANCH  22  23
ENDBRANCH  18  22
BRANCH  19  25
HETATM   25  O4  UNL     1      -7.833  46.606 -22.808  1.00  0.00    -0.390 OA
HETATM   26  H19 UNL     1      -8.173  45.704 -22.652  1.00  0.00     0.210 HD
ENDBRANCH  19  25
BRANCH  20  27
HETATM   27  O5  UNL     1      -7.904  45.054 -20.559  1.00  0.00    -0.390 OA
HETATM   28  H21 UNL     1      -7.215  44.552 -21.048  1.00  0.00     0.210 HD
ENDBRANCH  20  27
BRANCH  21  29
HETATM   29  O6  UNL     1      -5.436  45.419 -21.522  1.00  0.00    -0.388 OA
HETATM   30  H23 UNL     1      -4.600  45.793 -21.870  1.00  0.00     0.210 HD
ENDBRANCH  21  29
ENDBRANCH  15  16
ENDBRANCH  14  15
ENDBRANCH   6  14
BRANCH  13  31
HETATM   31  C21 UNL     1      -0.743  52.401 -23.908  1.00  0.00     0.037 C 
BRANCH  31  32
HETATM   32  C22 UNL     1      -0.623  53.251 -25.139  1.00  0.00    -0.010 C 
HETATM   33  C23 UNL     1       0.063  52.942 -26.250  1.00  0.00     0.044 C 
HETATM   34  C24 UNL     1       0.050  53.824 -27.442  1.00  0.00     0.291 C 
HETATM   35  C26 UNL     1       0.845  51.736 -26.609  1.00  0.00     0.181 C 
HETATM   36  O7  UNL     1      -0.336  54.979 -27.473  1.00  0.00    -0.260 OA
HETATM   37  O8  UNL     1       0.534  53.119 -28.502  1.00  0.00    -0.315 OA
HETATM   38  C25 UNL     1       0.716  51.749 -28.118  1.00  0.00     0.215 C 
BRANCH  35  39
HETATM   39  O9  UNL     1       2.201  51.913 -26.220  1.00  0.00    -0.389 OA
HETATM   40  H40 UNL     1       2.207  52.079 -25.261  1.00  0.00     0.210 HD
ENDBRANCH  35  39
ENDBRANCH  31  32
ENDBRANCH  13  31
TORSDOF 11
ENDMDL
