MODEL 1
REMARK minimizedAffinity -6.84705162
REMARK CNNscore 0.526900768
REMARK CNNaffinity 6.59416819
REMARK  10 active torsions:
REMARK  status: ('A' for Active; 'I' for Inactive)
REMARK    1  A    between atoms: C2_2  and  N1_3 
REMARK    2  A    between atoms: N1_3  and  C3_4 
REMARK    3  A    between atoms: C3_4  and  C4_5 
REMARK    4  A    between atoms: C4_5  and  C5_6 
REMARK    5  A    between atoms: C8_9  and  C9_10 
REMARK    6  A    between atoms: C13_14  and  C14_15 
REMARK    7  A    between atoms: C14_15  and  O1_16 
REMARK    8  A    between atoms: C23_27  and  O4_28 
REMARK    9  A    between atoms: C28_33  and  C29_34 
REMARK   10  A    between atoms: C29_34  and  O5_35 
ROOT
HETATM    1  C5  UNL     1       0.720   9.786  17.226  1.00  0.00    -0.012 C 
HETATM    2  C6  UNL     1       0.186  10.931  17.717  1.00  0.00     0.015 C 
HETATM    3  C7  UNL     1       0.499  11.321  19.157  1.00  0.00     0.066 C 
HETATM    4  C8  UNL     1       1.969  11.758  19.409  1.00  0.00     0.102 C 
HETATM    5  C16 UNL     1       2.165  13.194  19.114  1.00  0.00    -0.096 C 
HETATM    6  C17 UNL     1       2.258  14.369  18.877  1.00  0.00    -0.096 C 
HETATM    7  C18 UNL     1       2.202  15.809  18.538  1.00  0.00     0.110 C 
HETATM    8  C19 UNL     1       2.410  16.634  19.799  1.00  0.00     0.133 C 
HETATM    9  C20 UNL     1       2.254  18.100  19.508  1.00  0.00     0.265 C 
HETATM   10  O2  UNL     1       3.001  18.951  19.976  1.00  0.00    -0.265 OA
HETATM   11  O3  UNL     1       1.138  18.449  18.760  1.00  0.00    -0.278 OA
HETATM   12  C21 UNL     1       0.377  17.466  18.105  1.00  0.00     0.089 A 
HETATM   13  C22 UNL     1      -0.866  17.847  17.601  1.00  0.00     0.075 A 
HETATM   14  C23 UNL     1      -1.651  16.899  16.944  1.00  0.00     0.074 A 
HETATM   15  C24 UNL     1      -1.195  15.590  16.761  1.00  0.00    -0.022 A 
HETATM   16  C25 UNL     1       0.092  15.267  17.209  1.00  0.00     0.021 A 
HETATM   17  C26 UNL     1       0.868  16.177  17.938  1.00  0.00    -0.007 A 
HETATM   18  C27 UNL     1      -2.034  14.506  16.128  1.00  0.00     0.077 C 
HETATM   19  C28 UNL     1      -2.536  13.368  17.069  1.00  0.00     0.171 C 
HETATM   20  O7  UNL     1      -1.433  12.641  17.677  1.00  0.00    -0.309 OA
HETATM   21  C39 UNL     1      -0.800  11.721  16.908  1.00  0.00     0.289 C 
HETATM   22  O8  UNL     1      -1.056  11.525  15.729  1.00  0.00    -0.260 OA
ENDROOT
BRANCH  19  23
HETATM   23  C29 UNL     1      -3.573  13.781  18.183  1.00  0.00     0.089 C 
HETATM   24  C30 UNL     1      -4.055  12.574  19.022  1.00  0.00     0.041 C 
HETATM   25  C31 UNL     1      -5.071  12.960  20.100  1.00  0.00     0.004 C 
HETATM   26  C32 UNL     1      -6.265  13.706  19.518  1.00  0.00     0.005 C 
HETATM   27  C33 UNL     1      -5.819  14.929  18.701  1.00  0.00    -0.001 C 
HETATM   28  C34 UNL     1      -7.027  15.696  18.157  1.00  0.00     0.083 C 
HETATM   29  C38 UNL     1      -4.813  14.539  17.580  1.00  0.00     0.027 C 
HETATM   30  C35 UNL     1      -7.659  14.970  16.996  1.00  0.00     0.127 C 
HETATM   31  O6  UNL     1      -8.876  14.812  16.916  1.00  0.00    -0.298 OA
HETATM   32  C36 UNL     1      -6.731  14.561  15.883  1.00  0.00     0.079 C 
HETATM   33  C37 UNL     1      -5.524  13.803  16.423  1.00  0.00     0.015 C 
BRANCH  23  34
HETATM   34  O5  UNL     1      -2.961  14.711  19.094  1.00  0.00    -0.387 OA
HETATM   35  H31 UNL     1      -2.524  15.414  18.584  1.00  0.00     0.210 HD
ENDBRANCH  23  34
ENDBRANCH  19  23
BRANCH  14  36
HETATM   36  O4  UNL     1      -2.882  17.245  16.464  1.00  0.00    -0.360 OA
HETATM   37  H26 UNL     1      -3.117  18.120  16.813  1.00  0.00     0.217 HD
ENDBRANCH  14  36
BRANCH   1  38
HETATM   38  C4  UNL     1       0.539   9.164  15.861  1.00  0.00     0.058 C 
BRANCH  38  39
HETATM   39  C3  UNL     1       1.728   8.254  15.492  1.00  0.00     0.273 C 
BRANCH  39  40
HETATM   40  N1  UNL     1       1.355   6.872  15.172  1.00  0.00     0.083 N 
HETATM   41  H6  UNL     1       0.426   6.694  15.551  1.00  0.00     0.315 HD
BRANCH  40  42
HETATM   42  C2  UNL     1       1.339   6.611  13.732  1.00  0.00     0.265 C 
HETATM   43  C1  UNL     1       0.390   5.460  13.426  1.00  0.00     0.037 C 
ENDBRANCH  40  42
ENDBRANCH  39  40
ENDBRANCH  38  39
ENDBRANCH   1  38
BRANCH   4  44
HETATM   44  C9  UNL     1       2.401  11.459  20.840  1.00  0.00    -0.042 A 
HETATM   45  C10 UNL     1       2.884  12.466  21.692  1.00  0.00     0.008 A 
HETATM   46  C11 UNL     1       3.267  12.167  23.000  1.00  0.00     0.001 A 
HETATM   47  C12 UNL     1       3.188  10.857  23.472  1.00  0.00     0.009 A 
HETATM   48  C13 UNL     1       2.725   9.830  22.641  1.00  0.00    -0.034 A 
HETATM   49  C15 UNL     1       2.335  10.143  21.329  1.00  0.00     0.017 A 
BRANCH  48  50
HETATM   50  C14 UNL     1       2.663   8.408  23.127  1.00  0.00     0.202 C 
BRANCH  50  51
HETATM   51  O1  UNL     1       1.772   7.669  22.303  1.00  0.00    -0.396 OA
HETATM   52  H20 UNL     1       1.840   6.739  22.583  1.00  0.00     0.209 HD
ENDBRANCH  50  51
ENDBRANCH  48  50
ENDBRANCH   4  44
TORSDOF 10
ENDMDL
MODEL 2
REMARK minimizedAffinity -7.62887239
REMARK CNNscore 0.362422466
REMARK CNNaffinity 6.39440012
REMARK  10 active torsions:
REMARK  status: ('A' for Active; 'I' for Inactive)
REMARK    1  A    between atoms: C2_2  and  N1_3 
REMARK    2  A    between atoms: N1_3  and  C3_4 
REMARK    3  A    between atoms: C3_4  and  C4_5 
REMARK    4  A    between atoms: C4_5  and  C5_6 
REMARK    5  A    between atoms: C8_9  and  C9_10 
REMARK    6  A    between atoms: C13_14  and  C14_15 
REMARK    7  A    between atoms: C14_15  and  O1_16 
REMARK    8  A    between atoms: C23_27  and  O4_28 
REMARK    9  A    between atoms: C28_33  and  C29_34 
REMARK   10  A    between atoms: C29_34  and  O5_35 
ROOT
HETATM    1  C5  UNL     1       2.256  13.059  14.869  1.00  0.00    -0.012 C 
HETATM    2  C6  UNL     1       3.055  12.205  14.185  1.00  0.00     0.015 C 
HETATM    3  C7  UNL     1       3.777  12.719  12.944  1.00  0.00     0.066 C 
HETATM    4  C8  UNL     1       4.911  13.744  13.228  1.00  0.00     0.102 C 
HETATM    5  C16 UNL     1       6.189  13.064  13.532  1.00  0.00    -0.096 C 
HETATM    6  C17 UNL     1       7.204  12.456  13.751  1.00  0.00    -0.096 C 
HETATM    7  C18 UNL     1       8.355  11.561  14.005  1.00  0.00     0.110 C 
HETATM    8  C19 UNL     1       9.369  11.710  12.881  1.00  0.00     0.133 C 
HETATM    9  C20 UNL     1      10.502  10.738  13.052  1.00  0.00     0.265 C 
HETATM   10  O2  UNL     1      11.672  11.044  12.861  1.00  0.00    -0.265 OA
HETATM   11  O3  UNL     1      10.133   9.430  13.336  1.00  0.00    -0.278 OA
HETATM   12  C21 UNL     1       8.812   9.119  13.701  1.00  0.00     0.089 A 
HETATM   13  C22 UNL     1       8.449   7.773  13.711  1.00  0.00     0.075 A 
HETATM   14  C23 UNL     1       7.145   7.426  14.068  1.00  0.00     0.074 A 
HETATM   15  C24 UNL     1       6.217   8.402  14.441  1.00  0.00    -0.022 A 
HETATM   16  C25 UNL     1       6.643   9.735  14.498  1.00  0.00     0.021 A 
HETATM   17  C26 UNL     1       7.920  10.119  14.072  1.00  0.00    -0.007 A 
HETATM   18  C27 UNL     1       4.775   8.089  14.760  1.00  0.00     0.077 C 
HETATM   19  C28 UNL     1       3.707   8.580  13.735  1.00  0.00     0.171 C 
HETATM   20  O7  UNL     1       3.722  10.027  13.587  1.00  0.00    -0.309 OA
HETATM   21  C39 UNL     1       3.118  10.754  14.560  1.00  0.00     0.289 C 
HETATM   22  O8  UNL     1       2.634  10.270  15.572  1.00  0.00    -0.260 OA
ENDROOT
BRANCH  19  23
HETATM   23  C29 UNL     1       3.735   7.905  12.310  1.00  0.00     0.089 C 
HETATM   24  C30 UNL     1       4.570   8.711  11.288  1.00  0.00     0.041 C 
HETATM   25  C31 UNL     1       4.595   8.072   9.897  1.00  0.00     0.004 C 
HETATM   26  C32 UNL     1       3.193   7.828   9.355  1.00  0.00     0.005 C 
HETATM   27  C33 UNL     1       2.346   7.004  10.337  1.00  0.00    -0.001 C 
HETATM   28  C34 UNL     1       0.954   6.728   9.765  1.00  0.00     0.083 C 
HETATM   29  C38 UNL     1       2.285   7.666  11.744  1.00  0.00     0.027 C 
HETATM   30  C35 UNL     1       0.083   7.958   9.823  1.00  0.00     0.127 C 
HETATM   31  O6  UNL     1      -0.592   8.319   8.861  1.00  0.00    -0.298 OA
HETATM   32  C36 UNL     1      -0.006   8.646  11.160  1.00  0.00     0.079 C 
HETATM   33  C37 UNL     1       1.379   8.916  11.734  1.00  0.00     0.015 C 
BRANCH  23  34
HETATM   34  O5  UNL     1       4.330   6.598  12.405  1.00  0.00    -0.387 OA
HETATM   35  H31 UNL     1       3.916   6.114  13.140  1.00  0.00     0.210 HD
ENDBRANCH  23  34
ENDBRANCH  19  23
BRANCH  14  36
HETATM   36  O4  UNL     1       6.761   6.115  14.061  1.00  0.00    -0.360 OA
HETATM   37  H26 UNL     1       7.453   5.590  13.625  1.00  0.00     0.217 HD
ENDBRANCH  14  36
BRANCH   1  38
HETATM   38  C4  UNL     1       1.412  12.794  16.094  1.00  0.00     0.058 C 
BRANCH  38  39
HETATM   39  C3  UNL     1      -0.015  12.351  15.713  1.00  0.00     0.273 C 
BRANCH  39  40
HETATM   40  N1  UNL     1      -0.400  11.036  16.235  1.00  0.00     0.083 N 
HETATM   41  H6  UNL     1      -1.193  11.159  16.864  1.00  0.00     0.315 HD
BRANCH  40  42
HETATM   42  C2  UNL     1      -0.774  10.096  15.178  1.00  0.00     0.265 C 
HETATM   43  C1  UNL     1      -1.607  10.809  14.122  1.00  0.00     0.037 C 
ENDBRANCH  40  42
ENDBRANCH  39  40
ENDBRANCH  38  39
ENDBRANCH   1  38
BRANCH   4  44
HETATM   44  C9  UNL     1       5.100  14.703  12.059  1.00  0.00    -0.042 A 
HETATM   45  C10 UNL     1       6.372  15.146  11.662  1.00  0.00     0.008 A 
HETATM   46  C11 UNL     1       6.518  16.020  10.585  1.00  0.00     0.001 A 
HETATM   47  C12 UNL     1       5.394  16.476   9.896  1.00  0.00     0.009 A 
HETATM   48  C13 UNL     1       4.112  16.065  10.277  1.00  0.00    -0.034 A 
HETATM   49  C15 UNL     1       3.978  15.179  11.358  1.00  0.00     0.017 A 
BRANCH  48  50
HETATM   50  C14 UNL     1       2.890  16.572   9.562  1.00  0.00     0.202 C 
BRANCH  50  51
HETATM   51  O1  UNL     1       1.882  15.570   9.584  1.00  0.00    -0.396 OA
HETATM   52  H20 UNL     1       1.080  15.973   9.208  1.00  0.00     0.209 HD
ENDBRANCH  50  51
ENDBRANCH  48  50
ENDBRANCH   4  44
TORSDOF 10
ENDMDL
MODEL 3
REMARK minimizedAffinity -10.4876871
REMARK CNNscore 0.312542021
REMARK CNNaffinity 7.31972837
REMARK  10 active torsions:
REMARK  status: ('A' for Active; 'I' for Inactive)
REMARK    1  A    between atoms: C2_2  and  N1_3 
REMARK    2  A    between atoms: N1_3  and  C3_4 
REMARK    3  A    between atoms: C3_4  and  C4_5 
REMARK    4  A    between atoms: C4_5  and  C5_6 
REMARK    5  A    between atoms: C8_9  and  C9_10 
REMARK    6  A    between atoms: C13_14  and  C14_15 
REMARK    7  A    between atoms: C14_15  and  O1_16 
REMARK    8  A    between atoms: C23_27  and  O4_28 
REMARK    9  A    between atoms: C28_33  and  C29_34 
REMARK   10  A    between atoms: C29_34  and  O5_35 
ROOT
HETATM    1  C5  UNL     1       4.500   7.800  13.219  1.00  0.00    -0.012 C 
HETATM    2  C6  UNL     1       3.151   7.929  13.218  1.00  0.00     0.015 C 
HETATM    3  C7  UNL     1       2.425   7.979  11.878  1.00  0.00     0.066 C 
HETATM    4  C8  UNL     1       2.417   6.639  11.090  1.00  0.00     0.102 C 
HETATM    5  C16 UNL     1       1.300   5.768  11.516  1.00  0.00    -0.096 C 
HETATM    6  C17 UNL     1       0.363   5.114  11.889  1.00  0.00    -0.096 C 
HETATM    7  C18 UNL     1      -0.822   4.438  12.465  1.00  0.00     0.110 C 
HETATM    8  C19 UNL     1      -1.908   4.333  11.404  1.00  0.00     0.133 C 
HETATM    9  C20 UNL     1      -3.164   3.747  11.985  1.00  0.00     0.265 C 
HETATM   10  O2  UNL     1      -3.841   2.914  11.394  1.00  0.00    -0.265 OA
HETATM   11  O3  UNL     1      -3.579   4.291  13.193  1.00  0.00    -0.278 OA
HETATM   12  C21 UNL     1      -2.728   5.130  13.932  1.00  0.00     0.089 A 
HETATM   13  C22 UNL     1      -3.291   5.847  14.986  1.00  0.00     0.075 A 
HETATM   14  C23 UNL     1      -2.478   6.692  15.743  1.00  0.00     0.074 A 
HETATM   15  C24 UNL     1      -1.110   6.801  15.477  1.00  0.00    -0.022 A 
HETATM   16  C25 UNL     1      -0.566   6.002  14.463  1.00  0.00     0.021 A 
HETATM   17  C26 UNL     1      -1.371   5.206  13.640  1.00  0.00    -0.007 A 
HETATM   18  C27 UNL     1      -0.201   7.756  16.213  1.00  0.00     0.077 C 
HETATM   19  C28 UNL     1       0.340   8.974  15.403  1.00  0.00     0.171 C 
HETATM   20  O7  UNL     1       1.133   8.556  14.258  1.00  0.00    -0.309 OA
HETATM   21  C39 UNL     1       2.406   8.155  14.501  1.00  0.00     0.289 C 
HETATM   22  O8  UNL     1       2.890   8.061  15.619  1.00  0.00    -0.260 OA
ENDROOT
BRANCH  19  23
HETATM   23  C29 UNL     1      -0.724  10.044  14.945  1.00  0.00     0.089 C 
HETATM   24  C30 UNL     1      -0.094  11.433  14.684  1.00  0.00     0.041 C 
HETATM   25  C31 UNL     1      -1.119  12.483  14.249  1.00  0.00     0.004 C 
HETATM   26  C32 UNL     1      -2.268  12.605  15.242  1.00  0.00     0.005 C 
HETATM   27  C33 UNL     1      -2.933  11.245  15.501  1.00  0.00    -0.001 C 
HETATM   28  C34 UNL     1      -4.113  11.384  16.465  1.00  0.00     0.083 C 
HETATM   29  C38 UNL     1      -1.904  10.179  15.978  1.00  0.00     0.027 C 
HETATM   30  C35 UNL     1      -3.642  11.585  17.883  1.00  0.00     0.127 C 
HETATM   31  O6  UNL     1      -4.124  12.452  18.610  1.00  0.00    -0.298 OA
HETATM   32  C36 UNL     1      -2.637  10.587  18.397  1.00  0.00     0.079 C 
HETATM   33  C37 UNL     1      -1.465  10.442  17.434  1.00  0.00     0.015 C 
BRANCH  23  34
HETATM   34  O5  UNL     1      -1.338   9.620  13.714  1.00  0.00    -0.387 OA
HETATM   35  H31 UNL     1      -1.620   8.694  13.803  1.00  0.00     0.210 HD
ENDBRANCH  23  34
ENDBRANCH  19  23
BRANCH  14  36
HETATM   36  O4  UNL     1      -3.015   7.422  16.765  1.00  0.00    -0.360 OA
HETATM   37  H26 UNL     1      -3.983   7.366  16.712  1.00  0.00     0.217 HD
ENDBRANCH  14  36
BRANCH   1  38
HETATM   38  C4  UNL     1       5.449   7.761  14.394  1.00  0.00     0.058 C 
BRANCH  38  39
HETATM   39  C3  UNL     1       6.902   7.516  13.940  1.00  0.00     0.273 C 
BRANCH  39  40
HETATM   40  N1  UNL     1       7.846   7.277  15.037  1.00  0.00     0.083 N 
HETATM   41  H6  UNL     1       8.234   6.341  14.929  1.00  0.00     0.315 HD
BRANCH  40  42
HETATM   42  C2  UNL     1       8.943   8.246  15.058  1.00  0.00     0.265 C 
HETATM   43  C1  UNL     1       9.907   7.961  13.914  1.00  0.00     0.037 C 
ENDBRANCH  40  42
ENDBRANCH  39  40
ENDBRANCH  38  39
ENDBRANCH   1  38
BRANCH   4  44
HETATM   44  C9  UNL     1       2.344   6.878   9.587  1.00  0.00    -0.042 A 
HETATM   45  C10 UNL     1       1.897   8.097   9.053  1.00  0.00     0.008 A 
HETATM   46  C11 UNL     1       1.845   8.293   7.672  1.00  0.00     0.001 A 
HETATM   47  C12 UNL     1       2.225   7.269   6.804  1.00  0.00     0.009 A 
HETATM   48  C13 UNL     1       2.662   6.037   7.307  1.00  0.00    -0.034 A 
HETATM   49  C15 UNL     1       2.716   5.855   8.698  1.00  0.00     0.017 A 
BRANCH  48  50
HETATM   50  C14 UNL     1       3.047   4.915   6.384  1.00  0.00     0.202 C 
BRANCH  50  51
HETATM   51  O1  UNL     1       3.434   3.785   7.153  1.00  0.00    -0.396 OA
HETATM   52  H20 UNL     1       3.573   3.055   6.525  1.00  0.00     0.209 HD
ENDBRANCH  50  51
ENDBRANCH  48  50
ENDBRANCH   4  44
TORSDOF 10
ENDMDL
MODEL 4
REMARK minimizedAffinity -7.30402327
REMARK CNNscore 0.237397507
REMARK CNNaffinity 5.8996315
REMARK  10 active torsions:
REMARK  status: ('A' for Active; 'I' for Inactive)
REMARK    1  A    between atoms: C2_2  and  N1_3 
REMARK    2  A    between atoms: N1_3  and  C3_4 
REMARK    3  A    between atoms: C3_4  and  C4_5 
REMARK    4  A    between atoms: C4_5  and  C5_6 
REMARK    5  A    between atoms: C8_9  and  C9_10 
REMARK    6  A    between atoms: C13_14  and  C14_15 
REMARK    7  A    between atoms: C14_15  and  O1_16 
REMARK    8  A    between atoms: C23_27  and  O4_28 
REMARK    9  A    between atoms: C28_33  and  C29_34 
REMARK   10  A    between atoms: C29_34  and  O5_35 
ROOT
HETATM    1  C5  UNL     1     -13.253 -11.649  26.031  1.00  0.00    -0.012 C 
HETATM    2  C6  UNL     1     -13.996 -10.714  26.671  1.00  0.00     0.015 C 
HETATM    3  C7  UNL     1     -14.181 -10.838  28.179  1.00  0.00     0.066 C 
HETATM    4  C8  UNL     1     -12.900 -10.568  29.018  1.00  0.00     0.102 C 
HETATM    5  C16 UNL     1     -12.726  -9.125  29.288  1.00  0.00    -0.096 C 
HETATM    6  C17 UNL     1     -12.648  -7.942  29.493  1.00  0.00    -0.096 C 
HETATM    7  C18 UNL     1     -12.698  -6.470  29.645  1.00  0.00     0.110 C 
HETATM    8  C19 UNL     1     -12.957  -6.121  31.103  1.00  0.00     0.133 C 
HETATM    9  C20 UNL     1     -13.119  -4.637  31.274  1.00  0.00     0.265 C 
HETATM   10  O2  UNL     1     -12.622  -4.020  32.208  1.00  0.00    -0.265 OA
HETATM   11  O3  UNL     1     -13.966  -4.016  30.366  1.00  0.00    -0.278 OA
HETATM   12  C21 UNL     1     -14.409  -4.694  29.217  1.00  0.00     0.089 A 
HETATM   13  C22 UNL     1     -15.453  -4.118  28.495  1.00  0.00     0.075 A 
HETATM   14  C23 UNL     1     -15.921  -4.763  27.349  1.00  0.00     0.074 A 
HETATM   15  C24 UNL     1     -15.337  -5.953  26.905  1.00  0.00    -0.022 A 
HETATM   16  C25 UNL     1     -14.237  -6.456  27.610  1.00  0.00     0.021 A 
HETATM   17  C26 UNL     1     -13.798  -5.872  28.804  1.00  0.00    -0.007 A 
HETATM   18  C27 UNL     1     -15.854  -6.730  25.717  1.00  0.00     0.077 C 
HETATM   19  C28 UNL     1     -16.543  -8.096  26.020  1.00  0.00     0.171 C 
HETATM   20  O7  UNL     1     -15.639  -9.027  26.676  1.00  0.00    -0.309 OA
HETATM   21  C39 UNL     1     -14.731  -9.662  25.894  1.00  0.00     0.289 C 
HETATM   22  O8  UNL     1     -14.587  -9.443  24.700  1.00  0.00    -0.260 OA
ENDROOT
BRANCH  19  23
HETATM   23  C29 UNL     1     -17.905  -8.037  26.813  1.00  0.00     0.089 C 
HETATM   24  C30 UNL     1     -18.604  -9.415  26.894  1.00  0.00     0.041 C 
HETATM   25  C31 UNL     1     -19.933  -9.369  27.651  1.00  0.00     0.004 C 
HETATM   26  C32 UNL     1     -20.885  -8.330  27.073  1.00  0.00     0.005 C 
HETATM   27  C33 UNL     1     -20.228  -6.943  27.005  1.00  0.00    -0.001 C 
HETATM   28  C34 UNL     1     -21.206  -5.897  26.463  1.00  0.00     0.083 C 
HETATM   29  C38 UNL     1     -18.893  -6.973  26.206  1.00  0.00     0.027 C 
HETATM   30  C35 UNL     1     -21.391  -6.040  24.973  1.00  0.00     0.127 C 
HETATM   31  O6  UNL     1     -22.505  -6.021  24.454  1.00  0.00    -0.298 OA
HETATM   32  C36 UNL     1     -20.131  -6.084  24.148  1.00  0.00     0.079 C 
HETATM   33  C37 UNL     1     -19.154  -7.120  24.691  1.00  0.00     0.015 C 
BRANCH  23  34
HETATM   34  O5  UNL     1     -17.661  -7.608  28.165  1.00  0.00    -0.387 OA
HETATM   35  H31 UNL     1     -17.099  -6.814  28.148  1.00  0.00     0.210 HD
ENDBRANCH  23  34
ENDBRANCH  19  23
BRANCH  14  36
HETATM   36  O4  UNL     1     -16.959  -4.229  26.641  1.00  0.00    -0.360 OA
HETATM   37  H26 UNL     1     -17.355  -3.511  27.163  1.00  0.00     0.217 HD
ENDBRANCH  14  36
BRANCH   1  38
HETATM   38  C4  UNL     1     -12.949 -11.774  24.556  1.00  0.00     0.058 C 
BRANCH  38  39
HETATM   39  C3  UNL     1     -11.619 -12.516  24.312  1.00  0.00     0.273 C 
BRANCH  39  40
HETATM   40  N1  UNL     1     -10.508 -11.648  23.909  1.00  0.00     0.083 N 
HETATM   41  H6  UNL     1     -10.654 -10.726  24.320  1.00  0.00     0.315 HD
BRANCH  40  42
HETATM   42  C2  UNL     1      -9.206 -12.159  24.342  1.00  0.00     0.265 C 
HETATM   43  C1  UNL     1      -8.114 -11.161  23.986  1.00  0.00     0.037 C 
ENDBRANCH  40  42
ENDBRANCH  39  40
ENDBRANCH  38  39
ENDBRANCH   1  38
BRANCH   4  44
HETATM   44  C9  UNL     1     -12.920 -11.343  30.330  1.00  0.00    -0.042 A 
HETATM   45  C10 UNL     1     -13.297 -10.738  31.540  1.00  0.00     0.008 A 
HETATM   46  C11 UNL     1     -13.313 -11.471  32.727  1.00  0.00     0.001 A 
HETATM   47  C12 UNL     1     -12.939 -12.815  32.726  1.00  0.00     0.009 A 
HETATM   48  C13 UNL     1     -12.545 -13.441  31.538  1.00  0.00    -0.034 A 
HETATM   49  C15 UNL     1     -12.539 -12.696  30.348  1.00  0.00     0.017 A 
BRANCH  48  50
HETATM   50  C14 UNL     1     -12.111 -14.881  31.527  1.00  0.00     0.202 C 
BRANCH  50  51
HETATM   51  O1  UNL     1     -10.834 -14.983  30.913  1.00  0.00    -0.396 OA
HETATM   52  H20 UNL     1     -10.546 -15.906  31.020  1.00  0.00     0.209 HD
ENDBRANCH  50  51
ENDBRANCH  48  50
ENDBRANCH   4  44
TORSDOF 10
ENDMDL
MODEL 5
REMARK minimizedAffinity -6.53186846
REMARK CNNscore 0.214261323
REMARK CNNaffinity 5.58883333
REMARK  10 active torsions:
REMARK  status: ('A' for Active; 'I' for Inactive)
REMARK    1  A    between atoms: C2_2  and  N1_3 
REMARK    2  A    between atoms: N1_3  and  C3_4 
REMARK    3  A    between atoms: C3_4  and  C4_5 
REMARK    4  A    between atoms: C4_5  and  C5_6 
REMARK    5  A    between atoms: C8_9  and  C9_10 
REMARK    6  A    between atoms: C13_14  and  C14_15 
REMARK    7  A    between atoms: C14_15  and  O1_16 
REMARK    8  A    between atoms: C23_27  and  O4_28 
REMARK    9  A    between atoms: C28_33  and  C29_34 
REMARK   10  A    between atoms: C29_34  and  O5_35 
ROOT
HETATM    1  C5  UNL     1     -21.943  -1.228  13.195  1.00  0.00    -0.012 C 
HETATM    2  C6  UNL     1     -20.667  -0.808  13.011  1.00  0.00     0.015 C 
HETATM    3  C7  UNL     1     -20.334  -0.020  11.749  1.00  0.00     0.066 C 
HETATM    4  C8  UNL     1     -20.940   1.411  11.696  1.00  0.00     0.102 C 
HETATM    5  C16 UNL     1     -20.071   2.391  12.383  1.00  0.00    -0.096 C 
HETATM    6  C17 UNL     1     -19.315   3.145  12.936  1.00  0.00    -0.096 C 
HETATM    7  C18 UNL     1     -18.286   3.930  13.654  1.00  0.00     0.110 C 
HETATM    8  C19 UNL     1     -17.597   4.873  12.679  1.00  0.00     0.133 C 
HETATM    9  C20 UNL     1     -16.474   5.610  13.352  1.00  0.00     0.265 C 
HETATM   10  O2  UNL     1     -16.262   6.802  13.171  1.00  0.00    -0.265 OA
HETATM   11  O3  UNL     1     -15.615   4.829  14.114  1.00  0.00    -0.278 OA
HETATM   12  C21 UNL     1     -15.947   3.503  14.439  1.00  0.00     0.089 A 
HETATM   13  C22 UNL     1     -14.939   2.700  14.969  1.00  0.00     0.075 A 
HETATM   14  C23 UNL     1     -15.230   1.377  15.303  1.00  0.00     0.074 A 
HETATM   15  C24 UNL     1     -16.520   0.862  15.141  1.00  0.00    -0.022 A 
HETATM   16  C25 UNL     1     -17.525   1.723  14.683  1.00  0.00     0.021 A 
HETATM   17  C26 UNL     1     -17.243   3.030  14.268  1.00  0.00    -0.007 A 
HETATM   18  C27 UNL     1     -16.871  -0.581  15.413  1.00  0.00     0.077 C 
HETATM   19  C28 UNL     1     -17.206  -1.467  14.174  1.00  0.00     0.171 C 
HETATM   20  O7  UNL     1     -18.357  -0.963  13.442  1.00  0.00    -0.309 OA
HETATM   21  C39 UNL     1     -19.583  -1.228  13.959  1.00  0.00     0.289 C 
HETATM   22  O8  UNL     1     -19.765  -1.796  15.026  1.00  0.00    -0.260 OA
ENDROOT
BRANCH  19  23
HETATM   23  C29 UNL     1     -16.024  -1.748  13.168  1.00  0.00     0.089 C 
HETATM   24  C30 UNL     1     -16.517  -2.316  11.817  1.00  0.00     0.041 C 
HETATM   25  C31 UNL     1     -15.378  -2.603  10.836  1.00  0.00     0.004 C 
HETATM   26  C32 UNL     1     -14.323  -3.522  11.438  1.00  0.00     0.005 C 
HETATM   27  C33 UNL     1     -13.792  -2.970  12.770  1.00  0.00    -0.001 C 
HETATM   28  C34 UNL     1     -12.703  -3.878  13.347  1.00  0.00     0.083 C 
HETATM   29  C38 UNL     1     -14.941  -2.709  13.787  1.00  0.00     0.027 C 
HETATM   30  C35 UNL     1     -13.292  -5.134  13.937  1.00  0.00     0.127 C 
HETATM   31  O6  UNL     1     -12.817  -6.244  13.705  1.00  0.00    -0.298 OA
HETATM   32  C36 UNL     1     -14.415  -4.942  14.922  1.00  0.00     0.079 C 
HETATM   33  C37 UNL     1     -15.497  -4.033  14.353  1.00  0.00     0.015 C 
BRANCH  23  34
HETATM   34  O5  UNL     1     -15.329  -0.520  12.882  1.00  0.00    -0.387 OA
HETATM   35  H31 UNL     1     -15.128  -0.067  13.719  1.00  0.00     0.210 HD
ENDBRANCH  23  34
ENDBRANCH  19  23
BRANCH  14  36
HETATM   36  O4  UNL     1     -14.251   0.566  15.801  1.00  0.00    -0.360 OA
HETATM   37  H26 UNL     1     -13.394   1.012  15.695  1.00  0.00     0.217 HD
ENDBRANCH  14  36
BRANCH   1  38
HETATM   38  C4  UNL     1     -22.519  -2.046  14.326  1.00  0.00     0.058 C 
BRANCH  38  39
HETATM   39  C3  UNL     1     -23.177  -1.150  15.395  1.00  0.00     0.273 C 
BRANCH  39  40
HETATM   40  N1  UNL     1     -22.280  -0.748  16.483  1.00  0.00     0.083 N 
HETATM   41  H6  UNL     1     -21.999   0.219  16.327  1.00  0.00     0.315 HD
BRANCH  40  42
HETATM   42  C2  UNL     1     -22.908  -0.853  17.801  1.00  0.00     0.265 C 
HETATM   43  C1  UNL     1     -23.304   0.531  18.297  1.00  0.00     0.037 C 
ENDBRANCH  40  42
ENDBRANCH  39  40
ENDBRANCH  38  39
ENDBRANCH   1  38
BRANCH   4  44
HETATM   44  C9  UNL     1     -21.191   1.856  10.260  1.00  0.00    -0.042 A 
HETATM   45  C10 UNL     1     -21.099   0.961   9.182  1.00  0.00     0.008 A 
HETATM   46  C11 UNL     1     -21.340   1.393   7.877  1.00  0.00     0.001 A 
HETATM   47  C12 UNL     1     -21.660   2.728   7.628  1.00  0.00     0.009 A 
HETATM   48  C13 UNL     1     -21.745   3.646   8.681  1.00  0.00    -0.034 A 
HETATM   49  C15 UNL     1     -21.508   3.199   9.991  1.00  0.00     0.017 A 
BRANCH  48  50
HETATM   50  C14 UNL     1     -22.060   5.094   8.424  1.00  0.00     0.202 C 
BRANCH  50  51
HETATM   51  O1  UNL     1     -21.328   5.541   7.292  1.00  0.00    -0.396 OA
HETATM   52  H20 UNL     1     -21.637   6.443   7.098  1.00  0.00     0.209 HD
ENDBRANCH  50  51
ENDBRANCH  48  50
ENDBRANCH   4  44
TORSDOF 10
ENDMDL
MODEL 6
REMARK minimizedAffinity -6.63219261
REMARK CNNscore 0.211194634
REMARK CNNaffinity 5.91424608
REMARK  10 active torsions:
REMARK  status: ('A' for Active; 'I' for Inactive)
REMARK    1  A    between atoms: C2_2  and  N1_3 
REMARK    2  A    between atoms: N1_3  and  C3_4 
REMARK    3  A    between atoms: C3_4  and  C4_5 
REMARK    4  A    between atoms: C4_5  and  C5_6 
REMARK    5  A    between atoms: C8_9  and  C9_10 
REMARK    6  A    between atoms: C13_14  and  C14_15 
REMARK    7  A    between atoms: C14_15  and  O1_16 
REMARK    8  A    between atoms: C23_27  and  O4_28 
REMARK    9  A    between atoms: C28_33  and  C29_34 
REMARK   10  A    between atoms: C29_34  and  O5_35 
ROOT
HETATM    1  C5  UNL     1     -13.357 -11.801  26.197  1.00  0.00    -0.012 C 
HETATM    2  C6  UNL     1     -14.091 -10.839  26.809  1.00  0.00     0.015 C 
HETATM    3  C7  UNL     1     -14.262 -10.905  28.322  1.00  0.00     0.066 C 
HETATM    4  C8  UNL     1     -12.973 -10.609  29.138  1.00  0.00     0.102 C 
HETATM    5  C16 UNL     1     -12.791  -9.157  29.351  1.00  0.00    -0.096 C 
HETATM    6  C17 UNL     1     -12.707  -7.968  29.511  1.00  0.00    -0.096 C 
HETATM    7  C18 UNL     1     -12.750  -6.491  29.607  1.00  0.00     0.110 C 
HETATM    8  C19 UNL     1     -12.995  -6.086  31.053  1.00  0.00     0.133 C 
HETATM    9  C20 UNL     1     -13.150  -4.596  31.170  1.00  0.00     0.265 C 
HETATM   10  O2  UNL     1     -12.641  -3.946  32.076  1.00  0.00    -0.265 OA
HETATM   11  O3  UNL     1     -14.002  -4.006  30.247  1.00  0.00    -0.278 OA
HETATM   12  C21 UNL     1     -14.458  -4.725  29.129  1.00  0.00     0.089 A 
HETATM   13  C22 UNL     1     -15.508  -4.173  28.395  1.00  0.00     0.075 A 
HETATM   14  C23 UNL     1     -15.988  -4.859  27.279  1.00  0.00     0.074 A 
HETATM   15  C24 UNL     1     -15.413  -6.067  26.874  1.00  0.00    -0.022 A 
HETATM   16  C25 UNL     1     -14.308  -6.547  27.588  1.00  0.00     0.021 A 
HETATM   17  C26 UNL     1     -13.856  -5.920  28.755  1.00  0.00    -0.007 A 
HETATM   18  C27 UNL     1     -15.943  -6.886  25.722  1.00  0.00     0.077 C 
HETATM   19  C28 UNL     1     -16.635  -8.237  26.083  1.00  0.00     0.171 C 
HETATM   20  O7  UNL     1     -15.728  -9.146  26.765  1.00  0.00    -0.309 OA
HETATM   21  C39 UNL     1     -14.829  -9.814  25.999  1.00  0.00     0.289 C 
HETATM   22  O8  UNL     1     -14.697  -9.641  24.797  1.00  0.00    -0.260 OA
ENDROOT
BRANCH  19  23
HETATM   23  C29 UNL     1     -17.989  -8.144  26.885  1.00  0.00     0.089 C 
HETATM   24  C30 UNL     1     -17.779  -8.233  28.415  1.00  0.00     0.041 C 
HETATM   25  C31 UNL     1     -19.088  -8.155  29.205  1.00  0.00     0.004 C 
HETATM   26  C32 UNL     1     -20.094  -9.204  28.750  1.00  0.00     0.005 C 
HETATM   27  C33 UNL     1     -20.345  -9.122  27.236  1.00  0.00    -0.001 C 
HETATM   28  C34 UNL     1     -21.388 -10.151  26.796  1.00  0.00     0.083 C 
HETATM   29  C38 UNL     1     -19.023  -9.237  26.424  1.00  0.00     0.027 C 
HETATM   30  C35 UNL     1     -20.809 -11.543  26.769  1.00  0.00     0.127 C 
HETATM   31  O6  UNL     1     -21.403 -12.502  27.259  1.00  0.00    -0.298 OA
HETATM   32  C36 UNL     1     -19.523 -11.713  26.004  1.00  0.00     0.079 C 
HETATM   33  C37 UNL     1     -18.485 -10.684  26.436  1.00  0.00     0.015 C 
BRANCH  23  34
HETATM   34  O5  UNL     1     -18.623  -6.879  26.619  1.00  0.00    -0.387 OA
HETATM   35  H31 UNL     1     -18.642  -6.730  25.658  1.00  0.00     0.210 HD
ENDBRANCH  23  34
ENDBRANCH  19  23
BRANCH  14  36
HETATM   36  O4  UNL     1     -17.032  -4.348  26.560  1.00  0.00    -0.360 OA
HETATM   37  H26 UNL     1     -17.420  -3.609  27.058  1.00  0.00     0.217 HD
ENDBRANCH  14  36
BRANCH   1  38
HETATM   38  C4  UNL     1     -13.068 -11.982  24.726  1.00  0.00     0.058 C 
BRANCH  38  39
HETATM   39  C3  UNL     1     -11.577 -12.285  24.475  1.00  0.00     0.273 C 
BRANCH  39  40
HETATM   40  N1  UNL     1     -11.013 -13.315  25.353  1.00  0.00     0.083 N 
HETATM   41  H6  UNL     1     -10.530 -14.001  24.775  1.00  0.00     0.315 HD
BRANCH  40  42
HETATM   42  C2  UNL     1     -10.069 -12.768  26.330  1.00  0.00     0.265 C 
HETATM   43  C1  UNL     1      -8.646 -13.145  25.940  1.00  0.00     0.037 C 
ENDBRANCH  40  42
ENDBRANCH  39  40
ENDBRANCH  38  39
ENDBRANCH   1  38
BRANCH   4  44
HETATM   44  C9  UNL     1     -12.983 -11.333  30.479  1.00  0.00    -0.042 A 
HETATM   45  C10 UNL     1     -13.366 -10.687  31.665  1.00  0.00     0.008 A 
HETATM   46  C11 UNL     1     -13.373 -11.374  32.879  1.00  0.00     0.001 A 
HETATM   47  C12 UNL     1     -12.984 -12.713  32.929  1.00  0.00     0.009 A 
HETATM   48  C13 UNL     1     -12.583 -13.380  31.765  1.00  0.00    -0.034 A 
HETATM   49  C15 UNL     1     -12.587 -12.680  30.548  1.00  0.00     0.017 A 
BRANCH  48  50
HETATM   50  C14 UNL     1     -12.134 -14.814  31.809  1.00  0.00     0.202 C 
BRANCH  50  51
HETATM   51  O1  UNL     1     -11.277 -15.004  32.926  1.00  0.00    -0.396 OA
HETATM   52  H20 UNL     1     -11.094 -15.958  32.978  1.00  0.00     0.209 HD
ENDBRANCH  50  51
ENDBRANCH  48  50
ENDBRANCH   4  44
TORSDOF 10
ENDMDL
MODEL 7
REMARK minimizedAffinity -6.67381716
REMARK CNNscore 0.209350035
REMARK CNNaffinity 5.83819437
REMARK  10 active torsions:
REMARK  status: ('A' for Active; 'I' for Inactive)
REMARK    1  A    between atoms: C2_2  and  N1_3 
REMARK    2  A    between atoms: N1_3  and  C3_4 
REMARK    3  A    between atoms: C3_4  and  C4_5 
REMARK    4  A    between atoms: C4_5  and  C5_6 
REMARK    5  A    between atoms: C8_9  and  C9_10 
REMARK    6  A    between atoms: C13_14  and  C14_15 
REMARK    7  A    between atoms: C14_15  and  O1_16 
REMARK    8  A    between atoms: C23_27  and  O4_28 
REMARK    9  A    between atoms: C28_33  and  C29_34 
REMARK   10  A    between atoms: C29_34  and  O5_35 
ROOT
HETATM    1  C5  UNL     1       0.203  15.313  -4.255  1.00  0.00    -0.012 C 
HETATM    2  C6  UNL     1       0.739  15.231  -3.013  1.00  0.00     0.015 C 
HETATM    3  C7  UNL     1       1.872  14.240  -2.772  1.00  0.00     0.066 C 
HETATM    4  C8  UNL     1       3.217  14.608  -3.458  1.00  0.00     0.102 C 
HETATM    5  C16 UNL     1       4.016  15.528  -2.620  1.00  0.00    -0.096 C 
HETATM    6  C17 UNL     1       4.630  16.258  -1.887  1.00  0.00    -0.096 C 
HETATM    7  C18 UNL     1       5.244  17.149  -0.877  1.00  0.00     0.110 C 
HETATM    8  C19 UNL     1       6.467  16.469  -0.279  1.00  0.00     0.133 C 
HETATM    9  C20 UNL     1       7.053  17.301   0.825  1.00  0.00     0.265 C 
HETATM   10  O2  UNL     1       8.259  17.463   0.964  1.00  0.00    -0.265 OA
HETATM   11  O3  UNL     1       6.145  17.792   1.755  1.00  0.00    -0.278 OA
HETATM   12  C21 UNL     1       4.763  17.732   1.509  1.00  0.00     0.089 A 
HETATM   13  C22 UNL     1       3.909  17.992   2.580  1.00  0.00     0.075 A 
HETATM   14  C23 UNL     1       2.530  17.941   2.376  1.00  0.00     0.074 A 
HETATM   15  C24 UNL     1       2.000  17.665   1.111  1.00  0.00    -0.022 A 
HETATM   16  C25 UNL     1       2.889  17.491   0.043  1.00  0.00     0.021 A 
HETATM   17  C26 UNL     1       4.275  17.460   0.236  1.00  0.00    -0.007 A 
HETATM   18  C27 UNL     1       0.520  17.523   0.852  1.00  0.00     0.077 C 
HETATM   19  C28 UNL     1       0.001  16.089   0.521  1.00  0.00     0.171 C 
HETATM   20  O7  UNL     1       0.616  15.554  -0.683  1.00  0.00    -0.309 OA
HETATM   21  C39 UNL     1       0.138  15.998  -1.872  1.00  0.00     0.289 C 
HETATM   22  O8  UNL     1      -0.719  16.863  -1.982  1.00  0.00    -0.260 OA
ENDROOT
BRANCH  19  23
HETATM   23  C29 UNL     1       0.093  15.022   1.679  1.00  0.00     0.089 C 
HETATM   24  C30 UNL     1      -0.785  13.777   1.408  1.00  0.00     0.041 C 
HETATM   25  C31 UNL     1      -0.714  12.738   2.530  1.00  0.00     0.004 C 
HETATM   26  C32 UNL     1      -1.057  13.339   3.887  1.00  0.00     0.005 C 
HETATM   27  C33 UNL     1      -0.181  14.562   4.198  1.00  0.00    -0.001 C 
HETATM   28  C34 UNL     1      -0.504  15.133   5.581  1.00  0.00     0.083 C 
HETATM   29  C38 UNL     1      -0.276  15.640   3.079  1.00  0.00     0.027 C 
HETATM   30  C35 UNL     1      -1.809  15.889   5.571  1.00  0.00     0.127 C 
HETATM   31  O6  UNL     1      -2.658  15.727   6.446  1.00  0.00    -0.298 OA
HETATM   32  C36 UNL     1      -1.960  16.940   4.503  1.00  0.00     0.079 C 
HETATM   33  C37 UNL     1      -1.632  16.376   3.126  1.00  0.00     0.015 C 
BRANCH  23  34
HETATM   34  O5  UNL     1       1.450  14.562   1.807  1.00  0.00    -0.387 OA
HETATM   35  H31 UNL     1       2.044  15.332   1.838  1.00  0.00     0.210 HD
ENDBRANCH  23  34
ENDBRANCH  19  23
BRANCH  14  36
HETATM   36  O4  UNL     1       1.676  18.169   3.417  1.00  0.00    -0.360 OA
HETATM   37  H26 UNL     1       2.187  18.176   4.243  1.00  0.00     0.217 HD
ENDBRANCH  14  36
BRANCH   1  38
HETATM   38  C4  UNL     1      -0.937  16.176  -4.742  1.00  0.00     0.058 C 
BRANCH  38  39
HETATM   39  C3  UNL     1      -2.252  15.377  -4.837  1.00  0.00     0.273 C 
BRANCH  39  40
HETATM   40  N1  UNL     1      -2.072  13.925  -4.933  1.00  0.00     0.083 N 
HETATM   41  H6  UNL     1      -2.438  13.498  -4.084  1.00  0.00     0.315 HD
BRANCH  40  42
HETATM   42  C2  UNL     1      -2.758  13.345  -6.089  1.00  0.00     0.265 C 
HETATM   43  C1  UNL     1      -1.753  12.638  -6.988  1.00  0.00     0.037 C 
ENDBRANCH  40  42
ENDBRANCH  39  40
ENDBRANCH  38  39
ENDBRANCH   1  38
BRANCH   4  44
HETATM   44  C9  UNL     1       4.033  13.364  -3.787  1.00  0.00    -0.042 A 
HETATM   45  C10 UNL     1       4.192  12.318  -2.862  1.00  0.00     0.008 A 
HETATM   46  C11 UNL     1       4.939  11.187  -3.190  1.00  0.00     0.001 A 
HETATM   47  C12 UNL     1       5.551  11.088  -4.440  1.00  0.00     0.009 A 
HETATM   48  C13 UNL     1       5.423  12.121  -5.377  1.00  0.00    -0.034 A 
HETATM   49  C15 UNL     1       4.662  13.252  -5.038  1.00  0.00     0.017 A 
BRANCH  48  50
HETATM   50  C14 UNL     1       6.101  12.042  -6.716  1.00  0.00     0.202 C 
BRANCH  50  51
HETATM   51  O1  UNL     1       7.389  11.463  -6.558  1.00  0.00    -0.396 OA
HETATM   52  H20 UNL     1       7.749  11.334  -7.453  1.00  0.00     0.209 HD
ENDBRANCH  50  51
ENDBRANCH  48  50
ENDBRANCH   4  44
TORSDOF 10
ENDMDL
MODEL 8
REMARK minimizedAffinity -7.13139296
REMARK CNNscore 0.20325093
REMARK CNNaffinity 5.21099854
REMARK  10 active torsions:
REMARK  status: ('A' for Active; 'I' for Inactive)
REMARK    1  A    between atoms: C2_2  and  N1_3 
REMARK    2  A    between atoms: N1_3  and  C3_4 
REMARK    3  A    between atoms: C3_4  and  C4_5 
REMARK    4  A    between atoms: C4_5  and  C5_6 
REMARK    5  A    between atoms: C8_9  and  C9_10 
REMARK    6  A    between atoms: C13_14  and  C14_15 
REMARK    7  A    between atoms: C14_15  and  O1_16 
REMARK    8  A    between atoms: C23_27  and  O4_28 
REMARK    9  A    between atoms: C28_33  and  C29_34 
REMARK   10  A    between atoms: C29_34  and  O5_35 
ROOT
HETATM    1  C5  UNL     1     -10.842  15.327  18.189  1.00  0.00    -0.012 C 
HETATM    2  C6  UNL     1     -10.834  13.975  18.294  1.00  0.00     0.015 C 
HETATM    3  C7  UNL     1      -9.599  13.298  18.879  1.00  0.00     0.066 C 
HETATM    4  C8  UNL     1      -9.384  13.537  20.400  1.00  0.00     0.102 C 
HETATM    5  C16 UNL     1     -10.145  12.564  21.213  1.00  0.00    -0.096 C 
HETATM    6  C17 UNL     1     -10.769  11.734  21.820  1.00  0.00    -0.096 C 
HETATM    7  C18 UNL     1     -11.595  10.657  22.410  1.00  0.00     0.110 C 
HETATM    8  C19 UNL     1     -10.690   9.639  23.089  1.00  0.00     0.133 C 
HETATM    9  C20 UNL     1     -11.488   8.477  23.607  1.00  0.00     0.265 C 
HETATM   10  O2  UNL     1     -11.283   7.967  24.702  1.00  0.00    -0.265 OA
HETATM   11  O3  UNL     1     -12.410   7.938  22.719  1.00  0.00    -0.278 OA
HETATM   12  C21 UNL     1     -12.746   8.614  21.534  1.00  0.00     0.089 A 
HETATM   13  C22 UNL     1     -13.462   7.904  20.572  1.00  0.00     0.075 A 
HETATM   14  C23 UNL     1     -13.813   8.542  19.381  1.00  0.00     0.074 A 
HETATM   15  C24 UNL     1     -13.483   9.882  19.158  1.00  0.00    -0.022 A 
HETATM   16  C25 UNL     1     -12.836  10.584  20.182  1.00  0.00     0.021 A 
HETATM   17  C26 UNL     1     -12.404   9.949  21.353  1.00  0.00    -0.007 A 
HETATM   18  C27 UNL     1     -13.771  10.596  17.859  1.00  0.00     0.077 C 
HETATM   19  C28 UNL     1     -12.540  10.958  16.972  1.00  0.00     0.171 C 
HETATM   20  O7  UNL     1     -11.618  11.848  17.659  1.00  0.00    -0.309 OA
HETATM   21  C39 UNL     1     -11.955  13.160  17.721  1.00  0.00     0.289 C 
HETATM   22  O8  UNL     1     -13.009  13.614  17.300  1.00  0.00    -0.260 OA
ENDROOT
BRANCH  19  23
HETATM   23  C29 UNL     1     -11.741   9.749  16.349  1.00  0.00     0.089 C 
HETATM   24  C30 UNL     1     -10.596  10.213  15.417  1.00  0.00     0.041 C 
HETATM   25  C31 UNL     1      -9.820   9.049  14.796  1.00  0.00     0.004 C 
HETATM   26  C32 UNL     1     -10.736   8.078  14.062  1.00  0.00     0.005 C 
HETATM   27  C33 UNL     1     -11.869   7.578  14.971  1.00  0.00    -0.001 C 
HETATM   28  C34 UNL     1     -12.758   6.571  14.237  1.00  0.00     0.083 C 
HETATM   29  C38 UNL     1     -12.686   8.754  15.578  1.00  0.00     0.027 C 
HETATM   30  C35 UNL     1     -13.663   7.259  13.247  1.00  0.00     0.127 C 
HETATM   31  O6  UNL     1     -13.807   6.839  12.100  1.00  0.00    -0.298 OA
HETATM   32  C36 UNL     1     -14.474   8.413  13.776  1.00  0.00     0.079 C 
HETATM   33  C37 UNL     1     -13.591   9.412  14.513  1.00  0.00     0.015 C 
BRANCH  23  34
HETATM   34  O5  UNL     1     -11.141   8.972  17.400  1.00  0.00    -0.387 OA
HETATM   35  H31 UNL     1     -11.813   8.783  18.078  1.00  0.00     0.210 HD
ENDBRANCH  23  34
ENDBRANCH  19  23
BRANCH  14  36
HETATM   36  O4  UNL     1     -14.495   7.858  18.415  1.00  0.00    -0.360 OA
HETATM   37  H26 UNL     1     -14.497   6.914  18.645  1.00  0.00     0.217 HD
ENDBRANCH  14  36
BRANCH   1  38
HETATM   38  C4  UNL     1     -11.912  16.228  17.620  1.00  0.00     0.058 C 
BRANCH  38  39
HETATM   39  C3  UNL     1     -11.426  16.950  16.347  1.00  0.00     0.273 C 
BRANCH  39  40
HETATM   40  N1  UNL     1     -10.585  16.129  15.470  1.00  0.00     0.083 N 
HETATM   41  H6  UNL     1     -10.738  15.148  15.703  1.00  0.00     0.315 HD
BRANCH  40  42
HETATM   42  C2  UNL     1     -10.882  16.331  14.051  1.00  0.00     0.265 C 
HETATM   43  C1  UNL     1     -10.474  15.098  13.256  1.00  0.00     0.037 C 
ENDBRANCH  40  42
ENDBRANCH  39  40
ENDBRANCH  38  39
ENDBRANCH   1  38
BRANCH   4  44
HETATM   44  C9  UNL     1      -7.906  13.478  20.769  1.00  0.00    -0.042 A 
HETATM   45  C10 UNL     1      -7.482  13.237  22.086  1.00  0.00     0.008 A 
HETATM   46  C11 UNL     1      -6.123  13.182  22.395  1.00  0.00     0.001 A 
HETATM   47  C12 UNL     1      -5.167  13.380  21.398  1.00  0.00     0.009 A 
HETATM   48  C13 UNL     1      -5.560  13.636  20.079  1.00  0.00    -0.034 A 
HETATM   49  C15 UNL     1      -6.931  13.683  19.778  1.00  0.00     0.017 A 
BRANCH  48  50
HETATM   50  C14 UNL     1      -4.542  13.880  19.001  1.00  0.00     0.202 C 
BRANCH  50  51
HETATM   51  O1  UNL     1      -4.877  13.110  17.855  1.00  0.00    -0.396 OA
HETATM   52  H20 UNL     1      -4.260  13.375  17.150  1.00  0.00     0.209 HD
ENDBRANCH  50  51
ENDBRANCH  48  50
ENDBRANCH   4  44
TORSDOF 10
ENDMDL
MODEL 9
REMARK minimizedAffinity -6.59318876
REMARK CNNscore 0.186456755
REMARK CNNaffinity 5.99084473
REMARK  10 active torsions:
REMARK  status: ('A' for Active; 'I' for Inactive)
REMARK    1  A    between atoms: C2_2  and  N1_3 
REMARK    2  A    between atoms: N1_3  and  C3_4 
REMARK    3  A    between atoms: C3_4  and  C4_5 
REMARK    4  A    between atoms: C4_5  and  C5_6 
REMARK    5  A    between atoms: C8_9  and  C9_10 
REMARK    6  A    between atoms: C13_14  and  C14_15 
REMARK    7  A    between atoms: C14_15  and  O1_16 
REMARK    8  A    between atoms: C23_27  and  O4_28 
REMARK    9  A    between atoms: C28_33  and  C29_34 
REMARK   10  A    between atoms: C29_34  and  O5_35 
ROOT
HETATM    1  C5  UNL     1      -4.508  17.664   0.213  1.00  0.00    -0.012 C 
HETATM    2  C6  UNL     1      -5.046  17.283   1.397  1.00  0.00     0.015 C 
HETATM    3  C7  UNL     1      -4.358  16.176   2.188  1.00  0.00     0.066 C 
HETATM    4  C8  UNL     1      -2.985  16.571   2.802  1.00  0.00     0.102 C 
HETATM    5  C16 UNL     1      -3.151  17.229   4.116  1.00  0.00    -0.096 C 
HETATM    6  C17 UNL     1      -3.347  17.739   5.187  1.00  0.00    -0.096 C 
HETATM    7  C18 UNL     1      -3.760  18.349   6.471  1.00  0.00     0.110 C 
HETATM    8  C19 UNL     1      -3.303  17.464   7.621  1.00  0.00     0.133 C 
HETATM    9  C20 UNL     1      -3.799  17.999   8.935  1.00  0.00     0.265 C 
HETATM   10  O2  UNL     1      -3.103  18.032   9.942  1.00  0.00    -0.265 OA
HETATM   11  O3  UNL     1      -5.141  18.356   8.970  1.00  0.00    -0.278 OA
HETATM   12  C21 UNL     1      -5.888  18.459   7.785  1.00  0.00     0.089 A 
HETATM   13  C22 UNL     1      -7.273  18.558   7.906  1.00  0.00     0.075 A 
HETATM   14  C23 UNL     1      -8.050  18.661   6.751  1.00  0.00     0.074 A 
HETATM   15  C24 UNL     1      -7.455  18.697   5.486  1.00  0.00    -0.022 A 
HETATM   16  C25 UNL     1      -6.057  18.679   5.410  1.00  0.00     0.021 A 
HETATM   17  C26 UNL     1      -5.259  18.498   6.546  1.00  0.00    -0.007 A 
HETATM   18  C27 UNL     1      -8.250  18.730   4.203  1.00  0.00     0.077 C 
HETATM   19  C28 UNL     1      -8.214  17.442   3.323  1.00  0.00     0.171 C 
HETATM   20  O7  UNL     1      -6.864  17.122   2.886  1.00  0.00    -0.309 OA
HETATM   21  C39 UNL     1      -6.363  17.841   1.850  1.00  0.00     0.289 C 
HETATM   22  O8  UNL     1      -6.948  18.775   1.322  1.00  0.00    -0.260 OA
ENDROOT
BRANCH  19  23
HETATM   23  C29 UNL     1      -8.890  16.154   3.930  1.00  0.00     0.089 C 
HETATM   24  C30 UNL     1      -9.064  15.027   2.885  1.00  0.00     0.041 C 
HETATM   25  C31 UNL     1      -9.730  13.774   3.460  1.00  0.00     0.004 C 
HETATM   26  C32 UNL     1     -11.066  14.089   4.120  1.00  0.00     0.005 C 
HETATM   27  C33 UNL     1     -10.921  15.188   5.184  1.00  0.00    -0.001 C 
HETATM   28  C34 UNL     1     -12.260  15.467   5.872  1.00  0.00     0.083 C 
HETATM   29  C38 UNL     1     -10.278  16.478   4.600  1.00  0.00     0.027 C 
HETATM   30  C35 UNL     1     -13.182  16.256   4.976  1.00  0.00     0.127 C 
HETATM   31  O6  UNL     1     -14.362  15.946   4.827  1.00  0.00    -0.298 OA
HETATM   32  C36 UNL     1     -12.609  17.513   4.374  1.00  0.00     0.079 C 
HETATM   33  C37 UNL     1     -11.272  17.238   3.696  1.00  0.00     0.015 C 
BRANCH  23  34
HETATM   34  O5  UNL     1      -8.068  15.627   4.987  1.00  0.00    -0.387 OA
HETATM   35  H31 UNL     1      -7.824  16.351   5.590  1.00  0.00     0.210 HD
ENDBRANCH  23  34
ENDBRANCH  19  23
BRANCH  14  36
HETATM   36  O4  UNL     1      -9.410  18.734   6.847  1.00  0.00    -0.360 OA
HETATM   37  H26 UNL     1      -9.669  18.528   7.760  1.00  0.00     0.217 HD
ENDBRANCH  14  36
BRANCH   1  38
HETATM   38  C4  UNL     1      -5.009  18.697  -0.768  1.00  0.00     0.058 C 
BRANCH  38  39
HETATM   39  C3  UNL     1      -4.150  18.725  -2.049  1.00  0.00     0.273 C 
BRANCH  39  40
HETATM   40  N1  UNL     1      -2.817  18.133  -1.896  1.00  0.00     0.083 N 
HETATM   41  H6  UNL     1      -2.811  17.569  -1.047  1.00  0.00     0.315 HD
BRANCH  40  42
HETATM   42  C2  UNL     1      -2.442  17.286  -3.030  1.00  0.00     0.265 C 
HETATM   43  C1  UNL     1      -3.248  15.995  -3.000  1.00  0.00     0.037 C 
ENDBRANCH  40  42
ENDBRANCH  39  40
ENDBRANCH  38  39
ENDBRANCH   1  38
BRANCH   4  44
HETATM   44  C9  UNL     1      -2.069  15.361   2.940  1.00  0.00    -0.042 A 
HETATM   45  C10 UNL     1      -2.476  14.076   2.546  1.00  0.00     0.008 A 
HETATM   46  C11 UNL     1      -1.615  12.986   2.678  1.00  0.00     0.001 A 
HETATM   47  C12 UNL     1      -0.340  13.160   3.217  1.00  0.00     0.009 A 
HETATM   48  C13 UNL     1       0.088  14.426   3.632  1.00  0.00    -0.034 A 
HETATM   49  C15 UNL     1      -0.784  15.517   3.488  1.00  0.00     0.017 A 
BRANCH  48  50
HETATM   50  C14 UNL     1       1.448  14.624   4.242  1.00  0.00     0.202 C 
BRANCH  50  51
HETATM   51  O1  UNL     1       1.539  13.868   5.442  1.00  0.00    -0.396 OA
HETATM   52  H20 UNL     1       2.460  13.938   5.747  1.00  0.00     0.209 HD
ENDBRANCH  50  51
ENDBRANCH  48  50
ENDBRANCH   4  44
TORSDOF 10
ENDMDL
