MODEL 1
REMARK minimizedAffinity -9.92750072
REMARK CNNscore 0.792054355
REMARK CNNaffinity 7.89805651
REMARK  8 active torsions:
REMARK  status: ('A' for Active; 'I' for Inactive)
REMARK    1  A    between atoms: C4_4  and  C5_5 
REMARK    2  A    between atoms: C5_5  and  C6_6 
REMARK    3  A    between atoms: C12_14  and  O3_15 
REMARK    4  A    between atoms: C20_24  and  O5_25 
REMARK    5  A    between atoms: C27_33  and  C28_34 
REMARK    6  A    between atoms: C28_34  and  C29_35 
REMARK    7  A    between atoms: C30_36  and  C32_38 
REMARK    8  A    between atoms: C32_38  and  O8_40 
ROOT
HETATM    1  C6  UNL     1      -2.277  51.168 -24.108  1.00  0.00     0.014 A 
HETATM    2  C7  UNL     1      -2.157  51.039 -22.712  1.00  0.00     0.096 A 
HETATM    3  O1  UNL     1      -3.194  50.440 -22.040  1.00  0.00    -0.333 OA
HETATM    4  C8  UNL     1      -2.923  49.986 -20.703  1.00  0.00     0.126 C 
HETATM    5  C9  UNL     1      -2.284  51.134 -19.903  1.00  0.00     0.129 C 
HETATM    6  C10 UNL     1      -0.984  51.481 -20.593  1.00  0.00     0.174 C 
HETATM    7  O2  UNL     1       0.055  51.768 -20.005  1.00  0.00    -0.292 OA
HETATM    8  C11 UNL     1      -1.014  51.517 -22.066  1.00  0.00     0.078 A 
HETATM    9  C12 UNL     1       0.055  52.048 -22.801  1.00  0.00     0.095 A 
HETATM   10  C13 UNL     1      -0.026  52.140 -24.195  1.00  0.00     0.032 A 
HETATM   11  C14 UNL     1      -1.196  51.712 -24.839  1.00  0.00     0.092 A 
HETATM   12  O4  UNL     1      -1.349  51.761 -26.201  1.00  0.00    -0.335 OA
HETATM   13  C15 UNL     1      -0.410  52.510 -26.994  1.00  0.00     0.078 C 
HETATM   14  C16 UNL     1      -0.111  51.637 -28.219  1.00  0.00     0.051 C 
HETATM   15  C17 UNL     1      -1.113  53.799 -27.436  1.00  0.00     0.051 C 
HETATM   16  C18 UNL     1       0.885  52.850 -26.300  1.00  0.00     0.012 C 
HETATM   17  C19 UNL     1       1.074  52.673 -24.991  1.00  0.00     0.016 C 
HETATM   18  C20 UNL     1      -2.069  50.747 -18.434  1.00  0.00     0.144 C 
HETATM   19  C21 UNL     1      -2.362  49.259 -18.244  1.00  0.00     0.089 C 
HETATM   20  C22 UNL     1      -1.548  48.453 -19.266  1.00  0.00     0.025 C 
HETATM   21  C23 UNL     1      -2.126  48.646 -20.695  1.00  0.00     0.060 C 
HETATM   22  C24 UNL     1      -3.223  47.606 -21.092  1.00  0.00     0.062 C 
HETATM   23  C25 UNL     1      -3.322  47.412 -22.612  1.00  0.00     0.046 C 
HETATM   24  C26 UNL     1      -3.084  46.218 -20.457  1.00  0.00     0.046 C 
HETATM   25  O6  UNL     1      -4.475  48.166 -20.648  1.00  0.00    -0.358 OA
HETATM   26  C27 UNL     1      -4.214  49.442 -20.017  1.00  0.00     0.158 C 
HETATM   27  C33 UNL     1      -3.835  49.086 -18.559  1.00  0.00     0.171 C 
HETATM   28  O9  UNL     1      -4.620  48.665 -17.712  1.00  0.00    -0.294 OA
ENDROOT
BRANCH  26  29
HETATM   29  C28 UNL     1      -5.473  50.323 -20.010  1.00  0.00     0.077 C 
BRANCH  29  30
HETATM   30  C29 UNL     1      -6.790  49.601 -19.846  1.00  0.00    -0.010 C 
HETATM   31  C30 UNL     1      -7.602  49.129 -20.812  1.00  0.00     0.008 C 
HETATM   32  C31 UNL     1      -8.884  48.415 -20.499  1.00  0.00     0.055 C 
BRANCH  31  33
HETATM   33  C32 UNL     1      -7.271  49.264 -22.249  1.00  0.00     0.171 C 
HETATM   34  O7  UNL     1      -6.877  48.394 -23.003  1.00  0.00    -0.646 OA
BRANCH  33  35
HETATM   35  O8  UNL     1      -7.496  50.515 -22.688  1.00  0.00    -0.773 OA
HETATM   36  H38 UNL     1      -7.215  50.465 -23.626  1.00  0.00     0.167 HD
ENDBRANCH  33  35
ENDBRANCH  31  33
ENDBRANCH  29  30
ENDBRANCH  26  29
BRANCH  18  37
HETATM   37  O5  UNL     1      -2.944  51.535 -17.628  1.00  0.00    -0.394 OA
HETATM   38  H21 UNL     1      -2.814  51.288 -16.694  1.00  0.00     0.210 HD
ENDBRANCH  18  37
BRANCH   1  39
HETATM   39  C5  UNL     1      -3.559  50.794 -24.830  1.00  0.00     0.072 C 
BRANCH  39  40
HETATM   40  C4  UNL     1      -3.290  49.938 -26.042  1.00  0.00    -0.020 C 
HETATM   41  C2  UNL     1      -3.970  48.858 -26.472  1.00  0.00    -0.091 C 
HETATM   42  C1  UNL     1      -5.182  48.269 -25.805  1.00  0.00     0.042 C 
HETATM   43  C3  UNL     1      -3.540  48.132 -27.721  1.00  0.00     0.042 C 
ENDBRANCH  39  40
ENDBRANCH   1  39
BRANCH   9  44
HETATM   44  O3  UNL     1       1.201  52.495 -22.185  1.00  0.00    -0.359 OA
HETATM   45  H11 UNL     1       1.107  52.376 -21.214  1.00  0.00     0.217 HD
ENDBRANCH   9  44
TORSDOF 8
ENDMDL
MODEL 2
REMARK minimizedAffinity -8.40024185
REMARK CNNscore 0.566043019
REMARK CNNaffinity 7.55981684
REMARK  8 active torsions:
REMARK  status: ('A' for Active; 'I' for Inactive)
REMARK    1  A    between atoms: C4_4  and  C5_5 
REMARK    2  A    between atoms: C5_5  and  C6_6 
REMARK    3  A    between atoms: C12_14  and  O3_15 
REMARK    4  A    between atoms: C20_24  and  O5_25 
REMARK    5  A    between atoms: C27_33  and  C28_34 
REMARK    6  A    between atoms: C28_34  and  C29_35 
REMARK    7  A    between atoms: C30_36  and  C32_38 
REMARK    8  A    between atoms: C32_38  and  O8_40 
ROOT
HETATM    1  C6  UNL     1       2.423  54.512  -9.868  1.00  0.00     0.014 A 
HETATM    2  C7  UNL     1       1.232  53.906 -10.307  1.00  0.00     0.096 A 
HETATM    3  O1  UNL     1       1.309  53.076 -11.399  1.00  0.00    -0.333 OA
HETATM    4  C8  UNL     1       0.197  52.192 -11.619  1.00  0.00     0.126 C 
HETATM    5  C9  UNL     1      -1.107  53.007 -11.587  1.00  0.00     0.129 C 
HETATM    6  C10 UNL     1      -1.211  53.616 -10.207  1.00  0.00     0.174 C 
HETATM    7  O2  UNL     1      -2.257  53.713  -9.571  1.00  0.00    -0.292 OA
HETATM    8  C11 UNL     1       0.034  54.165  -9.638  1.00  0.00     0.078 A 
HETATM    9  C12 UNL     1       0.016  54.955  -8.480  1.00  0.00     0.095 A 
HETATM   10  C13 UNL     1       1.199  55.526  -7.999  1.00  0.00     0.032 A 
HETATM   11  C14 UNL     1       2.394  55.313  -8.704  1.00  0.00     0.092 A 
HETATM   12  O4  UNL     1       3.595  55.831  -8.292  1.00  0.00    -0.335 OA
HETATM   13  C15 UNL     1       3.619  56.841  -7.267  1.00  0.00     0.078 C 
HETATM   14  C16 UNL     1       4.780  56.463  -6.338  1.00  0.00     0.051 C 
HETATM   15  C17 UNL     1       3.919  58.179  -7.953  1.00  0.00     0.051 C 
HETATM   16  C18 UNL     1       2.353  56.958  -6.456  1.00  0.00     0.012 C 
HETATM   17  C19 UNL     1       1.218  56.340  -6.789  1.00  0.00     0.016 C 
HETATM   18  C20 UNL     1      -2.325  52.136 -11.924  1.00  0.00     0.144 C 
HETATM   19  C21 UNL     1      -1.908  50.668 -11.989  1.00  0.00     0.089 C 
HETATM   20  C22 UNL     1      -1.169  50.298 -10.695  1.00  0.00     0.025 C 
HETATM   21  C23 UNL     1       0.236  50.961 -10.663  1.00  0.00     0.060 C 
HETATM   22  C24 UNL     1       1.373  50.090 -11.290  1.00  0.00     0.062 C 
HETATM   23  C25 UNL     1       2.756  50.438 -10.722  1.00  0.00     0.046 C 
HETATM   24  C26 UNL     1       1.191  48.573 -11.169  1.00  0.00     0.046 C 
HETATM   25  O6  UNL     1       1.391  50.418 -12.694  1.00  0.00    -0.358 OA
HETATM   26  C27 UNL     1       0.360  51.400 -12.954  1.00  0.00     0.158 C 
HETATM   27  C33 UNL     1      -0.932  50.568 -13.145  1.00  0.00     0.171 C 
HETATM   28  O9  UNL     1      -1.169  49.852 -14.115  1.00  0.00    -0.294 OA
ENDROOT
BRANCH  26  29
HETATM   29  C28 UNL     1       0.652  52.180 -14.244  1.00  0.00     0.077 C 
BRANCH  29  30
HETATM   30  C29 UNL     1       2.093  52.201 -14.698  1.00  0.00    -0.010 C 
HETATM   31  C30 UNL     1       2.564  52.188 -15.960  1.00  0.00     0.008 C 
HETATM   32  C31 UNL     1       4.033  52.225 -16.265  1.00  0.00     0.055 C 
BRANCH  31  33
HETATM   33  C32 UNL     1       1.661  52.157 -17.134  1.00  0.00     0.171 C 
HETATM   34  O7  UNL     1       0.809  51.328 -17.391  1.00  0.00    -0.646 OA
BRANCH  33  35
HETATM   35  O8  UNL     1       1.856  53.223 -17.929  1.00  0.00    -0.773 OA
HETATM   36  H38 UNL     1       1.225  53.060 -18.662  1.00  0.00     0.167 HD
ENDBRANCH  33  35
ENDBRANCH  31  33
ENDBRANCH  29  30
ENDBRANCH  26  29
BRANCH  18  37
HETATM   37  O5  UNL     1      -2.849  52.564 -13.180  1.00  0.00    -0.394 OA
HETATM   38  H21 UNL     1      -3.621  52.009 -13.401  1.00  0.00     0.210 HD
ENDBRANCH  18  37
BRANCH   1  39
HETATM   39  C5  UNL     1       3.717  54.373 -10.650  1.00  0.00     0.072 C 
BRANCH  39  40
HETATM   40  C4  UNL     1       4.648  53.369 -10.019  1.00  0.00    -0.020 C 
HETATM   41  C2  UNL     1       5.868  53.578  -9.484  1.00  0.00    -0.091 C 
HETATM   42  C1  UNL     1       6.568  54.906  -9.404  1.00  0.00     0.042 C 
HETATM   43  C3  UNL     1       6.649  52.432  -8.895  1.00  0.00     0.042 C 
ENDBRANCH  39  40
ENDBRANCH   1  39
BRANCH   9  44
HETATM   44  O3  UNL     1      -1.150  55.194  -7.790  1.00  0.00    -0.359 OA
HETATM   45  H11 UNL     1      -1.891  54.740  -8.249  1.00  0.00     0.217 HD
ENDBRANCH   9  44
TORSDOF 8
ENDMDL
MODEL 3
REMARK minimizedAffinity -7.35108137
REMARK CNNscore 0.469077647
REMARK CNNaffinity 6.79607201
REMARK  8 active torsions:
REMARK  status: ('A' for Active; 'I' for Inactive)
REMARK    1  A    between atoms: C4_4  and  C5_5 
REMARK    2  A    between atoms: C5_5  and  C6_6 
REMARK    3  A    between atoms: C12_14  and  O3_15 
REMARK    4  A    between atoms: C20_24  and  O5_25 
REMARK    5  A    between atoms: C27_33  and  C28_34 
REMARK    6  A    between atoms: C28_34  and  C29_35 
REMARK    7  A    between atoms: C30_36  and  C32_38 
REMARK    8  A    between atoms: C32_38  and  O8_40 
ROOT
HETATM    1  C6  UNL     1      -7.186  46.884 -25.789  1.00  0.00     0.014 A 
HETATM    2  C7  UNL     1      -6.978  46.909 -27.179  1.00  0.00     0.096 A 
HETATM    3  O1  UNL     1      -7.816  46.151 -27.959  1.00  0.00    -0.333 OA
HETATM    4  C8  UNL     1      -7.842  46.452 -29.365  1.00  0.00     0.126 C 
HETATM    5  C9  UNL     1      -6.401  46.477 -29.900  1.00  0.00     0.129 C 
HETATM    6  C10 UNL     1      -5.675  47.578 -29.159  1.00  0.00     0.174 C 
HETATM    7  O2  UNL     1      -4.866  48.343 -29.677  1.00  0.00    -0.292 OA
HETATM    8  C11 UNL     1      -5.944  47.682 -27.713  1.00  0.00     0.078 A 
HETATM    9  C12 UNL     1      -5.163  48.503 -26.887  1.00  0.00     0.095 A 
HETATM   10  C13 UNL     1      -5.388  48.529 -25.506  1.00  0.00     0.032 A 
HETATM   11  C14 UNL     1      -6.389  47.710 -24.964  1.00  0.00     0.092 A 
HETATM   12  O4  UNL     1      -6.676  47.686 -23.623  1.00  0.00    -0.335 OA
HETATM   13  C15 UNL     1      -5.769  48.304 -22.691  1.00  0.00     0.078 C 
HETATM   14  C16 UNL     1      -6.652  49.056 -21.688  1.00  0.00     0.051 C 
HETATM   15  C17 UNL     1      -5.014  47.178 -21.974  1.00  0.00     0.051 C 
HETATM   16  C18 UNL     1      -4.783  49.268 -23.303  1.00  0.00     0.012 C 
HETATM   17  C19 UNL     1      -4.604  49.383 -24.621  1.00  0.00     0.016 C 
HETATM   18  C20 UNL     1      -6.365  46.687 -31.419  1.00  0.00     0.144 C 
HETATM   19  C21 UNL     1      -7.768  47.018 -31.927  1.00  0.00     0.089 C 
HETATM   20  C22 UNL     1      -8.334  48.189 -31.111  1.00  0.00     0.025 C 
HETATM   21  C23 UNL     1      -8.687  47.727 -29.670  1.00  0.00     0.060 C 
HETATM   22  C24 UNL     1     -10.150  47.203 -29.503  1.00  0.00     0.062 C 
HETATM   23  C25 UNL     1     -10.660  47.343 -28.061  1.00  0.00     0.046 C 
HETATM   24  C26 UNL     1     -11.194  47.840 -30.426  1.00  0.00     0.046 C 
HETATM   25  O6  UNL     1     -10.100  45.794 -29.805  1.00  0.00    -0.358 OA
HETATM   26  C27 UNL     1      -8.739  45.441 -30.144  1.00  0.00     0.158 C 
HETATM   27  C33 UNL     1      -8.609  45.787 -31.648  1.00  0.00     0.171 C 
HETATM   28  O9  UNL     1      -9.149  45.167 -32.561  1.00  0.00    -0.294 OA
ENDROOT
BRANCH  26  29
HETATM   29  C28 UNL     1      -8.493  43.937 -29.951  1.00  0.00     0.077 C 
BRANCH  29  30
HETATM   30  C29 UNL     1      -9.685  43.034 -30.169  1.00  0.00    -0.010 C 
HETATM   31  C30 UNL     1     -10.561  42.582 -29.250  1.00  0.00     0.008 C 
HETATM   32  C31 UNL     1     -11.714  41.694 -29.615  1.00  0.00     0.055 C 
BRANCH  31  33
HETATM   33  C32 UNL     1     -10.456  42.950 -27.819  1.00  0.00     0.171 C 
HETATM   34  O7  UNL     1      -9.846  42.362 -26.946  1.00  0.00    -0.646 OA
BRANCH  33  35
HETATM   35  O8  UNL     1     -11.112  44.094 -27.558  1.00  0.00    -0.773 OA
HETATM   36  H38 UNL     1     -10.984  44.198 -26.592  1.00  0.00     0.167 HD
ENDBRANCH  33  35
ENDBRANCH  31  33
ENDBRANCH  29  30
ENDBRANCH  26  29
BRANCH  18  37
HETATM   37  O5  UNL     1      -5.883  45.490 -32.028  1.00  0.00    -0.394 OA
HETATM   38  H21 UNL     1      -5.864  45.617 -32.994  1.00  0.00     0.210 HD
ENDBRANCH  18  37
BRANCH   1  39
HETATM   39  C5  UNL     1      -8.202  45.949 -25.157  1.00  0.00     0.072 C 
BRANCH  39  40
HETATM   40  C4  UNL     1      -9.541  46.619 -24.972  1.00  0.00    -0.020 C 
HETATM   41  C2  UNL     1     -10.699  46.074 -24.550  1.00  0.00    -0.091 C 
HETATM   42  C1  UNL     1     -10.894  44.635 -24.162  1.00  0.00     0.042 C 
HETATM   43  C3  UNL     1     -11.941  46.919 -24.430  1.00  0.00     0.042 C 
ENDBRANCH  39  40
ENDBRANCH   1  39
BRANCH   9  44
HETATM   44  O3  UNL     1      -4.161  49.295 -27.399  1.00  0.00    -0.359 OA
HETATM   45  H11 UNL     1      -4.117  49.162 -28.372  1.00  0.00     0.217 HD
ENDBRANCH   9  44
TORSDOF 8
ENDMDL
MODEL 4
REMARK minimizedAffinity -7.05896997
REMARK CNNscore 0.45900473
REMARK CNNaffinity 6.73365402
REMARK  8 active torsions:
REMARK  status: ('A' for Active; 'I' for Inactive)
REMARK    1  A    between atoms: C4_4  and  C5_5 
REMARK    2  A    between atoms: C5_5  and  C6_6 
REMARK    3  A    between atoms: C12_14  and  O3_15 
REMARK    4  A    between atoms: C20_24  and  O5_25 
REMARK    5  A    between atoms: C27_33  and  C28_34 
REMARK    6  A    between atoms: C28_34  and  C29_35 
REMARK    7  A    between atoms: C30_36  and  C32_38 
REMARK    8  A    between atoms: C32_38  and  O8_40 
ROOT
HETATM    1  C6  UNL     1      -7.803  46.551 -24.694  1.00  0.00     0.014 A 
HETATM    2  C7  UNL     1      -7.734  46.675 -26.093  1.00  0.00     0.096 A 
HETATM    3  O1  UNL     1      -8.683  46.015 -26.835  1.00  0.00    -0.333 OA
HETATM    4  C8  UNL     1      -8.836  46.424 -28.204  1.00  0.00     0.126 C 
HETATM    5  C9  UNL     1      -7.456  46.432 -28.883  1.00  0.00     0.129 C 
HETATM    6  C10 UNL     1      -6.607  47.442 -28.143  1.00  0.00     0.174 C 
HETATM    7  O2  UNL     1      -5.818  48.211 -28.686  1.00  0.00    -0.292 OA
HETATM    8  C11 UNL     1      -6.724  47.444 -26.674  1.00  0.00     0.078 A 
HETATM    9  C12 UNL     1      -5.825  48.166 -25.876  1.00  0.00     0.095 A 
HETATM   10  C13 UNL     1      -5.908  48.095 -24.481  1.00  0.00     0.032 A 
HETATM   11  C14 UNL     1      -6.888  47.277 -23.898  1.00  0.00     0.092 A 
HETATM   12  O4  UNL     1      -7.039  47.162 -22.540  1.00  0.00    -0.335 OA
HETATM   13  C15 UNL     1      -6.014  47.669 -21.665  1.00  0.00     0.078 C 
HETATM   14  C16 UNL     1      -6.754  48.376 -20.524  1.00  0.00     0.051 C 
HETATM   15  C17 UNL     1      -5.246  46.461 -21.115  1.00  0.00     0.051 C 
HETATM   16  C18 UNL     1      -5.049  48.636 -22.305  1.00  0.00     0.012 C 
HETATM   17  C19 UNL     1      -4.998  48.845 -23.622  1.00  0.00     0.016 C 
HETATM   18  C20 UNL     1      -7.563  46.757 -30.378  1.00  0.00     0.144 C 
HETATM   19  C21 UNL     1      -8.992  47.183 -30.712  1.00  0.00     0.089 C 
HETATM   20  C22 UNL     1      -9.415  48.309 -29.759  1.00  0.00     0.025 C 
HETATM   21  C23 UNL     1      -9.644  47.752 -28.326  1.00  0.00     0.060 C 
HETATM   22  C24 UNL     1     -11.106  47.277 -28.046  1.00  0.00     0.062 C 
HETATM   23  C25 UNL     1     -11.461  47.326 -26.553  1.00  0.00     0.046 C 
HETATM   24  C26 UNL     1     -12.206  48.025 -28.808  1.00  0.00     0.046 C 
HETATM   25  O6  UNL     1     -11.156  45.895 -28.454  1.00  0.00    -0.358 OA
HETATM   26  C27 UNL     1      -9.854  45.513 -28.958  1.00  0.00     0.158 C 
HETATM   27  C33 UNL     1      -9.859  45.970 -30.437  1.00  0.00     0.171 C 
HETATM   28  O9  UNL     1     -10.518  45.445 -31.332  1.00  0.00    -0.294 OA
ENDROOT
BRANCH  26  29
HETATM   29  C28 UNL     1      -9.663  43.990 -28.901  1.00  0.00     0.077 C 
BRANCH  29  30
HETATM   30  C29 UNL     1     -10.751  43.208 -28.203  1.00  0.00    -0.010 C 
HETATM   31  C30 UNL     1     -10.699  42.613 -26.994  1.00  0.00     0.008 C 
HETATM   32  C31 UNL     1     -11.871  41.875 -26.417  1.00  0.00     0.055 C 
BRANCH  31  33
HETATM   33  C32 UNL     1      -9.486  42.666 -26.146  1.00  0.00     0.171 C 
HETATM   34  O7  UNL     1      -9.353  42.235 -25.017  1.00  0.00    -0.646 OA
BRANCH  33  35
HETATM   35  O8  UNL     1      -8.459  43.243 -26.795  1.00  0.00    -0.773 OA
HETATM   36  H38 UNL     1      -7.749  43.235 -26.119  1.00  0.00     0.167 HD
ENDBRANCH  33  35
ENDBRANCH  31  33
ENDBRANCH  29  30
ENDBRANCH  26  29
BRANCH  18  37
HETATM   37  O5  UNL     1      -7.203  45.591 -31.119  1.00  0.00    -0.394 OA
HETATM   38  H21 UNL     1      -7.276  45.792 -32.070  1.00  0.00     0.210 HD
ENDBRANCH  18  37
BRANCH   1  39
HETATM   39  C5  UNL     1      -8.794  45.613 -24.030  1.00  0.00     0.072 C 
BRANCH  39  40
HETATM   40  C4  UNL     1     -10.023  46.343 -23.550  1.00  0.00    -0.020 C 
HETATM   41  C2  UNL     1     -11.248  45.844 -23.293  1.00  0.00    -0.091 C 
HETATM   42  C1  UNL     1     -11.648  44.402 -23.435  1.00  0.00     0.042 C 
HETATM   43  C3  UNL     1     -12.356  46.747 -22.815  1.00  0.00     0.042 C 
ENDBRANCH  39  40
ENDBRANCH   1  39
BRANCH   9  44
HETATM   44  O3  UNL     1      -4.842  48.954 -26.430  1.00  0.00    -0.359 OA
HETATM   45  H11 UNL     1      -4.902  48.896 -27.409  1.00  0.00     0.217 HD
ENDBRANCH   9  44
TORSDOF 8
ENDMDL
MODEL 5
REMARK minimizedAffinity -7.87090158
REMARK CNNscore 0.410809785
REMARK CNNaffinity 6.87224817
REMARK  8 active torsions:
REMARK  status: ('A' for Active; 'I' for Inactive)
REMARK    1  A    between atoms: C4_4  and  C5_5 
REMARK    2  A    between atoms: C5_5  and  C6_6 
REMARK    3  A    between atoms: C12_14  and  O3_15 
REMARK    4  A    between atoms: C20_24  and  O5_25 
REMARK    5  A    between atoms: C27_33  and  C28_34 
REMARK    6  A    between atoms: C28_34  and  C29_35 
REMARK    7  A    between atoms: C30_36  and  C32_38 
REMARK    8  A    between atoms: C32_38  and  O8_40 
ROOT
HETATM    1  C6  UNL     1      -7.334  46.687 -25.739  1.00  0.00     0.014 A 
HETATM    2  C7  UNL     1      -6.931  46.944 -27.062  1.00  0.00     0.096 A 
HETATM    3  O1  UNL     1      -7.611  46.302 -28.067  1.00  0.00    -0.333 OA
HETATM    4  C8  UNL     1      -7.452  46.828 -29.395  1.00  0.00     0.126 C 
HETATM    5  C9  UNL     1      -5.952  46.978 -29.700  1.00  0.00     0.129 C 
HETATM    6  C10 UNL     1      -5.395  47.962 -28.695  1.00  0.00     0.174 C 
HETATM    7  O2  UNL     1      -4.560  48.822 -28.960  1.00  0.00    -0.292 OA
HETATM    8  C11 UNL     1      -5.872  47.821 -27.308  1.00  0.00     0.078 A 
HETATM    9  C12 UNL     1      -5.258  48.516 -26.256  1.00  0.00     0.095 A 
HETATM   10  C13 UNL     1      -5.678  48.310 -24.936  1.00  0.00     0.032 A 
HETATM   11  C14 UNL     1      -6.704  47.387 -24.685  1.00  0.00     0.092 A 
HETATM   12  O4  UNL     1      -7.177  47.137 -23.422  1.00  0.00    -0.335 OA
HETATM   13  C15 UNL     1      -6.444  47.619 -22.280  1.00  0.00     0.078 C 
HETATM   14  C16 UNL     1      -7.497  48.173 -21.314  1.00  0.00     0.051 C 
HETATM   15  C17 UNL     1      -5.743  46.411 -21.646  1.00  0.00     0.051 C 
HETATM   16  C18 UNL     1      -5.430  48.695 -22.579  1.00  0.00     0.012 C 
HETATM   17  C19 UNL     1      -5.072  49.028 -23.821  1.00  0.00     0.016 C 
HETATM   18  C20 UNL     1      -5.712  47.434 -31.145  1.00  0.00     0.144 C 
HETATM   19  C21 UNL     1      -7.042  47.807 -31.796  1.00  0.00     0.089 C 
HETATM   20  C22 UNL     1      -7.776  48.813 -30.899  1.00  0.00     0.025 C 
HETATM   21  C23 UNL     1      -8.307  48.113 -29.618  1.00  0.00     0.060 C 
HETATM   22  C24 UNL     1      -9.751  47.530 -29.754  1.00  0.00     0.062 C 
HETATM   23  C25 UNL     1     -10.467  47.420 -28.400  1.00  0.00     0.046 C 
HETATM   24  C26 UNL     1     -10.684  48.282 -30.710  1.00  0.00     0.046 C 
HETATM   25  O6  UNL     1      -9.589  46.191 -30.264  1.00  0.00    -0.358 OA
HETATM   26  C27 UNL     1      -8.177  45.934 -30.449  1.00  0.00     0.158 C 
HETATM   27  C33 UNL     1      -7.852  46.525 -31.843  1.00  0.00     0.171 C 
HETATM   28  O9  UNL     1      -8.225  46.049 -32.912  1.00  0.00    -0.294 OA
ENDROOT
BRANCH  26  29
HETATM   29  C28 UNL     1      -7.887  44.426 -30.461  1.00  0.00     0.077 C 
BRANCH  29  30
HETATM   30  C29 UNL     1      -6.529  44.013 -30.979  1.00  0.00    -0.010 C 
HETATM   31  C30 UNL     1      -6.249  43.250 -32.054  1.00  0.00     0.008 C 
HETATM   32  C31 UNL     1      -4.841  42.929 -32.461  1.00  0.00     0.055 C 
BRANCH  31  33
HETATM   33  C32 UNL     1      -7.315  42.694 -32.919  1.00  0.00     0.171 C 
HETATM   34  O7  UNL     1      -7.997  41.708 -32.713  1.00  0.00    -0.646 OA
BRANCH  33  35
HETATM   35  O8  UNL     1      -7.500  43.450 -34.016  1.00  0.00    -0.773 OA
HETATM   36  H38 UNL     1      -8.198  42.958 -34.498  1.00  0.00     0.167 HD
ENDBRANCH  33  35
ENDBRANCH  31  33
ENDBRANCH  29  30
ENDBRANCH  26  29
BRANCH  18  37
HETATM   37  O5  UNL     1      -5.088  46.365 -31.856  1.00  0.00    -0.394 OA
HETATM   38  H21 UNL     1      -4.939  46.649 -32.777  1.00  0.00     0.210 HD
ENDBRANCH  18  37
BRANCH   1  39
HETATM   39  C5  UNL     1      -8.381  45.635 -25.420  1.00  0.00     0.072 C 
BRANCH  39  40
HETATM   40  C4  UNL     1      -9.713  46.256 -25.079  1.00  0.00    -0.020 C 
HETATM   41  C2  UNL     1     -10.938  45.698 -25.144  1.00  0.00    -0.091 C 
HETATM   42  C1  UNL     1     -11.232  44.290 -25.582  1.00  0.00     0.042 C 
HETATM   43  C3  UNL     1     -12.159  46.491 -24.755  1.00  0.00     0.042 C 
ENDBRANCH  39  40
ENDBRANCH   1  39
BRANCH   9  44
HETATM   44  O3  UNL     1      -4.235  49.407 -26.481  1.00  0.00    -0.359 OA
HETATM   45  H11 UNL     1      -4.046  49.437 -27.445  1.00  0.00     0.217 HD
ENDBRANCH   9  44
TORSDOF 8
ENDMDL
MODEL 6
REMARK minimizedAffinity -8.08067799
REMARK CNNscore 0.377233118
REMARK CNNaffinity 6.41576052
REMARK  8 active torsions:
REMARK  status: ('A' for Active; 'I' for Inactive)
REMARK    1  A    between atoms: C4_4  and  C5_5 
REMARK    2  A    between atoms: C5_5  and  C6_6 
REMARK    3  A    between atoms: C12_14  and  O3_15 
REMARK    4  A    between atoms: C20_24  and  O5_25 
REMARK    5  A    between atoms: C27_33  and  C28_34 
REMARK    6  A    between atoms: C28_34  and  C29_35 
REMARK    7  A    between atoms: C30_36  and  C32_38 
REMARK    8  A    between atoms: C32_38  and  O8_40 
ROOT
HETATM    1  C6  UNL     1      -7.348  47.151 -25.795  1.00  0.00     0.014 A 
HETATM    2  C7  UNL     1      -7.499  46.808 -27.151  1.00  0.00     0.096 A 
HETATM    3  O1  UNL     1      -8.643  46.139 -27.512  1.00  0.00    -0.333 OA
HETATM    4  C8  UNL     1      -8.964  46.113 -28.913  1.00  0.00     0.126 C 
HETATM    5  C9  UNL     1      -7.730  45.642 -29.702  1.00  0.00     0.129 C 
HETATM    6  C10 UNL     1      -6.635  46.655 -29.452  1.00  0.00     0.174 C 
HETATM    7  O2  UNL     1      -5.848  47.048 -30.309  1.00  0.00    -0.292 OA
HETATM    8  C11 UNL     1      -6.502  47.146 -28.069  1.00  0.00     0.078 A 
HETATM    9  C12 UNL     1      -5.388  47.901 -27.671  1.00  0.00     0.095 A 
HETATM   10  C13 UNL     1      -5.245  48.294 -26.335  1.00  0.00     0.032 A 
HETATM   11  C14 UNL     1      -6.219  47.905 -25.403  1.00  0.00     0.092 A 
HETATM   12  O4  UNL     1      -6.155  48.258 -24.080  1.00  0.00    -0.335 OA
HETATM   13  C15 UNL     1      -4.936  48.813 -23.551  1.00  0.00     0.078 C 
HETATM   14  C16 UNL     1      -5.366  49.974 -22.645  1.00  0.00     0.051 C 
HETATM   15  C17 UNL     1      -4.265  47.721 -22.709  1.00  0.00     0.051 C 
HETATM   16  C18 UNL     1      -3.965  49.325 -24.585  1.00  0.00     0.012 C 
HETATM   17  C19 UNL     1      -4.107  49.091 -25.892  1.00  0.00     0.016 C 
HETATM   18  C20 UNL     1      -8.041  45.490 -31.197  1.00  0.00     0.144 C 
HETATM   19  C21 UNL     1      -9.430  46.050 -31.495  1.00  0.00     0.089 C 
HETATM   20  C22 UNL     1      -9.524  47.479 -30.944  1.00  0.00     0.025 C 
HETATM   21  C23 UNL     1      -9.585  47.461 -29.391  1.00  0.00     0.060 C 
HETATM   22  C24 UNL     1     -11.032  47.385 -28.805  1.00  0.00     0.062 C 
HETATM   23  C25 UNL     1     -11.120  47.972 -27.389  1.00  0.00     0.046 C 
HETATM   24  C26 UNL     1     -12.127  48.047 -29.649  1.00  0.00     0.046 C 
HETATM   25  O6  UNL     1     -11.344  45.981 -28.707  1.00  0.00    -0.358 OA
HETATM   26  C27 UNL     1     -10.212  45.220 -29.191  1.00  0.00     0.158 C 
HETATM   27  C33 UNL     1     -10.402  45.174 -30.728  1.00  0.00     0.171 C 
HETATM   28  O9  UNL     1     -11.269  44.527 -31.309  1.00  0.00    -0.294 OA
ENDROOT
BRANCH  26  29
HETATM   29  C28 UNL     1     -10.232  43.787 -28.639  1.00  0.00     0.077 C 
BRANCH  29  30
HETATM   30  C29 UNL     1     -11.596  43.197 -28.364  1.00  0.00    -0.010 C 
HETATM   31  C30 UNL     1     -12.106  42.039 -28.827  1.00  0.00     0.008 C 
HETATM   32  C31 UNL     1     -13.484  41.570 -28.458  1.00  0.00     0.055 C 
BRANCH  31  33
HETATM   33  C32 UNL     1     -11.334  41.141 -29.716  1.00  0.00     0.171 C 
HETATM   34  O7  UNL     1     -11.198  41.230 -30.921  1.00  0.00    -0.646 OA
BRANCH  33  35
HETATM   35  O8  UNL     1     -10.721  40.170 -29.017  1.00  0.00    -0.773 OA
HETATM   36  H38 UNL     1     -10.281  39.647 -29.720  1.00  0.00     0.167 HD
ENDBRANCH  33  35
ENDBRANCH  31  33
ENDBRANCH  29  30
ENDBRANCH  26  29
BRANCH  18  37
HETATM   37  O5  UNL     1      -7.979  44.103 -31.530  1.00  0.00    -0.394 OA
HETATM   38  H21 UNL     1      -8.181  44.001 -32.478  1.00  0.00     0.210 HD
ENDBRANCH  18  37
BRANCH   1  39
HETATM   39  C5  UNL     1      -8.336  46.678 -24.745  1.00  0.00     0.072 C 
BRANCH  39  40
HETATM   40  C4  UNL     1      -8.070  45.253 -24.326  1.00  0.00    -0.020 C 
HETATM   41  C2  UNL     1      -7.592  44.801 -23.150  1.00  0.00    -0.091 C 
HETATM   42  C1  UNL     1      -7.220  45.659 -21.973  1.00  0.00     0.042 C 
HETATM   43  C3  UNL     1      -7.395  43.324 -22.923  1.00  0.00     0.042 C 
ENDBRANCH  39  40
ENDBRANCH   1  39
BRANCH   9  44
HETATM   44  O3  UNL     1      -4.412  48.270 -28.567  1.00  0.00    -0.359 OA
HETATM   45  H11 UNL     1      -4.643  47.916 -29.454  1.00  0.00     0.217 HD
ENDBRANCH   9  44
TORSDOF 8
ENDMDL
MODEL 7
REMARK minimizedAffinity -7.52633095
REMARK CNNscore 0.344397902
REMARK CNNaffinity 6.68214846
REMARK  8 active torsions:
REMARK  status: ('A' for Active; 'I' for Inactive)
REMARK    1  A    between atoms: C4_4  and  C5_5 
REMARK    2  A    between atoms: C5_5  and  C6_6 
REMARK    3  A    between atoms: C12_14  and  O3_15 
REMARK    4  A    between atoms: C20_24  and  O5_25 
REMARK    5  A    between atoms: C27_33  and  C28_34 
REMARK    6  A    between atoms: C28_34  and  C29_35 
REMARK    7  A    between atoms: C30_36  and  C32_38 
REMARK    8  A    between atoms: C32_38  and  O8_40 
ROOT
HETATM    1  C6  UNL     1       0.280  52.625 -10.999  1.00  0.00     0.014 A 
HETATM    2  C7  UNL     1       0.996  52.643  -9.788  1.00  0.00     0.096 A 
HETATM    3  O1  UNL     1       2.328  52.971  -9.845  1.00  0.00    -0.333 OA
HETATM    4  C8  UNL     1       2.958  53.340  -8.607  1.00  0.00     0.126 C 
HETATM    5  C9  UNL     1       2.660  52.262  -7.551  1.00  0.00     0.129 C 
HETATM    6  C10 UNL     1       1.159  52.231  -7.366  1.00  0.00     0.174 C 
HETATM    7  O2  UNL     1       0.599  52.090  -6.282  1.00  0.00    -0.292 OA
HETATM    8  C11 UNL     1       0.347  52.329  -8.592  1.00  0.00     0.078 A 
HETATM    9  C12 UNL     1      -1.033  52.079  -8.570  1.00  0.00     0.095 A 
HETATM   10  C13 UNL     1      -1.772  52.106  -9.758  1.00  0.00     0.032 A 
HETATM   11  C14 UNL     1      -1.109  52.365 -10.967  1.00  0.00     0.092 A 
HETATM   12  O4  UNL     1      -1.764  52.417 -12.171  1.00  0.00    -0.335 OA
HETATM   13  C15 UNL     1      -3.117  51.935 -12.265  1.00  0.00     0.078 C 
HETATM   14  C16 UNL     1      -3.865  52.960 -13.127  1.00  0.00     0.051 C 
HETATM   15  C17 UNL     1      -3.071  50.584 -12.989  1.00  0.00     0.051 C 
HETATM   16  C18 UNL     1      -3.833  51.780 -10.946  1.00  0.00     0.012 C 
HETATM   17  C19 UNL     1      -3.211  51.865  -9.769  1.00  0.00     0.016 C 
HETATM   18  C20 UNL     1       3.395  52.543  -6.234  1.00  0.00     0.144 C 
HETATM   19  C21 UNL     1       4.044  53.925  -6.290  1.00  0.00     0.089 C 
HETATM   20  C22 UNL     1       2.985  54.961  -6.689  1.00  0.00     0.025 C 
HETATM   21  C23 UNL     1       2.603  54.799  -8.187  1.00  0.00     0.060 C 
HETATM   22  C24 UNL     1       3.473  55.648  -9.169  1.00  0.00     0.062 C 
HETATM   23  C25 UNL     1       2.737  55.962 -10.480  1.00  0.00     0.046 C 
HETATM   24  C26 UNL     1       4.007  56.971  -8.610  1.00  0.00     0.046 C 
HETATM   25  O6  UNL     1       4.608  54.824  -9.501  1.00  0.00    -0.358 OA
HETATM   26  C27 UNL     1       4.490  53.566  -8.796  1.00  0.00     0.158 C 
HETATM   27  C33 UNL     1       5.082  53.848  -7.393  1.00  0.00     0.171 C 
HETATM   28  O9  UNL     1       6.273  54.032  -7.158  1.00  0.00    -0.294 OA
ENDROOT
BRANCH  26  29
HETATM   29  C28 UNL     1       5.318  52.468  -9.481  1.00  0.00     0.077 C 
BRANCH  29  30
HETATM   30  C29 UNL     1       6.405  51.834  -8.644  1.00  0.00    -0.010 C 
HETATM   31  C30 UNL     1       7.087  50.699  -8.894  1.00  0.00     0.008 C 
HETATM   32  C31 UNL     1       8.158  50.193  -7.972  1.00  0.00     0.055 C 
BRANCH  31  33
HETATM   33  C32 UNL     1       6.840  49.887 -10.106  1.00  0.00     0.171 C 
HETATM   34  O7  UNL     1       5.878  49.180 -10.341  1.00  0.00    -0.646 OA
BRANCH  33  35
HETATM   35  O8  UNL     1       7.827  50.038 -11.007  1.00  0.00    -0.773 OA
HETATM   36  H38 UNL     1       7.551  49.435 -11.729  1.00  0.00     0.167 HD
ENDBRANCH  33  35
ENDBRANCH  31  33
ENDBRANCH  29  30
ENDBRANCH  26  29
BRANCH  18  37
HETATM   37  O5  UNL     1       4.385  51.532  -6.047  1.00  0.00    -0.394 OA
HETATM   38  H21 UNL     1       4.858  51.710  -5.213  1.00  0.00     0.210 HD
ENDBRANCH  18  37
BRANCH   1  39
HETATM   39  C5  UNL     1       0.977  52.819 -12.333  1.00  0.00     0.072 C 
BRANCH  39  40
HETATM   40  C4  UNL     1       2.029  51.765 -12.574  1.00  0.00    -0.020 C 
HETATM   41  C2  UNL     1       2.479  51.284 -13.749  1.00  0.00    -0.091 C 
HETATM   42  C1  UNL     1       2.007  51.721 -15.108  1.00  0.00     0.042 C 
HETATM   43  C3  UNL     1       3.548  50.222 -13.780  1.00  0.00     0.042 C 
ENDBRANCH  39  40
ENDBRANCH   1  39
BRANCH   9  44
HETATM   44  O3  UNL     1      -1.696  51.799  -7.397  1.00  0.00    -0.359 OA
HETATM   45  H11 UNL     1      -1.049  51.806  -6.658  1.00  0.00     0.217 HD
ENDBRANCH   9  44
TORSDOF 8
ENDMDL
MODEL 8
REMARK minimizedAffinity -7.6998558
REMARK CNNscore 0.327265412
REMARK CNNaffinity 7.03956032
REMARK  8 active torsions:
REMARK  status: ('A' for Active; 'I' for Inactive)
REMARK    1  A    between atoms: C4_4  and  C5_5 
REMARK    2  A    between atoms: C5_5  and  C6_6 
REMARK    3  A    between atoms: C12_14  and  O3_15 
REMARK    4  A    between atoms: C20_24  and  O5_25 
REMARK    5  A    between atoms: C27_33  and  C28_34 
REMARK    6  A    between atoms: C28_34  and  C29_35 
REMARK    7  A    between atoms: C30_36  and  C32_38 
REMARK    8  A    between atoms: C32_38  and  O8_40 
ROOT
HETATM    1  C6  UNL     1       2.343  52.870 -10.350  1.00  0.00     0.014 A 
HETATM    2  C7  UNL     1       0.946  52.986 -10.474  1.00  0.00     0.096 A 
HETATM    3  O1  UNL     1       0.293  52.021 -11.200  1.00  0.00    -0.333 OA
HETATM    4  C8  UNL     1      -1.131  51.932 -11.027  1.00  0.00     0.126 C 
HETATM    5  C9  UNL     1      -1.748  53.329 -11.212  1.00  0.00     0.129 C 
HETATM    6  C10 UNL     1      -1.160  54.216 -10.136  1.00  0.00     0.174 C 
HETATM    7  O2  UNL     1      -1.795  55.065  -9.517  1.00  0.00    -0.292 OA
HETATM    8  C11 UNL     1       0.282  54.057  -9.873  1.00  0.00     0.078 A 
HETATM    9  C12 UNL     1       0.978  54.975  -9.073  1.00  0.00     0.095 A 
HETATM   10  C13 UNL     1       2.361  54.848  -8.897  1.00  0.00     0.032 A 
HETATM   11  C14 UNL     1       3.037  53.804  -9.547  1.00  0.00     0.092 A 
HETATM   12  O4  UNL     1       4.388  53.607  -9.418  1.00  0.00    -0.335 OA
HETATM   13  C15 UNL     1       5.201  54.635  -8.823  1.00  0.00     0.078 C 
HETATM   14  C16 UNL     1       6.175  53.907  -7.889  1.00  0.00     0.051 C 
HETATM   15  C17 UNL     1       5.980  55.313  -9.957  1.00  0.00     0.051 C 
HETATM   16  C18 UNL     1       4.444  55.675  -8.035  1.00  0.00     0.012 C 
HETATM   17  C19 UNL     1       3.113  55.776  -8.061  1.00  0.00     0.016 C 
HETATM   18  C20 UNL     1      -3.280  53.284 -11.145  1.00  0.00     0.144 C 
HETATM   19  C21 UNL     1      -3.736  51.894 -10.706  1.00  0.00     0.089 C 
HETATM   20  C22 UNL     1      -3.007  51.512  -9.411  1.00  0.00     0.025 C 
HETATM   21  C23 UNL     1      -1.510  51.209  -9.698  1.00  0.00     0.060 C 
HETATM   22  C24 UNL     1      -1.210  49.714 -10.037  1.00  0.00     0.062 C 
HETATM   23  C25 UNL     1       0.238  49.320  -9.711  1.00  0.00     0.046 C 
HETATM   24  C26 UNL     1      -2.130  48.683  -9.374  1.00  0.00     0.046 C 
HETATM   25  O6  UNL     1      -1.376  49.593 -11.465  1.00  0.00    -0.358 OA
HETATM   26  C27 UNL     1      -1.756  50.883 -11.998  1.00  0.00     0.158 C 
HETATM   27  C33 UNL     1      -3.292  50.948 -11.805  1.00  0.00     0.171 C 
HETATM   28  O9  UNL     1      -4.107  50.285 -12.440  1.00  0.00    -0.294 OA
ENDROOT
BRANCH  26  29
HETATM   29  C28 UNL     1      -1.432  50.980 -13.496  1.00  0.00     0.077 C 
BRANCH  29  30
HETATM   30  C29 UNL     1      -1.299  49.670 -14.235  1.00  0.00    -0.010 C 
HETATM   31  C30 UNL     1      -1.974  49.261 -15.327  1.00  0.00     0.008 C 
HETATM   32  C31 UNL     1      -1.726  47.926 -15.966  1.00  0.00     0.055 C 
BRANCH  31  33
HETATM   33  C32 UNL     1      -2.994  50.112 -15.981  1.00  0.00     0.171 C 
HETATM   34  O7  UNL     1      -3.087  51.324 -15.936  1.00  0.00    -0.646 OA
BRANCH  33  35
HETATM   35  O8  UNL     1      -3.849  49.377 -16.714  1.00  0.00    -0.773 OA
HETATM   36  H38 UNL     1      -4.470  50.053 -17.058  1.00  0.00     0.167 HD
ENDBRANCH  33  35
ENDBRANCH  31  33
ENDBRANCH  29  30
ENDBRANCH  26  29
BRANCH  18  37
HETATM   37  O5  UNL     1      -3.796  53.595 -12.439  1.00  0.00    -0.394 OA
HETATM   38  H21 UNL     1      -4.769  53.562 -12.402  1.00  0.00     0.210 HD
ENDBRANCH  18  37
BRANCH   1  39
HETATM   39  C5  UNL     1       3.119  51.806 -11.104  1.00  0.00     0.072 C 
BRANCH  39  40
HETATM   40  C4  UNL     1       3.025  51.996 -12.597  1.00  0.00    -0.020 C 
HETATM   41  C2  UNL     1       3.311  51.113 -13.574  1.00  0.00    -0.091 C 
HETATM   42  C1  UNL     1       3.796  49.706 -13.361  1.00  0.00     0.042 C 
HETATM   43  C3  UNL     1       3.150  51.497 -15.022  1.00  0.00     0.042 C 
ENDBRANCH  39  40
ENDBRANCH   1  39
BRANCH   9  44
HETATM   44  O3  UNL     1       0.336  56.019  -8.448  1.00  0.00    -0.359 OA
HETATM   45  H11 UNL     1      -0.621  55.983  -8.672  1.00  0.00     0.217 HD
ENDBRANCH   9  44
TORSDOF 8
ENDMDL
MODEL 9
REMARK minimizedAffinity -7.22809362
REMARK CNNscore 0.317114741
REMARK CNNaffinity 6.9237957
REMARK  8 active torsions:
REMARK  status: ('A' for Active; 'I' for Inactive)
REMARK    1  A    between atoms: C4_4  and  C5_5 
REMARK    2  A    between atoms: C5_5  and  C6_6 
REMARK    3  A    between atoms: C12_14  and  O3_15 
REMARK    4  A    between atoms: C20_24  and  O5_25 
REMARK    5  A    between atoms: C27_33  and  C28_34 
REMARK    6  A    between atoms: C28_34  and  C29_35 
REMARK    7  A    between atoms: C30_36  and  C32_38 
REMARK    8  A    between atoms: C32_38  and  O8_40 
ROOT
HETATM    1  C6  UNL     1       2.440  52.879 -10.485  1.00  0.00     0.014 A 
HETATM    2  C7  UNL     1       1.046  52.921 -10.671  1.00  0.00     0.096 A 
HETATM    3  O1  UNL     1       0.474  51.912 -11.406  1.00  0.00    -0.333 OA
HETATM    4  C8  UNL     1      -0.950  51.753 -11.291  1.00  0.00     0.126 C 
HETATM    5  C9  UNL     1      -1.627  53.113 -11.527  1.00  0.00     0.129 C 
HETATM    6  C10 UNL     1      -1.132  54.046 -10.444  1.00  0.00     0.174 C 
HETATM    7  O2  UNL     1      -1.836  54.871  -9.868  1.00  0.00    -0.292 OA
HETATM    8  C11 UNL     1       0.303  53.966 -10.118  1.00  0.00     0.078 A 
HETATM    9  C12 UNL     1       0.917  54.931  -9.306  1.00  0.00     0.095 A 
HETATM   10  C13 UNL     1       2.295  54.878  -9.070  1.00  0.00     0.032 A 
HETATM   11  C14 UNL     1       3.050  53.860  -9.671  1.00  0.00     0.092 A 
HETATM   12  O4  UNL     1       4.403  53.735  -9.481  1.00  0.00    -0.335 OA
HETATM   13  C15 UNL     1       5.137  54.813  -8.872  1.00  0.00     0.078 C 
HETATM   14  C16 UNL     1       6.106  54.150  -7.885  1.00  0.00     0.051 C 
HETATM   15  C17 UNL     1       5.928  55.512  -9.984  1.00  0.00     0.051 C 
HETATM   16  C18 UNL     1       4.294  55.824  -8.135  1.00  0.00     0.012 C 
HETATM   17  C19 UNL     1       2.962  55.856  -8.219  1.00  0.00     0.016 C 
HETATM   18  C20 UNL     1      -3.157  52.991 -11.524  1.00  0.00     0.144 C 
HETATM   19  C21 UNL     1      -3.561  51.586 -11.080  1.00  0.00     0.089 C 
HETATM   20  C22 UNL     1      -2.870  51.262  -9.749  1.00  0.00     0.025 C 
HETATM   21  C23 UNL     1      -1.348  51.033  -9.967  1.00  0.00     0.060 C 
HETATM   22  C24 UNL     1      -0.958  49.549 -10.266  1.00  0.00     0.062 C 
HETATM   23  C25 UNL     1       0.493  49.236  -9.872  1.00  0.00     0.046 C 
HETATM   24  C26 UNL     1      -1.852  48.484  -9.624  1.00  0.00     0.046 C 
HETATM   25  O6  UNL     1      -1.057  49.398 -11.697  1.00  0.00    -0.358 OA
HETATM   26  C27 UNL     1      -1.478  50.658 -12.269  1.00  0.00     0.158 C 
HETATM   27  C33 UNL     1      -3.022  50.647 -12.142  1.00  0.00     0.171 C 
HETATM   28  O9  UNL     1      -3.775  49.933 -12.799  1.00  0.00    -0.294 OA
ENDROOT
BRANCH  26  29
HETATM   29  C28 UNL     1      -1.095  50.748 -13.753  1.00  0.00     0.077 C 
BRANCH  29  30
HETATM   30  C29 UNL     1       0.302  51.239 -14.052  1.00  0.00    -0.010 C 
HETATM   31  C30 UNL     1       1.026  51.046 -15.173  1.00  0.00     0.008 C 
HETATM   32  C31 UNL     1       2.408  51.608 -15.336  1.00  0.00     0.055 C 
BRANCH  31  33
HETATM   33  C32 UNL     1       0.497  50.283 -16.326  1.00  0.00     0.171 C 
HETATM   34  O7  UNL     1       0.403  49.075 -16.435  1.00  0.00    -0.646 OA
BRANCH  33  35
HETATM   35  O8  UNL     1       0.065  51.104 -17.299  1.00  0.00    -0.773 OA
HETATM   36  H38 UNL     1      -0.225  50.476 -17.995  1.00  0.00     0.167 HD
ENDBRANCH  33  35
ENDBRANCH  31  33
ENDBRANCH  29  30
ENDBRANCH  26  29
BRANCH  18  37
HETATM   37  O5  UNL     1      -3.632  53.254 -12.845  1.00  0.00    -0.394 OA
HETATM   38  H21 UNL     1      -4.603  53.171 -12.848  1.00  0.00     0.210 HD
ENDBRANCH  18  37
BRANCH   1  39
HETATM   39  C5  UNL     1       3.301  51.844 -11.187  1.00  0.00     0.072 C 
BRANCH  39  40
HETATM   40  C4  UNL     1       3.511  50.618 -10.333  1.00  0.00    -0.020 C 
HETATM   41  C2  UNL     1       4.663  50.141  -9.823  1.00  0.00    -0.091 C 
HETATM   42  C1  UNL     1       6.020  50.761 -10.005  1.00  0.00     0.042 C 
HETATM   43  C3  UNL     1       4.665  48.888  -8.985  1.00  0.00     0.042 C 
ENDBRANCH  39  40
ENDBRANCH   1  39
BRANCH   9  44
HETATM   44  O3  UNL     1       0.196  55.950  -8.727  1.00  0.00    -0.359 OA
HETATM   45  H11 UNL     1      -0.747  55.862  -8.991  1.00  0.00     0.217 HD
ENDBRANCH   9  44
TORSDOF 8
ENDMDL
