MODEL 1
REMARK minimizedAffinity -10.4945593
REMARK  7 active torsions:
REMARK  status: ('A' for Active; 'I' for Inactive)
REMARK    1  A    between atoms: N1_2  and  C2_3 
REMARK    2  A    between atoms: C4_5  and  N4_34 
REMARK    3  A    between atoms: C5_7  and  N2_12 
REMARK    4  A    between atoms: C7_9  and  O2_10 
REMARK    5  A    between atoms: C18_24  and  O3_25 
REMARK    6  A    between atoms: C19_26  and  C20_27 
REMARK    7  A    between atoms: C27_35  and  C28_36 
ROOT
HETATM    1  C2  UNL     1      11.151  -3.307  32.467  1.00  0.00     0.257 C 
HETATM    2  C3  UNL     1      11.450  -4.731  32.001  1.00  0.00     0.092 C 
HETATM    3  C4  UNL     1      10.214  -5.626  32.073  1.00  0.00     0.234 C 
HETATM    4  O1  UNL     1       9.435  -5.516  33.258  1.00  0.00    -0.333 OA
HETATM    5  C5  UNL     1       9.216  -4.210  33.844  1.00  0.00     0.168 C 
HETATM    6  C6  UNL     1       8.760  -4.615  35.266  1.00  0.00     0.074 C 
HETATM    7  C7  UNL     1      10.515  -3.345  33.883  1.00  0.00     0.209 C 
ENDROOT
BRANCH   1   8
HETATM    8  N1  UNL     1      12.288  -2.361  32.361  1.00  0.00     0.086 N 
HETATM    9  C1  UNL     1      11.958  -1.011  31.927  1.00  0.00     0.307 C 
HETATM   10  H4  UNL     1      12.743  -2.292  33.274  1.00  0.00     0.316 HD
ENDBRANCH   1   8
BRANCH   7  11
HETATM   11  O2  UNL     1      11.449  -3.928  34.819  1.00  0.00    -0.384 OA
HETATM   12  C8  UNL     1      12.282  -2.951  35.433  1.00  0.00     0.202 C 
ENDBRANCH   7  11
BRANCH   3  13
HETATM   13  N4  UNL     1       9.348  -5.529  30.904  1.00  0.00    -0.316 N 
HETATM   14  C26 UNL     1       9.766  -5.536  29.585  1.00  0.00     0.048 A 
HETATM   15  C21 UNL     1       8.614  -5.436  28.782  1.00  0.00     0.004 A 
HETATM   16  C25 UNL     1      11.057  -5.620  29.030  1.00  0.00     0.030 A 
HETATM   17  C20 UNL     1       7.486  -5.356  29.656  1.00  0.00     0.021 A 
HETATM   18  C22 UNL     1       8.786  -5.425  27.380  1.00  0.00     0.014 A 
HETATM   19  C27 UNL     1       7.997  -5.418  30.942  1.00  0.00     0.077 A 
HETATM   20  C23 UNL     1      10.067  -5.511  26.824  1.00  0.00     0.001 A 
HETATM   21  C24 UNL     1      11.186  -5.605  27.640  1.00  0.00     0.002 A 
BRANCH  17  22
HETATM   22  C19 UNL     1       6.091  -5.232  29.598  1.00  0.00     0.037 A 
HETATM   23  C16 UNL     1       5.215  -6.141  28.955  1.00  0.00    -0.012 A 
HETATM   24  C15 UNL     1       5.682  -7.284  28.287  1.00  0.00     0.015 C 
HETATM   25  C17 UNL     1       3.810  -5.651  29.169  1.00  0.00     0.162 A 
HETATM   26  C14 UNL     1       5.113  -8.407  27.631  1.00  0.00     0.004 A 
HETATM   27  C28 UNL     1       7.051  -7.463  28.253  1.00  0.00     0.077 C 
HETATM   28  C9  UNL     1       6.169  -9.246  27.234  1.00  0.00     0.049 A 
HETATM   29  C13 UNL     1       3.782  -8.809  27.385  1.00  0.00     0.014 A 
HETATM   30  N2  UNL     1       7.363  -8.585  27.535  1.00  0.00    -0.308 N 
HETATM   31  C10 UNL     1       5.902 -10.500  26.649  1.00  0.00     0.030 A 
HETATM   32  C11 UNL     1       4.574 -10.876  26.424  1.00  0.00     0.002 A 
HETATM   33  C12 UNL     1       3.525 -10.038  26.776  1.00  0.00     0.001 A 
HETATM   34  N3  UNL     1       3.916  -4.394  29.968  1.00  0.00    -0.366 N 
HETATM   35  C18 UNL     1       5.189  -4.250  30.151  1.00  0.00     0.148 A 
ATOM     36  H3  UNL     1       3.161  -3.790  30.293  1.00  0.00     0.162 HD
BRANCH  35  37
HETATM   37  O3  UNL     1       5.648  -3.211  30.837  1.00  0.00    -0.346 OA
HETATM   38  H22 UNL     1       4.877  -2.684  31.106  1.00  0.00     0.219 HD
ENDBRANCH  35  37
ENDBRANCH  17  22
ENDBRANCH   3  13
TORSDOF 7
ENDMDL
MODEL 2
REMARK minimizedAffinity -10.1897688
REMARK  7 active torsions:
REMARK  status: ('A' for Active; 'I' for Inactive)
REMARK    1  A    between atoms: N1_2  and  C2_3 
REMARK    2  A    between atoms: C4_5  and  N4_34 
REMARK    3  A    between atoms: C5_7  and  N2_12 
REMARK    4  A    between atoms: C7_9  and  O2_10 
REMARK    5  A    between atoms: C18_24  and  O3_25 
REMARK    6  A    between atoms: C19_26  and  C20_27 
REMARK    7  A    between atoms: C27_35  and  C28_36 
ROOT
HETATM    1  C2  UNL     1      10.950  -3.315  32.157  1.00  0.00     0.257 C 
HETATM    2  C3  UNL     1      11.941  -4.465  31.982  1.00  0.00     0.092 C 
HETATM    3  C4  UNL     1      11.234  -5.813  31.858  1.00  0.00     0.234 C 
HETATM    4  O1  UNL     1      10.174  -6.047  32.777  1.00  0.00    -0.333 OA
HETATM    5  C5  UNL     1       9.267  -4.966  33.103  1.00  0.00     0.168 C 
HETATM    6  C6  UNL     1       8.633  -5.516  34.403  1.00  0.00     0.074 C 
HETATM    7  C7  UNL     1      10.008  -3.616  33.353  1.00  0.00     0.209 C 
ENDROOT
BRANCH   1   8
HETATM    8  N1  UNL     1      11.560  -1.965  32.216  1.00  0.00     0.086 N 
HETATM    9  C1  UNL     1      10.780  -0.883  31.631  1.00  0.00     0.307 C 
HETATM   10  H4  UNL     1      11.736  -1.728  33.195  1.00  0.00     0.316 HD
ENDBRANCH   1   8
BRANCH   7  11
HETATM   11  O2  UNL     1      10.786  -3.717  34.568  1.00  0.00    -0.384 OA
HETATM   12  C8  UNL     1      11.732  -2.661  34.695  1.00  0.00     0.202 C 
ENDBRANCH   7  11
BRANCH   3  13
HETATM   13  N4  UNL     1      10.787  -6.121  30.503  1.00  0.00    -0.316 N 
HETATM   14  C26 UNL     1      10.838  -5.262  29.420  1.00  0.00     0.048 A 
HETATM   15  C21 UNL     1      10.323  -5.958  28.311  1.00  0.00     0.004 A 
HETATM   16  C25 UNL     1      11.292  -3.933  29.322  1.00  0.00     0.030 A 
HETATM   17  C20 UNL     1       9.947  -7.263  28.759  1.00  0.00     0.021 A 
HETATM   18  C22 UNL     1      10.273  -5.281  27.073  1.00  0.00     0.014 A 
HETATM   19  C27 UNL     1      10.254  -7.304  30.109  1.00  0.00     0.077 A 
HETATM   20  C23 UNL     1      10.725  -3.962  26.968  1.00  0.00     0.001 A 
HETATM   21  C24 UNL     1      11.226  -3.298  28.080  1.00  0.00     0.002 A 
BRANCH  17  22
HETATM   22  C19 UNL     1       9.381  -8.445  28.263  1.00  0.00     0.037 A 
HETATM   23  C16 UNL     1       7.993  -8.683  28.107  1.00  0.00    -0.012 A 
HETATM   24  C15 UNL     1       7.026  -7.728  28.455  1.00  0.00     0.015 C 
HETATM   25  C17 UNL     1       7.829 -10.053  27.508  1.00  0.00     0.162 A 
HETATM   26  C14 UNL     1       5.614  -7.598  28.363  1.00  0.00     0.004 A 
HETATM   27  C28 UNL     1       7.492  -6.547  28.998  1.00  0.00     0.077 C 
HETATM   28  C9  UNL     1       5.274  -6.320  28.843  1.00  0.00     0.049 A 
HETATM   29  C13 UNL     1       4.598  -8.441  27.864  1.00  0.00     0.014 A 
HETATM   30  N2  UNL     1       6.445  -5.732  29.331  1.00  0.00    -0.308 N 
HETATM   31  C10 UNL     1       3.943  -5.865  28.773  1.00  0.00     0.030 A 
HETATM   32  C11 UNL     1       2.957  -6.718  28.266  1.00  0.00     0.002 A 
HETATM   33  C12 UNL     1       3.276  -7.996  27.827  1.00  0.00     0.001 A 
HETATM   34  N3  UNL     1       9.204 -10.607  27.333  1.00  0.00    -0.366 N 
HETATM   35  C18 UNL     1       9.975  -9.663  27.769  1.00  0.00     0.148 A 
ATOM     36  H3  UNL     1       9.472 -11.516  26.957  1.00  0.00     0.162 HD
BRANCH  35  37
HETATM   37  O3  UNL     1      11.293  -9.825  27.760  1.00  0.00    -0.346 OA
HETATM   38  H22 UNL     1      11.469 -10.709  27.396  1.00  0.00     0.219 HD
ENDBRANCH  35  37
ENDBRANCH  17  22
ENDBRANCH   3  13
TORSDOF 7
ENDMDL
MODEL 3
REMARK minimizedAffinity -9.79698372
REMARK  7 active torsions:
REMARK  status: ('A' for Active; 'I' for Inactive)
REMARK    1  A    between atoms: N1_2  and  C2_3 
REMARK    2  A    between atoms: C4_5  and  N4_34 
REMARK    3  A    between atoms: C5_7  and  N2_12 
REMARK    4  A    between atoms: C7_9  and  O2_10 
REMARK    5  A    between atoms: C18_24  and  O3_25 
REMARK    6  A    between atoms: C19_26  and  C20_27 
REMARK    7  A    between atoms: C27_35  and  C28_36 
ROOT
HETATM    1  C2  UNL     1       8.648  -8.902  25.208  1.00  0.00     0.257 C 
HETATM    2  C3  UNL     1       7.332  -8.987  25.979  1.00  0.00     0.092 C 
HETATM    3  C4  UNL     1       7.547  -8.889  27.488  1.00  0.00     0.234 C 
HETATM    4  O1  UNL     1       8.621  -9.660  28.014  1.00  0.00    -0.333 OA
HETATM    5  C5  UNL     1       9.863  -9.743  27.275  1.00  0.00     0.168 C 
HETATM    6  C6  UNL     1      10.504 -10.982  27.945  1.00  0.00     0.074 C 
HETATM    7  C7  UNL     1       9.637  -9.970  25.747  1.00  0.00     0.209 C 
ENDROOT
BRANCH   1   8
HETATM    8  N1  UNL     1       8.512  -8.921  23.731  1.00  0.00     0.086 N 
HETATM    9  C1  UNL     1       9.716  -9.255  22.983  1.00  0.00     0.307 C 
HETATM   10  H4  UNL     1       7.789  -9.598  23.478  1.00  0.00     0.316 HD
ENDBRANCH   1   8
BRANCH   7  11
HETATM   11  O2  UNL     1       9.088 -11.290  25.537  1.00  0.00    -0.384 OA
HETATM   12  C8  UNL     1       7.672 -11.270  25.384  1.00  0.00     0.202 C 
ENDBRANCH   7  11
BRANCH   3  13
HETATM   13  N4  UNL     1       7.636  -7.520  27.983  1.00  0.00    -0.316 N 
HETATM   14  C26 UNL     1       6.571  -6.737  28.393  1.00  0.00     0.048 A 
HETATM   15  C21 UNL     1       7.098  -5.499  28.804  1.00  0.00     0.004 A 
HETATM   16  C25 UNL     1       5.192  -7.013  28.437  1.00  0.00     0.030 A 
HETATM   17  C20 UNL     1       8.515  -5.550  28.618  1.00  0.00     0.021 A 
HETATM   18  C22 UNL     1       6.194  -4.521  29.273  1.00  0.00     0.014 A 
HETATM   19  C27 UNL     1       8.785  -6.811  28.112  1.00  0.00     0.077 A 
HETATM   20  C23 UNL     1       4.822  -4.789  29.321  1.00  0.00     0.001 A 
HETATM   21  C24 UNL     1       4.330  -6.020  28.906  1.00  0.00     0.002 A 
BRANCH  17  22
HETATM   22  C19 UNL     1       9.647  -4.741  28.778  1.00  0.00     0.037 A 
HETATM   23  C16 UNL     1      10.133  -4.252  30.016  1.00  0.00    -0.012 A 
HETATM   24  C15 UNL     1       9.497  -4.536  31.235  1.00  0.00     0.015 C 
HETATM   25  C17 UNL     1      11.384  -3.465  29.737  1.00  0.00     0.162 A 
HETATM   26  C14 UNL     1       9.738  -4.293  32.613  1.00  0.00     0.004 A 
HETATM   27  C28 UNL     1       8.342  -5.290  31.167  1.00  0.00     0.077 C 
HETATM   28  C9  UNL     1       8.718  -4.932  33.341  1.00  0.00     0.049 A 
HETATM   29  C13 UNL     1      10.769  -3.625  33.309  1.00  0.00     0.014 A 
HETATM   30  N2  UNL     1       7.807  -5.450  32.416  1.00  0.00    -0.308 N 
HETATM   31  C10 UNL     1       8.755  -4.954  34.749  1.00  0.00     0.030 A 
HETATM   32  C11 UNL     1       9.793  -4.291  35.413  1.00  0.00     0.002 A 
HETATM   33  C12 UNL     1      10.782  -3.623  34.704  1.00  0.00     0.001 A 
HETATM   34  N3  UNL     1      11.596  -3.514  28.260  1.00  0.00    -0.366 N 
HETATM   35  C18 UNL     1      10.605  -4.227  27.830  1.00  0.00     0.148 A 
ATOM     36  H3  UNL     1      12.346  -3.086  27.718  1.00  0.00     0.162 HD
BRANCH  35  37
HETATM   37  O3  UNL     1      10.481  -4.476  26.531  1.00  0.00    -0.346 OA
HETATM   38  H22 UNL     1      11.223  -4.034  26.085  1.00  0.00     0.219 HD
ENDBRANCH  35  37
ENDBRANCH  17  22
ENDBRANCH   3  13
TORSDOF 7
ENDMDL
MODEL 4
REMARK minimizedAffinity -9.57345867
REMARK  7 active torsions:
REMARK  status: ('A' for Active; 'I' for Inactive)
REMARK    1  A    between atoms: N1_2  and  C2_3 
REMARK    2  A    between atoms: C4_5  and  N4_34 
REMARK    3  A    between atoms: C5_7  and  N2_12 
REMARK    4  A    between atoms: C7_9  and  O2_10 
REMARK    5  A    between atoms: C18_24  and  O3_25 
REMARK    6  A    between atoms: C19_26  and  C20_27 
REMARK    7  A    between atoms: C27_35  and  C28_36 
ROOT
HETATM    1  C2  UNL     1       5.124  -6.017  28.688  1.00  0.00     0.257 C 
HETATM    2  C3  UNL     1       5.661  -6.915  29.801  1.00  0.00     0.092 C 
HETATM    3  C4  UNL     1       6.521  -8.052  29.251  1.00  0.00     0.234 C 
HETATM    4  O1  UNL     1       6.005  -8.726  28.109  1.00  0.00    -0.333 OA
HETATM    5  C5  UNL     1       5.356  -7.959  27.066  1.00  0.00     0.168 C 
HETATM    6  C6  UNL     1       4.592  -9.082  26.327  1.00  0.00     0.074 C 
HETATM    7  C7  UNL     1       4.381  -6.880  27.634  1.00  0.00     0.209 C 
ENDROOT
BRANCH   1   8
HETATM    8  N1  UNL     1       4.335  -4.849  29.151  1.00  0.00     0.086 N 
HETATM    9  C1  UNL     1       4.786  -4.221  30.385  1.00  0.00     0.307 C 
HETATM   10  H4  UNL     1       4.344  -4.137  28.417  1.00  0.00     0.316 HD
ENDBRANCH   1   8
BRANCH   7  11
HETATM   11  O2  UNL     1       3.252  -7.536  28.254  1.00  0.00    -0.384 OA
HETATM   12  C8  UNL     1       2.017  -6.899  27.945  1.00  0.00     0.202 C 
ENDBRANCH   7  11
BRANCH   3  13
HETATM   13  N4  UNL     1       7.911  -7.678  29.015  1.00  0.00    -0.316 N 
HETATM   14  C26 UNL     1       8.998  -8.531  29.071  1.00  0.00     0.048 A 
HETATM   15  C21 UNL     1      10.142  -7.769  28.768  1.00  0.00     0.004 A 
HETATM   16  C25 UNL     1       9.074  -9.906  29.363  1.00  0.00     0.030 A 
HETATM   17  C20 UNL     1       9.715  -6.424  28.538  1.00  0.00     0.021 A 
HETATM   18  C22 UNL     1      11.391  -8.429  28.760  1.00  0.00     0.014 A 
HETATM   19  C27 UNL     1       8.340  -6.429  28.704  1.00  0.00     0.077 A 
HETATM   20  C23 UNL     1      11.471  -9.795  29.047  1.00  0.00     0.001 A 
HETATM   21  C24 UNL     1      10.326 -10.522  29.346  1.00  0.00     0.002 A 
BRANCH  17  22
HETATM   22  C19 UNL     1      10.250  -5.169  28.222  1.00  0.00     0.037 A 
HETATM   23  C16 UNL     1      10.669  -4.197  29.165  1.00  0.00    -0.012 A 
HETATM   24  C15 UNL     1      10.576  -4.409  30.549  1.00  0.00     0.015 C 
HETATM   25  C17 UNL     1      11.214  -3.023  28.399  1.00  0.00     0.162 A 
HETATM   26  C14 UNL     1      10.957  -3.723  31.732  1.00  0.00     0.004 A 
HETATM   27  C28 UNL     1      10.014  -5.604  30.953  1.00  0.00     0.077 C 
HETATM   28  C9  UNL     1      10.626  -4.544  32.825  1.00  0.00     0.049 A 
HETATM   29  C13 UNL     1      11.605  -2.490  31.966  1.00  0.00     0.014 A 
HETATM   30  N2  UNL     1       9.945  -5.656  32.319  1.00  0.00    -0.308 N 
HETATM   31  C10 UNL     1      10.988  -4.170  34.133  1.00  0.00     0.030 A 
HETATM   32  C11 UNL     1      11.636  -2.947  34.336  1.00  0.00     0.002 A 
HETATM   33  C12 UNL     1      11.932  -2.110  33.269  1.00  0.00     0.001 A 
HETATM   34  N3  UNL     1      11.078  -3.359  26.951  1.00  0.00    -0.366 N 
HETATM   35  C18 UNL     1      10.546  -4.540  26.957  1.00  0.00     0.148 A 
ATOM     36  H3  UNL     1      11.341  -2.792  26.146  1.00  0.00     0.162 HD
BRANCH  35  37
HETATM   37  O3  UNL     1      10.281  -5.155  25.811  1.00  0.00    -0.346 OA
HETATM   38  H22 UNL     1      10.554  -4.554  25.096  1.00  0.00     0.219 HD
ENDBRANCH  35  37
ENDBRANCH  17  22
ENDBRANCH   3  13
TORSDOF 7
ENDMDL
MODEL 5
REMARK minimizedAffinity -9.47942734
REMARK  7 active torsions:
REMARK  status: ('A' for Active; 'I' for Inactive)
REMARK    1  A    between atoms: N1_2  and  C2_3 
REMARK    2  A    between atoms: C4_5  and  N4_34 
REMARK    3  A    between atoms: C5_7  and  N2_12 
REMARK    4  A    between atoms: C7_9  and  O2_10 
REMARK    5  A    between atoms: C18_24  and  O3_25 
REMARK    6  A    between atoms: C19_26  and  C20_27 
REMARK    7  A    between atoms: C27_35  and  C28_36 
ROOT
HETATM    1  C2  UNL     1      10.313  -3.383  31.641  1.00  0.00     0.257 C 
HETATM    2  C3  UNL     1      10.687  -4.783  31.157  1.00  0.00     0.092 C 
HETATM    3  C4  UNL     1       9.616  -5.813  31.511  1.00  0.00     0.234 C 
HETATM    4  O1  UNL     1       9.090  -5.736  32.831  1.00  0.00    -0.333 OA
HETATM    5  C5  UNL     1       8.834  -4.437  33.418  1.00  0.00     0.168 C 
HETATM    6  C6  UNL     1       8.737  -4.820  34.913  1.00  0.00     0.074 C 
HETATM    7  C7  UNL     1       9.993  -3.423  33.159  1.00  0.00     0.209 C 
ENDROOT
BRANCH   1   8
HETATM    8  N1  UNL     1      11.275  -2.315  31.273  1.00  0.00     0.086 N 
HETATM    9  C1  UNL     1      10.858  -0.951  31.564  1.00  0.00     0.307 C 
HETATM   10  H4  UNL     1      12.155  -2.484  31.766  1.00  0.00     0.316 HD
ENDBRANCH   1   8
BRANCH   7  11
HETATM   11  O2  UNL     1      11.167  -3.844  33.891  1.00  0.00    -0.384 OA
HETATM   12  C8  UNL     1      11.730  -2.790  34.664  1.00  0.00     0.202 C 
ENDBRANCH   7  11
BRANCH   3  13
HETATM   13  N4  UNL     1       8.521  -5.878  30.549  1.00  0.00    -0.316 N 
HETATM   14  C26 UNL     1       7.447  -5.009  30.486  1.00  0.00     0.048 A 
HETATM   15  C21 UNL     1       6.639  -5.421  29.410  1.00  0.00     0.004 A 
HETATM   16  C25 UNL     1       7.117  -3.897  31.283  1.00  0.00     0.030 A 
HETATM   17  C20 UNL     1       7.251  -6.577  28.831  1.00  0.00     0.021 A 
HETATM   18  C22 UNL     1       5.469  -4.678  29.141  1.00  0.00     0.014 A 
HETATM   19  C27 UNL     1       8.399  -6.809  29.570  1.00  0.00     0.077 A 
HETATM   20  C23 UNL     1       5.137  -3.571  29.928  1.00  0.00     0.001 A 
HETATM   21  C24 UNL     1       5.952  -3.188  30.986  1.00  0.00     0.002 A 
BRANCH  17  22
HETATM   22  C19 UNL     1       7.038  -7.498  27.797  1.00  0.00     0.037 A 
HETATM   23  C16 UNL     1       7.973  -7.820  26.783  1.00  0.00    -0.012 A 
HETATM   24  C15 UNL     1       9.239  -7.219  26.715  1.00  0.00     0.015 C 
HETATM   25  C17 UNL     1       7.355  -8.878  25.910  1.00  0.00     0.162 A 
HETATM   26  C14 UNL     1      10.410  -7.351  25.922  1.00  0.00     0.004 A 
HETATM   27  C28 UNL     1       9.519  -6.260  27.669  1.00  0.00     0.077 C 
HETATM   28  C9  UNL     1      11.376  -6.471  26.442  1.00  0.00     0.049 A 
HETATM   29  C13 UNL     1      10.750  -8.185  24.835  1.00  0.00     0.014 A 
HETATM   30  N2  UNL     1      10.762  -5.729  27.455  1.00  0.00    -0.308 N 
HETATM   31  C10 UNL     1      12.685  -6.461  25.921  1.00  0.00     0.030 A 
HETATM   32  C11 UNL     1      12.996  -7.304  24.849  1.00  0.00     0.002 A 
HETATM   33  C12 UNL     1      12.040  -8.148  24.302  1.00  0.00     0.001 A 
HETATM   34  N3  UNL     1       5.997  -9.148  26.468  1.00  0.00    -0.366 N 
HETATM   35  C18 UNL     1       5.918  -8.354  27.487  1.00  0.00     0.148 A 
ATOM     36  H3  UNL     1       5.296  -9.805  26.126  1.00  0.00     0.162 HD
BRANCH  35  37
HETATM   37  O3  UNL     1       4.817  -8.333  28.229  1.00  0.00    -0.346 OA
HETATM   38  H22 UNL     1       4.200  -8.976  27.840  1.00  0.00     0.219 HD
ENDBRANCH  35  37
ENDBRANCH  17  22
ENDBRANCH   3  13
TORSDOF 7
ENDMDL
MODEL 6
REMARK minimizedAffinity -9.15244293
REMARK  7 active torsions:
REMARK  status: ('A' for Active; 'I' for Inactive)
REMARK    1  A    between atoms: N1_2  and  C2_3 
REMARK    2  A    between atoms: C4_5  and  N4_34 
REMARK    3  A    between atoms: C5_7  and  N2_12 
REMARK    4  A    between atoms: C7_9  and  O2_10 
REMARK    5  A    between atoms: C18_24  and  O3_25 
REMARK    6  A    between atoms: C19_26  and  C20_27 
REMARK    7  A    between atoms: C27_35  and  C28_36 
ROOT
HETATM    1  C2  UNL     1      11.157  -3.492  32.127  1.00  0.00     0.257 C 
HETATM    2  C3  UNL     1      11.547  -4.918  31.744  1.00  0.00     0.092 C 
HETATM    3  C4  UNL     1      10.347  -5.863  31.760  1.00  0.00     0.234 C 
HETATM    4  O1  UNL     1       9.475  -5.741  32.878  1.00  0.00    -0.333 OA
HETATM    5  C5  UNL     1       9.160  -4.425  33.393  1.00  0.00     0.168 C 
HETATM    6  C6  UNL     1       8.614  -4.794  34.792  1.00  0.00     0.074 C 
HETATM    7  C7  UNL     1      10.417  -3.503  33.492  1.00  0.00     0.209 C 
ENDROOT
BRANCH   1   8
HETATM    8  N1  UNL     1      12.260  -2.502  32.067  1.00  0.00     0.086 N 
HETATM    9  C1  UNL     1      11.862  -1.110  31.914  1.00  0.00     0.307 C 
HETATM   10  H4  UNL     1      12.813  -2.576  32.924  1.00  0.00     0.316 HD
ENDBRANCH   1   8
BRANCH   7  11
HETATM   11  O2  UNL     1      11.300  -4.010  34.518  1.00  0.00    -0.384 OA
HETATM   12  C8  UNL     1      11.957  -2.968  35.231  1.00  0.00     0.202 C 
ENDBRANCH   7  11
BRANCH   3  13
HETATM   13  N4  UNL     1       9.569  -5.847  30.526  1.00  0.00    -0.316 N 
HETATM   14  C26 UNL     1       8.286  -5.347  30.385  1.00  0.00     0.048 A 
HETATM   15  C21 UNL     1       7.919  -5.517  29.037  1.00  0.00     0.004 A 
HETATM   16  C25 UNL     1       7.420  -4.762  31.327  1.00  0.00     0.030 A 
HETATM   17  C20 UNL     1       9.014  -6.147  28.368  1.00  0.00     0.021 A 
HETATM   18  C22 UNL     1       6.637  -5.075  28.643  1.00  0.00     0.014 A 
HETATM   19  C27 UNL     1       9.995  -6.325  29.330  1.00  0.00     0.077 A 
HETATM   20  C23 UNL     1       5.772  -4.491  29.574  1.00  0.00     0.001 A 
HETATM   21  C24 UNL     1       6.160  -4.339  30.898  1.00  0.00     0.002 A 
BRANCH  17  22
HETATM   22  C19 UNL     1       9.365  -6.620  27.097  1.00  0.00     0.037 A 
HETATM   23  C16 UNL     1       8.677  -7.633  26.383  1.00  0.00    -0.012 A 
HETATM   24  C15 UNL     1       7.547  -8.281  26.906  1.00  0.00     0.015 C 
HETATM   25  C17 UNL     1       9.360  -7.800  25.054  1.00  0.00     0.162 A 
HETATM   26  C14 UNL     1       6.601  -9.240  26.459  1.00  0.00     0.004 A 
HETATM   27  C28 UNL     1       7.157  -7.910  28.178  1.00  0.00     0.077 C 
HETATM   28  C9  UNL     1       5.648  -9.405  27.481  1.00  0.00     0.049 A 
HETATM   29  C13 UNL     1       6.443  -9.947  25.247  1.00  0.00     0.014 A 
HETATM   30  N2  UNL     1       6.078  -8.650  28.577  1.00  0.00    -0.308 N 
HETATM   31  C10 UNL     1       4.519 -10.222  27.277  1.00  0.00     0.030 A 
HETATM   32  C11 UNL     1       4.384 -10.905  26.063  1.00  0.00     0.002 A 
HETATM   33  C12 UNL     1       5.338 -10.780  25.063  1.00  0.00     0.001 A 
HETATM   34  N3  UNL     1      10.497  -6.833  25.037  1.00  0.00    -0.366 N 
HETATM   35  C18 UNL     1      10.417  -6.241  26.185  1.00  0.00     0.148 A 
ATOM     36  H3  UNL     1      11.178  -6.675  24.294  1.00  0.00     0.162 HD
BRANCH  35  37
HETATM   37  O3  UNL     1      11.295  -5.300  26.510  1.00  0.00    -0.346 OA
HETATM   38  H22 UNL     1      11.908  -5.212  25.761  1.00  0.00     0.219 HD
ENDBRANCH  35  37
ENDBRANCH  17  22
ENDBRANCH   3  13
TORSDOF 7
ENDMDL
MODEL 7
REMARK minimizedAffinity -8.88735962
REMARK  7 active torsions:
REMARK  status: ('A' for Active; 'I' for Inactive)
REMARK    1  A    between atoms: N1_2  and  C2_3 
REMARK    2  A    between atoms: C4_5  and  N4_34 
REMARK    3  A    between atoms: C5_7  and  N2_12 
REMARK    4  A    between atoms: C7_9  and  O2_10 
REMARK    5  A    between atoms: C18_24  and  O3_25 
REMARK    6  A    between atoms: C19_26  and  C20_27 
REMARK    7  A    between atoms: C27_35  and  C28_36 
ROOT
HETATM    1  C2  UNL     1      11.296  -7.930  28.655  1.00  0.00     0.257 C 
HETATM    2  C3  UNL     1      11.691  -6.511  29.062  1.00  0.00     0.092 C 
HETATM    3  C4  UNL     1      10.639  -5.485  28.646  1.00  0.00     0.234 C 
HETATM    4  O1  UNL     1      10.117  -5.627  27.330  1.00  0.00    -0.333 OA
HETATM    5  C5  UNL     1       9.842  -6.952  26.815  1.00  0.00     0.168 C 
HETATM    6  C6  UNL     1       9.757  -6.651  25.300  1.00  0.00     0.074 C 
HETATM    7  C7  UNL     1      10.983  -7.969  27.136  1.00  0.00     0.209 C 
ENDROOT
BRANCH   1   8
HETATM    8  N1  UNL     1      12.238  -8.991  29.086  1.00  0.00     0.086 N 
HETATM    9  C1  UNL     1      12.782  -8.857  30.431  1.00  0.00     0.307 C 
HETATM   10  H4  UNL     1      11.762  -9.894  29.031  1.00  0.00     0.316 HD
ENDBRANCH   1   8
BRANCH   7  11
HETATM   11  O2  UNL     1      12.166  -7.609  26.387  1.00  0.00    -0.384 OA
HETATM   12  C8  UNL     1      12.373  -6.201  26.345  1.00  0.00     0.202 C 
ENDBRANCH   7  11
BRANCH   3  13
HETATM   13  N4  UNL     1       9.542  -5.348  29.598  1.00  0.00    -0.316 N 
HETATM   14  C26 UNL     1       9.656  -5.391  30.976  1.00  0.00     0.048 A 
HETATM   15  C21 UNL     1       8.367  -5.205  31.508  1.00  0.00     0.004 A 
HETATM   16  C25 UNL     1      10.783  -5.578  31.799  1.00  0.00     0.030 A 
HETATM   17  C20 UNL     1       7.464  -5.061  30.408  1.00  0.00     0.021 A 
HETATM   18  C22 UNL     1       8.226  -5.208  32.913  1.00  0.00     0.014 A 
HETATM   19  C27 UNL     1       8.241  -5.158  29.265  1.00  0.00     0.077 A 
HETATM   20  C23 UNL     1       9.342  -5.391  33.736  1.00  0.00     0.001 A 
HETATM   21  C24 UNL     1      10.603  -5.574  33.183  1.00  0.00     0.002 A 
BRANCH  17  22
HETATM   22  C19 UNL     1       6.099  -4.870  30.160  1.00  0.00     0.037 A 
HETATM   23  C16 UNL     1       5.277  -5.741  29.402  1.00  0.00    -0.012 A 
HETATM   24  C15 UNL     1       5.774  -6.908  28.803  1.00  0.00     0.015 C 
HETATM   25  C17 UNL     1       3.880  -5.183  29.423  1.00  0.00     0.162 A 
HETATM   26  C14 UNL     1       5.248  -8.007  28.075  1.00  0.00     0.004 A 
HETATM   27  C28 UNL     1       7.125  -7.152  28.956  1.00  0.00     0.077 C 
HETATM   28  C9  UNL     1       6.307  -8.898  27.824  1.00  0.00     0.049 A 
HETATM   29  C13 UNL     1       3.945  -8.347  27.648  1.00  0.00     0.014 A 
HETATM   30  N2  UNL     1       7.479  -8.291  28.287  1.00  0.00    -0.308 N 
HETATM   31  C10 UNL     1       6.063 -10.140  27.208  1.00  0.00     0.030 A 
HETATM   32  C11 UNL     1       4.761 -10.454  26.803  1.00  0.00     0.002 A 
HETATM   33  C12 UNL     1       3.715  -9.566  27.009  1.00  0.00     0.001 A 
HETATM   34  N3  UNL     1       3.935  -3.928  30.230  1.00  0.00    -0.366 N 
HETATM   35  C18 UNL     1       5.177  -3.844  30.585  1.00  0.00     0.148 A 
ATOM     36  H3  UNL     1       3.173  -3.288  30.449  1.00  0.00     0.162 HD
BRANCH  35  37
HETATM   37  O3  UNL     1       5.588  -2.824  31.329  1.00  0.00    -0.346 OA
HETATM   38  H22 UNL     1       4.813  -2.260  31.490  1.00  0.00     0.219 HD
ENDBRANCH  35  37
ENDBRANCH  17  22
ENDBRANCH   3  13
TORSDOF 7
ENDMDL
MODEL 8
REMARK minimizedAffinity -8.73992538
REMARK  7 active torsions:
REMARK  status: ('A' for Active; 'I' for Inactive)
REMARK    1  A    between atoms: N1_2  and  C2_3 
REMARK    2  A    between atoms: C4_5  and  N4_34 
REMARK    3  A    between atoms: C5_7  and  N2_12 
REMARK    4  A    between atoms: C7_9  and  O2_10 
REMARK    5  A    between atoms: C18_24  and  O3_25 
REMARK    6  A    between atoms: C19_26  and  C20_27 
REMARK    7  A    between atoms: C27_35  and  C28_36 
ROOT
HETATM    1  C2  UNL     1      10.149  -3.904  31.427  1.00  0.00     0.257 C 
HETATM    2  C3  UNL     1       9.866  -5.353  31.820  1.00  0.00     0.092 C 
HETATM    3  C4  UNL     1       8.551  -5.858  31.229  1.00  0.00     0.234 C 
HETATM    4  O1  UNL     1       7.446  -4.967  31.319  1.00  0.00    -0.333 OA
HETATM    5  C5  UNL     1       7.655  -3.552  31.094  1.00  0.00     0.168 C 
HETATM    6  C6  UNL     1       6.367  -2.975  31.727  1.00  0.00     0.074 C 
HETATM    7  C7  UNL     1       8.936  -3.014  31.807  1.00  0.00     0.209 C 
ENDROOT
BRANCH   1   8
HETATM    8  N1  UNL     1      11.444  -3.366  31.910  1.00  0.00     0.086 N 
HETATM    9  C1  UNL     1      12.185  -4.212  32.835  1.00  0.00     0.307 C 
HETATM   10  H4  UNL     1      12.045  -3.186  31.102  1.00  0.00     0.316 HD
ENDBRANCH   1   8
BRANCH   7  11
HETATM   11  O2  UNL     1       8.736  -3.052  33.238  1.00  0.00    -0.384 OA
HETATM   12  C8  UNL     1       9.621  -3.960  33.885  1.00  0.00     0.202 C 
ENDBRANCH   7  11
BRANCH   3  13
HETATM   13  N4  UNL     1       8.673  -6.354  29.862  1.00  0.00    -0.316 N 
HETATM   14  C26 UNL     1       9.324  -5.713  28.824  1.00  0.00     0.048 A 
HETATM   15  C21 UNL     1       9.214  -6.538  27.689  1.00  0.00     0.004 A 
HETATM   16  C25 UNL     1       9.999  -4.478  28.786  1.00  0.00     0.030 A 
HETATM   17  C20 UNL     1       8.464  -7.694  28.069  1.00  0.00     0.021 A 
HETATM   18  C22 UNL     1       9.810  -6.092  26.489  1.00  0.00     0.014 A 
HETATM   19  C27 UNL     1       8.160  -7.526  29.410  1.00  0.00     0.077 A 
HETATM   20  C23 UNL     1      10.484  -4.867  26.446  1.00  0.00     0.001 A 
HETATM   21  C24 UNL     1      10.575  -4.072  27.581  1.00  0.00     0.002 A 
BRANCH  17  22
HETATM   22  C19 UNL     1       7.965  -8.879  27.512  1.00  0.00     0.037 A 
HETATM   23  C16 UNL     1       6.593  -9.190  27.347  1.00  0.00    -0.012 A 
HETATM   24  C15 UNL     1       5.573  -8.312  27.747  1.00  0.00     0.015 C 
HETATM   25  C17 UNL     1       6.506 -10.534  26.676  1.00  0.00     0.162 A 
HETATM   26  C14 UNL     1       4.157  -8.261  27.665  1.00  0.00     0.004 A 
HETATM   27  C28 UNL     1       5.973  -7.137  28.351  1.00  0.00     0.077 C 
HETATM   28  C9  UNL     1       3.744  -7.032  28.212  1.00  0.00     0.049 A 
HETATM   29  C13 UNL     1       3.189  -9.134  27.123  1.00  0.00     0.014 A 
HETATM   30  N2  UNL     1       4.881  -6.404  28.728  1.00  0.00    -0.308 N 
HETATM   31  C10 UNL     1       2.389  -6.652  28.169  1.00  0.00     0.030 A 
HETATM   32  C11 UNL     1       1.452  -7.534  27.619  1.00  0.00     0.002 A 
HETATM   33  C12 UNL     1       1.843  -8.766  27.112  1.00  0.00     0.001 A 
HETATM   34  N3  UNL     1       7.910 -10.996  26.469  1.00  0.00    -0.366 N 
HETATM   35  C18 UNL     1       8.627 -10.033  26.954  1.00  0.00     0.148 A 
ATOM     36  H3  UNL     1       8.229 -11.867  26.045  1.00  0.00     0.162 HD
BRANCH  35  37
HETATM   37  O3  UNL     1       9.952 -10.117  26.933  1.00  0.00    -0.346 OA
HETATM   38  H22 UNL     1      10.177 -10.969  26.523  1.00  0.00     0.219 HD
ENDBRANCH  35  37
ENDBRANCH  17  22
ENDBRANCH   3  13
TORSDOF 7
ENDMDL
MODEL 9
REMARK minimizedAffinity -8.72086334
REMARK  7 active torsions:
REMARK  status: ('A' for Active; 'I' for Inactive)
REMARK    1  A    between atoms: N1_2  and  C2_3 
REMARK    2  A    between atoms: C4_5  and  N4_34 
REMARK    3  A    between atoms: C5_7  and  N2_12 
REMARK    4  A    between atoms: C7_9  and  O2_10 
REMARK    5  A    between atoms: C18_24  and  O3_25 
REMARK    6  A    between atoms: C19_26  and  C20_27 
REMARK    7  A    between atoms: C27_35  and  C28_36 
ROOT
HETATM    1  C2  UNL     1      12.944 -10.315  28.525  1.00  0.00     0.257 C 
HETATM    2  C3  UNL     1      12.139 -10.119  29.808  1.00  0.00     0.092 C 
HETATM    3  C4  UNL     1      12.631  -8.917  30.612  1.00  0.00     0.234 C 
HETATM    4  O1  UNL     1      14.043  -8.793  30.744  1.00  0.00    -0.333 OA
HETATM    5  C5  UNL     1      14.891  -9.095  29.610  1.00  0.00     0.168 C 
HETATM    6  C6  UNL     1      16.253  -9.273  30.320  1.00  0.00     0.074 C 
HETATM    7  C7  UNL     1      14.456 -10.397  28.866  1.00  0.00     0.209 C 
ENDROOT
BRANCH   1   8
HETATM    8  N1  UNL     1      12.480 -11.425  27.656  1.00  0.00     0.086 N 
HETATM    9  C1  UNL     1      11.558 -12.372  28.267  1.00  0.00     0.307 C 
HETATM   10  H4  UNL     1      12.018 -11.026  26.835  1.00  0.00     0.316 HD
ENDBRANCH   1   8
BRANCH   7  11
HETATM   11  O2  UNL     1      14.700 -11.537  29.719  1.00  0.00    -0.384 OA
HETATM   12  C8  UNL     1      14.384 -11.272  31.082  1.00  0.00     0.202 C 
ENDBRANCH   7  11
BRANCH   3  13
HETATM   13  N4  UNL     1      12.065  -7.645  30.176  1.00  0.00    -0.316 N 
HETATM   14  C26 UNL     1      12.071  -7.159  28.881  1.00  0.00     0.048 A 
HETATM   15  C21 UNL     1      11.414  -5.914  28.900  1.00  0.00     0.004 A 
HETATM   16  C25 UNL     1      12.598  -7.706  27.696  1.00  0.00     0.030 A 
HETATM   17  C20 UNL     1      11.020  -5.656  30.250  1.00  0.00     0.021 A 
HETATM   18  C22 UNL     1      11.290  -5.215  27.679  1.00  0.00     0.014 A 
HETATM   19  C27 UNL     1      11.446  -6.749  30.985  1.00  0.00     0.077 A 
HETATM   20  C23 UNL     1      11.810  -5.755  26.498  1.00  0.00     0.001 A 
HETATM   21  C24 UNL     1      12.456  -6.984  26.510  1.00  0.00     0.002 A 
BRANCH  17  22
HETATM   22  C19 UNL     1      10.374  -4.671  31.008  1.00  0.00     0.037 A 
HETATM   23  C16 UNL     1       8.984  -4.400  30.982  1.00  0.00    -0.012 A 
HETATM   24  C15 UNL     1       8.098  -5.113  30.160  1.00  0.00     0.015 C 
HETATM   25  C17 UNL     1       8.714  -3.300  31.972  1.00  0.00     0.162 A 
HETATM   26  C14 UNL     1       6.695  -5.165  29.945  1.00  0.00     0.004 A 
HETATM   27  C28 UNL     1       8.656  -6.074  29.340  1.00  0.00     0.077 C 
HETATM   28  C9  UNL     1       6.448  -6.182  29.004  1.00  0.00     0.049 A 
HETATM   29  C13 UNL     1       5.606  -4.467  30.509  1.00  0.00     0.014 A 
HETATM   30  N2  UNL     1       7.688  -6.654  28.566  1.00  0.00    -0.308 N 
HETATM   31  C10 UNL     1       5.126  -6.539  28.672  1.00  0.00     0.030 A 
HETATM   32  C11 UNL     1       4.066  -5.836  29.253  1.00  0.00     0.002 A 
HETATM   33  C12 UNL     1       4.300  -4.804  30.152  1.00  0.00     0.001 A 
HETATM   34  N3  UNL     1      10.031  -2.936  32.572  1.00  0.00    -0.366 N 
HETATM   35  C18 UNL     1      10.868  -3.732  31.987  1.00  0.00     0.148 A 
ATOM     36  H3  UNL     1      10.226  -2.226  33.278  1.00  0.00     0.162 HD
BRANCH  35  37
HETATM   37  O3  UNL     1      12.159  -3.677  32.290  1.00  0.00    -0.346 OA
HETATM   38  H22 UNL     1      12.265  -2.980  32.959  1.00  0.00     0.219 HD
ENDBRANCH  35  37
ENDBRANCH  17  22
ENDBRANCH   3  13
TORSDOF 7
ENDMDL
