MODEL 1
REMARK minimizedAffinity -10.0304279
REMARK  7 active torsions:
REMARK  status: ('A' for Active; 'I' for Inactive)
REMARK    1  A    between atoms: C2_2  and  C30_32 
REMARK    2  A    between atoms: C3_3  and  C4_4 
REMARK    3  A    between atoms: C4_4  and  O1_5 
REMARK    4  A    between atoms: C4_4  and  C5_6 
REMARK    5  A    between atoms: C5_6  and  C6_7 
REMARK    6  A    between atoms: C6_7  and  C8_9 
REMARK    7  A    between atoms: C30_32  and  O3_33 
ROOT
HETATM    1  C8  UNL     1       0.899   6.588  12.298  1.00  0.00    -0.002 C 
HETATM    2  C9  UNL     1       0.966   5.075  11.940  1.00  0.00     0.007 C 
HETATM    3  C10 UNL     1      -0.445   4.495  12.168  1.00  0.00     0.015 C 
HETATM    4  C11 UNL     1      -1.170   5.554  13.023  1.00  0.00    -0.013 C 
HETATM    5  C12 UNL     1      -0.710   5.310  14.500  1.00  0.00     0.021 C 
HETATM    6  C13 UNL     1      -2.696   5.538  13.060  1.00  0.00    -0.070 C 
HETATM    7  C14 UNL     1      -3.403   4.398  12.965  1.00  0.00    -0.022 C 
HETATM    8  C15 UNL     1      -4.886   4.303  13.156  1.00  0.00     0.034 C 
HETATM    9  C16 UNL     1      -5.624   5.661  13.238  1.00  0.00     0.013 C 
HETATM   10  C17 UNL     1      -7.138   5.527  13.638  1.00  0.00     0.018 C 
HETATM   11  C18 UNL     1      -7.429   4.330  14.573  1.00  0.00     0.023 C 
HETATM   12  C19 UNL     1      -7.964   5.304  12.345  1.00  0.00     0.023 C 
HETATM   13  C20 UNL     1      -7.752   6.764  14.312  1.00  0.00     0.135 C 
HETATM   14  O2  UNL     1      -8.928   6.749  14.710  1.00  0.00    -0.297 OA
HETATM   15  C21 UNL     1      -6.950   8.027  14.524  1.00  0.00     0.080 C 
HETATM   16  C22 UNL     1      -5.565   8.059  13.914  1.00  0.00     0.017 C 
HETATM   17  C23 UNL     1      -4.792   6.727  14.024  1.00  0.00    -0.031 C 
HETATM   18  C24 UNL     1      -4.597   6.347  15.508  1.00  0.00     0.016 C 
HETATM   19  C25 UNL     1      -3.395   6.881  13.285  1.00  0.00     0.024 C 
HETATM   20  C26 UNL     1      -2.459   7.957  13.891  1.00  0.00     0.010 C 
HETATM   21  C27 UNL     1      -1.053   8.074  13.255  1.00  0.00     0.011 C 
HETATM   22  C28 UNL     1      -0.638   6.880  12.369  1.00  0.00    -0.029 C 
HETATM   23  C29 UNL     1      -1.173   7.116  10.927  1.00  0.00     0.016 C 
ENDROOT
BRANCH   1  24
HETATM   24  C6  UNL     1       1.901   7.485  11.502  1.00  0.00    -0.011 C 
HETATM   25  C7  UNL     1       2.071   8.932  11.982  1.00  0.00     0.010 C 
BRANCH  24  26
HETATM   26  C5  UNL     1       3.281   6.795  11.352  1.00  0.00     0.040 C 
BRANCH  26  27
HETATM   27  C4  UNL     1       3.330   5.678  10.299  1.00  0.00     0.141 C 
BRANCH  27  28
HETATM   28  C3  UNL     1       2.576   6.044   9.046  1.00  0.00     0.009 C 
HETATM   29  C2  UNL     1       2.656   7.166   8.297  1.00  0.00    -0.062 C 
HETATM   30  C1  UNL     1       1.822   7.291   7.047  1.00  0.00     0.045 C 
BRANCH  29  31
HETATM   31  C30 UNL     1       3.537   8.352   8.610  1.00  0.00     0.198 C 
BRANCH  31  32
HETATM   32  O3  UNL     1       3.354   9.355   7.616  1.00  0.00    -0.397 OA
HETATM   33  H48 UNL     1       3.858   9.075   6.833  1.00  0.00     0.209 HD
ENDBRANCH  31  32
ENDBRANCH  29  31
ENDBRANCH  27  28
BRANCH  27  34
HETATM   34  O1  UNL     1       4.675   5.353   9.976  1.00  0.00    -0.392 OA
HETATM   35  H6  UNL     1       4.641   4.697   9.259  1.00  0.00     0.210 HD
ENDBRANCH  27  34
ENDBRANCH  26  27
ENDBRANCH  24  26
ENDBRANCH   1  24
TORSDOF 7
ENDMDL
MODEL 2
REMARK minimizedAffinity -9.8058424
REMARK  7 active torsions:
REMARK  status: ('A' for Active; 'I' for Inactive)
REMARK    1  A    between atoms: C2_2  and  C30_32 
REMARK    2  A    between atoms: C3_3  and  C4_4 
REMARK    3  A    between atoms: C4_4  and  O1_5 
REMARK    4  A    between atoms: C4_4  and  C5_6 
REMARK    5  A    between atoms: C5_6  and  C6_7 
REMARK    6  A    between atoms: C6_7  and  C8_9 
REMARK    7  A    between atoms: C30_32  and  O3_33 
ROOT
HETATM    1  C8  UNL     1      -5.019   8.067  15.654  1.00  0.00    -0.002 C 
HETATM    2  C9  UNL     1      -4.819   9.600  15.472  1.00  0.00     0.007 C 
HETATM    3  C10 UNL     1      -3.581   9.788  14.572  1.00  0.00     0.015 C 
HETATM    4  C11 UNL     1      -2.867   8.421  14.597  1.00  0.00    -0.013 C 
HETATM    5  C12 UNL     1      -2.036   8.387  15.923  1.00  0.00     0.021 C 
HETATM    6  C13 UNL     1      -1.875   8.099  13.482  1.00  0.00    -0.070 C 
HETATM    7  C14 UNL     1      -1.124   9.048  12.895  1.00  0.00    -0.022 C 
HETATM    8  C15 UNL     1      -0.024   8.773  11.916  1.00  0.00     0.034 C 
HETATM    9  C16 UNL     1       0.054   7.310  11.414  1.00  0.00     0.013 C 
HETATM   10  C17 UNL     1       1.333   7.013  10.551  1.00  0.00     0.018 C 
HETATM   11  C18 UNL     1       2.567   7.851  10.961  1.00  0.00     0.023 C 
HETATM   12  C19 UNL     1       1.015   7.365   9.075  1.00  0.00     0.023 C 
HETATM   13  C20 UNL     1       1.791   5.546  10.537  1.00  0.00     0.135 C 
HETATM   14  O2  UNL     1       2.817   5.210   9.923  1.00  0.00    -0.297 OA
HETATM   15  C21 UNL     1       1.022   4.473  11.271  1.00  0.00     0.080 C 
HETATM   16  C22 UNL     1      -0.291   4.890  11.900  1.00  0.00     0.017 C 
HETATM   17  C23 UNL     1      -0.265   6.288  12.555  1.00  0.00    -0.031 C 
HETATM   18  C24 UNL     1       0.783   6.324  13.689  1.00  0.00     0.016 C 
HETATM   19  C25 UNL     1      -1.715   6.624  13.105  1.00  0.00     0.024 C 
HETATM   20  C26 UNL     1      -2.230   5.660  14.203  1.00  0.00     0.010 C 
HETATM   21  C27 UNL     1      -3.601   6.007  14.829  1.00  0.00     0.011 C 
HETATM   22  C28 UNL     1      -4.097   7.443  14.553  1.00  0.00    -0.029 C 
HETATM   23  C29 UNL     1      -4.853   7.461  13.193  1.00  0.00     0.016 C 
ENDROOT
BRANCH   1  24
HETATM   24  C6  UNL     1      -6.505   7.631  15.869  1.00  0.00    -0.011 C 
HETATM   25  C7  UNL     1      -7.495   7.965  14.746  1.00  0.00     0.010 C 
BRANCH  24  26
HETATM   26  C5  UNL     1      -6.604   6.134  16.256  1.00  0.00     0.040 C 
BRANCH  26  27
HETATM   27  C4  UNL     1      -7.402   5.267  15.271  1.00  0.00     0.141 C 
BRANCH  27  28
HETATM   28  C3  UNL     1      -6.529   4.686  14.188  1.00  0.00     0.009 C 
HETATM   29  C2  UNL     1      -6.876   3.922  13.127  1.00  0.00    -0.062 C 
HETATM   30  C1  UNL     1      -5.820   3.488  12.143  1.00  0.00     0.045 C 
BRANCH  29  31
HETATM   31  C30 UNL     1      -8.276   3.445  12.828  1.00  0.00     0.198 C 
BRANCH  31  32
HETATM   32  O3  UNL     1      -8.261   2.040  12.598  1.00  0.00    -0.397 OA
HETATM   33  H48 UNL     1      -7.927   1.903  11.696  1.00  0.00     0.209 HD
ENDBRANCH  31  32
ENDBRANCH  29  31
ENDBRANCH  27  28
BRANCH  27  34
HETATM   34  O1  UNL     1      -8.080   4.223  15.956  1.00  0.00    -0.392 OA
HETATM   35  H6  UNL     1      -8.505   3.672  15.277  1.00  0.00     0.210 HD
ENDBRANCH  27  34
ENDBRANCH  26  27
ENDBRANCH  24  26
ENDBRANCH   1  24
TORSDOF 7
ENDMDL
MODEL 3
REMARK minimizedAffinity -9.22021294
REMARK  7 active torsions:
REMARK  status: ('A' for Active; 'I' for Inactive)
REMARK    1  A    between atoms: C2_2  and  C30_32 
REMARK    2  A    between atoms: C3_3  and  C4_4 
REMARK    3  A    between atoms: C4_4  and  O1_5 
REMARK    4  A    between atoms: C4_4  and  C5_6 
REMARK    5  A    between atoms: C5_6  and  C6_7 
REMARK    6  A    between atoms: C6_7  and  C8_9 
REMARK    7  A    between atoms: C30_32  and  O3_33 
ROOT
HETATM    1  C8  UNL     1       0.911   6.980  12.678  1.00  0.00    -0.002 C 
HETATM    2  C9  UNL     1       1.008   5.527  12.126  1.00  0.00     0.007 C 
HETATM    3  C10 UNL     1      -0.404   4.913  12.225  1.00  0.00     0.015 C 
HETATM    4  C11 UNL     1      -1.169   5.845  13.187  1.00  0.00    -0.013 C 
HETATM    5  C12 UNL     1      -0.757   5.409  14.633  1.00  0.00     0.021 C 
HETATM    6  C13 UNL     1      -2.695   5.814  13.168  1.00  0.00    -0.070 C 
HETATM    7  C14 UNL     1      -3.386   4.691  12.898  1.00  0.00    -0.022 C 
HETATM    8  C15 UNL     1      -4.873   4.562  13.022  1.00  0.00     0.034 C 
HETATM    9  C16 UNL     1      -5.629   5.892  13.257  1.00  0.00     0.013 C 
HETATM   10  C17 UNL     1      -7.154   5.696  13.582  1.00  0.00     0.018 C 
HETATM   11  C18 UNL     1      -7.463   4.384  14.340  1.00  0.00     0.023 C 
HETATM   12  C19 UNL     1      -7.933   5.641  12.242  1.00  0.00     0.023 C 
HETATM   13  C20 UNL     1      -7.804   6.829  14.392  1.00  0.00     0.135 C 
HETATM   14  O2  UNL     1      -8.994   6.753  14.742  1.00  0.00    -0.297 OA
HETATM   15  C21 UNL     1      -7.025   8.057  14.797  1.00  0.00     0.080 C 
HETATM   16  C22 UNL     1      -5.620   8.180  14.246  1.00  0.00     0.017 C 
HETATM   17  C23 UNL     1      -4.836   6.850  14.206  1.00  0.00    -0.031 C 
HETATM   18  C24 UNL     1      -4.688   6.278  15.632  1.00  0.00     0.016 C 
HETATM   19  C25 UNL     1      -3.417   7.110  13.543  1.00  0.00     0.024 C 
HETATM   20  C26 UNL     1      -2.514   8.102  14.319  1.00  0.00     0.010 C 
HETATM   21  C27 UNL     1      -1.089   8.312  13.754  1.00  0.00     0.011 C 
HETATM   22  C28 UNL     1      -0.631   7.249  12.733  1.00  0.00    -0.029 C 
HETATM   23  C29 UNL     1      -1.118   7.670  11.316  1.00  0.00     0.016 C 
ENDROOT
BRANCH   1  24
HETATM   24  C6  UNL     1       1.930   7.980  12.043  1.00  0.00    -0.011 C 
HETATM   25  C7  UNL     1       2.278   9.230  12.863  1.00  0.00     0.010 C 
BRANCH  24  26
HETATM   26  C5  UNL     1       3.220   7.256  11.580  1.00  0.00     0.040 C 
BRANCH  26  27
HETATM   27  C4  UNL     1       3.664   7.588  10.148  1.00  0.00     0.141 C 
BRANCH  27  28
HETATM   28  C3  UNL     1       4.664   8.716  10.109  1.00  0.00     0.009 C 
HETATM   29  C2  UNL     1       5.914   8.768  10.622  1.00  0.00    -0.062 C 
HETATM   30  C1  UNL     1       6.754  10.004  10.421  1.00  0.00     0.045 C 
BRANCH  29  31
HETATM   31  C30 UNL     1       6.571   7.660  11.410  1.00  0.00     0.198 C 
BRANCH  31  32
HETATM   32  O3  UNL     1       7.055   6.663  10.516  1.00  0.00    -0.397 OA
HETATM   33  H48 UNL     1       6.289   6.133  10.239  1.00  0.00     0.209 HD
ENDBRANCH  31  32
ENDBRANCH  29  31
ENDBRANCH  27  28
BRANCH  27  34
HETATM   34  O1  UNL     1       4.207   6.439   9.512  1.00  0.00    -0.392 OA
HETATM   35  H6  UNL     1       4.533   6.728   8.643  1.00  0.00     0.210 HD
ENDBRANCH  27  34
ENDBRANCH  26  27
ENDBRANCH  24  26
ENDBRANCH   1  24
TORSDOF 7
ENDMDL
MODEL 4
REMARK minimizedAffinity -9.09433937
REMARK  7 active torsions:
REMARK  status: ('A' for Active; 'I' for Inactive)
REMARK    1  A    between atoms: C2_2  and  C30_32 
REMARK    2  A    between atoms: C3_3  and  C4_4 
REMARK    3  A    between atoms: C4_4  and  O1_5 
REMARK    4  A    between atoms: C4_4  and  C5_6 
REMARK    5  A    between atoms: C5_6  and  C6_7 
REMARK    6  A    between atoms: C6_7  and  C8_9 
REMARK    7  A    between atoms: C30_32  and  O3_33 
ROOT
HETATM    1  C8  UNL     1      -5.884   7.243  15.505  1.00  0.00    -0.002 C 
HETATM    2  C9  UNL     1      -5.866   8.800  15.504  1.00  0.00     0.007 C 
HETATM    3  C10 UNL     1      -4.635   9.236  14.684  1.00  0.00     0.015 C 
HETATM    4  C11 UNL     1      -3.763   7.968  14.584  1.00  0.00    -0.013 C 
HETATM    5  C12 UNL     1      -2.971   7.877  15.931  1.00  0.00     0.021 C 
HETATM    6  C13 UNL     1      -2.708   7.896  13.482  1.00  0.00    -0.070 C 
HETATM    7  C14 UNL     1      -2.061   8.988  13.037  1.00  0.00    -0.022 C 
HETATM    8  C15 UNL     1      -0.910   8.959  12.079  1.00  0.00     0.034 C 
HETATM    9  C16 UNL     1      -0.641   7.584  11.420  1.00  0.00     0.013 C 
HETATM   10  C17 UNL     1       0.688   7.541  10.583  1.00  0.00     0.018 C 
HETATM   11  C18 UNL     1       1.799   8.464  11.135  1.00  0.00     0.023 C 
HETATM   12  C19 UNL     1       0.370   8.023   9.144  1.00  0.00     0.023 C 
HETATM   13  C20 UNL     1       1.319   6.149  10.423  1.00  0.00     0.135 C 
HETATM   14  O2  UNL     1       2.395   6.008   9.818  1.00  0.00    -0.297 OA
HETATM   15  C21 UNL     1       0.666   4.915  11.000  1.00  0.00     0.080 C 
HETATM   16  C22 UNL     1      -0.705   5.100  11.616  1.00  0.00     0.017 C 
HETATM   17  C23 UNL     1      -0.866   6.405  12.425  1.00  0.00    -0.031 C 
HETATM   18  C24 UNL     1       0.138   6.431  13.598  1.00  0.00     0.016 C 
HETATM   19  C25 UNL     1      -2.361   6.504  12.948  1.00  0.00     0.024 C 
HETATM   20  C26 UNL     1      -2.786   5.364  13.909  1.00  0.00     0.010 C 
HETATM   21  C27 UNL     1      -4.206   5.474  14.513  1.00  0.00     0.011 C 
HETATM   22  C28 UNL     1      -4.863   6.865  14.380  1.00  0.00    -0.029 C 
HETATM   23  C29 UNL     1      -5.579   6.952  13.001  1.00  0.00     0.016 C 
ENDROOT
BRANCH   1  24
HETATM   24  C6  UNL     1      -7.312   6.615  15.608  1.00  0.00    -0.011 C 
HETATM   25  C7  UNL     1      -7.392   5.087  15.716  1.00  0.00     0.010 C 
BRANCH  24  26
HETATM   26  C5  UNL     1      -8.144   7.285  16.731  1.00  0.00     0.040 C 
BRANCH  26  27
HETATM   27  C4  UNL     1      -9.309   8.155  16.236  1.00  0.00     0.141 C 
BRANCH  27  28
HETATM   28  C3  UNL     1      -9.998   7.555  15.036  1.00  0.00     0.009 C 
HETATM   29  C2  UNL     1     -10.800   8.150  14.124  1.00  0.00    -0.062 C 
HETATM   30  C1  UNL     1     -11.347   7.345  12.973  1.00  0.00     0.045 C 
BRANCH  29  31
HETATM   31  C30 UNL     1     -11.215   9.601  14.156  1.00  0.00     0.198 C 
BRANCH  31  32
HETATM   32  O3  UNL     1     -11.478  10.050  12.831  1.00  0.00    -0.397 OA
HETATM   33  H48 UNL     1     -10.618  10.213  12.409  1.00  0.00     0.209 HD
ENDBRANCH  31  32
ENDBRANCH  29  31
ENDBRANCH  27  28
BRANCH  27  34
HETATM   34  O1  UNL     1     -10.252   8.370  17.276  1.00  0.00    -0.392 OA
HETATM   35  H6  UNL     1     -10.994   8.863  16.885  1.00  0.00     0.210 HD
ENDBRANCH  27  34
ENDBRANCH  26  27
ENDBRANCH  24  26
ENDBRANCH   1  24
TORSDOF 7
ENDMDL
MODEL 5
REMARK minimizedAffinity -8.96305752
REMARK  7 active torsions:
REMARK  status: ('A' for Active; 'I' for Inactive)
REMARK    1  A    between atoms: C2_2  and  C30_32 
REMARK    2  A    between atoms: C3_3  and  C4_4 
REMARK    3  A    between atoms: C4_4  and  O1_5 
REMARK    4  A    between atoms: C4_4  and  C5_6 
REMARK    5  A    between atoms: C5_6  and  C6_7 
REMARK    6  A    between atoms: C6_7  and  C8_9 
REMARK    7  A    between atoms: C30_32  and  O3_33 
ROOT
HETATM    1  C8  UNL     1      -3.163   6.767  14.319  1.00  0.00    -0.002 C 
HETATM    2  C9  UNL     1      -3.402   5.485  13.469  1.00  0.00     0.007 C 
HETATM    3  C10 UNL     1      -4.925   5.356  13.267  1.00  0.00     0.015 C 
HETATM    4  C11 UNL     1      -5.541   6.299  14.321  1.00  0.00    -0.013 C 
HETATM    5  C12 UNL     1      -5.540   5.503  15.669  1.00  0.00     0.021 C 
HETATM    6  C13 UNL     1      -6.980   6.769  14.123  1.00  0.00    -0.070 C 
HETATM    7  C14 UNL     1      -7.911   5.999  13.531  1.00  0.00    -0.022 C 
HETATM    8  C15 UNL     1      -9.367   6.340  13.454  1.00  0.00     0.034 C 
HETATM    9  C16 UNL     1      -9.727   7.780  13.895  1.00  0.00     0.013 C 
HETATM   10  C17 UNL     1     -11.275   8.035  13.993  1.00  0.00     0.018 C 
HETATM   11  C18 UNL     1     -12.086   6.782  14.397  1.00  0.00     0.023 C 
HETATM   12  C19 UNL     1     -11.784   8.476  12.596  1.00  0.00     0.023 C 
HETATM   13  C20 UNL     1     -11.696   9.155  14.958  1.00  0.00     0.135 C 
HETATM   14  O2  UNL     1     -12.897   9.409  15.146  1.00  0.00    -0.297 OA
HETATM   15  C21 UNL     1     -10.674   9.971  15.715  1.00  0.00     0.080 C 
HETATM   16  C22 UNL     1      -9.221   9.726  15.368  1.00  0.00     0.017 C 
HETATM   17  C23 UNL     1      -8.869   8.243  15.119  1.00  0.00    -0.031 C 
HETATM   18  C24 UNL     1      -9.153   7.409  16.387  1.00  0.00     0.016 C 
HETATM   19  C25 UNL     1      -7.343   8.142  14.697  1.00  0.00     0.024 C 
HETATM   20  C26 UNL     1      -6.340   8.632  15.772  1.00  0.00     0.010 C 
HETATM   21  C27 UNL     1      -4.840   8.464  15.434  1.00  0.00     0.011 C 
HETATM   22  C28 UNL     1      -4.541   7.509  14.258  1.00  0.00    -0.029 C 
HETATM   23  C29 UNL     1      -4.623   8.311  12.927  1.00  0.00     0.016 C 
ENDROOT
BRANCH   1  24
HETATM   24  C6  UNL     1      -1.799   7.479  14.045  1.00  0.00    -0.011 C 
HETATM   25  C7  UNL     1      -0.603   7.040  14.901  1.00  0.00     0.010 C 
BRANCH  24  26
HETATM   26  C5  UNL     1      -1.434   7.440  12.539  1.00  0.00     0.040 C 
BRANCH  26  27
HETATM   27  C4  UNL     1      -0.600   8.632  12.049  1.00  0.00     0.141 C 
BRANCH  27  28
HETATM   28  C3  UNL     1      -0.465   8.655  10.547  1.00  0.00     0.009 C 
HETATM   29  C2  UNL     1       0.412   7.996   9.757  1.00  0.00    -0.062 C 
HETATM   30  C1  UNL     1       0.326   8.145   8.259  1.00  0.00     0.045 C 
BRANCH  29  31
HETATM   31  C30 UNL     1       1.513   7.091  10.257  1.00  0.00     0.198 C 
BRANCH  31  32
HETATM   32  O3  UNL     1       1.063   5.741  10.241  1.00  0.00    -0.397 OA
HETATM   33  H48 UNL     1       0.491   5.622  11.018  1.00  0.00     0.209 HD
ENDBRANCH  31  32
ENDBRANCH  29  31
ENDBRANCH  27  28
BRANCH  27  34
HETATM   34  O1  UNL     1      -1.161   9.857  12.501  1.00  0.00    -0.392 OA
HETATM   35  H6  UNL     1      -0.635  10.571  12.103  1.00  0.00     0.210 HD
ENDBRANCH  27  34
ENDBRANCH  26  27
ENDBRANCH  24  26
ENDBRANCH   1  24
TORSDOF 7
ENDMDL
MODEL 6
REMARK minimizedAffinity -8.73947906
REMARK  7 active torsions:
REMARK  status: ('A' for Active; 'I' for Inactive)
REMARK    1  A    between atoms: C2_2  and  C30_32 
REMARK    2  A    between atoms: C3_3  and  C4_4 
REMARK    3  A    between atoms: C4_4  and  O1_5 
REMARK    4  A    between atoms: C4_4  and  C5_6 
REMARK    5  A    between atoms: C5_6  and  C6_7 
REMARK    6  A    between atoms: C6_7  and  C8_9 
REMARK    7  A    between atoms: C30_32  and  O3_33 
ROOT
HETATM    1  C8  UNL     1      -4.837   5.111  12.888  1.00  0.00    -0.002 C 
HETATM    2  C9  UNL     1      -3.686   4.165  13.338  1.00  0.00     0.007 C 
HETATM    3  C10 UNL     1      -2.713   5.010  14.184  1.00  0.00     0.015 C 
HETATM    4  C11 UNL     1      -3.087   6.472  13.868  1.00  0.00    -0.013 C 
HETATM    5  C12 UNL     1      -2.384   6.818  12.512  1.00  0.00     0.021 C 
HETATM    6  C13 UNL     1      -2.653   7.562  14.845  1.00  0.00    -0.070 C 
HETATM    7  C14 UNL     1      -1.512   7.476  15.553  1.00  0.00    -0.022 C 
HETATM    8  C15 UNL     1      -0.956   8.580  16.400  1.00  0.00     0.034 C 
HETATM    9  C16 UNL     1      -1.908   9.781  16.618  1.00  0.00     0.013 C 
HETATM   10  C17 UNL     1      -1.224  10.999  17.337  1.00  0.00     0.018 C 
HETATM   11  C18 UNL     1       0.283  11.140  17.018  1.00  0.00     0.023 C 
HETATM   12  C19 UNL     1      -1.346  10.790  18.869  1.00  0.00     0.023 C 
HETATM   13  C20 UNL     1      -1.858  12.370  17.055  1.00  0.00     0.135 C 
HETATM   14  O2  UNL     1      -1.368  13.404  17.536  1.00  0.00    -0.297 OA
HETATM   15  C21 UNL     1      -3.082  12.508  16.181  1.00  0.00     0.080 C 
HETATM   16  C22 UNL     1      -3.731  11.221  15.717  1.00  0.00     0.017 C 
HETATM   17  C23 UNL     1      -2.732  10.110  15.329  1.00  0.00    -0.031 C 
HETATM   18  C24 UNL     1      -1.837  10.583  14.163  1.00  0.00     0.016 C 
HETATM   19  C25 UNL     1      -3.543   8.804  14.935  1.00  0.00     0.024 C 
HETATM   20  C26 UNL     1      -4.477   8.969  13.710  1.00  0.00     0.010 C 
HETATM   21  C27 UNL     1      -5.216   7.694  13.238  1.00  0.00     0.011 C 
HETATM   22  C28 UNL     1      -4.654   6.371  13.802  1.00  0.00    -0.029 C 
HETATM   23  C29 UNL     1      -5.315   6.092  15.182  1.00  0.00     0.016 C 
ENDROOT
BRANCH   1  24
HETATM   24  C6  UNL     1      -6.214   4.401  12.683  1.00  0.00    -0.011 C 
HETATM   25  C7  UNL     1      -6.183   2.887  12.431  1.00  0.00     0.010 C 
BRANCH  24  26
HETATM   26  C5  UNL     1      -7.203   4.742  13.827  1.00  0.00     0.040 C 
BRANCH  26  27
HETATM   27  C4  UNL     1      -8.481   5.465  13.377  1.00  0.00     0.141 C 
BRANCH  27  28
HETATM   28  C3  UNL     1      -8.762   6.693  14.205  1.00  0.00     0.009 C 
HETATM   29  C2  UNL     1      -9.932   7.340  14.406  1.00  0.00    -0.062 C 
HETATM   30  C1  UNL     1      -9.976   8.538  15.320  1.00  0.00     0.045 C 
BRANCH  29  31
HETATM   31  C30 UNL     1     -11.249   6.958  13.775  1.00  0.00     0.198 C 
BRANCH  31  32
HETATM   32  O3  UNL     1     -12.040   6.244  14.719  1.00  0.00    -0.397 OA
HETATM   33  H48 UNL     1     -11.693   5.337  14.754  1.00  0.00     0.209 HD
ENDBRANCH  31  32
ENDBRANCH  29  31
ENDBRANCH  27  28
BRANCH  27  34
HETATM   34  O1  UNL     1      -8.400   5.817  12.003  1.00  0.00    -0.392 OA
HETATM   35  H6  UNL     1      -9.201   6.330  11.797  1.00  0.00     0.210 HD
ENDBRANCH  27  34
ENDBRANCH  26  27
ENDBRANCH  24  26
ENDBRANCH   1  24
TORSDOF 7
ENDMDL
MODEL 7
REMARK minimizedAffinity -8.57627678
REMARK  7 active torsions:
REMARK  status: ('A' for Active; 'I' for Inactive)
REMARK    1  A    between atoms: C2_2  and  C30_32 
REMARK    2  A    between atoms: C3_3  and  C4_4 
REMARK    3  A    between atoms: C4_4  and  O1_5 
REMARK    4  A    between atoms: C4_4  and  C5_6 
REMARK    5  A    between atoms: C5_6  and  C6_7 
REMARK    6  A    between atoms: C6_7  and  C8_9 
REMARK    7  A    between atoms: C30_32  and  O3_33 
ROOT
HETATM    1  C8  UNL     1      -1.472   5.588  12.023  1.00  0.00    -0.002 C 
HETATM    2  C9  UNL     1       0.085   5.571  12.034  1.00  0.00     0.007 C 
HETATM    3  C10 UNL     1       0.540   6.668  13.018  1.00  0.00     0.015 C 
HETATM    4  C11 UNL     1      -0.709   7.548  13.229  1.00  0.00    -0.013 C 
HETATM    5  C12 UNL     1      -0.771   8.518  12.002  1.00  0.00     0.021 C 
HETATM    6  C13 UNL     1      -0.768   8.444  14.463  1.00  0.00    -0.070 C 
HETATM    7  C14 UNL     1       0.335   8.998  14.999  1.00  0.00    -0.022 C 
HETATM    8  C15 UNL     1       0.323  10.009  16.104  1.00  0.00     0.034 C 
HETATM    9  C16 UNL     1      -1.052  10.217  16.786  1.00  0.00     0.013 C 
HETATM   10  C17 UNL     1      -1.073  11.420  17.797  1.00  0.00     0.018 C 
HETATM   11  C18 UNL     1      -0.121  12.574  17.407  1.00  0.00     0.023 C 
HETATM   12  C19 UNL     1      -0.610  10.899  19.182  1.00  0.00     0.023 C 
HETATM   13  C20 UNL     1      -2.452  12.056  18.034  1.00  0.00     0.135 C 
HETATM   14  O2  UNL     1      -2.574  13.042  18.779  1.00  0.00    -0.297 OA
HETATM   15  C21 UNL     1      -3.695  11.515  17.367  1.00  0.00     0.080 C 
HETATM   16  C22 UNL     1      -3.534  10.238  16.570  1.00  0.00     0.017 C 
HETATM   17  C23 UNL     1      -2.226  10.158  15.754  1.00  0.00    -0.031 C 
HETATM   18  C24 UNL     1      -2.168  11.312  14.729  1.00  0.00     0.016 C 
HETATM   19  C25 UNL     1      -2.156   8.747  15.032  1.00  0.00     0.024 C 
HETATM   20  C26 UNL     1      -3.296   8.483  14.016  1.00  0.00     0.010 C 
HETATM   21  C27 UNL     1      -3.213   7.156  13.225  1.00  0.00     0.011 C 
HETATM   22  C28 UNL     1      -1.838   6.455  13.275  1.00  0.00    -0.029 C 
HETATM   23  C29 UNL     1      -1.778   5.557  14.544  1.00  0.00     0.016 C 
ENDROOT
BRANCH   1  24
HETATM   24  C6  UNL     1      -2.130   4.203  11.723  1.00  0.00    -0.011 C 
HETATM   25  C7  UNL     1      -1.183   3.037  11.412  1.00  0.00     0.010 C 
BRANCH  24  26
HETATM   26  C5  UNL     1      -3.139   3.805  12.830  1.00  0.00     0.040 C 
BRANCH  26  27
HETATM   27  C4  UNL     1      -4.570   3.548  12.334  1.00  0.00     0.141 C 
BRANCH  27  28
HETATM   28  C3  UNL     1      -5.539   4.592  12.827  1.00  0.00     0.009 C 
HETATM   29  C2  UNL     1      -6.775   4.432  13.351  1.00  0.00    -0.062 C 
HETATM   30  C1  UNL     1      -7.551   5.638  13.817  1.00  0.00     0.045 C 
BRANCH  29  31
HETATM   31  C30 UNL     1      -7.477   3.106  13.517  1.00  0.00     0.198 C 
BRANCH  31  32
HETATM   32  O3  UNL     1      -8.794   3.194  12.984  1.00  0.00    -0.397 OA
HETATM   33  H48 UNL     1      -9.336   3.664  13.640  1.00  0.00     0.209 HD
ENDBRANCH  31  32
ENDBRANCH  29  31
ENDBRANCH  27  28
BRANCH  27  34
HETATM   34  O1  UNL     1      -4.605   3.487  10.915  1.00  0.00    -0.392 OA
HETATM   35  H6  UNL     1      -5.539   3.395  10.661  1.00  0.00     0.210 HD
ENDBRANCH  27  34
ENDBRANCH  26  27
ENDBRANCH  24  26
ENDBRANCH   1  24
TORSDOF 7
ENDMDL
MODEL 8
REMARK minimizedAffinity -8.54032803
REMARK  7 active torsions:
REMARK  status: ('A' for Active; 'I' for Inactive)
REMARK    1  A    between atoms: C2_2  and  C30_32 
REMARK    2  A    between atoms: C3_3  and  C4_4 
REMARK    3  A    between atoms: C4_4  and  O1_5 
REMARK    4  A    between atoms: C4_4  and  C5_6 
REMARK    5  A    between atoms: C5_6  and  C6_7 
REMARK    6  A    between atoms: C6_7  and  C8_9 
REMARK    7  A    between atoms: C30_32  and  O3_33 
ROOT
HETATM    1  C8  UNL     1       2.273   6.733  11.042  1.00  0.00    -0.002 C 
HETATM    2  C9  UNL     1       2.092   5.194  10.893  1.00  0.00     0.007 C 
HETATM    3  C10 UNL     1       0.719   4.842  11.502  1.00  0.00     0.015 C 
HETATM    4  C11 UNL     1       0.333   6.079  12.338  1.00  0.00    -0.013 C 
HETATM    5  C12 UNL     1       1.096   5.939  13.698  1.00  0.00     0.021 C 
HETATM    6  C13 UNL     1      -1.135   6.275  12.710  1.00  0.00    -0.070 C 
HETATM    7  C14 UNL     1      -1.963   5.239  12.931  1.00  0.00    -0.022 C 
HETATM    8  C15 UNL     1      -3.362   5.369  13.452  1.00  0.00     0.034 C 
HETATM    9  C16 UNL     1      -3.910   6.816  13.503  1.00  0.00     0.013 C 
HETATM   10  C17 UNL     1      -5.293   6.935  14.238  1.00  0.00     0.018 C 
HETATM   11  C18 UNL     1      -5.484   5.901  15.372  1.00  0.00     0.023 C 
HETATM   12  C19 UNL     1      -6.418   6.684  13.201  1.00  0.00     0.023 C 
HETATM   13  C20 UNL     1      -5.596   8.312  14.851  1.00  0.00     0.135 C 
HETATM   14  O2  UNL     1      -6.641   8.502  15.494  1.00  0.00    -0.297 OA
HETATM   15  C21 UNL     1      -4.636   9.469  14.704  1.00  0.00     0.080 C 
HETATM   16  C22 UNL     1      -3.436   9.244  13.808  1.00  0.00     0.017 C 
HETATM   17  C23 UNL     1      -2.807   7.840  13.932  1.00  0.00    -0.031 C 
HETATM   18  C24 UNL     1      -2.313   7.604  15.376  1.00  0.00     0.016 C 
HETATM   19  C25 UNL     1      -1.614   7.718  12.892  1.00  0.00     0.024 C 
HETATM   20  C26 UNL     1      -0.451   8.717  13.122  1.00  0.00     0.010 C 
HETATM   21  C27 UNL     1       0.771   8.569  12.185  1.00  0.00     0.011 C 
HETATM   22  C28 UNL     1       0.836   7.238  11.405  1.00  0.00    -0.029 C 
HETATM   23  C29 UNL     1       0.008   7.382  10.096  1.00  0.00     0.016 C 
ENDROOT
BRANCH   1  24
HETATM   24  C6  UNL     1       3.152   7.390   9.929  1.00  0.00    -0.011 C 
HETATM   25  C7  UNL     1       2.411   8.052   8.760  1.00  0.00     0.010 C 
BRANCH  24  26
HETATM   26  C5  UNL     1       4.195   8.364  10.534  1.00  0.00     0.040 C 
BRANCH  26  27
HETATM   27  C4  UNL     1       5.651   7.884  10.442  1.00  0.00     0.141 C 
BRANCH  27  28
HETATM   28  C3  UNL     1       6.538   8.558  11.458  1.00  0.00     0.009 C 
HETATM   29  C2  UNL     1       6.537   8.441  12.805  1.00  0.00    -0.062 C 
HETATM   30  C1  UNL     1       7.559   9.191  13.621  1.00  0.00     0.045 C 
BRANCH  29  31
HETATM   31  C30 UNL     1       5.569   7.595  13.597  1.00  0.00     0.198 C 
BRANCH  31  32
HETATM   32  O3  UNL     1       6.289   6.619  14.343  1.00  0.00    -0.397 OA
HETATM   33  H48 UNL     1       6.536   5.913  13.723  1.00  0.00     0.209 HD
ENDBRANCH  31  32
ENDBRANCH  29  31
ENDBRANCH  27  28
BRANCH  27  34
HETATM   34  O1  UNL     1       5.725   6.474  10.597  1.00  0.00    -0.392 OA
HETATM   35  H6  UNL     1       6.669   6.241  10.601  1.00  0.00     0.210 HD
ENDBRANCH  27  34
ENDBRANCH  26  27
ENDBRANCH  24  26
ENDBRANCH   1  24
TORSDOF 7
ENDMDL
MODEL 9
REMARK minimizedAffinity -8.52435875
REMARK  7 active torsions:
REMARK  status: ('A' for Active; 'I' for Inactive)
REMARK    1  A    between atoms: C2_2  and  C30_32 
REMARK    2  A    between atoms: C3_3  and  C4_4 
REMARK    3  A    between atoms: C4_4  and  O1_5 
REMARK    4  A    between atoms: C4_4  and  C5_6 
REMARK    5  A    between atoms: C5_6  and  C6_7 
REMARK    6  A    between atoms: C6_7  and  C8_9 
REMARK    7  A    between atoms: C30_32  and  O3_33 
ROOT
HETATM    1  C8  UNL     1      -3.085   5.878  12.518  1.00  0.00    -0.002 C 
HETATM    2  C9  UNL     1      -1.563   5.728  12.225  1.00  0.00     0.007 C 
HETATM    3  C10 UNL     1      -0.833   6.775  13.090  1.00  0.00     0.015 C 
HETATM    4  C11 UNL     1      -1.937   7.756  13.533  1.00  0.00    -0.013 C 
HETATM    5  C12 UNL     1      -2.155   8.737  12.332  1.00  0.00     0.021 C 
HETATM    6  C13 UNL     1      -1.676   8.644  14.746  1.00  0.00    -0.070 C 
HETATM    7  C14 UNL     1      -0.447   9.099  15.050  1.00  0.00    -0.022 C 
HETATM    8  C15 UNL     1      -0.156  10.099  16.127  1.00  0.00     0.034 C 
HETATM    9  C16 UNL     1      -1.348  10.418  17.063  1.00  0.00     0.013 C 
HETATM   10  C17 UNL     1      -1.068  11.611  18.047  1.00  0.00     0.018 C 
HETATM   11  C18 UNL     1      -0.116  12.683  17.467  1.00  0.00     0.023 C 
HETATM   12  C19 UNL     1      -0.389  11.042  19.319  1.00  0.00     0.023 C 
HETATM   13  C20 UNL     1      -2.315  12.361  18.543  1.00  0.00     0.135 C 
HETATM   14  O2  UNL     1      -2.204  13.348  19.288  1.00  0.00    -0.297 OA
HETATM   15  C21 UNL     1      -3.705  11.933  18.137  1.00  0.00     0.080 C 
HETATM   16  C22 UNL     1      -3.814  10.653  17.336  1.00  0.00     0.017 C 
HETATM   17  C23 UNL     1      -2.702  10.468  16.281  1.00  0.00    -0.031 C 
HETATM   18  C24 UNL     1      -2.748  11.620  15.254  1.00  0.00     0.016 C 
HETATM   19  C25 UNL     1      -2.895   9.061  15.573  1.00  0.00     0.024 C 
HETATM   20  C26 UNL     1      -4.230   8.903  14.802  1.00  0.00     0.010 C 
HETATM   21  C27 UNL     1      -4.416   7.580  14.023  1.00  0.00     0.011 C 
HETATM   22  C28 UNL     1      -3.124   6.764  13.809  1.00  0.00    -0.029 C 
HETATM   23  C29 UNL     1      -2.893   5.854  15.050  1.00  0.00     0.016 C 
ENDROOT
BRANCH   1  24
HETATM   24  C6  UNL     1      -3.905   4.556  12.365  1.00  0.00    -0.011 C 
HETATM   25  C7  UNL     1      -3.121   3.240  12.447  1.00  0.00     0.010 C 
BRANCH  24  26
HETATM   26  C5  UNL     1      -5.117   4.529  13.331  1.00  0.00     0.040 C 
BRANCH  26  27
HETATM   27  C4  UNL     1      -6.401   3.933  12.734  1.00  0.00     0.141 C 
BRANCH  27  28
HETATM   28  C3  UNL     1      -7.550   4.909  12.767  1.00  0.00     0.009 C 
HETATM   29  C2  UNL     1      -8.117   5.526  13.828  1.00  0.00    -0.062 C 
HETATM   30  C1  UNL     1      -9.242   6.505  13.608  1.00  0.00     0.045 C 
BRANCH  29  31
HETATM   31  C30 UNL     1      -7.712   5.316  15.267  1.00  0.00     0.198 C 
BRANCH  31  32
HETATM   32  O3  UNL     1      -8.750   5.777  16.126  1.00  0.00    -0.397 OA
HETATM   33  H48 UNL     1      -8.685   6.746  16.156  1.00  0.00     0.209 HD
ENDBRANCH  31  32
ENDBRANCH  29  31
ENDBRANCH  27  28
BRANCH  27  34
HETATM   34  O1  UNL     1      -6.177   3.496  11.401  1.00  0.00    -0.392 OA
HETATM   35  H6  UNL     1      -7.036   3.197  11.056  1.00  0.00     0.210 HD
ENDBRANCH  27  34
ENDBRANCH  26  27
ENDBRANCH  24  26
ENDBRANCH   1  24
TORSDOF 7
ENDMDL
