MODEL 1
REMARK minimizedAffinity -9.58622456
REMARK  6 active torsions:
REMARK  status: ('A' for Active; 'I' for Inactive)
REMARK    1  A    between atoms: C2_2  and  C30_32 
REMARK    2  A    between atoms: C3_3  and  C4_4 
REMARK    3  A    between atoms: C4_4  and  C5_5 
REMARK    4  A    between atoms: C5_5  and  C6_6 
REMARK    5  A    between atoms: C6_6  and  C8_8 
REMARK    6  A    between atoms: C30_32  and  O4_34 
ROOT
HETATM    1  C8  UNL     1      -0.218  50.587 -21.209  1.00  0.00    -0.002 C 
HETATM    2  C9  UNL     1      -0.291  50.396 -19.665  1.00  0.00     0.007 C 
HETATM    3  C10 UNL     1      -1.627  49.704 -19.341  1.00  0.00     0.015 C 
HETATM    4  C11 UNL     1      -2.145  49.186 -20.694  1.00  0.00    -0.005 C 
HETATM    5  C12 UNL     1      -1.435  47.823 -20.965  1.00  0.00     0.021 C 
HETATM    6  C13 UNL     1      -3.628  48.898 -20.883  1.00  0.00    -0.000 C 
HETATM    7  C14 UNL     1      -4.221  49.006 -22.099  1.00  0.00    -0.060 C 
HETATM    8  C15 UNL     1      -3.419  49.512 -23.310  1.00  0.00     0.036 C 
HETATM    9  C16 UNL     1      -1.949  49.919 -23.080  1.00  0.00     0.015 C 
HETATM   10  C17 UNL     1      -1.704  50.375 -21.637  1.00  0.00    -0.028 C 
HETATM   11  C18 UNL     1      -2.505  51.692 -21.383  1.00  0.00     0.016 C 
HETATM   12  C19 UNL     1      -5.711  48.674 -22.358  1.00  0.00    -0.014 C 
HETATM   13  C20 UNL     1      -6.461  50.026 -22.523  1.00  0.00     0.020 C 
HETATM   14  C21 UNL     1      -5.874  47.867 -23.679  1.00  0.00     0.021 C 
HETATM   15  C22 UNL     1      -7.126  47.008 -23.700  1.00  0.00     0.080 C 
HETATM   16  C23 UNL     1      -7.007  45.935 -22.643  1.00  0.00     0.135 C 
HETATM   17  O1  UNL     1      -7.429  44.800 -22.866  1.00  0.00    -0.297 OA
HETATM   18  C24 UNL     1      -6.361  46.326 -21.298  1.00  0.00     0.018 C 
HETATM   19  C25 UNL     1      -7.218  45.674 -20.190  1.00  0.00     0.023 C 
HETATM   20  C26 UNL     1      -4.963  45.695 -21.251  1.00  0.00     0.023 C 
HETATM   21  C27 UNL     1      -6.391  47.894 -21.169  1.00  0.00     0.020 C 
HETATM   22  C28 UNL     1      -5.919  48.447 -19.822  1.00  0.00     0.090 C 
HETATM   23  C29 UNL     1      -4.422  48.448 -19.701  1.00  0.00     0.157 C 
HETATM   24  O2  UNL     1      -3.881  48.117 -18.650  1.00  0.00    -0.293 OA
ENDROOT
BRANCH   1  25
HETATM   25  C6  UNL     1       0.533  51.899 -21.595  1.00  0.00    -0.014 C 
HETATM   26  C7  UNL     1       0.499  52.937 -20.467  1.00  0.00     0.010 C 
BRANCH  25  27
HETATM   27  C5  UNL     1      -0.076  52.502 -22.891  1.00  0.00     0.008 C 
BRANCH  27  28
HETATM   28  C4  UNL     1       0.746  52.222 -24.156  1.00  0.00     0.028 C 
BRANCH  28  29
HETATM   29  C3  UNL     1       0.310  53.105 -25.294  1.00  0.00    -0.013 C 
HETATM   30  C2  UNL     1       0.371  52.825 -26.612  1.00  0.00     0.008 C 
HETATM   31  C1  UNL     1       0.952  51.577 -27.207  1.00  0.00     0.055 C 
BRANCH  30  32
HETATM   32  C30 UNL     1      -0.140  53.792 -27.621  1.00  0.00     0.171 C 
HETATM   33  O3  UNL     1      -0.379  54.968 -27.410  1.00  0.00    -0.646 OA
BRANCH  32  34
HETATM   34  O4  UNL     1      -0.331  53.262 -28.841  1.00  0.00    -0.773 OA
HETATM   35  H44 UNL     1      -0.663  54.016 -29.368  1.00  0.00     0.167 HD
ENDBRANCH  32  34
ENDBRANCH  30  32
ENDBRANCH  28  29
ENDBRANCH  27  28
ENDBRANCH  25  27
ENDBRANCH   1  25
TORSDOF 6
ENDMDL
MODEL 2
REMARK minimizedAffinity -9.39492226
REMARK  6 active torsions:
REMARK  status: ('A' for Active; 'I' for Inactive)
REMARK    1  A    between atoms: C2_2  and  C30_32 
REMARK    2  A    between atoms: C3_3  and  C4_4 
REMARK    3  A    between atoms: C4_4  and  C5_5 
REMARK    4  A    between atoms: C5_5  and  C6_6 
REMARK    5  A    between atoms: C6_6  and  C8_8 
REMARK    6  A    between atoms: C30_32  and  O4_34 
ROOT
HETATM    1  C8  UNL     1      -1.173  49.878 -18.635  1.00  0.00    -0.002 C 
HETATM    2  C9  UNL     1      -2.027  48.600 -18.380  1.00  0.00     0.007 C 
HETATM    3  C10 UNL     1      -2.879  48.348 -19.637  1.00  0.00     0.015 C 
HETATM    4  C11 UNL     1      -2.264  49.249 -20.722  1.00  0.00    -0.005 C 
HETATM    5  C12 UNL     1      -1.045  48.480 -21.320  1.00  0.00     0.021 C 
HETATM    6  C13 UNL     1      -3.094  49.664 -21.928  1.00  0.00    -0.000 C 
HETATM    7  C14 UNL     1      -2.868  50.835 -22.576  1.00  0.00    -0.060 C 
HETATM    8  C15 UNL     1      -1.813  51.822 -22.045  1.00  0.00     0.036 C 
HETATM    9  C16 UNL     1      -1.065  51.447 -20.749  1.00  0.00     0.015 C 
HETATM   10  C17 UNL     1      -1.900  50.520 -19.857  1.00  0.00    -0.028 C 
HETATM   11  C18 UNL     1      -3.155  51.304 -19.355  1.00  0.00     0.016 C 
HETATM   12  C19 UNL     1      -3.645  51.281 -23.838  1.00  0.00    -0.014 C 
HETATM   13  C20 UNL     1      -4.639  52.392 -23.397  1.00  0.00     0.020 C 
HETATM   14  C21 UNL     1      -2.677  51.891 -24.894  1.00  0.00     0.021 C 
HETATM   15  C22 UNL     1      -3.204  51.785 -26.314  1.00  0.00     0.080 C 
HETATM   16  C23 UNL     1      -3.282  50.328 -26.705  1.00  0.00     0.135 C 
HETATM   17  O1  UNL     1      -2.990  49.981 -27.850  1.00  0.00    -0.297 OA
HETATM   18  C24 UNL     1      -3.749  49.324 -25.632  1.00  0.00     0.018 C 
HETATM   19  C25 UNL     1      -4.724  48.350 -26.331  1.00  0.00     0.023 C 
HETATM   20  C26 UNL     1      -2.521  48.523 -25.177  1.00  0.00     0.023 C 
HETATM   21  C27 UNL     1      -4.486  50.121 -24.493  1.00  0.00     0.020 C 
HETATM   22  C28 UNL     1      -5.145  49.258 -23.413  1.00  0.00     0.090 C 
HETATM   23  C29 UNL     1      -4.149  48.729 -22.422  1.00  0.00     0.157 C 
HETATM   24  O2  UNL     1      -4.226  47.573 -22.015  1.00  0.00    -0.293 OA
ENDROOT
BRANCH   1  25
HETATM   25  C6  UNL     1      -0.956  50.700 -17.326  1.00  0.00    -0.014 C 
HETATM   26  C7  UNL     1       0.471  50.557 -16.785  1.00  0.00     0.010 C 
BRANCH  25  27
HETATM   27  C5  UNL     1      -1.981  50.262 -16.244  1.00  0.00     0.008 C 
BRANCH  27  28
HETATM   28  C4  UNL     1      -1.577  50.639 -14.812  1.00  0.00     0.028 C 
BRANCH  28  29
HETATM   29  C3  UNL     1      -2.685  51.380 -14.113  1.00  0.00    -0.013 C 
HETATM   30  C2  UNL     1      -2.578  52.161 -13.018  1.00  0.00     0.008 C 
HETATM   31  C1  UNL     1      -1.317  52.396 -12.240  1.00  0.00     0.055 C 
BRANCH  30  32
HETATM   32  C30 UNL     1      -3.767  52.863 -12.463  1.00  0.00     0.171 C 
HETATM   33  O3  UNL     1      -4.276  52.635 -11.380  1.00  0.00    -0.646 OA
BRANCH  32  34
HETATM   34  O4  UNL     1      -4.270  53.811 -13.271  1.00  0.00    -0.773 OA
HETATM   35  H44 UNL     1      -5.030  54.162 -12.765  1.00  0.00     0.167 HD
ENDBRANCH  32  34
ENDBRANCH  30  32
ENDBRANCH  28  29
ENDBRANCH  27  28
ENDBRANCH  25  27
ENDBRANCH   1  25
TORSDOF 6
ENDMDL
MODEL 3
REMARK minimizedAffinity -9.36351395
REMARK  6 active torsions:
REMARK  status: ('A' for Active; 'I' for Inactive)
REMARK    1  A    between atoms: C2_2  and  C30_32 
REMARK    2  A    between atoms: C3_3  and  C4_4 
REMARK    3  A    between atoms: C4_4  and  C5_5 
REMARK    4  A    between atoms: C5_5  and  C6_6 
REMARK    5  A    between atoms: C6_6  and  C8_8 
REMARK    6  A    between atoms: C30_32  and  O4_34 
ROOT
HETATM    1  C8  UNL     1      -1.323  50.105 -22.634  1.00  0.00    -0.002 C 
HETATM    2  C9  UNL     1      -1.096  50.031 -21.094  1.00  0.00     0.007 C 
HETATM    3  C10 UNL     1      -2.293  49.284 -20.480  1.00  0.00     0.015 C 
HETATM    4  C11 UNL     1      -3.009  48.630 -21.673  1.00  0.00    -0.005 C 
HETATM    5  C12 UNL     1      -2.260  47.297 -21.984  1.00  0.00     0.021 C 
HETATM    6  C13 UNL     1      -4.475  48.236 -21.559  1.00  0.00    -0.000 C 
HETATM    7  C14 UNL     1      -5.289  48.210 -22.645  1.00  0.00    -0.060 C 
HETATM    8  C15 UNL     1      -4.765  48.669 -24.017  1.00  0.00     0.036 C 
HETATM    9  C16 UNL     1      -3.312  49.185 -24.096  1.00  0.00     0.015 C 
HETATM   10  C17 UNL     1      -2.841  49.767 -22.758  1.00  0.00    -0.028 C 
HETATM   11  C18 UNL     1      -3.680  51.046 -22.444  1.00  0.00     0.016 C 
HETATM   12  C19 UNL     1      -6.771  47.766 -22.595  1.00  0.00    -0.014 C 
HETATM   13  C20 UNL     1      -7.640  49.051 -22.704  1.00  0.00     0.020 C 
HETATM   14  C21 UNL     1      -7.113  46.849 -23.806  1.00  0.00     0.021 C 
HETATM   15  C22 UNL     1      -8.277  45.913 -23.534  1.00  0.00     0.080 C 
HETATM   16  C23 UNL     1      -7.884  44.937 -22.451  1.00  0.00     0.135 C 
HETATM   17  O1  UNL     1      -8.252  43.763 -22.515  1.00  0.00    -0.297 OA
HETATM   18  C24 UNL     1      -7.033  45.472 -21.281  1.00  0.00     0.018 C 
HETATM   19  C25 UNL     1      -7.620  44.856 -19.990  1.00  0.00     0.023 C 
HETATM   20  C26 UNL     1      -5.607  44.935 -21.458  1.00  0.00     0.023 C 
HETATM   21  C27 UNL     1      -7.159  47.040 -21.251  1.00  0.00     0.020 C 
HETATM   22  C28 UNL     1      -6.490  47.726 -20.057  1.00  0.00     0.090 C 
HETATM   23  C29 UNL     1      -5.002  47.831 -20.222  1.00  0.00     0.157 C 
HETATM   24  O2  UNL     1      -4.252  47.618 -19.272  1.00  0.00    -0.293 OA
ENDROOT
BRANCH   1  25
HETATM   25  C6  UNL     1      -0.758  51.427 -23.240  1.00  0.00    -0.014 C 
HETATM   26  C7  UNL     1      -0.433  52.464 -22.159  1.00  0.00     0.010 C 
BRANCH  25  27
HETATM   27  C5  UNL     1      -1.768  52.021 -24.261  1.00  0.00     0.008 C 
BRANCH  27  28
HETATM   28  C4  UNL     1      -1.202  52.181 -25.678  1.00  0.00     0.028 C 
BRANCH  28  29
HETATM   29  C3  UNL     1       0.263  51.840 -25.718  1.00  0.00    -0.013 C 
HETATM   30  C2  UNL     1       1.041  51.715 -26.814  1.00  0.00     0.008 C 
HETATM   31  C1  UNL     1       0.568  51.839 -28.232  1.00  0.00     0.055 C 
BRANCH  30  32
HETATM   32  C30 UNL     1       2.492  51.411 -26.687  1.00  0.00     0.171 C 
HETATM   33  O3  UNL     1       2.973  50.578 -25.939  1.00  0.00    -0.646 OA
BRANCH  32  34
HETATM   34  O4  UNL     1       3.279  52.147 -27.490  1.00  0.00    -0.773 OA
HETATM   35  H44 UNL     1       4.180  51.827 -27.282  1.00  0.00     0.167 HD
ENDBRANCH  32  34
ENDBRANCH  30  32
ENDBRANCH  28  29
ENDBRANCH  27  28
ENDBRANCH  25  27
ENDBRANCH   1  25
TORSDOF 6
ENDMDL
MODEL 4
REMARK minimizedAffinity -9.35206223
REMARK  6 active torsions:
REMARK  status: ('A' for Active; 'I' for Inactive)
REMARK    1  A    between atoms: C2_2  and  C30_32 
REMARK    2  A    between atoms: C3_3  and  C4_4 
REMARK    3  A    between atoms: C4_4  and  C5_5 
REMARK    4  A    between atoms: C5_5  and  C6_6 
REMARK    5  A    between atoms: C6_6  and  C8_8 
REMARK    6  A    between atoms: C30_32  and  O4_34 
ROOT
HETATM    1  C8  UNL     1      -0.423  50.255 -18.468  1.00  0.00    -0.002 C 
HETATM    2  C9  UNL     1      -1.231  48.988 -18.060  1.00  0.00     0.007 C 
HETATM    3  C10 UNL     1      -2.227  48.683 -19.193  1.00  0.00     0.015 C 
HETATM    4  C11 UNL     1      -1.753  49.539 -20.380  1.00  0.00    -0.005 C 
HETATM    5  C12 UNL     1      -0.611  48.747 -21.090  1.00  0.00     0.021 C 
HETATM    6  C13 UNL     1      -2.726  49.902 -21.494  1.00  0.00    -0.000 C 
HETATM    7  C14 UNL     1      -2.587  51.045 -22.211  1.00  0.00    -0.060 C 
HETATM    8  C15 UNL     1      -1.483  52.055 -21.853  1.00  0.00     0.036 C 
HETATM    9  C16 UNL     1      -0.581  51.736 -20.642  1.00  0.00     0.015 C 
HETATM   10  C17 UNL     1      -1.296  50.845 -19.619  1.00  0.00    -0.028 C 
HETATM   11  C18 UNL     1      -2.486  51.647 -19.001  1.00  0.00     0.016 C 
HETATM   12  C19 UNL     1      -3.515  51.438 -23.387  1.00  0.00    -0.014 C 
HETATM   13  C20 UNL     1      -4.456  52.564 -22.875  1.00  0.00     0.020 C 
HETATM   14  C21 UNL     1      -2.686  52.004 -24.577  1.00  0.00     0.021 C 
HETATM   15  C22 UNL     1      -3.379  51.839 -25.917  1.00  0.00     0.080 C 
HETATM   16  C23 UNL     1      -3.494  50.367 -26.236  1.00  0.00     0.135 C 
HETATM   17  O1  UNL     1      -3.341  49.973 -27.393  1.00  0.00    -0.297 OA
HETATM   18  C24 UNL     1      -3.821  49.407 -25.074  1.00  0.00     0.018 C 
HETATM   19  C25 UNL     1      -4.867  48.403 -25.609  1.00  0.00     0.023 C 
HETATM   20  C26 UNL     1      -2.543  48.628 -24.738  1.00  0.00     0.023 C 
HETATM   21  C27 UNL     1      -4.421  50.249 -23.887  1.00  0.00     0.020 C 
HETATM   22  C28 UNL     1      -4.939  49.431 -22.702  1.00  0.00     0.090 C 
HETATM   23  C29 UNL     1      -3.827  48.946 -21.818  1.00  0.00     0.157 C 
HETATM   24  O2  UNL     1      -3.847  47.807 -21.357  1.00  0.00    -0.293 OA
ENDROOT
BRANCH   1  25
HETATM   25  C6  UNL     1      -0.054  51.131 -17.230  1.00  0.00    -0.014 C 
HETATM   26  C7  UNL     1       0.999  52.192 -17.567  1.00  0.00     0.010 C 
BRANCH  25  27
HETATM   27  C5  UNL     1       0.450  50.230 -16.069  1.00  0.00     0.008 C 
BRANCH  27  28
HETATM   28  C4  UNL     1       0.591  50.961 -14.728  1.00  0.00     0.028 C 
BRANCH  28  29
HETATM   29  C3  UNL     1       1.736  50.406 -13.925  1.00  0.00    -0.013 C 
HETATM   30  C2  UNL     1       3.038  50.751 -14.015  1.00  0.00     0.008 C 
HETATM   31  C1  UNL     1       3.608  51.733 -14.996  1.00  0.00     0.055 C 
BRANCH  30  32
HETATM   32  C30 UNL     1       4.053  50.136 -13.119  1.00  0.00     0.171 C 
HETATM   33  O3  UNL     1       5.067  49.570 -13.488  1.00  0.00    -0.646 OA
BRANCH  32  34
HETATM   34  O4  UNL     1       3.770  50.250 -11.810  1.00  0.00    -0.773 OA
HETATM   35  H44 UNL     1       4.523  49.801 -11.374  1.00  0.00     0.167 HD
ENDBRANCH  32  34
ENDBRANCH  30  32
ENDBRANCH  28  29
ENDBRANCH  27  28
ENDBRANCH  25  27
ENDBRANCH   1  25
TORSDOF 6
ENDMDL
MODEL 5
REMARK minimizedAffinity -9.30194187
REMARK  6 active torsions:
REMARK  status: ('A' for Active; 'I' for Inactive)
REMARK    1  A    between atoms: C2_2  and  C30_32 
REMARK    2  A    between atoms: C3_3  and  C4_4 
REMARK    3  A    between atoms: C4_4  and  C5_5 
REMARK    4  A    between atoms: C5_5  and  C6_6 
REMARK    5  A    between atoms: C6_6  and  C8_8 
REMARK    6  A    between atoms: C30_32  and  O4_34 
ROOT
HETATM    1  C8  UNL     1      -2.221  49.919 -23.710  1.00  0.00    -0.002 C 
HETATM    2  C9  UNL     1      -1.909  51.419 -23.432  1.00  0.00     0.007 C 
HETATM    3  C10 UNL     1      -1.935  51.629 -21.908  1.00  0.00     0.015 C 
HETATM    4  C11 UNL     1      -1.907  50.211 -21.311  1.00  0.00    -0.005 C 
HETATM    5  C12 UNL     1      -0.415  49.755 -21.282  1.00  0.00     0.021 C 
HETATM    6  C13 UNL     1      -2.416  49.969 -19.897  1.00  0.00    -0.000 C 
HETATM    7  C14 UNL     1      -2.947  48.776 -19.529  1.00  0.00    -0.060 C 
HETATM    8  C15 UNL     1      -3.130  47.656 -20.568  1.00  0.00     0.036 C 
HETATM    9  C16 UNL     1      -2.725  47.955 -22.027  1.00  0.00     0.015 C 
HETATM   10  C17 UNL     1      -2.824  49.451 -22.349  1.00  0.00    -0.028 C 
HETATM   11  C18 UNL     1      -4.324  49.882 -22.277  1.00  0.00     0.016 C 
HETATM   12  C19 UNL     1      -3.430  48.459 -18.092  1.00  0.00    -0.014 C 
HETATM   13  C20 UNL     1      -4.984  48.481 -18.114  1.00  0.00     0.020 C 
HETATM   14  C21 UNL     1      -2.973  47.035 -17.659  1.00  0.00     0.021 C 
HETATM   15  C22 UNL     1      -2.855  46.880 -16.154  1.00  0.00     0.080 C 
HETATM   16  C23 UNL     1      -1.747  47.774 -15.650  1.00  0.00     0.135 C 
HETATM   17  O1  UNL     1      -1.006  47.389 -14.746  1.00  0.00    -0.297 OA
HETATM   18  C24 UNL     1      -1.604  49.167 -16.297  1.00  0.00     0.018 C 
HETATM   19  C25 UNL     1      -1.335  50.164 -15.146  1.00  0.00     0.023 C 
HETATM   20  C26 UNL     1      -0.363  49.137 -17.199  1.00  0.00     0.023 C 
HETATM   21  C27 UNL     1      -2.953  49.518 -17.027  1.00  0.00     0.020 C 
HETATM   22  C28 UNL     1      -3.035  50.934 -17.603  1.00  0.00     0.090 C 
HETATM   23  C29 UNL     1      -2.281  51.068 -18.894  1.00  0.00     0.157 C 
HETATM   24  O2  UNL     1      -1.602  52.066 -19.120  1.00  0.00    -0.293 OA
ENDROOT
BRANCH   1  25
HETATM   25  C6  UNL     1      -3.025  49.730 -25.035  1.00  0.00    -0.014 C 
HETATM   26  C7  UNL     1      -4.049  48.595 -24.931  1.00  0.00     0.010 C 
BRANCH  25  27
HETATM   27  C5  UNL     1      -2.051  49.463 -26.216  1.00  0.00     0.008 C 
BRANCH  27  28
HETATM   28  C4  UNL     1      -1.399  50.729 -26.786  1.00  0.00     0.028 C 
BRANCH  28  29
HETATM   29  C3  UNL     1       0.091  50.713 -26.577  1.00  0.00    -0.013 C 
HETATM   30  C2  UNL     1       1.003  51.527 -27.149  1.00  0.00     0.008 C 
HETATM   31  C1  UNL     1       0.702  52.585 -28.168  1.00  0.00     0.055 C 
BRANCH  30  32
HETATM   32  C30 UNL     1       2.447  51.412 -26.808  1.00  0.00     0.171 C 
HETATM   33  O3  UNL     1       2.902  50.749 -25.892  1.00  0.00    -0.646 OA
BRANCH  32  34
HETATM   34  O4  UNL     1       3.258  52.119 -27.612  1.00  0.00    -0.773 OA
HETATM   35  H44 UNL     1       4.150  51.937 -27.253  1.00  0.00     0.167 HD
ENDBRANCH  32  34
ENDBRANCH  30  32
ENDBRANCH  28  29
ENDBRANCH  27  28
ENDBRANCH  25  27
ENDBRANCH   1  25
TORSDOF 6
ENDMDL
MODEL 6
REMARK minimizedAffinity -9.25265694
REMARK  6 active torsions:
REMARK  status: ('A' for Active; 'I' for Inactive)
REMARK    1  A    between atoms: C2_2  and  C30_32 
REMARK    2  A    between atoms: C3_3  and  C4_4 
REMARK    3  A    between atoms: C4_4  and  C5_5 
REMARK    4  A    between atoms: C5_5  and  C6_6 
REMARK    5  A    between atoms: C6_6  and  C8_8 
REMARK    6  A    between atoms: C30_32  and  O4_34 
ROOT
HETATM    1  C8  UNL     1      -1.130  49.617 -18.829  1.00  0.00    -0.002 C 
HETATM    2  C9  UNL     1      -2.070  48.404 -18.562  1.00  0.00     0.007 C 
HETATM    3  C10 UNL     1      -2.960  48.220 -19.804  1.00  0.00     0.015 C 
HETATM    4  C11 UNL     1      -2.300  49.077 -20.897  1.00  0.00    -0.005 C 
HETATM    5  C12 UNL     1      -1.151  48.223 -21.519  1.00  0.00     0.021 C 
HETATM    6  C13 UNL     1      -3.118  49.557 -22.088  1.00  0.00    -0.000 C 
HETATM    7  C14 UNL     1      -2.818  50.710 -22.736  1.00  0.00    -0.060 C 
HETATM    8  C15 UNL     1      -1.685  51.615 -22.222  1.00  0.00     0.036 C 
HETATM    9  C16 UNL     1      -0.943  51.182 -20.940  1.00  0.00     0.015 C 
HETATM   10  C17 UNL     1      -1.828  50.315 -20.036  1.00  0.00    -0.028 C 
HETATM   11  C18 UNL     1      -3.014  51.187 -19.510  1.00  0.00     0.016 C 
HETATM   12  C19 UNL     1      -3.583  51.217 -23.984  1.00  0.00    -0.014 C 
HETATM   13  C20 UNL     1      -4.484  52.396 -23.523  1.00  0.00     0.020 C 
HETATM   14  C21 UNL     1      -2.591  51.758 -25.055  1.00  0.00     0.021 C 
HETATM   15  C22 UNL     1      -3.149  51.696 -26.466  1.00  0.00     0.080 C 
HETATM   16  C23 UNL     1      -3.340  50.251 -26.860  1.00  0.00     0.135 C 
HETATM   17  O1  UNL     1      -3.095  49.887 -28.010  1.00  0.00    -0.297 OA
HETATM   18  C24 UNL     1      -3.860  49.279 -25.780  1.00  0.00     0.018 C 
HETATM   19  C25 UNL     1      -4.917  48.382 -26.465  1.00  0.00     0.023 C 
HETATM   20  C26 UNL     1      -2.687  48.389 -25.349  1.00  0.00     0.023 C 
HETATM   21  C27 UNL     1      -4.518  50.124 -24.627  1.00  0.00     0.020 C 
HETATM   22  C28 UNL     1      -5.219  49.307 -23.538  1.00  0.00     0.090 C 
HETATM   23  C29 UNL     1      -4.247  48.703 -22.566  1.00  0.00     0.157 C 
HETATM   24  O2  UNL     1      -4.402  47.555 -22.160  1.00  0.00    -0.293 OA
ENDROOT
BRANCH   1  25
HETATM   25  C6  UNL     1      -0.830  50.416 -17.522  1.00  0.00    -0.014 C 
HETATM   26  C7  UNL     1      -0.042  51.701 -17.799  1.00  0.00     0.010 C 
BRANCH  25  27
HETATM   27  C5  UNL     1      -0.053  49.522 -16.515  1.00  0.00     0.008 C 
BRANCH  27  28
HETATM   28  C4  UNL     1       0.596  50.299 -15.363  1.00  0.00     0.028 C 
BRANCH  28  29
HETATM   29  C3  UNL     1       1.591  51.304 -15.878  1.00  0.00    -0.013 C 
HETATM   30  C2  UNL     1       2.837  51.530 -15.413  1.00  0.00     0.008 C 
HETATM   31  C1  UNL     1       3.458  50.846 -14.230  1.00  0.00     0.055 C 
BRANCH  30  32
HETATM   32  C30 UNL     1       3.720  52.538 -16.058  1.00  0.00     0.171 C 
HETATM   33  O3  UNL     1       4.933  52.459 -16.142  1.00  0.00    -0.646 OA
BRANCH  32  34
HETATM   34  O4  UNL     1       3.065  53.594 -16.569  1.00  0.00    -0.773 OA
HETATM   35  H44 UNL     1       3.781  54.147 -16.944  1.00  0.00     0.167 HD
ENDBRANCH  32  34
ENDBRANCH  30  32
ENDBRANCH  28  29
ENDBRANCH  27  28
ENDBRANCH  25  27
ENDBRANCH   1  25
TORSDOF 6
ENDMDL
MODEL 7
REMARK minimizedAffinity -9.1915226
REMARK  6 active torsions:
REMARK  status: ('A' for Active; 'I' for Inactive)
REMARK    1  A    between atoms: C2_2  and  C30_32 
REMARK    2  A    between atoms: C3_3  and  C4_4 
REMARK    3  A    between atoms: C4_4  and  C5_5 
REMARK    4  A    between atoms: C5_5  and  C6_6 
REMARK    5  A    between atoms: C6_6  and  C8_8 
REMARK    6  A    between atoms: C30_32  and  O4_34 
ROOT
HETATM    1  C8  UNL     1      -1.999  50.305 -24.340  1.00  0.00    -0.002 C 
HETATM    2  C9  UNL     1      -1.955  50.847 -22.881  1.00  0.00     0.007 C 
HETATM    3  C10 UNL     1      -3.206  50.327 -22.150  1.00  0.00     0.015 C 
HETATM    4  C11 UNL     1      -3.767  49.221 -23.060  1.00  0.00    -0.005 C 
HETATM    5  C12 UNL     1      -2.968  47.918 -22.744  1.00  0.00     0.021 C 
HETATM    6  C13 UNL     1      -5.231  48.816 -22.953  1.00  0.00    -0.000 C 
HETATM    7  C14 UNL     1      -5.909  48.324 -24.020  1.00  0.00    -0.060 C 
HETATM    8  C15 UNL     1      -5.232  48.245 -25.400  1.00  0.00     0.036 C 
HETATM    9  C16 UNL     1      -3.788  48.775 -25.524  1.00  0.00     0.015 C 
HETATM   10  C17 UNL     1      -3.487  49.856 -24.479  1.00  0.00    -0.028 C 
HETATM   11  C18 UNL     1      -4.375  51.106 -24.780  1.00  0.00     0.016 C 
HETATM   12  C19 UNL     1      -7.381  47.848 -23.955  1.00  0.00    -0.014 C 
HETATM   13  C20 UNL     1      -8.248  48.937 -24.647  1.00  0.00     0.020 C 
HETATM   14  C21 UNL     1      -7.564  46.515 -24.738  1.00  0.00     0.021 C 
HETATM   15  C22 UNL     1      -8.740  45.691 -24.244  1.00  0.00     0.080 C 
HETATM   16  C23 UNL     1      -8.464  45.235 -22.831  1.00  0.00     0.135 C 
HETATM   17  O1  UNL     1      -8.807  44.109 -22.468  1.00  0.00    -0.297 OA
HETATM   18  C24 UNL     1      -7.766  46.231 -21.882  1.00  0.00     0.018 C 
HETATM   19  C25 UNL     1      -8.493  46.130 -20.521  1.00  0.00     0.023 C 
HETATM   20  C26 UNL     1      -6.321  45.752 -21.686  1.00  0.00     0.023 C 
HETATM   21  C27 UNL     1      -7.915  47.678 -22.482  1.00  0.00     0.020 C 
HETATM   22  C28 UNL     1      -7.402  48.811 -21.589  1.00  0.00     0.090 C 
HETATM   23  C29 UNL     1      -5.906  48.931 -21.626  1.00  0.00     0.157 C 
HETATM   24  O2  UNL     1      -5.272  49.147 -20.597  1.00  0.00    -0.293 OA
ENDROOT
BRANCH   1  25
HETATM   25  C6  UNL     1      -1.384  51.320 -25.354  1.00  0.00    -0.014 C 
HETATM   26  C7  UNL     1      -0.249  50.699 -26.175  1.00  0.00     0.010 C 
BRANCH  25  27
HETATM   27  C5  UNL     1      -0.871  52.580 -24.603  1.00  0.00     0.008 C 
BRANCH  27  28
HETATM   28  C4  UNL     1       0.575  52.464 -24.104  1.00  0.00     0.028 C 
BRANCH  28  29
HETATM   29  C3  UNL     1       0.626  52.404 -22.601  1.00  0.00    -0.013 C 
HETATM   30  C2  UNL     1       1.035  53.377 -21.760  1.00  0.00     0.008 C 
HETATM   31  C1  UNL     1       1.581  54.710 -22.178  1.00  0.00     0.055 C 
BRANCH  30  32
HETATM   32  C30 UNL     1       0.990  53.179 -20.286  1.00  0.00     0.171 C 
HETATM   33  O3  UNL     1       0.463  52.238 -19.719  1.00  0.00    -0.646 OA
BRANCH  32  34
HETATM   34  O4  UNL     1       1.597  54.150 -19.584  1.00  0.00    -0.773 OA
HETATM   35  H44 UNL     1       1.474  53.870 -18.654  1.00  0.00     0.167 HD
ENDBRANCH  32  34
ENDBRANCH  30  32
ENDBRANCH  28  29
ENDBRANCH  27  28
ENDBRANCH  25  27
ENDBRANCH   1  25
TORSDOF 6
ENDMDL
MODEL 8
REMARK minimizedAffinity -8.98651123
REMARK  6 active torsions:
REMARK  status: ('A' for Active; 'I' for Inactive)
REMARK    1  A    between atoms: C2_2  and  C30_32 
REMARK    2  A    between atoms: C3_3  and  C4_4 
REMARK    3  A    between atoms: C4_4  and  C5_5 
REMARK    4  A    between atoms: C5_5  and  C6_6 
REMARK    5  A    between atoms: C6_6  and  C8_8 
REMARK    6  A    between atoms: C30_32  and  O4_34 
ROOT
HETATM    1  C8  UNL     1      -2.074  49.376 -19.142  1.00  0.00    -0.002 C 
HETATM    2  C9  UNL     1      -3.606  49.460 -19.407  1.00  0.00     0.007 C 
HETATM    3  C10 UNL     1      -3.808  50.104 -20.791  1.00  0.00     0.015 C 
HETATM    4  C11 UNL     1      -2.421  50.060 -21.456  1.00  0.00    -0.005 C 
HETATM    5  C12 UNL     1      -2.255  48.637 -22.075  1.00  0.00     0.021 C 
HETATM    6  C13 UNL     1      -2.088  51.020 -22.589  1.00  0.00    -0.000 C 
HETATM    7  C14 UNL     1      -0.816  51.435 -22.816  1.00  0.00    -0.060 C 
HETATM    8  C15 UNL     1       0.318  51.009 -21.868  1.00  0.00     0.036 C 
HETATM    9  C16 UNL     1      -0.051  50.136 -20.650  1.00  0.00     0.015 C 
HETATM   10  C17 UNL     1      -1.502  50.363 -20.207  1.00  0.00    -0.028 C 
HETATM   11  C18 UNL     1      -1.642  51.826 -19.679  1.00  0.00     0.016 C 
HETATM   12  C19 UNL     1      -0.414  52.368 -23.985  1.00  0.00    -0.014 C 
HETATM   13  C20 UNL     1      -0.143  53.773 -23.379  1.00  0.00     0.020 C 
HETATM   14  C21 UNL     1       0.898  51.871 -24.659  1.00  0.00     0.021 C 
HETATM   15  C22 UNL     1       1.027  52.313 -26.106  1.00  0.00     0.080 C 
HETATM   16  C23 UNL     1      -0.060  51.655 -26.923  1.00  0.00     0.135 C 
HETATM   17  O1  UNL     1       0.179  51.261 -28.065  1.00  0.00    -0.297 OA
HETATM   18  C24 UNL     1      -1.455  51.520 -26.278  1.00  0.00     0.018 C 
HETATM   19  C25 UNL     1      -2.485  51.890 -27.370  1.00  0.00     0.023 C 
HETATM   20  C26 UNL     1      -1.659  50.044 -25.912  1.00  0.00     0.023 C 
HETATM   21  C27 UNL     1      -1.545  52.526 -25.071  1.00  0.00     0.020 C 
HETATM   22  C28 UNL     1      -2.920  52.627 -24.406  1.00  0.00     0.090 C 
HETATM   23  C29 UNL     1      -3.193  51.472 -23.487  1.00  0.00     0.157 C 
HETATM   24  O2  UNL     1      -4.301  50.944 -23.460  1.00  0.00    -0.293 OA
ENDROOT
BRANCH   1  25
HETATM   25  C6  UNL     1      -1.736  49.566 -17.630  1.00  0.00    -0.014 C 
HETATM   26  C7  UNL     1      -2.461  50.773 -17.025  1.00  0.00     0.010 C 
BRANCH  25  27
HETATM   27  C5  UNL     1      -0.202  49.716 -17.440  1.00  0.00     0.008 C 
BRANCH  27  28
HETATM   28  C4  UNL     1       0.233  51.101 -16.944  1.00  0.00     0.028 C 
BRANCH  28  29
HETATM   29  C3  UNL     1       1.174  50.988 -15.775  1.00  0.00    -0.013 C 
HETATM   30  C2  UNL     1       2.321  51.672 -15.583  1.00  0.00     0.008 C 
HETATM   31  C1  UNL     1       2.918  52.653 -16.548  1.00  0.00     0.055 C 
BRANCH  30  32
HETATM   32  C30 UNL     1       3.127  51.477 -14.347  1.00  0.00     0.171 C 
HETATM   33  O3  UNL     1       3.986  50.626 -14.195  1.00  0.00    -0.646 OA
BRANCH  32  34
HETATM   34  O4  UNL     1       2.836  52.340 -13.360  1.00  0.00    -0.773 OA
HETATM   35  H44 UNL     1       3.442  52.075 -12.639  1.00  0.00     0.167 HD
ENDBRANCH  32  34
ENDBRANCH  30  32
ENDBRANCH  28  29
ENDBRANCH  27  28
ENDBRANCH  25  27
ENDBRANCH   1  25
TORSDOF 6
ENDMDL
MODEL 9
REMARK minimizedAffinity -8.93067455
REMARK  6 active torsions:
REMARK  status: ('A' for Active; 'I' for Inactive)
REMARK    1  A    between atoms: C2_2  and  C30_32 
REMARK    2  A    between atoms: C3_3  and  C4_4 
REMARK    3  A    between atoms: C4_4  and  C5_5 
REMARK    4  A    between atoms: C5_5  and  C6_6 
REMARK    5  A    between atoms: C6_6  and  C8_8 
REMARK    6  A    between atoms: C30_32  and  O4_34 
ROOT
HETATM    1  C8  UNL     1      -1.424  51.506 -22.650  1.00  0.00    -0.002 C 
HETATM    2  C9  UNL     1      -1.538  50.814 -24.041  1.00  0.00     0.007 C 
HETATM    3  C10 UNL     1      -2.684  49.789 -23.961  1.00  0.00     0.015 C 
HETATM    4  C11 UNL     1      -3.443  50.141 -22.669  1.00  0.00    -0.005 C 
HETATM    5  C12 UNL     1      -4.425  51.303 -23.015  1.00  0.00     0.021 C 
HETATM    6  C13 UNL     1      -4.306  49.092 -21.982  1.00  0.00    -0.000 C 
HETATM    7  C14 UNL     1      -4.514  49.111 -20.642  1.00  0.00    -0.060 C 
HETATM    8  C15 UNL     1      -3.801  50.154 -19.763  1.00  0.00     0.036 C 
HETATM    9  C16 UNL     1      -2.830  51.135 -20.453  1.00  0.00     0.015 C 
HETATM   10  C17 UNL     1      -2.233  50.537 -21.733  1.00  0.00    -0.028 C 
HETATM   11  C18 UNL     1      -1.330  49.322 -21.345  1.00  0.00     0.016 C 
HETATM   12  C19 UNL     1      -5.424  48.102 -19.900  1.00  0.00    -0.014 C 
HETATM   13  C20 UNL     1      -4.493  47.107 -19.152  1.00  0.00     0.020 C 
HETATM   14  C21 UNL     1      -6.304  48.829 -18.841  1.00  0.00     0.021 C 
HETATM   15  C22 UNL     1      -7.590  48.085 -18.525  1.00  0.00     0.080 C 
HETATM   16  C23 UNL     1      -8.464  48.064 -19.757  1.00  0.00     0.135 C 
HETATM   17  O1  UNL     1      -9.684  48.190 -19.650  1.00  0.00    -0.297 OA
HETATM   18  C24 UNL     1      -7.772  47.864 -21.121  1.00  0.00     0.018 C 
HETATM   19  C25 UNL     1      -8.646  46.870 -21.920  1.00  0.00     0.023 C 
HETATM   20  C26 UNL     1      -7.792  49.212 -21.856  1.00  0.00     0.023 C 
HETATM   21  C27 UNL     1      -6.340  47.262 -20.869  1.00  0.00     0.020 C 
HETATM   22  C28 UNL     1      -5.568  46.864 -22.130  1.00  0.00     0.090 C 
HETATM   23  C29 UNL     1      -4.966  48.050 -22.825  1.00  0.00     0.157 C 
HETATM   24  O2  UNL     1      -4.993  48.136 -24.050  1.00  0.00    -0.293 OA
ENDROOT
BRANCH   1  25
HETATM   25  C6  UNL     1       0.055  51.868 -22.304  1.00  0.00    -0.014 C 
HETATM   26  C7  UNL     1       0.147  53.060 -21.345  1.00  0.00     0.010 C 
BRANCH  25  27
HETATM   27  C5  UNL     1       0.850  52.169 -23.605  1.00  0.00     0.008 C 
BRANCH  27  28
HETATM   28  C4  UNL     1       0.776  53.633 -24.056  1.00  0.00     0.028 C 
BRANCH  28  29
HETATM   29  C3  UNL     1       0.073  53.758 -25.382  1.00  0.00    -0.013 C 
HETATM   30  C2  UNL     1       0.353  53.087 -26.518  1.00  0.00     0.008 C 
HETATM   31  C1  UNL     1       1.480  52.112 -26.694  1.00  0.00     0.055 C 
BRANCH  30  32
HETATM   32  C30 UNL     1      -0.463  53.292 -27.745  1.00  0.00     0.171 C 
HETATM   33  O3  UNL     1      -1.178  54.255 -27.961  1.00  0.00    -0.646 OA
BRANCH  32  34
HETATM   34  O4  UNL     1      -0.357  52.301 -28.646  1.00  0.00    -0.773 OA
HETATM   35  H44 UNL     1      -0.946  52.589 -29.373  1.00  0.00     0.167 HD
ENDBRANCH  32  34
ENDBRANCH  30  32
ENDBRANCH  28  29
ENDBRANCH  27  28
ENDBRANCH  25  27
ENDBRANCH   1  25
TORSDOF 6
ENDMDL
