MODEL 1
REMARK minimizedAffinity -9.74105167
REMARK CNNscore 0.572022557
REMARK CNNaffinity 7.34620476
REMARK  4 active torsions:
REMARK  status: ('A' for Active; 'I' for Inactive)
REMARK    1  A    between atoms: C2_2  and  C3_3 
REMARK    2  A    between atoms: C6_6  and  O1_7 
REMARK    3  A    between atoms: C7_8  and  C8_9 
REMARK    4  A    between atoms: C26_32  and  O6_33 
ROOT
HETATM    1  C3  UNL     1      -3.375  49.876 -27.111  1.00  0.00     0.008 C 
HETATM    2  C4  UNL     1      -3.148  48.698 -26.189  1.00  0.00    -0.023 C 
HETATM    3  C5  UNL     1      -3.752  48.389 -25.026  1.00  0.00     0.004 C 
HETATM    4  C6  UNL     1      -4.847  49.074 -24.232  1.00  0.00     0.174 C 
HETATM    5  C7  UNL     1      -4.713  48.887 -22.684  1.00  0.00     0.187 C 
HETATM    6  O2  UNL     1      -3.521  49.506 -22.143  1.00  0.00    -0.308 OA
HETATM    7  C12 UNL     1      -2.546  48.632 -21.753  1.00  0.00     0.276 C 
HETATM    8  O3  UNL     1      -2.528  47.442 -22.059  1.00  0.00    -0.264 OA
HETATM    9  C13 UNL     1      -1.583  49.262 -20.694  1.00  0.00     0.095 C 
HETATM   10  C14 UNL     1      -0.405  48.282 -20.481  1.00  0.00     0.036 C 
HETATM   11  C15 UNL     1      -2.425  49.245 -19.429  1.00  0.00     0.003 C 
HETATM   12  C16 UNL     1      -2.296  49.947 -18.300  1.00  0.00     0.072 C 
HETATM   13  C17 UNL     1      -1.272  50.937 -17.947  1.00  0.00     0.245 C 
HETATM   14  O4  UNL     1      -1.109  51.213 -16.760  1.00  0.00    -0.268 OA
HETATM   15  N1  UNL     1      -0.576  51.602 -18.894  1.00  0.00    -0.320 N 
HETATM   16  C18 UNL     1      -0.537  51.579 -20.268  1.00  0.00     0.098 C 
HETATM   17  C19 UNL     1      -1.005  50.620 -21.089  1.00  0.00     0.045 C 
HETATM   18  C20 UNL     1      -0.745  50.793 -22.552  1.00  0.00     0.194 C 
HETATM   19  O5  UNL     1      -0.699  49.828 -23.305  1.00  0.00    -0.287 OA
HETATM   20  C21 UNL     1      -0.423  52.126 -23.084  1.00  0.00     0.046 A 
HETATM   21  C22 UNL     1       0.168  53.047 -22.241  1.00  0.00     0.032 A 
HETATM   22  C23 UNL     1       0.670  54.256 -22.746  1.00  0.00     0.026 A 
HETATM   23  C24 UNL     1       0.558  54.568 -24.111  1.00  0.00    -0.027 A 
HETATM   24  C25 UNL     1       1.109  55.874 -24.610  1.00  0.00     0.051 C 
HETATM   25  C26 UNL     1      -0.117  53.666 -24.945  1.00  0.00     0.086 A 
HETATM   26  C27 UNL     1      -0.603  52.456 -24.431  1.00  0.00     0.059 A 
HETATM   27  C28 UNL     1      -1.553  51.662 -25.223  1.00  0.00     0.163 C 
HETATM   28  O7  UNL     1      -2.718  51.701 -24.835  1.00  0.00    -0.292 OA
HETATM   29  C29 UNL     1      -1.032  50.824 -26.369  1.00  0.00     0.084 C 
HETATM   30  C30 UNL     1      -2.051  50.589 -27.490  1.00  0.00     0.016 C 
HETATM   31  C31 UNL     1       0.225  52.764 -20.805  1.00  0.00     0.210 C 
HETATM   32  O8  UNL     1       0.845  53.503 -20.046  1.00  0.00    -0.285 OA
HETATM   33  H24 UNL     1      -0.019  52.350 -18.475  1.00  0.00     0.169 HD
ENDROOT
BRANCH   5  34
HETATM   34  C8  UNL     1      -5.861  49.536 -21.938  1.00  0.00     0.010 C 
HETATM   35  C9  UNL     1      -6.389  49.209 -20.742  1.00  0.00    -0.089 C 
HETATM   36  C10 UNL     1      -5.928  48.084 -19.854  1.00  0.00     0.042 C 
HETATM   37  C11 UNL     1      -7.550  49.994 -20.185  1.00  0.00     0.042 C 
ENDBRANCH   5  34
BRANCH   4  38
HETATM   38  O1  UNL     1      -4.985  50.450 -24.561  1.00  0.00    -0.389 OA
HETATM   39  H10 UNL     1      -4.088  50.848 -24.511  1.00  0.00     0.210 HD
ENDBRANCH   4  38
BRANCH   1  40
HETATM   40  C2  UNL     1      -4.129  49.379 -28.365  1.00  0.00     0.004 C 
HETATM   41  C1  UNL     1      -4.833  48.044 -28.160  1.00  0.00     0.006 C 
ENDBRANCH   1  40
BRANCH  25  42
HETATM   42  O6  UNL     1      -0.346  53.946 -26.265  1.00  0.00    -0.359 OA
HETATM   43  H29 UNL     1      -0.096  54.861 -26.470  1.00  0.00     0.217 HD
ENDBRANCH  25  42
TORSDOF 4
ENDMDL
MODEL 2
REMARK minimizedAffinity -7.11616945
REMARK CNNscore 0.514906526
REMARK CNNaffinity 6.23490906
REMARK  4 active torsions:
REMARK  status: ('A' for Active; 'I' for Inactive)
REMARK    1  A    between atoms: C2_2  and  C3_3 
REMARK    2  A    between atoms: C6_6  and  O1_7 
REMARK    3  A    between atoms: C7_8  and  C8_9 
REMARK    4  A    between atoms: C26_32  and  O6_33 
ROOT
HETATM    1  C3  UNL     1       6.976  56.730  -4.269  1.00  0.00     0.008 C 
HETATM    2  C4  UNL     1       6.431  57.612  -5.371  1.00  0.00    -0.023 C 
HETATM    3  C5  UNL     1       5.156  57.828  -5.745  1.00  0.00     0.004 C 
HETATM    4  C6  UNL     1       3.835  57.295  -5.224  1.00  0.00     0.174 C 
HETATM    5  C7  UNL     1       2.739  57.138  -6.331  1.00  0.00     0.187 C 
HETATM    6  O2  UNL     1       3.086  56.148  -7.330  1.00  0.00    -0.308 OA
HETATM    7  C12 UNL     1       3.426  56.660  -8.550  1.00  0.00     0.276 C 
HETATM    8  O3  UNL     1       3.686  57.844  -8.752  1.00  0.00    -0.264 OA
HETATM    9  C13 UNL     1       3.229  55.616  -9.698  1.00  0.00     0.095 C 
HETATM   10  C14 UNL     1       3.836  56.212 -10.991  1.00  0.00     0.036 C 
HETATM   11  C15 UNL     1       1.720  55.595  -9.871  1.00  0.00     0.003 C 
HETATM   12  C16 UNL     1       0.931  54.677 -10.437  1.00  0.00     0.072 C 
HETATM   13  C17 UNL     1       1.309  53.414 -11.080  1.00  0.00     0.245 C 
HETATM   14  O4  UNL     1       0.503  52.880 -11.841  1.00  0.00    -0.268 OA
HETATM   15  N1  UNL     1       2.474  52.795 -10.793  1.00  0.00    -0.320 N 
HETATM   16  C18 UNL     1       3.550  53.075  -9.985  1.00  0.00     0.098 C 
HETATM   17  C19 UNL     1       3.888  54.261  -9.445  1.00  0.00     0.045 C 
HETATM   18  C20 UNL     1       5.172  54.318  -8.680  1.00  0.00     0.194 C 
HETATM   19  O5  UNL     1       5.789  55.369  -8.557  1.00  0.00    -0.287 OA
HETATM   20  C21 UNL     1       5.771  53.076  -8.166  1.00  0.00     0.046 A 
HETATM   21  C22 UNL     1       5.496  51.892  -8.821  1.00  0.00     0.032 A 
HETATM   22  C23 UNL     1       6.192  50.718  -8.492  1.00  0.00     0.026 A 
HETATM   23  C24 UNL     1       7.161  50.716  -7.475  1.00  0.00    -0.027 A 
HETATM   24  C25 UNL     1       7.882  49.438  -7.154  1.00  0.00     0.051 C 
HETATM   25  C26 UNL     1       7.374  51.902  -6.759  1.00  0.00     0.086 A 
HETATM   26  C27 UNL     1       6.682  53.071  -7.105  1.00  0.00     0.059 A 
HETATM   27  C28 UNL     1       6.685  54.214  -6.182  1.00  0.00     0.163 C 
HETATM   28  O7  UNL     1       5.637  54.392  -5.565  1.00  0.00    -0.292 OA
HETATM   29  C29 UNL     1       7.906  55.104  -6.120  1.00  0.00     0.084 C 
HETATM   30  C30 UNL     1       8.110  55.798  -4.768  1.00  0.00     0.016 C 
HETATM   31  C31 UNL     1       4.438  51.866  -9.833  1.00  0.00     0.210 C 
HETATM   32  O8  UNL     1       4.248  50.862 -10.514  1.00  0.00    -0.285 OA
HETATM   33  H24 UNL     1       2.504  51.865 -11.218  1.00  0.00     0.169 HD
ENDROOT
BRANCH   5  34
HETATM   34  C8  UNL     1       1.422  56.661  -5.753  1.00  0.00     0.010 C 
HETATM   35  C9  UNL     1       0.763  57.107  -4.664  1.00  0.00    -0.089 C 
HETATM   36  C10 UNL     1       1.214  58.220  -3.756  1.00  0.00     0.042 C 
HETATM   37  C11 UNL     1      -0.545  56.475  -4.258  1.00  0.00     0.042 C 
ENDBRANCH   5  34
BRANCH   4  38
HETATM   38  O1  UNL     1       3.982  56.088  -4.489  1.00  0.00    -0.389 OA
HETATM   39  H10 UNL     1       4.516  55.478  -5.042  1.00  0.00     0.210 HD
ENDBRANCH   4  38
BRANCH   1  40
HETATM   40  C2  UNL     1       7.455  57.634  -3.110  1.00  0.00     0.004 C 
HETATM   41  C1  UNL     1       6.662  58.927  -2.981  1.00  0.00     0.006 C 
ENDBRANCH   1  40
BRANCH  25  42
HETATM   42  O6  UNL     1       8.233  51.951  -5.695  1.00  0.00    -0.359 OA
HETATM   43  H29 UNL     1       8.540  51.061  -5.460  1.00  0.00     0.217 HD
ENDBRANCH  25  42
TORSDOF 4
ENDMDL
MODEL 3
REMARK minimizedAffinity -7.80697346
REMARK CNNscore 0.431288272
REMARK CNNaffinity 5.93305206
REMARK  4 active torsions:
REMARK  status: ('A' for Active; 'I' for Inactive)
REMARK    1  A    between atoms: C2_2  and  C3_3 
REMARK    2  A    between atoms: C6_6  and  O1_7 
REMARK    3  A    between atoms: C7_8  and  C8_9 
REMARK    4  A    between atoms: C26_32  and  O6_33 
ROOT
HETATM    1  C3  UNL     1      -9.205  48.111 -29.056  1.00  0.00     0.008 C 
HETATM    2  C4  UNL     1      -9.831  46.735 -28.974  1.00  0.00    -0.023 C 
HETATM    3  C5  UNL     1     -10.923  46.329 -28.300  1.00  0.00     0.004 C 
HETATM    4  C6  UNL     1     -11.904  47.063 -27.407  1.00  0.00     0.174 C 
HETATM    5  C7  UNL     1     -12.492  46.179 -26.257  1.00  0.00     0.187 C 
HETATM    6  O2  UNL     1     -11.488  45.750 -25.306  1.00  0.00    -0.308 OA
HETATM    7  C12 UNL     1     -11.160  44.425 -25.377  1.00  0.00     0.276 C 
HETATM    8  O3  UNL     1     -11.465  43.690 -26.314  1.00  0.00    -0.264 OA
HETATM    9  C13 UNL     1     -10.553  43.900 -24.035  1.00  0.00     0.095 C 
HETATM   10  C14 UNL     1     -10.024  42.467 -24.282  1.00  0.00     0.036 C 
HETATM   11  C15 UNL     1     -11.776  43.787 -23.140  1.00  0.00     0.003 C 
HETATM   12  C16 UNL     1     -11.866  43.729 -21.808  1.00  0.00     0.072 C 
HETATM   13  C17 UNL     1     -10.786  43.741 -20.815  1.00  0.00     0.245 C 
HETATM   14  O4  UNL     1     -11.031  43.332 -19.680  1.00  0.00    -0.268 OA
HETATM   15  N1  UNL     1      -9.573  44.260 -21.096  1.00  0.00    -0.320 N 
HETATM   16  C18 UNL     1      -8.989  44.823 -22.206  1.00  0.00     0.098 C 
HETATM   17  C19 UNL     1      -9.403  44.742 -23.485  1.00  0.00     0.045 C 
HETATM   18  C20 UNL     1      -8.527  45.367 -24.523  1.00  0.00     0.194 C 
HETATM   19  O5  UNL     1      -8.542  44.975 -25.683  1.00  0.00    -0.287 OA
HETATM   20  C21 UNL     1      -7.543  46.389 -24.130  1.00  0.00     0.046 A 
HETATM   21  C22 UNL     1      -7.051  46.367 -22.840  1.00  0.00     0.032 A 
HETATM   22  C23 UNL     1      -5.975  47.190 -22.475  1.00  0.00     0.026 A 
HETATM   23  C24 UNL     1      -5.396  48.073 -23.403  1.00  0.00    -0.027 A 
HETATM   24  C25 UNL     1      -4.246  48.937 -22.969  1.00  0.00     0.051 C 
HETATM   25  C26 UNL     1      -5.956  48.149 -24.685  1.00  0.00     0.086 A 
HETATM   26  C27 UNL     1      -7.022  47.312 -25.042  1.00  0.00     0.059 A 
HETATM   27  C28 UNL     1      -7.788  47.596 -26.263  1.00  0.00     0.163 C 
HETATM   28  O7  UNL     1      -8.903  48.079 -26.081  1.00  0.00    -0.292 OA
HETATM   29  C29 UNL     1      -7.200  47.212 -27.603  1.00  0.00     0.084 C 
HETATM   30  C30 UNL     1      -7.681  48.080 -28.772  1.00  0.00     0.016 C 
HETATM   31  C31 UNL     1      -7.693  45.504 -21.846  1.00  0.00     0.210 C 
HETATM   32  O8  UNL     1      -7.209  45.373 -20.726  1.00  0.00    -0.285 OA
HETATM   33  H24 UNL     1      -8.999  44.317 -20.251  1.00  0.00     0.169 HD
ENDROOT
BRANCH   5  34
HETATM   34  C8  UNL     1     -13.510  46.938 -25.430  1.00  0.00     0.010 C 
HETATM   35  C9  UNL     1     -14.796  46.626 -25.172  1.00  0.00    -0.089 C 
HETATM   36  C10 UNL     1     -15.522  45.405 -25.668  1.00  0.00     0.042 C 
HETATM   37  C11 UNL     1     -15.642  47.540 -24.322  1.00  0.00     0.042 C 
ENDBRANCH   5  34
BRANCH   4  38
HETATM   38  O1  UNL     1     -11.371  48.274 -26.886  1.00  0.00    -0.389 OA
HETATM   39  H10 UNL     1     -10.495  48.058 -26.497  1.00  0.00     0.210 HD
ENDBRANCH   4  38
BRANCH   1  40
HETATM   40  C2  UNL     1      -9.509  48.705 -30.450  1.00  0.00     0.004 C 
HETATM   41  C1  UNL     1      -8.268  49.192 -31.186  1.00  0.00     0.006 C 
ENDBRANCH   1  40
BRANCH  25  42
HETATM   42  O6  UNL     1      -5.505  49.051 -25.610  1.00  0.00    -0.359 OA
HETATM   43  H29 UNL     1      -4.872  49.667 -25.209  1.00  0.00     0.217 HD
ENDBRANCH  25  42
TORSDOF 4
ENDMDL
MODEL 4
REMARK minimizedAffinity -7.29003811
REMARK CNNscore 0.377591103
REMARK CNNaffinity 5.95353174
REMARK  4 active torsions:
REMARK  status: ('A' for Active; 'I' for Inactive)
REMARK    1  A    between atoms: C2_2  and  C3_3 
REMARK    2  A    between atoms: C6_6  and  O1_7 
REMARK    3  A    between atoms: C7_8  and  C8_9 
REMARK    4  A    between atoms: C26_32  and  O6_33 
ROOT
HETATM    1  C3  UNL     1       1.366  57.969  -3.597  1.00  0.00     0.008 C 
HETATM    2  C4  UNL     1       0.523  57.834  -4.846  1.00  0.00    -0.023 C 
HETATM    3  C5  UNL     1      -0.048  56.738  -5.381  1.00  0.00     0.004 C 
HETATM    4  C6  UNL     1      -0.065  55.284  -4.953  1.00  0.00     0.174 C 
HETATM    5  C7  UNL     1      -0.122  54.276  -6.150  1.00  0.00     0.187 C 
HETATM    6  O2  UNL     1       1.060  54.326  -6.985  1.00  0.00    -0.308 OA
HETATM    7  C12 UNL     1       0.872  54.901  -8.210  1.00  0.00     0.276 C 
HETATM    8  O3  UNL     1      -0.117  55.564  -8.515  1.00  0.00    -0.264 OA
HETATM    9  C13 UNL     1       1.946  54.433  -9.247  1.00  0.00     0.095 C 
HETATM   10  C14 UNL     1       1.779  55.291 -10.523  1.00  0.00     0.036 C 
HETATM   11  C15 UNL     1       1.490  53.023  -9.582  1.00  0.00     0.003 C 
HETATM   12  C16 UNL     1       2.166  52.006 -10.124  1.00  0.00     0.072 C 
HETATM   13  C17 UNL     1       3.561  51.968 -10.575  1.00  0.00     0.245 C 
HETATM   14  O4  UNL     1       3.901  51.079 -11.354  1.00  0.00    -0.268 OA
HETATM   15  N1  UNL     1       4.483  52.828 -10.092  1.00  0.00    -0.320 N 
HETATM   16  C18 UNL     1       4.463  53.879  -9.206  1.00  0.00     0.098 C 
HETATM   17  C19 UNL     1       3.391  54.568  -8.770  1.00  0.00     0.045 C 
HETATM   18  C20 UNL     1       3.654  55.741  -7.879  1.00  0.00     0.194 C 
HETATM   19  O5  UNL     1       2.861  56.671  -7.808  1.00  0.00    -0.287 OA
HETATM   20  C21 UNL     1       4.936  55.841  -7.164  1.00  0.00     0.046 A 
HETATM   21  C22 UNL     1       6.043  55.220  -7.706  1.00  0.00     0.032 A 
HETATM   22  C23 UNL     1       7.320  55.447  -7.172  1.00  0.00     0.026 A 
HETATM   23  C24 UNL     1       7.497  56.287  -6.059  1.00  0.00    -0.027 A 
HETATM   24  C25 UNL     1       8.882  56.502  -5.518  1.00  0.00     0.051 C 
HETATM   25  C26 UNL     1       6.359  56.847  -5.464  1.00  0.00     0.086 A 
HETATM   26  C27 UNL     1       5.089  56.623  -6.015  1.00  0.00     0.059 A 
HETATM   27  C28 UNL     1       3.891  56.958  -5.233  1.00  0.00     0.163 C 
HETATM   28  O7  UNL     1       3.289  55.997  -4.760  1.00  0.00    -0.292 OA
HETATM   29  C29 UNL     1       3.458  58.404  -5.138  1.00  0.00     0.084 C 
HETATM   30  C30 UNL     1       2.683  58.745  -3.859  1.00  0.00     0.016 C 
HETATM   31  C31 UNL     1       5.863  54.286  -8.820  1.00  0.00     0.210 C 
HETATM   32  O8  UNL     1       6.833  53.808  -9.400  1.00  0.00    -0.285 OA
HETATM   33  H24 UNL     1       5.421  52.565 -10.402  1.00  0.00     0.169 HD
ENDROOT
BRANCH   5  34
HETATM   34  C8  UNL     1      -0.198  52.841  -5.671  1.00  0.00     0.010 C 
HETATM   35  C9  UNL     1      -0.768  51.775  -6.269  1.00  0.00    -0.089 C 
HETATM   36  C10 UNL     1      -1.477  51.787  -7.597  1.00  0.00     0.042 C 
HETATM   37  C11 UNL     1      -0.736  50.423  -5.603  1.00  0.00     0.042 C 
ENDBRANCH   5  34
BRANCH   4  38
HETATM   38  O1  UNL     1       1.003  54.959  -4.074  1.00  0.00    -0.389 OA
HETATM   39  H10 UNL     1       1.829  55.286  -4.492  1.00  0.00     0.210 HD
ENDBRANCH   4  38
BRANCH   1  40
HETATM   40  C2  UNL     1       0.515  58.653  -2.503  1.00  0.00     0.004 C 
HETATM   41  C1  UNL     1       0.989  60.058  -2.155  1.00  0.00     0.006 C 
ENDBRANCH   1  40
BRANCH  25  42
HETATM   42  O6  UNL     1       6.445  57.599  -4.324  1.00  0.00    -0.359 OA
HETATM   43  H29 UNL     1       7.342  57.565  -3.957  1.00  0.00     0.217 HD
ENDBRANCH  25  42
TORSDOF 4
ENDMDL
MODEL 5
REMARK minimizedAffinity -7.85518837
REMARK CNNscore 0.324738622
REMARK CNNaffinity 6.20005465
REMARK  4 active torsions:
REMARK  status: ('A' for Active; 'I' for Inactive)
REMARK    1  A    between atoms: C2_2  and  C3_3 
REMARK    2  A    between atoms: C6_6  and  O1_7 
REMARK    3  A    between atoms: C7_8  and  C8_9 
REMARK    4  A    between atoms: C26_32  and  O6_33 
ROOT
HETATM    1  C3  UNL     1       4.372  57.397  -5.717  1.00  0.00     0.008 C 
HETATM    2  C4  UNL     1       3.085  57.879  -6.349  1.00  0.00    -0.023 C 
HETATM    3  C5  UNL     1       1.818  57.484  -6.123  1.00  0.00     0.004 C 
HETATM    4  C6  UNL     1       1.222  56.452  -5.186  1.00  0.00     0.174 C 
HETATM    5  C7  UNL     1      -0.064  55.760  -5.747  1.00  0.00     0.187 C 
HETATM    6  O2  UNL     1       0.192  54.971  -6.933  1.00  0.00    -0.308 OA
HETATM    7  C12 UNL     1      -0.288  55.508  -8.095  1.00  0.00     0.276 C 
HETATM    8  O3  UNL     1      -0.671  56.670  -8.208  1.00  0.00    -0.264 OA
HETATM    9  C13 UNL     1      -0.504  54.421  -9.197  1.00  0.00     0.095 C 
HETATM   10  C14 UNL     1      -0.840  55.147 -10.522  1.00  0.00     0.036 C 
HETATM   11  C15 UNL     1      -1.769  53.721  -8.728  1.00  0.00     0.003 C 
HETATM   12  C16 UNL     1      -2.255  52.517  -9.044  1.00  0.00     0.072 C 
HETATM   13  C17 UNL     1      -1.702  51.518  -9.966  1.00  0.00     0.245 C 
HETATM   14  O4  UNL     1      -2.449  50.638 -10.392  1.00  0.00    -0.268 OA
HETATM   15  N1  UNL     1      -0.390  51.499 -10.284  1.00  0.00    -0.320 N 
HETATM   16  C18 UNL     1       0.699  52.274  -9.964  1.00  0.00     0.098 C 
HETATM   17  C19 UNL     1       0.702  53.517  -9.445  1.00  0.00     0.045 C 
HETATM   18  C20 UNL     1       2.032  54.182  -9.284  1.00  0.00     0.194 C 
HETATM   19  O5  UNL     1       2.131  55.403  -9.274  1.00  0.00    -0.287 OA
HETATM   20  C21 UNL     1       3.257  53.368  -9.255  1.00  0.00     0.046 A 
HETATM   21  C22 UNL     1       3.253  52.149  -9.903  1.00  0.00     0.032 A 
HETATM   22  C23 UNL     1       4.446  51.428 -10.071  1.00  0.00     0.026 A 
HETATM   23  C24 UNL     1       5.660  51.916  -9.561  1.00  0.00    -0.027 A 
HETATM   24  C25 UNL     1       6.913  51.112  -9.762  1.00  0.00     0.051 C 
HETATM   25  C26 UNL     1       5.641  53.113  -8.832  1.00  0.00     0.086 A 
HETATM   26  C27 UNL     1       4.446  53.830  -8.681  1.00  0.00     0.059 A 
HETATM   27  C28 UNL     1       4.368  54.907  -7.685  1.00  0.00     0.163 C 
HETATM   28  O7  UNL     1       3.731  54.636  -6.670  1.00  0.00    -0.292 OA
HETATM   29  C29 UNL     1       4.989  56.249  -8.006  1.00  0.00     0.084 C 
HETATM   30  C30 UNL     1       5.448  57.039  -6.775  1.00  0.00     0.016 C 
HETATM   31  C31 UNL     1       1.982  51.597 -10.375  1.00  0.00     0.210 C 
HETATM   32  O8  UNL     1       1.958  50.576 -11.056  1.00  0.00    -0.285 OA
HETATM   33  H24 UNL     1      -0.159  50.656 -10.815  1.00  0.00     0.169 HD
ENDROOT
BRANCH   5  34
HETATM   34  C8  UNL     1      -0.656  54.783  -4.751  1.00  0.00     0.010 C 
HETATM   35  C9  UNL     1      -1.367  55.035  -3.634  1.00  0.00    -0.089 C 
HETATM   36  C10 UNL     1      -1.742  56.400  -3.119  1.00  0.00     0.042 C 
HETATM   37  C11 UNL     1      -1.856  53.899  -2.772  1.00  0.00     0.042 C 
ENDBRANCH   5  34
BRANCH   4  38
HETATM   38  O1  UNL     1       2.171  55.481  -4.765  1.00  0.00    -0.389 OA
HETATM   39  H10 UNL     1       2.611  55.140  -5.574  1.00  0.00     0.210 HD
ENDBRANCH   4  38
BRANCH   1  40
HETATM   40  C2  UNL     1       4.877  58.486  -4.743  1.00  0.00     0.004 C 
HETATM   41  C1  UNL     1       3.760  59.331  -4.146  1.00  0.00     0.006 C 
ENDBRANCH   1  40
BRANCH  25  42
HETATM   42  O6  UNL     1       6.767  53.600  -8.227  1.00  0.00    -0.359 OA
HETATM   43  H29 UNL     1       7.490  52.954  -8.275  1.00  0.00     0.217 HD
ENDBRANCH  25  42
TORSDOF 4
ENDMDL
MODEL 6
REMARK minimizedAffinity -7.20349503
REMARK CNNscore 0.290873677
REMARK CNNaffinity 5.74876451
REMARK  4 active torsions:
REMARK  status: ('A' for Active; 'I' for Inactive)
REMARK    1  A    between atoms: C2_2  and  C3_3 
REMARK    2  A    between atoms: C6_6  and  O1_7 
REMARK    3  A    between atoms: C7_8  and  C8_9 
REMARK    4  A    between atoms: C26_32  and  O6_33 
ROOT
HETATM    1  C3  UNL     1      -0.583  52.386 -10.302  1.00  0.00     0.008 C 
HETATM    2  C4  UNL     1       0.308  53.455 -10.898  1.00  0.00    -0.023 C 
HETATM    3  C5  UNL     1       1.651  53.547 -10.903  1.00  0.00     0.004 C 
HETATM    4  C6  UNL     1       2.738  52.652 -10.341  1.00  0.00     0.174 C 
HETATM    5  C7  UNL     1       4.009  53.430  -9.863  1.00  0.00     0.187 C 
HETATM    6  O2  UNL     1       3.743  54.311  -8.746  1.00  0.00    -0.308 OA
HETATM    7  C12 UNL     1       3.749  55.643  -9.051  1.00  0.00     0.276 C 
HETATM    8  O3  UNL     1       3.715  56.086 -10.198  1.00  0.00    -0.264 OA
HETATM    9  C13 UNL     1       4.031  56.531  -7.796  1.00  0.00     0.095 C 
HETATM   10  C14 UNL     1       3.808  58.008  -8.198  1.00  0.00     0.036 C 
HETATM   11  C15 UNL     1       5.524  56.337  -7.582  1.00  0.00     0.003 C 
HETATM   12  C16 UNL     1       6.272  56.548  -6.495  1.00  0.00     0.072 C 
HETATM   13  C17 UNL     1       5.860  57.053  -5.181  1.00  0.00     0.245 C 
HETATM   14  O4  UNL     1       6.723  57.507  -4.431  1.00  0.00    -0.268 OA
HETATM   15  N1  UNL     1       4.583  56.954  -4.755  1.00  0.00    -0.320 N 
HETATM   16  C18 UNL     1       3.411  56.478  -5.294  1.00  0.00     0.098 C 
HETATM   17  C19 UNL     1       3.143  56.228  -6.590  1.00  0.00     0.045 C 
HETATM   18  C20 UNL     1       1.748  55.807  -6.926  1.00  0.00     0.194 C 
HETATM   19  O5  UNL     1       1.280  56.001  -8.040  1.00  0.00    -0.287 OA
HETATM   20  C21 UNL     1       0.878  55.258  -5.874  1.00  0.00     0.046 A 
HETATM   21  C22 UNL     1       1.110  55.632  -4.565  1.00  0.00     0.032 A 
HETATM   22  C23 UNL     1       0.196  55.294  -3.555  1.00  0.00     0.026 A 
HETATM   23  C24 UNL     1      -0.957  54.547  -3.847  1.00  0.00    -0.027 A 
HETATM   24  C25 UNL     1      -1.908  54.206  -2.736  1.00  0.00     0.051 C 
HETATM   25  C26 UNL     1      -1.142  54.100  -5.163  1.00  0.00     0.086 A 
HETATM   26  C27 UNL     1      -0.229  54.454  -6.165  1.00  0.00     0.059 A 
HETATM   27  C28 UNL     1      -0.261  53.752  -7.455  1.00  0.00     0.163 C 
HETATM   28  O7  UNL     1       0.645  52.942  -7.633  1.00  0.00    -0.292 OA
HETATM   29  C29 UNL     1      -1.325  54.122  -8.465  1.00  0.00     0.084 C 
HETATM   30  C30 UNL     1      -1.708  52.984  -9.419  1.00  0.00     0.016 C 
HETATM   31  C31 UNL     1       2.344  56.348  -4.237  1.00  0.00     0.210 C 
HETATM   32  O8  UNL     1       2.527  56.797  -3.109  1.00  0.00    -0.285 OA
HETATM   33  H24 UNL     1       4.508  57.220  -3.770  1.00  0.00     0.169 HD
ENDROOT
BRANCH   5  34
HETATM   34  C8  UNL     1       5.088  52.489  -9.367  1.00  0.00     0.010 C 
HETATM   35  C9  UNL     1       6.380  52.754  -9.082  1.00  0.00    -0.089 C 
HETATM   36  C10 UNL     1       7.049  54.097  -9.200  1.00  0.00     0.042 C 
HETATM   37  C11 UNL     1       7.293  51.652  -8.605  1.00  0.00     0.042 C 
ENDBRANCH   5  34
BRANCH   4  38
HETATM   38  O1  UNL     1       2.263  51.789  -9.317  1.00  0.00    -0.389 OA
HETATM   39  H10 UNL     1       1.775  52.349  -8.673  1.00  0.00     0.210 HD
ENDBRANCH   4  38
BRANCH   1  40
HETATM   40  C2  UNL     1      -1.161  51.532 -11.454  1.00  0.00     0.004 C 
HETATM   41  C1  UNL     1      -2.044  52.322 -12.411  1.00  0.00     0.006 C 
ENDBRANCH   1  40
BRANCH  25  42
HETATM   42  O6  UNL     1      -2.191  53.290  -5.501  1.00  0.00    -0.359 OA
HETATM   43  H29 UNL     1      -2.668  52.996  -4.709  1.00  0.00     0.217 HD
ENDBRANCH  25  42
TORSDOF 4
ENDMDL
MODEL 7
REMARK minimizedAffinity -11.0839787
REMARK CNNscore 0.274881989
REMARK CNNaffinity 6.80091238
REMARK  4 active torsions:
REMARK  status: ('A' for Active; 'I' for Inactive)
REMARK    1  A    between atoms: C2_2  and  C3_3 
REMARK    2  A    between atoms: C6_6  and  O1_7 
REMARK    3  A    between atoms: C7_8  and  C8_9 
REMARK    4  A    between atoms: C26_32  and  O6_33 
ROOT
HETATM    1  C3  UNL     1      -0.074  51.779 -19.484  1.00  0.00     0.008 C 
HETATM    2  C4  UNL     1      -1.560  51.840 -19.203  1.00  0.00    -0.023 C 
HETATM    3  C5  UNL     1      -2.449  50.838 -19.068  1.00  0.00     0.004 C 
HETATM    4  C6  UNL     1      -2.307  49.330 -19.141  1.00  0.00     0.174 C 
HETATM    5  C7  UNL     1      -3.574  48.605 -19.707  1.00  0.00     0.187 C 
HETATM    6  O2  UNL     1      -3.848  48.945 -21.087  1.00  0.00    -0.308 OA
HETATM    7  C12 UNL     1      -4.935  49.753 -21.275  1.00  0.00     0.276 C 
HETATM    8  O3  UNL     1      -5.496  50.371 -20.373  1.00  0.00    -0.264 OA
HETATM    9  C13 UNL     1      -5.519  49.623 -22.720  1.00  0.00     0.095 C 
HETATM   10  C14 UNL     1      -6.597  50.719 -22.896  1.00  0.00     0.036 C 
HETATM   11  C15 UNL     1      -6.234  48.283 -22.669  1.00  0.00     0.003 C 
HETATM   12  C16 UNL     1      -6.619  47.475 -23.661  1.00  0.00     0.072 C 
HETATM   13  C17 UNL     1      -6.475  47.666 -25.109  1.00  0.00     0.245 C 
HETATM   14  O4  UNL     1      -7.189  47.004 -25.860  1.00  0.00    -0.268 OA
HETATM   15  N1  UNL     1      -5.532  48.483 -25.623  1.00  0.00    -0.320 N 
HETATM   16  C18 UNL     1      -4.569  49.310 -25.096  1.00  0.00     0.098 C 
HETATM   17  C19 UNL     1      -4.490  49.785 -23.838  1.00  0.00     0.045 C 
HETATM   18  C20 UNL     1      -3.390  50.756 -23.546  1.00  0.00     0.194 C 
HETATM   19  O5  UNL     1      -3.490  51.570 -22.637  1.00  0.00    -0.287 OA
HETATM   20  C21 UNL     1      -2.217  50.817 -24.432  1.00  0.00     0.046 A 
HETATM   21  C22 UNL     1      -2.366  50.434 -25.750  1.00  0.00     0.032 A 
HETATM   22  C23 UNL     1      -1.337  50.658 -26.677  1.00  0.00     0.026 A 
HETATM   23  C24 UNL     1      -0.126  51.249 -26.281  1.00  0.00    -0.027 A 
HETATM   24  C25 UNL     1       0.950  51.469 -27.306  1.00  0.00     0.051 C 
HETATM   25  C26 UNL     1       0.049  51.558 -24.925  1.00  0.00     0.086 A 
HETATM   26  C27 UNL     1      -0.991  51.342 -24.010  1.00  0.00     0.059 A 
HETATM   27  C28 UNL     1      -0.709  51.386 -22.569  1.00  0.00     0.163 C 
HETATM   28  O7  UNL     1      -0.679  50.293 -22.008  1.00  0.00    -0.292 OA
HETATM   29  C29 UNL     1      -0.559  52.730 -21.892  1.00  0.00     0.084 C 
HETATM   30  C30 UNL     1       0.342  52.711 -20.651  1.00  0.00     0.016 C 
HETATM   31  C31 UNL     1      -3.595  49.752 -26.159  1.00  0.00     0.210 C 
HETATM   32  O8  UNL     1      -3.810  49.504 -27.342  1.00  0.00    -0.285 OA
HETATM   33  H24 UNL     1      -5.480  48.382 -26.639  1.00  0.00     0.169 HD
ENDROOT
BRANCH   5  34
HETATM   34  C8  UNL     1      -3.407  47.099 -19.704  1.00  0.00     0.010 C 
HETATM   35  C9  UNL     1      -4.353  46.141 -19.643  1.00  0.00    -0.089 C 
HETATM   36  C10 UNL     1      -5.838  46.374 -19.565  1.00  0.00     0.042 C 
HETATM   37  C11 UNL     1      -3.959  44.685 -19.643  1.00  0.00     0.042 C 
ENDBRANCH   5  34
BRANCH   4  38
HETATM   38  O1  UNL     1      -1.141  48.923 -19.844  1.00  0.00    -0.389 OA
HETATM   39  H10 UNL     1      -1.135  49.408 -20.697  1.00  0.00     0.210 HD
ENDBRANCH   4  38
BRANCH   1  40
HETATM   40  C2  UNL     1       0.686  52.126 -18.184  1.00  0.00     0.004 C 
HETATM   41  C1  UNL     1       0.474  51.111 -17.068  1.00  0.00     0.006 C 
ENDBRANCH   1  40
BRANCH  25  42
HETATM   42  O6  UNL     1       1.235  52.049 -24.451  1.00  0.00    -0.359 OA
HETATM   43  H29 UNL     1       1.918  52.020 -25.139  1.00  0.00     0.217 HD
ENDBRANCH  25  42
TORSDOF 4
ENDMDL
MODEL 8
REMARK minimizedAffinity -6.97819185
REMARK CNNscore 0.270511687
REMARK CNNaffinity 5.49978447
REMARK  4 active torsions:
REMARK  status: ('A' for Active; 'I' for Inactive)
REMARK    1  A    between atoms: C2_2  and  C3_3 
REMARK    2  A    between atoms: C6_6  and  O1_7 
REMARK    3  A    between atoms: C7_8  and  C8_9 
REMARK    4  A    between atoms: C26_32  and  O6_33 
ROOT
HETATM    1  C3  UNL     1      -7.306  47.630 -29.370  1.00  0.00     0.008 C 
HETATM    2  C4  UNL     1      -7.555  46.138 -29.413  1.00  0.00    -0.023 C 
HETATM    3  C5  UNL     1      -8.718  45.461 -29.388  1.00  0.00     0.004 C 
HETATM    4  C6  UNL     1     -10.163  45.916 -29.314  1.00  0.00     0.174 C 
HETATM    5  C7  UNL     1     -11.096  44.924 -28.543  1.00  0.00     0.187 C 
HETATM    6  O2  UNL     1     -10.752  44.800 -27.142  1.00  0.00    -0.308 OA
HETATM    7  C12 UNL     1     -10.168  43.613 -26.798  1.00  0.00     0.276 C 
HETATM    8  O3  UNL     1      -9.717  42.808 -27.609  1.00  0.00    -0.264 OA
HETATM    9  C13 UNL     1     -10.341  43.295 -25.276  1.00  0.00     0.095 C 
HETATM   10  C14 UNL     1      -9.474  42.056 -24.949  1.00  0.00     0.036 C 
HETATM   11  C15 UNL     1     -11.797  42.869 -25.191  1.00  0.00     0.003 C 
HETATM   12  C16 UNL     1     -12.617  42.811 -24.138  1.00  0.00     0.072 C 
HETATM   13  C17 UNL     1     -12.332  43.132 -22.735  1.00  0.00     0.245 C 
HETATM   14  O4  UNL     1     -13.086  42.691 -21.868  1.00  0.00    -0.268 OA
HETATM   15  N1  UNL     1     -11.321  43.957 -22.390  1.00  0.00    -0.320 N 
HETATM   16  C18 UNL     1     -10.345  44.639 -23.077  1.00  0.00     0.098 C 
HETATM   17  C19 UNL     1      -9.925  44.427 -24.339  1.00  0.00     0.045 C 
HETATM   18  C20 UNL     1      -8.771  45.249 -24.818  1.00  0.00     0.194 C 
HETATM   19  O5  UNL     1      -8.037  44.849 -25.712  1.00  0.00    -0.287 OA
HETATM   20  C21 UNL     1      -8.435  46.506 -24.130  1.00  0.00     0.046 A 
HETATM   21  C22 UNL     1      -8.777  46.641 -22.799  1.00  0.00     0.032 A 
HETATM   22  C23 UNL     1      -8.309  47.732 -22.051  1.00  0.00     0.026 A 
HETATM   23  C24 UNL     1      -7.509  48.723 -22.644  1.00  0.00    -0.027 A 
HETATM   24  C25 UNL     1      -7.031  49.875 -21.806  1.00  0.00     0.051 C 
HETATM   25  C26 UNL     1      -7.237  48.623 -24.015  1.00  0.00     0.086 A 
HETATM   26  C27 UNL     1      -7.699  47.522 -24.749  1.00  0.00     0.059 A 
HETATM   27  C28 UNL     1      -7.669  47.566 -26.218  1.00  0.00     0.163 C 
HETATM   28  O7  UNL     1      -8.759  47.731 -26.759  1.00  0.00    -0.292 OA
HETATM   29  C29 UNL     1      -6.356  47.335 -26.932  1.00  0.00     0.084 C 
HETATM   30  C30 UNL     1      -6.255  48.020 -28.299  1.00  0.00     0.016 C 
HETATM   31  C31 UNL     1      -9.669  45.653 -22.189  1.00  0.00     0.210 C 
HETATM   32  O8  UNL     1      -9.898  45.676 -20.983  1.00  0.00    -0.285 OA
HETATM   33  H24 UNL     1     -11.361  44.182 -21.393  1.00  0.00     0.169 HD
ENDROOT
BRANCH   5  34
HETATM   34  C8  UNL     1     -12.538  45.392 -28.548  1.00  0.00     0.010 C 
HETATM   35  C9  UNL     1     -13.666  44.666 -28.410  1.00  0.00    -0.089 C 
HETATM   36  C10 UNL     1     -13.734  43.176 -28.209  1.00  0.00     0.042 C 
HETATM   37  C11 UNL     1     -15.013  45.342 -28.456  1.00  0.00     0.042 C 
ENDBRANCH   5  34
BRANCH   4  38
HETATM   38  O1  UNL     1     -10.297  47.234 -28.800  1.00  0.00    -0.389 OA
HETATM   39  H10 UNL     1      -9.779  47.271 -27.966  1.00  0.00     0.210 HD
ENDBRANCH   4  38
BRANCH   1  40
HETATM   40  C2  UNL     1      -6.878  48.096 -30.780  1.00  0.00     0.004 C 
HETATM   41  C1  UNL     1      -8.049  48.493 -31.670  1.00  0.00     0.006 C 
ENDBRANCH   1  40
BRANCH  25  42
HETATM   42  O6  UNL     1      -6.544  49.598 -24.679  1.00  0.00    -0.359 OA
HETATM   43  H29 UNL     1      -6.404  50.369 -24.108  1.00  0.00     0.217 HD
ENDBRANCH  25  42
TORSDOF 4
ENDMDL
MODEL 9
REMARK minimizedAffinity -7.82572746
REMARK CNNscore 0.240967631
REMARK CNNaffinity 5.33001375
REMARK  4 active torsions:
REMARK  status: ('A' for Active; 'I' for Inactive)
REMARK    1  A    between atoms: C2_2  and  C3_3 
REMARK    2  A    between atoms: C6_6  and  O1_7 
REMARK    3  A    between atoms: C7_8  and  C8_9 
REMARK    4  A    between atoms: C26_32  and  O6_33 
ROOT
HETATM    1  C3  UNL     1       5.119  65.943 -34.180  1.00  0.00     0.008 C 
HETATM    2  C4  UNL     1       6.532  66.059 -34.709  1.00  0.00    -0.023 C 
HETATM    3  C5  UNL     1       7.297  67.154 -34.880  1.00  0.00     0.004 C 
HETATM    4  C6  UNL     1       7.046  68.626 -34.615  1.00  0.00     0.174 C 
HETATM    5  C7  UNL     1       7.780  69.580 -35.616  1.00  0.00     0.187 C 
HETATM    6  O2  UNL     1       7.309  69.439 -36.977  1.00  0.00    -0.308 OA
HETATM    7  C12 UNL     1       8.182  68.818 -37.825  1.00  0.00     0.276 C 
HETATM    8  O3  UNL     1       9.170  68.187 -37.455  1.00  0.00    -0.264 OA
HETATM    9  C13 UNL     1       7.911  69.190 -39.320  1.00  0.00     0.095 C 
HETATM   10  C14 UNL     1       8.801  68.283 -40.203  1.00  0.00     0.036 C 
HETATM   11  C15 UNL     1       8.463  70.603 -39.416  1.00  0.00     0.003 C 
HETATM   12  C16 UNL     1       8.220  71.563 -40.313  1.00  0.00     0.072 C 
HETATM   13  C17 UNL     1       7.349  71.517 -41.493  1.00  0.00     0.245 C 
HETATM   14  O4  UNL     1       7.520  72.353 -42.379  1.00  0.00    -0.268 OA
HETATM   15  N1  UNL     1       6.328  70.639 -41.583  1.00  0.00    -0.320 N 
HETATM   16  C18 UNL     1       5.838  69.631 -40.788  1.00  0.00     0.098 C 
HETATM   17  C19 UNL     1       6.461  69.011 -39.767  1.00  0.00     0.045 C 
HETATM   18  C20 UNL     1       5.740  67.870 -39.123  1.00  0.00     0.194 C 
HETATM   19  O5  UNL     1       6.351  66.980 -38.545  1.00  0.00    -0.287 OA
HETATM   20  C21 UNL     1       4.282  67.744 -39.284  1.00  0.00     0.046 A 
HETATM   21  C22 UNL     1       3.693  68.290 -40.407  1.00  0.00     0.032 A 
HETATM   22  C23 UNL     1       2.347  68.029 -40.703  1.00  0.00     0.026 A 
HETATM   23  C24 UNL     1       1.563  67.234 -39.851  1.00  0.00    -0.027 A 
HETATM   24  C25 UNL     1       0.125  66.981 -40.205  1.00  0.00     0.051 C 
HETATM   25  C26 UNL     1       2.145  66.753 -38.670  1.00  0.00     0.086 A 
HETATM   26  C27 UNL     1       3.495  67.009 -38.392  1.00  0.00     0.059 A 
HETATM   27  C28 UNL     1       4.014  66.764 -37.039  1.00  0.00     0.163 C 
HETATM   28  O7  UNL     1       4.217  67.772 -36.367  1.00  0.00    -0.292 OA
HETATM   29  C29 UNL     1       4.325  65.345 -36.619  1.00  0.00     0.084 C 
HETATM   30  C30 UNL     1       4.211  65.098 -35.110  1.00  0.00     0.016 C 
HETATM   31  C31 UNL     1       4.480  69.179 -41.263  1.00  0.00     0.210 C 
HETATM   32  O8  UNL     1       4.026  69.586 -42.329  1.00  0.00    -0.285 OA
HETATM   33  H24 UNL     1       5.745  70.845 -42.398  1.00  0.00     0.169 HD
ENDROOT
BRANCH   5  34
HETATM   34  C8  UNL     1       7.547  71.038 -35.274  1.00  0.00     0.010 C 
HETATM   35  C9  UNL     1       8.074  71.768 -34.270  1.00  0.00    -0.089 C 
HETATM   36  C10 UNL     1       9.047  71.269 -33.235  1.00  0.00     0.042 C 
HETATM   37  C11 UNL     1       7.693  73.218 -34.106  1.00  0.00     0.042 C 
ENDBRANCH   5  34
BRANCH   4  38
HETATM   38  O1  UNL     1       5.662  68.942 -34.544  1.00  0.00    -0.389 OA
HETATM   39  H10 UNL     1       5.238  68.559 -35.343  1.00  0.00     0.210 HD
ENDBRANCH   4  38
BRANCH   1  40
HETATM   40  C2  UNL     1       5.178  65.349 -32.754  1.00  0.00     0.004 C 
HETATM   41  C1  UNL     1       4.119  64.285 -32.496  1.00  0.00     0.006 C 
ENDBRANCH   1  40
BRANCH  25  42
HETATM   42  O6  UNL     1       1.417  66.051 -37.748  1.00  0.00    -0.359 OA
HETATM   43  H29 UNL     1       0.474  66.060 -37.976  1.00  0.00     0.217 HD
ENDBRANCH  25  42
TORSDOF 4
ENDMDL
