MODEL 1
REMARK minimizedAffinity -8.51907063
REMARK CNNscore 0.621673822
REMARK CNNaffinity 7.74409485
REMARK  19 active torsions:
REMARK  status: ('A' for Active; 'I' for Inactive)
REMARK    1  A    between atoms: C14_15  and  O2_16 
REMARK    2  A    between atoms: C14_15  and  C15_17 
REMARK    3  A    between atoms: C15_17  and  C16_19 
REMARK    4  A    between atoms: C16_19  and  O4_20 
REMARK    5  A    between atoms: O4_20  and  C17_21 
REMARK    6  A    between atoms: C17_21  and  C18_23 
REMARK    7  A    between atoms: C18_23  and  C19_24 
REMARK    8  A    between atoms: C19_24  and  C20_25 
REMARK       I    between atoms: C20_25  and  N1_27 
REMARK    9  A    between atoms: N1_27  and  C21_28 
REMARK   10  A    between atoms: C21_28  and  C22_29 
REMARK   11  A    between atoms: C22_29  and  C23_30 
REMARK   12  A    between atoms: C23_30  and  C24_31 
REMARK   13  A    between atoms: C24_31  and  C25_32 
REMARK   14  A    between atoms: C25_32  and  C26_33 
REMARK       I    between atoms: C26_33  and  N2_35 
REMARK   15  A    between atoms: N2_35  and  C27_36 
REMARK   16  A    between atoms: C27_36  and  C28_37 
REMARK   17  A    between atoms: C27_36  and  C35_44 
REMARK   18  A    between atoms: C28_37  and  C29_38 
REMARK   19  A    between atoms: C35_44  and  O9_46 
ROOT
HETATM    1  C17 UNL     1      -5.145   3.077  10.661  1.00  0.00     0.259 C 
HETATM    2  O5  UNL     1      -5.931   2.678   9.809  1.00  0.00    -0.265 OA
ENDROOT
BRANCH   1   3
HETATM    3  O4  UNL     1      -5.361   3.057  12.002  1.00  0.00    -0.314 OA
BRANCH   3   4
HETATM    4  C16 UNL     1      -6.728   2.869  12.377  1.00  0.00     0.260 C 
BRANCH   4   5
HETATM    5  C15 UNL     1      -7.101   3.703  13.602  1.00  0.00     0.185 C 
HETATM    6  O3  UNL     1      -7.506   3.170  14.640  1.00  0.00    -0.292 OA
BRANCH   5   7
HETATM    7  C14 UNL     1      -6.988   5.246  13.445  1.00  0.00     0.128 C 
HETATM    8  C13 UNL     1      -7.724   5.625  12.148  1.00  0.00     0.047 C 
HETATM    9  C12 UNL     1      -9.118   6.116  12.564  1.00  0.00     0.009 C 
HETATM   10  C11 UNL     1      -9.181   6.040  14.101  1.00  0.00     0.002 C 
HETATM   11  C10 UNL     1     -10.101   7.075  14.789  1.00  0.00    -0.004 C 
HETATM   12  C36 UNL     1      -7.701   6.106  14.540  1.00  0.00    -0.002 C 
HETATM   13  C9  UNL     1     -11.528   7.003  14.227  1.00  0.00     0.010 C 
HETATM   14  C40 UNL     1      -9.557   8.523  14.718  1.00  0.00     0.002 C 
HETATM   15  C8  UNL     1     -12.463   7.943  14.974  1.00  0.00     0.035 C 
HETATM   16  C7  UNL     1     -11.954   9.363  14.958  1.00  0.00    -0.068 C 
HETATM   17  C2  UNL     1     -10.506   9.580  15.415  1.00  0.00    -0.016 C 
HETATM   18  C6  UNL     1     -12.776  10.360  14.582  1.00  0.00     0.053 C 
HETATM   19  C1  UNL     1     -10.470   9.466  16.956  1.00  0.00     0.020 C 
HETATM   20  C3  UNL     1     -10.029  11.005  15.001  1.00  0.00     0.022 C 
HETATM   21  C4  UNL     1     -11.041  12.103  15.297  1.00  0.00     0.084 C 
HETATM   22  C5  UNL     1     -12.371  11.781  14.668  1.00  0.00     0.149 C 
HETATM   23  O1  UNL     1     -13.150  12.656  14.295  1.00  0.00    -0.293 OA
HETATM   24  C39 UNL     1      -8.108   8.563  15.243  1.00  0.00     0.007 C 
HETATM   25  C38 UNL     1      -7.198   7.579  14.505  1.00  0.00     0.013 C 
HETATM   26  C37 UNL     1      -7.482   5.550  15.960  1.00  0.00     0.019 C 
BRANCH   7  27
HETATM   27  O2  UNL     1      -5.618   5.620  13.332  1.00  0.00    -0.381 OA
HETATM   28  H19 UNL     1      -5.209   5.561  14.214  1.00  0.00     0.211 HD
ENDBRANCH   7  27
ENDBRANCH   5   7
ENDBRANCH   4   5
ENDBRANCH   3   4
ENDBRANCH   1   3
BRANCH   1  29
HETATM   29  C18 UNL     1      -3.791   3.670  10.362  1.00  0.00     0.120 C 
BRANCH  29  30
HETATM   30  C19 UNL     1      -2.966   3.821  11.632  1.00  0.00     0.112 C 
BRANCH  30  31
HETATM   31  C20 UNL     1      -1.496   3.878  11.277  1.00  0.00     0.217 C 
HETATM   32  O6  UNL     1      -0.870   2.877  10.942  1.00  0.00    -0.274 OA
HETATM   33  N1  UNL     1      -0.931   5.124  11.433  1.00  0.00    -0.361 N 
HETATM   34  H26 UNL     1      -1.459   5.819  11.956  1.00  0.00     0.162 HD
BRANCH  33  35
HETATM   35  C21 UNL     1       0.503   5.311  11.350  1.00  0.00     0.122 C 
BRANCH  35  36
HETATM   36  C22 UNL     1       0.854   6.293  10.235  1.00  0.00     0.020 C 
BRANCH  36  37
HETATM   37  C23 UNL     1       2.211   6.019   9.587  1.00  0.00     0.002 C 
BRANCH  37  38
HETATM   38  C24 UNL     1       3.430   6.181  10.507  1.00  0.00     0.009 C 
BRANCH  38  39
HETATM   39  C25 UNL     1       4.351   7.351  10.159  1.00  0.00     0.103 C 
BRANCH  39  40
HETATM   40  C26 UNL     1       5.150   7.854  11.346  1.00  0.00     0.218 C 
HETATM   41  O7  UNL     1       5.649   8.973  11.401  1.00  0.00    -0.274 OA
HETATM   42  N2  UNL     1       5.289   6.920  12.348  1.00  0.00    -0.346 N 
HETATM   43  H37 UNL     1       5.060   5.958  12.131  1.00  0.00     0.163 HD
BRANCH  42  44
HETATM   44  C27 UNL     1       6.158   7.163  13.505  1.00  0.00     0.186 C 
BRANCH  44  45
HETATM   45  C28 UNL     1       7.463   7.904  13.152  1.00  0.00     0.074 C 
BRANCH  45  46
HETATM   46  C29 UNL     1       8.152   8.490  14.367  1.00  0.00    -0.056 A 
HETATM   47  C30 UNL     1       8.715   7.655  15.341  1.00  0.00     0.007 A 
HETATM   48  C31 UNL     1       9.364   8.200  16.449  1.00  0.00     0.001 A 
HETATM   49  C32 UNL     1       9.455   9.584  16.593  1.00  0.00     0.000 A 
HETATM   50  C33 UNL     1       8.898  10.423  15.632  1.00  0.00     0.001 A 
HETATM   51  C34 UNL     1       8.248   9.879  14.523  1.00  0.00     0.007 A 
ENDBRANCH  45  46
ENDBRANCH  44  45
BRANCH  44  52
HETATM   52  C35 UNL     1       5.358   7.828  14.636  1.00  0.00     0.163 C 
HETATM   53  O8  UNL     1       4.836   8.936  14.597  1.00  0.00    -0.648 OA
BRANCH  52  54
HETATM   54  O9  UNL     1       5.183   7.057  15.727  1.00  0.00    -0.775 OA
HETATM   55  H46 UNL     1       4.734   7.652  16.365  1.00  0.00     0.167 HD
ENDBRANCH  52  54
ENDBRANCH  44  52
ENDBRANCH  42  44
ENDBRANCH  39  40
ENDBRANCH  38  39
ENDBRANCH  37  38
ENDBRANCH  36  37
ENDBRANCH  35  36
ENDBRANCH  33  35
ENDBRANCH  30  31
ENDBRANCH  29  30
ENDBRANCH   1  29
TORSDOF 19
ENDMDL
MODEL 2
REMARK minimizedAffinity -8.10255146
REMARK CNNscore 0.567168772
REMARK CNNaffinity 7.92167473
REMARK  19 active torsions:
REMARK  status: ('A' for Active; 'I' for Inactive)
REMARK    1  A    between atoms: C14_15  and  O2_16 
REMARK    2  A    between atoms: C14_15  and  C15_17 
REMARK    3  A    between atoms: C15_17  and  C16_19 
REMARK    4  A    between atoms: C16_19  and  O4_20 
REMARK    5  A    between atoms: O4_20  and  C17_21 
REMARK    6  A    between atoms: C17_21  and  C18_23 
REMARK    7  A    between atoms: C18_23  and  C19_24 
REMARK    8  A    between atoms: C19_24  and  C20_25 
REMARK       I    between atoms: C20_25  and  N1_27 
REMARK    9  A    between atoms: N1_27  and  C21_28 
REMARK   10  A    between atoms: C21_28  and  C22_29 
REMARK   11  A    between atoms: C22_29  and  C23_30 
REMARK   12  A    between atoms: C23_30  and  C24_31 
REMARK   13  A    between atoms: C24_31  and  C25_32 
REMARK   14  A    between atoms: C25_32  and  C26_33 
REMARK       I    between atoms: C26_33  and  N2_35 
REMARK   15  A    between atoms: N2_35  and  C27_36 
REMARK   16  A    between atoms: C27_36  and  C28_37 
REMARK   17  A    between atoms: C27_36  and  C35_44 
REMARK   18  A    between atoms: C28_37  and  C29_38 
REMARK   19  A    between atoms: C35_44  and  O9_46 
ROOT
HETATM    1  C17 UNL     1      -4.668   3.331  11.152  1.00  0.00     0.259 C 
HETATM    2  O5  UNL     1      -5.269   3.168  10.095  1.00  0.00    -0.265 OA
ENDROOT
BRANCH   1   3
HETATM    3  O4  UNL     1      -5.177   3.097  12.390  1.00  0.00    -0.314 OA
BRANCH   3   4
HETATM    4  C16 UNL     1      -6.605   3.063  12.445  1.00  0.00     0.260 C 
BRANCH   4   5
HETATM    5  C15 UNL     1      -7.148   3.882  13.616  1.00  0.00     0.185 C 
HETATM    6  O3  UNL     1      -7.658   3.332  14.598  1.00  0.00    -0.292 OA
BRANCH   5   7
HETATM    7  C14 UNL     1      -7.064   5.428  13.473  1.00  0.00     0.128 C 
HETATM    8  C13 UNL     1      -7.827   5.807  12.192  1.00  0.00     0.047 C 
HETATM    9  C12 UNL     1      -9.222   6.268  12.634  1.00  0.00     0.009 C 
HETATM   10  C11 UNL     1      -9.261   6.176  14.171  1.00  0.00     0.002 C 
HETATM   11  C10 UNL     1     -10.188   7.187  14.883  1.00  0.00    -0.004 C 
HETATM   12  C36 UNL     1      -7.776   6.264  14.588  1.00  0.00    -0.002 C 
HETATM   13  C9  UNL     1     -11.623   7.095  14.342  1.00  0.00     0.010 C 
HETATM   14  C40 UNL     1      -9.671   8.645  14.819  1.00  0.00     0.002 C 
HETATM   15  C8  UNL     1     -12.563   8.011  15.113  1.00  0.00     0.035 C 
HETATM   16  C7  UNL     1     -12.078   9.440  15.104  1.00  0.00    -0.068 C 
HETATM   17  C2  UNL     1     -10.628   9.678  15.541  1.00  0.00    -0.016 C 
HETATM   18  C6  UNL     1     -12.924  10.426  14.751  1.00  0.00     0.053 C 
HETATM   19  C1  UNL     1     -10.566   9.549  17.081  1.00  0.00     0.020 C 
HETATM   20  C3  UNL     1     -10.183  11.115  15.135  1.00  0.00     0.022 C 
HETATM   21  C4  UNL     1     -11.209  12.192  15.459  1.00  0.00     0.084 C 
HETATM   22  C5  UNL     1     -12.543  11.853  14.846  1.00  0.00     0.149 C 
HETATM   23  O1  UNL     1     -13.342  12.718  14.495  1.00  0.00    -0.293 OA
HETATM   24  C39 UNL     1      -8.215   8.706  15.323  1.00  0.00     0.007 C 
HETATM   25  C38 UNL     1      -7.300   7.745  14.561  1.00  0.00     0.013 C 
HETATM   26  C37 UNL     1      -7.526   5.697  15.999  1.00  0.00     0.019 C 
BRANCH   7  27
HETATM   27  O2  UNL     1      -5.703   5.827  13.344  1.00  0.00    -0.381 OA
HETATM   28  H19 UNL     1      -5.280   5.766  14.219  1.00  0.00     0.211 HD
ENDBRANCH   7  27
ENDBRANCH   5   7
ENDBRANCH   4   5
ENDBRANCH   3   4
ENDBRANCH   1   3
BRANCH   1  29
HETATM   29  C18 UNL     1      -3.249   3.831  11.259  1.00  0.00     0.120 C 
BRANCH  29  30
HETATM   30  C19 UNL     1      -2.842   4.019  12.713  1.00  0.00     0.112 C 
BRANCH  30  31
HETATM   31  C20 UNL     1      -1.927   5.217  12.832  1.00  0.00     0.217 C 
HETATM   32  O6  UNL     1      -1.129   5.514  11.948  1.00  0.00    -0.274 OA
HETATM   33  N1  UNL     1      -2.030   5.883  14.033  1.00  0.00    -0.361 N 
HETATM   34  H26 UNL     1      -2.522   5.413  14.790  1.00  0.00     0.162 HD
BRANCH  33  35
HETATM   35  C21 UNL     1      -1.081   6.912  14.402  1.00  0.00     0.122 C 
BRANCH  35  36
HETATM   36  C22 UNL     1      -1.522   8.270  13.861  1.00  0.00     0.020 C 
BRANCH  36  37
HETATM   37  C23 UNL     1      -0.462   8.957  12.999  1.00  0.00     0.002 C 
BRANCH  37  38
HETATM   38  C24 UNL     1       0.931   9.077  13.634  1.00  0.00     0.009 C 
BRANCH  38  39
HETATM   39  C25 UNL     1       1.904   7.954  13.275  1.00  0.00     0.103 C 
BRANCH  39  40
HETATM   40  C26 UNL     1       3.286   8.458  12.908  1.00  0.00     0.218 C 
HETATM   41  O7  UNL     1       3.511   9.601  12.524  1.00  0.00    -0.274 OA
HETATM   42  N2  UNL     1       4.266   7.497  13.015  1.00  0.00    -0.346 N 
HETATM   43  H37 UNL     1       3.972   6.532  13.102  1.00  0.00     0.163 HD
BRANCH  42  44
HETATM   44  C27 UNL     1       5.637   7.745  12.555  1.00  0.00     0.186 C 
BRANCH  44  45
HETATM   45  C28 UNL     1       5.904   7.255  11.118  1.00  0.00     0.074 C 
BRANCH  45  46
HETATM   46  C29 UNL     1       4.638   7.118  10.299  1.00  0.00    -0.056 A 
HETATM   47  C30 UNL     1       3.928   5.910  10.276  1.00  0.00     0.007 A 
HETATM   48  C31 UNL     1       2.753   5.795   9.533  1.00  0.00     0.001 A 
HETATM   49  C32 UNL     1       2.277   6.885   8.806  1.00  0.00     0.000 A 
HETATM   50  C33 UNL     1       2.975   8.090   8.821  1.00  0.00     0.001 A 
HETATM   51  C34 UNL     1       4.150   8.207   9.563  1.00  0.00     0.007 A 
ENDBRANCH  45  46
ENDBRANCH  44  45
BRANCH  44  52
HETATM   52  C35 UNL     1       6.011   9.219  12.781  1.00  0.00     0.163 C 
HETATM   53  O8  UNL     1       6.281  10.038  11.911  1.00  0.00    -0.648 OA
BRANCH  52  54
HETATM   54  O9  UNL     1       5.956   9.619  14.067  1.00  0.00    -0.775 OA
HETATM   55  H46 UNL     1       6.295  10.539  14.040  1.00  0.00     0.167 HD
ENDBRANCH  52  54
ENDBRANCH  44  52
ENDBRANCH  42  44
ENDBRANCH  39  40
ENDBRANCH  38  39
ENDBRANCH  37  38
ENDBRANCH  36  37
ENDBRANCH  35  36
ENDBRANCH  33  35
ENDBRANCH  30  31
ENDBRANCH  29  30
ENDBRANCH   1  29
TORSDOF 19
ENDMDL
MODEL 3
REMARK minimizedAffinity -8.01510906
REMARK CNNscore 0.434202433
REMARK CNNaffinity 7.40975237
REMARK  19 active torsions:
REMARK  status: ('A' for Active; 'I' for Inactive)
REMARK    1  A    between atoms: C14_15  and  O2_16 
REMARK    2  A    between atoms: C14_15  and  C15_17 
REMARK    3  A    between atoms: C15_17  and  C16_19 
REMARK    4  A    between atoms: C16_19  and  O4_20 
REMARK    5  A    between atoms: O4_20  and  C17_21 
REMARK    6  A    between atoms: C17_21  and  C18_23 
REMARK    7  A    between atoms: C18_23  and  C19_24 
REMARK    8  A    between atoms: C19_24  and  C20_25 
REMARK       I    between atoms: C20_25  and  N1_27 
REMARK    9  A    between atoms: N1_27  and  C21_28 
REMARK   10  A    between atoms: C21_28  and  C22_29 
REMARK   11  A    between atoms: C22_29  and  C23_30 
REMARK   12  A    between atoms: C23_30  and  C24_31 
REMARK   13  A    between atoms: C24_31  and  C25_32 
REMARK   14  A    between atoms: C25_32  and  C26_33 
REMARK       I    between atoms: C26_33  and  N2_35 
REMARK   15  A    between atoms: N2_35  and  C27_36 
REMARK   16  A    between atoms: C27_36  and  C28_37 
REMARK   17  A    between atoms: C27_36  and  C35_44 
REMARK   18  A    between atoms: C28_37  and  C29_38 
REMARK   19  A    between atoms: C35_44  and  O9_46 
ROOT
HETATM    1  C17 UNL     1      -3.635   4.570  12.468  1.00  0.00     0.259 C 
HETATM    2  O5  UNL     1      -3.628   4.000  11.383  1.00  0.00    -0.265 OA
ENDROOT
BRANCH   1   3
HETATM    3  O4  UNL     1      -4.485   4.299  13.493  1.00  0.00    -0.314 OA
BRANCH   3   4
HETATM    4  C16 UNL     1      -5.812   3.958  13.085  1.00  0.00     0.260 C 
BRANCH   4   5
HETATM    5  C15 UNL     1      -6.867   4.608  13.981  1.00  0.00     0.185 C 
HETATM    6  O3  UNL     1      -7.484   3.948  14.824  1.00  0.00    -0.292 OA
BRANCH   5   7
HETATM    7  C14 UNL     1      -7.145   6.117  13.733  1.00  0.00     0.128 C 
HETATM    8  C13 UNL     1      -7.894   6.227  12.394  1.00  0.00     0.047 C 
HETATM    9  C12 UNL     1      -9.383   6.362  12.735  1.00  0.00     0.009 C 
HETATM   10  C11 UNL     1      -9.496   6.351  14.272  1.00  0.00     0.002 C 
HETATM   11  C10 UNL     1     -10.680   7.148  14.865  1.00  0.00    -0.004 C 
HETATM   12  C36 UNL     1      -8.104   6.819  14.751  1.00  0.00    -0.002 C 
HETATM   13  C9  UNL     1     -12.014   6.682  14.264  1.00  0.00     0.010 C 
HETATM   14  C40 UNL     1     -10.522   8.682  14.723  1.00  0.00     0.002 C 
HETATM   15  C8  UNL     1     -13.192   7.385  14.923  1.00  0.00     0.035 C 
HETATM   16  C7  UNL     1     -13.062   8.887  14.836  1.00  0.00    -0.068 C 
HETATM   17  C2  UNL     1     -11.740   9.492  15.324  1.00  0.00    -0.016 C 
HETATM   18  C6  UNL     1     -14.094   9.617  14.375  1.00  0.00     0.053 C 
HETATM   19  C1  UNL     1     -11.747   9.470  16.871  1.00  0.00     0.020 C 
HETATM   20  C3  UNL     1     -11.625  10.969  14.840  1.00  0.00     0.022 C 
HETATM   21  C4  UNL     1     -12.897  11.782  15.037  1.00  0.00     0.084 C 
HETATM   22  C5  UNL     1     -14.070  11.097  14.387  1.00  0.00     0.149 C 
HETATM   23  O1  UNL     1     -15.028  11.722  13.938  1.00  0.00    -0.293 OA
HETATM   24  C39 UNL     1      -9.157   9.121  15.290  1.00  0.00     0.007 C 
HETATM   25  C38 UNL     1      -7.993   8.368  14.642  1.00  0.00     0.013 C 
HETATM   26  C37 UNL     1      -7.815   6.411  16.209  1.00  0.00     0.019 C 
BRANCH   7  27
HETATM   27  O2  UNL     1      -5.912   6.826  13.641  1.00  0.00    -0.381 OA
HETATM   28  H19 UNL     1      -5.542   6.919  14.538  1.00  0.00     0.211 HD
ENDBRANCH   7  27
ENDBRANCH   5   7
ENDBRANCH   4   5
ENDBRANCH   3   4
ENDBRANCH   1   3
BRANCH   1  29
HETATM   29  C18 UNL     1      -2.696   5.686  12.853  1.00  0.00     0.120 C 
BRANCH  29  30
HETATM   30  C19 UNL     1      -1.307   5.456  12.276  1.00  0.00     0.112 C 
BRANCH  30  31
HETATM   31  C20 UNL     1      -0.611   6.786  12.085  1.00  0.00     0.217 C 
HETATM   32  O6  UNL     1      -0.373   7.534  13.028  1.00  0.00    -0.274 OA
HETATM   33  N1  UNL     1      -0.344   7.094  10.770  1.00  0.00    -0.361 N 
HETATM   34  H26 UNL     1      -0.808   6.539  10.053  1.00  0.00     0.162 HD
BRANCH  33  35
HETATM   35  C21 UNL     1       0.115   8.413  10.388  1.00  0.00     0.122 C 
BRANCH  35  36
HETATM   36  C22 UNL     1       0.706   8.390   8.980  1.00  0.00     0.020 C 
BRANCH  36  37
HETATM   37  C23 UNL     1       1.136   6.996   8.522  1.00  0.00     0.002 C 
BRANCH  37  38
HETATM   38  C24 UNL     1       2.649   6.787   8.365  1.00  0.00     0.009 C 
BRANCH  38  39
HETATM   39  C25 UNL     1       3.290   5.889   9.423  1.00  0.00     0.103 C 
BRANCH  39  40
HETATM   40  C26 UNL     1       3.871   6.664  10.590  1.00  0.00     0.218 C 
HETATM   41  O7  UNL     1       3.200   7.081  11.528  1.00  0.00    -0.274 OA
HETATM   42  N2  UNL     1       5.226   6.883  10.481  1.00  0.00    -0.346 N 
HETATM   43  H37 UNL     1       5.659   6.722   9.580  1.00  0.00     0.163 HD
BRANCH  42  44
HETATM   44  C27 UNL     1       5.940   7.747  11.428  1.00  0.00     0.186 C 
BRANCH  44  45
HETATM   45  C28 UNL     1       7.214   7.103  12.011  1.00  0.00     0.074 C 
BRANCH  45  46
HETATM   46  C29 UNL     1       7.558   7.625  13.390  1.00  0.00    -0.056 A 
HETATM   47  C30 UNL     1       6.553   7.833  14.346  1.00  0.00     0.007 A 
HETATM   48  C31 UNL     1       6.878   8.297  15.621  1.00  0.00     0.001 A 
HETATM   49  C32 UNL     1       8.206   8.557  15.952  1.00  0.00     0.000 A 
HETATM   50  C33 UNL     1       9.212   8.355  15.009  1.00  0.00     0.001 A 
HETATM   51  C34 UNL     1       8.890   7.891  13.734  1.00  0.00     0.007 A 
ENDBRANCH  45  46
ENDBRANCH  44  45
BRANCH  44  52
HETATM   52  C35 UNL     1       6.180   9.131  10.804  1.00  0.00     0.163 C 
HETATM   53  O8  UNL     1       5.339  10.007  10.647  1.00  0.00    -0.648 OA
BRANCH  52  54
HETATM   54  O9  UNL     1       7.463   9.384  10.480  1.00  0.00    -0.775 OA
HETATM   55  H46 UNL     1       7.423  10.256  10.032  1.00  0.00     0.167 HD
ENDBRANCH  52  54
ENDBRANCH  44  52
ENDBRANCH  42  44
ENDBRANCH  39  40
ENDBRANCH  38  39
ENDBRANCH  37  38
ENDBRANCH  36  37
ENDBRANCH  35  36
ENDBRANCH  33  35
ENDBRANCH  30  31
ENDBRANCH  29  30
ENDBRANCH   1  29
TORSDOF 19
ENDMDL
MODEL 4
REMARK minimizedAffinity -7.87863874
REMARK CNNscore 0.426138908
REMARK CNNaffinity 6.26799059
REMARK  19 active torsions:
REMARK  status: ('A' for Active; 'I' for Inactive)
REMARK    1  A    between atoms: C14_15  and  O2_16 
REMARK    2  A    between atoms: C14_15  and  C15_17 
REMARK    3  A    between atoms: C15_17  and  C16_19 
REMARK    4  A    between atoms: C16_19  and  O4_20 
REMARK    5  A    between atoms: O4_20  and  C17_21 
REMARK    6  A    between atoms: C17_21  and  C18_23 
REMARK    7  A    between atoms: C18_23  and  C19_24 
REMARK    8  A    between atoms: C19_24  and  C20_25 
REMARK       I    between atoms: C20_25  and  N1_27 
REMARK    9  A    between atoms: N1_27  and  C21_28 
REMARK   10  A    between atoms: C21_28  and  C22_29 
REMARK   11  A    between atoms: C22_29  and  C23_30 
REMARK   12  A    between atoms: C23_30  and  C24_31 
REMARK   13  A    between atoms: C24_31  and  C25_32 
REMARK   14  A    between atoms: C25_32  and  C26_33 
REMARK       I    between atoms: C26_33  and  N2_35 
REMARK   15  A    between atoms: N2_35  and  C27_36 
REMARK   16  A    between atoms: C27_36  and  C28_37 
REMARK   17  A    between atoms: C27_36  and  C35_44 
REMARK   18  A    between atoms: C28_37  and  C29_38 
REMARK   19  A    between atoms: C35_44  and  O9_46 
ROOT
HETATM    1  C17 UNL     1       4.855   7.693  13.399  1.00  0.00     0.259 C 
HETATM    2  O5  UNL     1       4.455   8.008  14.514  1.00  0.00    -0.265 OA
ENDROOT
BRANCH   1   3
HETATM    3  O4  UNL     1       4.179   7.890  12.237  1.00  0.00    -0.314 OA
BRANCH   3   4
HETATM    4  C16 UNL     1       3.071   7.007  12.042  1.00  0.00     0.260 C 
BRANCH   4   5
HETATM    5  C15 UNL     1       1.738   7.694  12.341  1.00  0.00     0.185 C 
HETATM    6  O3  UNL     1       1.327   8.624  11.639  1.00  0.00    -0.292 OA
BRANCH   5   7
HETATM    7  C14 UNL     1       0.970   7.190  13.595  1.00  0.00     0.128 C 
HETATM    8  C13 UNL     1       0.617   8.427  14.439  1.00  0.00     0.047 C 
HETATM    9  C12 UNL     1      -0.841   8.778  14.112  1.00  0.00     0.009 C 
HETATM   10  C11 UNL     1      -1.338   7.733  13.096  1.00  0.00     0.002 C 
HETATM   11  C10 UNL     1      -2.850   7.413  13.145  1.00  0.00    -0.004 C 
HETATM   12  C36 UNL     1      -0.417   6.516  13.330  1.00  0.00    -0.002 C 
HETATM   13  C9  UNL     1      -3.689   8.691  12.997  1.00  0.00     0.010 C 
HETATM   14  C40 UNL     1      -3.270   6.624  14.409  1.00  0.00     0.002 C 
HETATM   15  C8  UNL     1      -5.175   8.371  12.936  1.00  0.00     0.035 C 
HETATM   16  C7  UNL     1      -5.623   7.573  14.136  1.00  0.00    -0.068 C 
HETATM   17  C2  UNL     1      -4.819   6.307  14.459  1.00  0.00    -0.016 C 
HETATM   18  C6  UNL     1      -6.697   7.976  14.839  1.00  0.00     0.053 C 
HETATM   19  C1  UNL     1      -5.221   5.214  13.442  1.00  0.00     0.020 C 
HETATM   20  C3  UNL     1      -5.166   5.814  15.897  1.00  0.00     0.022 C 
HETATM   21  C4  UNL     1      -6.657   5.808  16.203  1.00  0.00     0.084 C 
HETATM   22  C5  UNL     1      -7.256   7.166  15.945  1.00  0.00     0.149 C 
HETATM   23  O1  UNL     1      -8.227   7.584  16.571  1.00  0.00    -0.293 OA
HETATM   24  C39 UNL     1      -2.384   5.372  14.562  1.00  0.00     0.007 C 
HETATM   25  C38 UNL     1      -0.894   5.717  14.578  1.00  0.00     0.013 C 
HETATM   26  C37 UNL     1      -0.385   5.560  12.122  1.00  0.00     0.019 C 
BRANCH   7  27
HETATM   27  O2  UNL     1       1.807   6.325  14.358  1.00  0.00    -0.381 OA
HETATM   28  H19 UNL     1       1.862   5.467  13.900  1.00  0.00     0.211 HD
ENDBRANCH   7  27
ENDBRANCH   5   7
ENDBRANCH   4   5
ENDBRANCH   3   4
ENDBRANCH   1   3
BRANCH   1  29
HETATM   29  C18 UNL     1       6.177   7.022  13.123  1.00  0.00     0.120 C 
BRANCH  29  30
HETATM   30  C19 UNL     1       7.190   8.013  12.567  1.00  0.00     0.112 C 
BRANCH  30  31
HETATM   31  C20 UNL     1       8.335   8.168  13.542  1.00  0.00     0.217 C 
HETATM   32  O6  UNL     1       9.457   7.734  13.300  1.00  0.00    -0.274 OA
HETATM   33  N1  UNL     1       7.981   8.770  14.729  1.00  0.00    -0.361 N 
HETATM   34  H26 UNL     1       6.988   8.857  14.935  1.00  0.00     0.162 HD
BRANCH  33  35
HETATM   35  C21 UNL     1       8.894   8.802  15.854  1.00  0.00     0.122 C 
BRANCH  35  36
HETATM   36  C22 UNL     1       8.867  10.171  16.530  1.00  0.00     0.020 C 
BRANCH  36  37
HETATM   37  C23 UNL     1       8.533  11.316  15.574  1.00  0.00     0.002 C 
BRANCH  37  38
HETATM   38  C24 UNL     1       9.739  12.030  14.948  1.00  0.00     0.009 C 
BRANCH  38  39
HETATM   39  C25 UNL     1      11.104  11.485  15.369  1.00  0.00     0.103 C 
BRANCH  39  40
HETATM   40  C26 UNL     1      11.593  12.056  16.686  1.00  0.00     0.218 C 
HETATM   41  O7  UNL     1      11.205  13.124  17.147  1.00  0.00    -0.274 OA
HETATM   42  N2  UNL     1      12.543  11.274  17.303  1.00  0.00    -0.346 N 
HETATM   43  H37 UNL     1      12.981  10.543  16.755  1.00  0.00     0.163 HD
BRANCH  42  44
HETATM   44  C27 UNL     1      13.251  11.733  18.503  1.00  0.00     0.186 C 
BRANCH  44  45
HETATM   45  C28 UNL     1      14.022  13.052  18.298  1.00  0.00     0.074 C 
BRANCH  45  46
HETATM   46  C29 UNL     1      15.372  13.056  18.983  1.00  0.00    -0.056 A 
HETATM   47  C30 UNL     1      15.465  12.996  20.380  1.00  0.00     0.007 A 
HETATM   48  C31 UNL     1      16.712  12.983  21.005  1.00  0.00     0.001 A 
HETATM   49  C32 UNL     1      17.876  13.030  20.240  1.00  0.00     0.000 A 
HETATM   50  C33 UNL     1      17.796  13.091  18.851  1.00  0.00     0.001 A 
HETATM   51  C34 UNL     1      16.550  13.104  18.225  1.00  0.00     0.007 A 
ENDBRANCH  45  46
ENDBRANCH  44  45
BRANCH  44  52
HETATM   52  C35 UNL     1      12.292  11.760  19.704  1.00  0.00     0.163 C 
HETATM   53  O8  UNL     1      11.898  12.761  20.290  1.00  0.00    -0.648 OA
BRANCH  52  54
HETATM   54  O9  UNL     1      11.814  10.554  20.066  1.00  0.00    -0.775 OA
HETATM   55  H46 UNL     1      11.296  10.742  20.878  1.00  0.00     0.167 HD
ENDBRANCH  52  54
ENDBRANCH  44  52
ENDBRANCH  42  44
ENDBRANCH  39  40
ENDBRANCH  38  39
ENDBRANCH  37  38
ENDBRANCH  36  37
ENDBRANCH  35  36
ENDBRANCH  33  35
ENDBRANCH  30  31
ENDBRANCH  29  30
ENDBRANCH   1  29
TORSDOF 19
ENDMDL
MODEL 5
REMARK minimizedAffinity -8.53339863
REMARK CNNscore 0.383650362
REMARK CNNaffinity 6.25485229
REMARK  19 active torsions:
REMARK  status: ('A' for Active; 'I' for Inactive)
REMARK    1  A    between atoms: C14_15  and  O2_16 
REMARK    2  A    between atoms: C14_15  and  C15_17 
REMARK    3  A    between atoms: C15_17  and  C16_19 
REMARK    4  A    between atoms: C16_19  and  O4_20 
REMARK    5  A    between atoms: O4_20  and  C17_21 
REMARK    6  A    between atoms: C17_21  and  C18_23 
REMARK    7  A    between atoms: C18_23  and  C19_24 
REMARK    8  A    between atoms: C19_24  and  C20_25 
REMARK       I    between atoms: C20_25  and  N1_27 
REMARK    9  A    between atoms: N1_27  and  C21_28 
REMARK   10  A    between atoms: C21_28  and  C22_29 
REMARK   11  A    between atoms: C22_29  and  C23_30 
REMARK   12  A    between atoms: C23_30  and  C24_31 
REMARK   13  A    between atoms: C24_31  and  C25_32 
REMARK   14  A    between atoms: C25_32  and  C26_33 
REMARK       I    between atoms: C26_33  and  N2_35 
REMARK   15  A    between atoms: N2_35  and  C27_36 
REMARK   16  A    between atoms: C27_36  and  C28_37 
REMARK   17  A    between atoms: C27_36  and  C35_44 
REMARK   18  A    between atoms: C28_37  and  C29_38 
REMARK   19  A    between atoms: C35_44  and  O9_46 
ROOT
HETATM    1  C17 UNL     1       4.976   7.364  10.571  1.00  0.00     0.259 C 
HETATM    2  O5  UNL     1       4.517   8.242   9.849  1.00  0.00    -0.265 OA
ENDROOT
BRANCH   1   3
HETATM    3  O4  UNL     1       4.297   6.273  11.012  1.00  0.00    -0.314 OA
BRANCH   3   4
HETATM    4  C16 UNL     1       2.875   6.419  11.001  1.00  0.00     0.260 C 
BRANCH   4   5
HETATM    5  C15 UNL     1       2.370   7.161  12.239  1.00  0.00     0.185 C 
HETATM    6  O3  UNL     1       3.007   7.146  13.297  1.00  0.00    -0.292 OA
BRANCH   5   7
HETATM    7  C14 UNL     1       1.000   7.883  12.098  1.00  0.00     0.128 C 
HETATM    8  C13 UNL     1       0.401   7.459  10.746  1.00  0.00     0.047 C 
HETATM    9  C12 UNL     1      -0.608   6.343  11.045  1.00  0.00     0.009 C 
HETATM   10  C11 UNL     1      -0.608   6.133  12.571  1.00  0.00     0.002 C 
HETATM   11  C10 UNL     1      -1.940   5.642  13.183  1.00  0.00    -0.004 C 
HETATM   12  C36 UNL     1      -0.102   7.481  13.133  1.00  0.00    -0.002 C 
HETATM   13  C9  UNL     1      -2.416   4.351  12.503  1.00  0.00     0.010 C 
HETATM   14  C40 UNL     1      -3.056   6.715  13.165  1.00  0.00     0.002 C 
HETATM   15  C8  UNL     1      -3.668   3.804  13.172  1.00  0.00     0.035 C 
HETATM   16  C7  UNL     1      -4.775   4.830  13.205  1.00  0.00    -0.068 C 
HETATM   17  C2  UNL     1      -4.420   6.206  13.783  1.00  0.00    -0.016 C 
HETATM   18  C6  UNL     1      -6.002   4.497  12.766  1.00  0.00     0.053 C 
HETATM   19  C1  UNL     1      -4.346   6.072  15.322  1.00  0.00     0.020 C 
HETATM   20  C3  UNL     1      -5.532   7.234  13.417  1.00  0.00     0.022 C 
HETATM   21  C4  UNL     1      -6.947   6.715  13.632  1.00  0.00     0.084 C 
HETATM   22  C5  UNL     1      -7.153   5.420  12.892  1.00  0.00     0.149 C 
HETATM   23  O1  UNL     1      -8.252   5.080  12.459  1.00  0.00    -0.293 OA
HETATM   24  C39 UNL     1      -2.541   8.017  13.810  1.00  0.00     0.007 C 
HETATM   25  C38 UNL     1      -1.258   8.522  13.147  1.00  0.00     0.013 C 
HETATM   26  C37 UNL     1       0.454   7.350  14.564  1.00  0.00     0.019 C 
BRANCH   7  27
HETATM   27  O2  UNL     1       1.196   9.294  12.103  1.00  0.00    -0.381 OA
HETATM   28  H19 UNL     1       1.385   9.576  13.016  1.00  0.00     0.211 HD
ENDBRANCH   7  27
ENDBRANCH   5   7
ENDBRANCH   4   5
ENDBRANCH   3   4
ENDBRANCH   1   3
BRANCH   1  29
HETATM   29  C18 UNL     1       6.387   7.349  11.104  1.00  0.00     0.120 C 
BRANCH  29  30
HETATM   30  C19 UNL     1       6.446   6.699  12.479  1.00  0.00     0.112 C 
BRANCH  30  31
HETATM   31  C20 UNL     1       6.463   7.772  13.546  1.00  0.00     0.217 C 
HETATM   32  O6  UNL     1       5.937   8.867  13.372  1.00  0.00    -0.274 OA
HETATM   33  N1  UNL     1       7.171   7.427  14.675  1.00  0.00    -0.361 N 
HETATM   34  H26 UNL     1       7.780   6.614  14.619  1.00  0.00     0.162 HD
BRANCH  33  35
HETATM   35  C21 UNL     1       7.473   8.407  15.698  1.00  0.00     0.122 C 
BRANCH  35  36
HETATM   36  C22 UNL     1       8.979   8.498  15.928  1.00  0.00     0.020 C 
BRANCH  36  37
HETATM   37  C23 UNL     1       9.423   9.828  16.538  1.00  0.00     0.002 C 
BRANCH  37  38
HETATM   38  C24 UNL     1       9.597  10.987  15.545  1.00  0.00     0.009 C 
BRANCH  38  39
HETATM   39  C25 UNL     1      11.015  11.551  15.452  1.00  0.00     0.103 C 
BRANCH  39  40
HETATM   40  C26 UNL     1      11.496  12.172  16.749  1.00  0.00     0.218 C 
HETATM   41  O7  UNL     1      11.082  13.242  17.183  1.00  0.00    -0.274 OA
HETATM   42  N2  UNL     1      12.470  11.432  17.383  1.00  0.00    -0.346 N 
HETATM   43  H37 UNL     1      12.924  10.699  16.853  1.00  0.00     0.163 HD
BRANCH  42  44
HETATM   44  C27 UNL     1      13.171  11.943  18.565  1.00  0.00     0.186 C 
BRANCH  44  45
HETATM   45  C28 UNL     1      13.834  13.317  18.344  1.00  0.00     0.074 C 
BRANCH  45  46
HETATM   46  C29 UNL     1      15.018  13.553  19.259  1.00  0.00    -0.056 A 
HETATM   47  C30 UNL     1      15.922  14.592  19.003  1.00  0.00     0.007 A 
HETATM   48  C31 UNL     1      17.001  14.815  19.860  1.00  0.00     0.001 A 
HETATM   49  C32 UNL     1      17.185  14.003  20.977  1.00  0.00     0.000 A 
HETATM   50  C33 UNL     1      16.293  12.966  21.239  1.00  0.00     0.001 A 
HETATM   51  C34 UNL     1      15.214  12.741  20.385  1.00  0.00     0.007 A 
ENDBRANCH  45  46
ENDBRANCH  44  45
BRANCH  44  52
HETATM   52  C35 UNL     1      12.244  11.898  19.790  1.00  0.00     0.163 C 
HETATM   53  O8  UNL     1      11.665  12.853  20.293  1.00  0.00    -0.648 OA
BRANCH  52  54
HETATM   54  O9  UNL     1      12.023  10.662  20.280  1.00  0.00    -0.775 OA
HETATM   55  H46 UNL     1      11.490  10.823  21.088  1.00  0.00     0.167 HD
ENDBRANCH  52  54
ENDBRANCH  44  52
ENDBRANCH  42  44
ENDBRANCH  39  40
ENDBRANCH  38  39
ENDBRANCH  37  38
ENDBRANCH  36  37
ENDBRANCH  35  36
ENDBRANCH  33  35
ENDBRANCH  30  31
ENDBRANCH  29  30
ENDBRANCH   1  29
TORSDOF 19
ENDMDL
MODEL 6
REMARK minimizedAffinity -7.75720835
REMARK CNNscore 0.336885035
REMARK CNNaffinity 7.34953833
REMARK  19 active torsions:
REMARK  status: ('A' for Active; 'I' for Inactive)
REMARK    1  A    between atoms: C14_15  and  O2_16 
REMARK    2  A    between atoms: C14_15  and  C15_17 
REMARK    3  A    between atoms: C15_17  and  C16_19 
REMARK    4  A    between atoms: C16_19  and  O4_20 
REMARK    5  A    between atoms: O4_20  and  C17_21 
REMARK    6  A    between atoms: C17_21  and  C18_23 
REMARK    7  A    between atoms: C18_23  and  C19_24 
REMARK    8  A    between atoms: C19_24  and  C20_25 
REMARK       I    between atoms: C20_25  and  N1_27 
REMARK    9  A    between atoms: N1_27  and  C21_28 
REMARK   10  A    between atoms: C21_28  and  C22_29 
REMARK   11  A    between atoms: C22_29  and  C23_30 
REMARK   12  A    between atoms: C23_30  and  C24_31 
REMARK   13  A    between atoms: C24_31  and  C25_32 
REMARK   14  A    between atoms: C25_32  and  C26_33 
REMARK       I    between atoms: C26_33  and  N2_35 
REMARK   15  A    between atoms: N2_35  and  C27_36 
REMARK   16  A    between atoms: C27_36  and  C28_37 
REMARK   17  A    between atoms: C27_36  and  C35_44 
REMARK   18  A    between atoms: C28_37  and  C29_38 
REMARK   19  A    between atoms: C35_44  and  O9_46 
ROOT
HETATM    1  C17 UNL     1      -7.523   5.095  12.763  1.00  0.00     0.259 C 
HETATM    2  O5  UNL     1      -7.137   3.968  12.471  1.00  0.00    -0.265 OA
ENDROOT
BRANCH   1   3
HETATM    3  O4  UNL     1      -6.722   6.129  13.133  1.00  0.00    -0.314 OA
BRANCH   3   4
HETATM    4  C16 UNL     1      -5.743   5.794  14.119  1.00  0.00     0.260 C 
BRANCH   4   5
HETATM    5  C15 UNL     1      -5.600   6.891  15.173  1.00  0.00     0.185 C 
HETATM    6  O3  UNL     1      -6.571   7.272  15.835  1.00  0.00    -0.292 OA
BRANCH   5   7
HETATM    7  C14 UNL     1      -4.187   7.523  15.323  1.00  0.00     0.128 C 
HETATM    8  C13 UNL     1      -3.283   6.463  15.976  1.00  0.00     0.047 C 
HETATM    9  C12 UNL     1      -2.490   5.803  14.839  1.00  0.00     0.009 C 
HETATM   10  C11 UNL     1      -2.920   6.494  13.531  1.00  0.00     0.002 C 
HETATM   11  C10 UNL     1      -1.849   6.553  12.418  1.00  0.00    -0.004 C 
HETATM   12  C36 UNL     1      -3.443   7.873  13.991  1.00  0.00    -0.002 C 
HETATM   13  C9  UNL     1      -1.318   5.150  12.090  1.00  0.00     0.010 C 
HETATM   14  C40 UNL     1      -0.682   7.519  12.738  1.00  0.00     0.002 C 
HETATM   15  C8  UNL     1      -0.344   5.189  10.921  1.00  0.00     0.035 C 
HETATM   16  C7  UNL     1       0.796   6.145  11.178  1.00  0.00    -0.068 C 
HETATM   17  C2  UNL     1       0.416   7.569  11.601  1.00  0.00    -0.016 C 
HETATM   18  C6  UNL     1       2.063   5.730  11.001  1.00  0.00     0.053 C 
HETATM   19  C1  UNL     1      -0.082   8.323  10.345  1.00  0.00     0.020 C 
HETATM   20  C3  UNL     1       1.668   8.303  12.169  1.00  0.00     0.022 C 
HETATM   21  C4  UNL     1       2.923   8.121  11.326  1.00  0.00     0.084 C 
HETATM   22  C5  UNL     1       3.211   6.658  11.115  1.00  0.00     0.149 C 
HETATM   23  O1  UNL     1       4.353   6.229  10.964  1.00  0.00    -0.293 OA
HETATM   24  C39 UNL     1      -1.241   8.907  13.111  1.00  0.00     0.007 C 
HETATM   25  C38 UNL     1      -2.249   8.836  14.258  1.00  0.00     0.013 C 
HETATM   26  C37 UNL     1      -4.374   8.527  12.952  1.00  0.00     0.019 C 
BRANCH   7  27
HETATM   27  O2  UNL     1      -4.256   8.666  16.170  1.00  0.00    -0.381 OA
HETATM   28  H19 UNL     1      -4.660   9.397  15.668  1.00  0.00     0.211 HD
ENDBRANCH   7  27
ENDBRANCH   5   7
ENDBRANCH   4   5
ENDBRANCH   3   4
ENDBRANCH   1   3
BRANCH   1  29
HETATM   29  C18 UNL     1      -8.967   5.529  12.768  1.00  0.00     0.120 C 
BRANCH  29  30
HETATM   30  C19 UNL     1      -9.225   6.564  13.853  1.00  0.00     0.112 C 
BRANCH  30  31
HETATM   31  C20 UNL     1     -10.506   7.309  13.548  1.00  0.00     0.217 C 
HETATM   32  O6  UNL     1     -11.110   7.155  12.491  1.00  0.00    -0.274 OA
HETATM   33  N1  UNL     1     -10.877   8.206  14.525  1.00  0.00    -0.361 N 
HETATM   34  H26 UNL     1     -10.185   8.447  15.231  1.00  0.00     0.162 HD
BRANCH  33  35
HETATM   35  C21 UNL     1     -11.948   9.155  14.301  1.00  0.00     0.122 C 
BRANCH  35  36
HETATM   36  C22 UNL     1     -11.460  10.583  14.534  1.00  0.00     0.020 C 
BRANCH  36  37
HETATM   37  C23 UNL     1     -12.561  11.535  15.001  1.00  0.00     0.002 C 
BRANCH  37  38
HETATM   38  C24 UNL     1     -13.876  10.868  15.431  1.00  0.00     0.009 C 
BRANCH  38  39
HETATM   39  C25 UNL     1     -15.096  11.244  14.591  1.00  0.00     0.103 C 
BRANCH  39  40
HETATM   40  C26 UNL     1     -15.037  10.701  13.177  1.00  0.00     0.218 C 
HETATM   41  O7  UNL     1     -14.444  11.260  12.260  1.00  0.00    -0.274 OA
HETATM   42  N2  UNL     1     -15.742   9.530  13.010  1.00  0.00    -0.346 N 
HETATM   43  H37 UNL     1     -16.392   9.263  13.739  1.00  0.00     0.163 HD
BRANCH  42  44
HETATM   44  C27 UNL     1     -15.935   8.935  11.683  1.00  0.00     0.186 C 
BRANCH  44  45
HETATM   45  C28 UNL     1     -15.807   7.399  11.671  1.00  0.00     0.074 C 
BRANCH  45  46
HETATM   46  C29 UNL     1     -15.774   6.801  13.062  1.00  0.00    -0.056 A 
HETATM   47  C30 UNL     1     -16.959   6.400  13.695  1.00  0.00     0.007 A 
HETATM   48  C31 UNL     1     -16.921   5.833  14.970  1.00  0.00     0.001 A 
HETATM   49  C32 UNL     1     -15.701   5.664  15.622  1.00  0.00     0.000 A 
HETATM   50  C33 UNL     1     -14.518   6.060  15.002  1.00  0.00     0.001 A 
HETATM   51  C34 UNL     1     -14.554   6.627  13.728  1.00  0.00     0.007 A 
ENDBRANCH  45  46
ENDBRANCH  44  45
BRANCH  44  52
HETATM   52  C35 UNL     1     -17.242   9.449  11.058  1.00  0.00     0.163 C 
HETATM   53  O8  UNL     1     -17.441  10.578  10.627  1.00  0.00    -0.648 OA
BRANCH  52  54
HETATM   54  O9  UNL     1     -18.206   8.516  10.931  1.00  0.00    -0.775 OA
HETATM   55  H46 UNL     1     -18.978   9.022  10.598  1.00  0.00     0.167 HD
ENDBRANCH  52  54
ENDBRANCH  44  52
ENDBRANCH  42  44
ENDBRANCH  39  40
ENDBRANCH  38  39
ENDBRANCH  37  38
ENDBRANCH  36  37
ENDBRANCH  35  36
ENDBRANCH  33  35
ENDBRANCH  30  31
ENDBRANCH  29  30
ENDBRANCH   1  29
TORSDOF 19
ENDMDL
MODEL 7
REMARK minimizedAffinity -7.41173029
REMARK CNNscore 0.310071707
REMARK CNNaffinity 6.54696703
REMARK  19 active torsions:
REMARK  status: ('A' for Active; 'I' for Inactive)
REMARK    1  A    between atoms: C14_15  and  O2_16 
REMARK    2  A    between atoms: C14_15  and  C15_17 
REMARK    3  A    between atoms: C15_17  and  C16_19 
REMARK    4  A    between atoms: C16_19  and  O4_20 
REMARK    5  A    between atoms: O4_20  and  C17_21 
REMARK    6  A    between atoms: C17_21  and  C18_23 
REMARK    7  A    between atoms: C18_23  and  C19_24 
REMARK    8  A    between atoms: C19_24  and  C20_25 
REMARK       I    between atoms: C20_25  and  N1_27 
REMARK    9  A    between atoms: N1_27  and  C21_28 
REMARK   10  A    between atoms: C21_28  and  C22_29 
REMARK   11  A    between atoms: C22_29  and  C23_30 
REMARK   12  A    between atoms: C23_30  and  C24_31 
REMARK   13  A    between atoms: C24_31  and  C25_32 
REMARK   14  A    between atoms: C25_32  and  C26_33 
REMARK       I    between atoms: C26_33  and  N2_35 
REMARK   15  A    between atoms: N2_35  and  C27_36 
REMARK   16  A    between atoms: C27_36  and  C28_37 
REMARK   17  A    between atoms: C27_36  and  C35_44 
REMARK   18  A    between atoms: C28_37  and  C29_38 
REMARK   19  A    between atoms: C35_44  and  O9_46 
ROOT
HETATM    1  C17 UNL     1      -5.977   5.939  14.172  1.00  0.00     0.259 C 
HETATM    2  O5  UNL     1      -6.294   5.858  15.353  1.00  0.00    -0.265 OA
ENDROOT
BRANCH   1   3
HETATM    3  O4  UNL     1      -5.411   7.023  13.581  1.00  0.00    -0.314 OA
BRANCH   3   4
HETATM    4  C16 UNL     1      -4.722   7.893  14.482  1.00  0.00     0.260 C 
BRANCH   4   5
HETATM    5  C15 UNL     1      -3.291   7.423  14.744  1.00  0.00     0.185 C 
HETATM    6  O3  UNL     1      -2.922   7.098  15.877  1.00  0.00    -0.292 OA
BRANCH   5   7
HETATM    7  C14 UNL     1      -2.330   7.427  13.521  1.00  0.00     0.128 C 
HETATM    8  C13 UNL     1      -2.463   8.802  12.844  1.00  0.00     0.047 C 
HETATM    9  C12 UNL     1      -1.283   9.649  13.338  1.00  0.00     0.009 C 
HETATM   10  C11 UNL     1      -0.455   8.759  14.285  1.00  0.00     0.002 C 
HETATM   11  C10 UNL     1       1.059   9.064  14.343  1.00  0.00    -0.004 C 
HETATM   12  C36 UNL     1      -0.803   7.320  13.843  1.00  0.00    -0.002 C 
HETATM   13  C9  UNL     1       1.310  10.537  14.697  1.00  0.00     0.010 C 
HETATM   14  C40 UNL     1       1.815   8.675  13.049  1.00  0.00     0.002 C 
HETATM   15  C8  UNL     1       2.797  10.819  14.863  1.00  0.00     0.035 C 
HETATM   16  C7  UNL     1       3.578  10.423  13.634  1.00  0.00    -0.068 C 
HETATM   17  C2  UNL     1       3.362   8.997  13.110  1.00  0.00    -0.016 C 
HETATM   18  C6  UNL     1       4.433  11.301  13.078  1.00  0.00     0.053 C 
HETATM   19  C1  UNL     1       4.122   8.026  14.043  1.00  0.00     0.020 C 
HETATM   20  C3  UNL     1       3.940   8.871  11.668  1.00  0.00     0.022 C 
HETATM   21  C4  UNL     1       5.322   9.488  11.503  1.00  0.00     0.084 C 
HETATM   22  C5  UNL     1       5.317  10.926  11.952  1.00  0.00     0.149 C 
HETATM   23  O1  UNL     1       6.068  11.768  11.464  1.00  0.00    -0.293 OA
HETATM   24  C39 UNL     1       1.510   7.207  12.688  1.00  0.00     0.007 C 
HETATM   25  C38 UNL     1       0.008   6.941  12.570  1.00  0.00     0.013 C 
HETATM   26  C37 UNL     1      -0.504   6.279  14.939  1.00  0.00     0.019 C 
BRANCH   7  27
HETATM   27  O2  UNL     1      -2.717   6.411  12.600  1.00  0.00    -0.381 OA
HETATM   28  H19 UNL     1      -2.446   5.548  12.961  1.00  0.00     0.211 HD
ENDBRANCH   7  27
ENDBRANCH   5   7
ENDBRANCH   4   5
ENDBRANCH   3   4
ENDBRANCH   1   3
BRANCH   1  29
HETATM   29  C18 UNL     1      -6.170   4.837  13.160  1.00  0.00     0.120 C 
BRANCH  29  30
HETATM   30  C19 UNL     1      -7.586   4.283  13.215  1.00  0.00     0.112 C 
BRANCH  30  31
HETATM   31  C20 UNL     1      -8.577   5.396  12.956  1.00  0.00     0.217 C 
HETATM   32  O6  UNL     1      -8.785   5.829  11.826  1.00  0.00    -0.274 OA
HETATM   33  N1  UNL     1      -9.155   5.909  14.096  1.00  0.00    -0.361 N 
HETATM   34  H26 UNL     1      -8.730   5.666  14.989  1.00  0.00     0.162 HD
BRANCH  33  35
HETATM   35  C21 UNL     1      -9.954   7.116  14.053  1.00  0.00     0.122 C 
BRANCH  35  36
HETATM   36  C22 UNL     1     -11.441   6.778  14.123  1.00  0.00     0.020 C 
BRANCH  36  37
HETATM   37  C23 UNL     1     -12.224   7.210  12.883  1.00  0.00     0.002 C 
BRANCH  37  38
HETATM   38  C24 UNL     1     -12.590   8.700  12.815  1.00  0.00     0.009 C 
BRANCH  38  39
HETATM   39  C25 UNL     1     -13.550   9.180  13.904  1.00  0.00     0.103 C 
BRANCH  39  40
HETATM   40  C26 UNL     1     -15.009   8.975  13.544  1.00  0.00     0.218 C 
HETATM   41  O7  UNL     1     -15.935   9.532  14.124  1.00  0.00    -0.274 OA
HETATM   42  N2  UNL     1     -15.199   8.076  12.519  1.00  0.00    -0.346 N 
HETATM   43  H37 UNL     1     -14.418   7.487  12.257  1.00  0.00     0.163 HD
BRANCH  42  44
HETATM   44  C27 UNL     1     -16.541   7.627  12.133  1.00  0.00     0.186 C 
BRANCH  44  45
HETATM   45  C28 UNL     1     -17.363   7.059  13.307  1.00  0.00     0.074 C 
BRANCH  45  46
HETATM   46  C29 UNL     1     -17.037   5.610  13.606  1.00  0.00    -0.056 A 
HETATM   47  C30 UNL     1     -17.713   4.576  12.945  1.00  0.00     0.007 A 
HETATM   48  C31 UNL     1     -17.397   3.243  13.212  1.00  0.00     0.001 A 
HETATM   49  C32 UNL     1     -16.404   2.933  14.140  1.00  0.00     0.000 A 
HETATM   50  C33 UNL     1     -15.728   3.954  14.803  1.00  0.00     0.001 A 
HETATM   51  C34 UNL     1     -16.042   5.287  14.538  1.00  0.00     0.007 A 
ENDBRANCH  45  46
ENDBRANCH  44  45
BRANCH  44  52
HETATM   52  C35 UNL     1     -17.267   8.736  11.355  1.00  0.00     0.163 C 
HETATM   53  O8  UNL     1     -16.775   9.453  10.491  1.00  0.00    -0.648 OA
BRANCH  52  54
HETATM   54  O9  UNL     1     -18.581   8.848  11.633  1.00  0.00    -0.775 OA
HETATM   55  H46 UNL     1     -18.861   9.637  11.122  1.00  0.00     0.167 HD
ENDBRANCH  52  54
ENDBRANCH  44  52
ENDBRANCH  42  44
ENDBRANCH  39  40
ENDBRANCH  38  39
ENDBRANCH  37  38
ENDBRANCH  36  37
ENDBRANCH  35  36
ENDBRANCH  33  35
ENDBRANCH  30  31
ENDBRANCH  29  30
ENDBRANCH   1  29
TORSDOF 19
ENDMDL
MODEL 8
REMARK minimizedAffinity -9.59156418
REMARK CNNscore 0.306956172
REMARK CNNaffinity 6.875494
REMARK  19 active torsions:
REMARK  status: ('A' for Active; 'I' for Inactive)
REMARK    1  A    between atoms: C14_15  and  O2_16 
REMARK    2  A    between atoms: C14_15  and  C15_17 
REMARK    3  A    between atoms: C15_17  and  C16_19 
REMARK    4  A    between atoms: C16_19  and  O4_20 
REMARK    5  A    between atoms: O4_20  and  C17_21 
REMARK    6  A    between atoms: C17_21  and  C18_23 
REMARK    7  A    between atoms: C18_23  and  C19_24 
REMARK    8  A    between atoms: C19_24  and  C20_25 
REMARK       I    between atoms: C20_25  and  N1_27 
REMARK    9  A    between atoms: N1_27  and  C21_28 
REMARK   10  A    between atoms: C21_28  and  C22_29 
REMARK   11  A    between atoms: C22_29  and  C23_30 
REMARK   12  A    between atoms: C23_30  and  C24_31 
REMARK   13  A    between atoms: C24_31  and  C25_32 
REMARK   14  A    between atoms: C25_32  and  C26_33 
REMARK       I    between atoms: C26_33  and  N2_35 
REMARK   15  A    between atoms: N2_35  and  C27_36 
REMARK   16  A    between atoms: C27_36  and  C28_37 
REMARK   17  A    between atoms: C27_36  and  C35_44 
REMARK   18  A    between atoms: C28_37  and  C29_38 
REMARK   19  A    between atoms: C35_44  and  O9_46 
ROOT
HETATM    1  C17 UNL     1       5.750   6.863  11.494  1.00  0.00     0.259 C 
HETATM    2  O5  UNL     1       6.002   6.019  10.641  1.00  0.00    -0.265 OA
ENDROOT
BRANCH   1   3
HETATM    3  O4  UNL     1       4.739   7.768  11.431  1.00  0.00    -0.314 OA
BRANCH   3   4
HETATM    4  C16 UNL     1       3.663   7.517  12.339  1.00  0.00     0.260 C 
BRANCH   4   5
HETATM    5  C15 UNL     1       2.485   6.831  11.647  1.00  0.00     0.185 C 
HETATM    6  O3  UNL     1       2.614   5.729  11.105  1.00  0.00    -0.292 OA
BRANCH   5   7
HETATM    7  C14 UNL     1       1.145   7.621  11.626  1.00  0.00     0.128 C 
HETATM    8  C13 UNL     1       0.412   7.236  10.329  1.00  0.00     0.047 C 
HETATM    9  C12 UNL     1      -0.622   6.168  10.711  1.00  0.00     0.009 C 
HETATM   10  C11 UNL     1      -0.502   5.949  12.231  1.00  0.00     0.002 C 
HETATM   11  C10 UNL     1      -1.799   5.521  12.954  1.00  0.00    -0.004 C 
HETATM   12  C36 UNL     1       0.117   7.267  12.750  1.00  0.00    -0.002 C 
HETATM   13  C9  UNL     1      -2.395   4.259  12.314  1.00  0.00     0.010 C 
HETATM   14  C40 UNL     1      -2.858   6.648  13.034  1.00  0.00     0.002 C 
HETATM   15  C8  UNL     1      -3.611   3.770  13.088  1.00  0.00     0.035 C 
HETATM   16  C7  UNL     1      -4.659   4.849  13.218  1.00  0.00    -0.068 C 
HETATM   17  C2  UNL     1      -4.188   6.202  13.766  1.00  0.00    -0.016 C 
HETATM   18  C6  UNL     1      -5.934   4.580  12.885  1.00  0.00     0.053 C 
HETATM   19  C1  UNL     1      -3.989   6.055  15.293  1.00  0.00     0.020 C 
HETATM   20  C3  UNL     1      -5.275   7.287  13.499  1.00  0.00     0.022 C 
HETATM   21  C4  UNL     1      -6.690   6.837  13.834  1.00  0.00     0.084 C 
HETATM   22  C5  UNL     1      -7.023   5.558  13.111  1.00  0.00     0.149 C 
HETATM   23  O1  UNL     1      -8.170   5.275  12.773  1.00  0.00    -0.293 OA
HETATM   24  C39 UNL     1      -2.226   7.919  13.635  1.00  0.00     0.007 C 
HETATM   25  C38 UNL     1      -0.981   8.364  12.866  1.00  0.00     0.013 C 
HETATM   26  C37 UNL     1       0.787   7.100  14.128  1.00  0.00     0.019 C 
BRANCH   7  27
HETATM   27  O2  UNL     1       1.411   9.020  11.616  1.00  0.00    -0.381 OA
HETATM   28  H19 UNL     1       1.691   9.287  12.511  1.00  0.00     0.211 HD
ENDBRANCH   7  27
ENDBRANCH   5   7
ENDBRANCH   4   5
ENDBRANCH   3   4
ENDBRANCH   1   3
BRANCH   1  29
HETATM   29  C18 UNL     1       6.531   7.045  12.771  1.00  0.00     0.120 C 
BRANCH  29  30
HETATM   30  C19 UNL     1       7.209   8.407  12.809  1.00  0.00     0.112 C 
BRANCH  30  31
HETATM   31  C20 UNL     1       8.381   8.363  13.765  1.00  0.00     0.217 C 
HETATM   32  O6  UNL     1       9.526   8.153  13.377  1.00  0.00    -0.274 OA
HETATM   33  N1  UNL     1       8.029   8.510  15.088  1.00  0.00    -0.361 N 
HETATM   34  H26 UNL     1       7.044   8.419  15.327  1.00  0.00     0.162 HD
BRANCH  33  35
HETATM   35  C21 UNL     1       8.989   8.276  16.148  1.00  0.00     0.122 C 
BRANCH  35  36
HETATM   36  C22 UNL     1       9.152   9.525  17.011  1.00  0.00     0.020 C 
BRANCH  36  37
HETATM   37  C23 UNL     1       7.829  10.070  17.550  1.00  0.00     0.002 C 
BRANCH  37  38
HETATM   38  C24 UNL     1       7.929  11.374  18.356  1.00  0.00     0.009 C 
BRANCH  38  39
HETATM   39  C25 UNL     1       9.257  11.583  19.085  1.00  0.00     0.103 C 
BRANCH  39  40
HETATM   40  C26 UNL     1       9.083  11.950  20.546  1.00  0.00     0.218 C 
HETATM   41  O7  UNL     1       9.740  11.450  21.453  1.00  0.00    -0.274 OA
HETATM   42  N2  UNL     1       8.091  12.880  20.763  1.00  0.00    -0.346 N 
HETATM   43  H37 UNL     1       7.442  13.062  20.007  1.00  0.00     0.163 HD
BRANCH  42  44
HETATM   44  C27 UNL     1       7.666  13.244  22.119  1.00  0.00     0.186 C 
BRANCH  44  45
HETATM   45  C28 UNL     1       7.260  12.035  22.984  1.00  0.00     0.074 C 
BRANCH  45  46
HETATM   46  C29 UNL     1       5.765  11.792  22.988  1.00  0.00    -0.056 A 
HETATM   47  C30 UNL     1       5.251  10.511  23.231  1.00  0.00     0.007 A 
HETATM   48  C31 UNL     1       3.872  10.296  23.251  1.00  0.00     0.001 A 
HETATM   49  C32 UNL     1       2.997  11.357  23.029  1.00  0.00     0.000 A 
HETATM   50  C33 UNL     1       3.498  12.634  22.785  1.00  0.00     0.001 A 
HETATM   51  C34 UNL     1       4.875  12.851  22.765  1.00  0.00     0.007 A 
ENDBRANCH  45  46
ENDBRANCH  44  45
BRANCH  44  52
HETATM   52  C35 UNL     1       8.722  14.146  22.779  1.00  0.00     0.163 C 
HETATM   53  O8  UNL     1       8.727  14.516  23.946  1.00  0.00    -0.648 OA
BRANCH  52  54
HETATM   54  O9  UNL     1       9.754  14.478  21.978  1.00  0.00    -0.775 OA
HETATM   55  H46 UNL     1      10.278  15.106  22.521  1.00  0.00     0.167 HD
ENDBRANCH  52  54
ENDBRANCH  44  52
ENDBRANCH  42  44
ENDBRANCH  39  40
ENDBRANCH  38  39
ENDBRANCH  37  38
ENDBRANCH  36  37
ENDBRANCH  35  36
ENDBRANCH  33  35
ENDBRANCH  30  31
ENDBRANCH  29  30
ENDBRANCH   1  29
TORSDOF 19
ENDMDL
MODEL 9
REMARK minimizedAffinity -8.5739336
REMARK CNNscore 0.291647911
REMARK CNNaffinity 6.84430265
REMARK  19 active torsions:
REMARK  status: ('A' for Active; 'I' for Inactive)
REMARK    1  A    between atoms: C14_15  and  O2_16 
REMARK    2  A    between atoms: C14_15  and  C15_17 
REMARK    3  A    between atoms: C15_17  and  C16_19 
REMARK    4  A    between atoms: C16_19  and  O4_20 
REMARK    5  A    between atoms: O4_20  and  C17_21 
REMARK    6  A    between atoms: C17_21  and  C18_23 
REMARK    7  A    between atoms: C18_23  and  C19_24 
REMARK    8  A    between atoms: C19_24  and  C20_25 
REMARK       I    between atoms: C20_25  and  N1_27 
REMARK    9  A    between atoms: N1_27  and  C21_28 
REMARK   10  A    between atoms: C21_28  and  C22_29 
REMARK   11  A    between atoms: C22_29  and  C23_30 
REMARK   12  A    between atoms: C23_30  and  C24_31 
REMARK   13  A    between atoms: C24_31  and  C25_32 
REMARK   14  A    between atoms: C25_32  and  C26_33 
REMARK       I    between atoms: C26_33  and  N2_35 
REMARK   15  A    between atoms: N2_35  and  C27_36 
REMARK   16  A    between atoms: C27_36  and  C28_37 
REMARK   17  A    between atoms: C27_36  and  C35_44 
REMARK   18  A    between atoms: C28_37  and  C29_38 
REMARK   19  A    between atoms: C35_44  and  O9_46 
ROOT
HETATM    1  C17 UNL     1      -3.914   2.453  11.772  1.00  0.00     0.259 C 
HETATM    2  O5  UNL     1      -3.147   1.497  11.737  1.00  0.00    -0.265 OA
ENDROOT
BRANCH   1   3
HETATM    3  O4  UNL     1      -3.757   3.559  12.546  1.00  0.00    -0.314 OA
BRANCH   3   4
HETATM    4  C16 UNL     1      -3.062   4.632  11.908  1.00  0.00     0.260 C 
BRANCH   4   5
HETATM    5  C15 UNL     1      -2.830   5.805  12.861  1.00  0.00     0.185 C 
HETATM    6  O3  UNL     1      -3.628   6.745  12.924  1.00  0.00    -0.292 OA
BRANCH   5   7
HETATM    7  C14 UNL     1      -1.519   5.764  13.697  1.00  0.00     0.128 C 
HETATM    8  C13 UNL     1      -0.756   4.494  13.282  1.00  0.00     0.047 C 
HETATM    9  C12 UNL     1       0.310   4.934  12.271  1.00  0.00     0.009 C 
HETATM   10  C11 UNL     1       0.179   6.461  12.115  1.00  0.00     0.002 C 
HETATM   11  C10 UNL     1       1.481   7.217  11.766  1.00  0.00    -0.004 C 
HETATM   12  C36 UNL     1      -0.493   6.915  13.430  1.00  0.00    -0.002 C 
HETATM   13  C9  UNL     1       2.130   6.641  10.500  1.00  0.00     0.010 C 
HETATM   14  C40 UNL     1       2.498   7.258  12.933  1.00  0.00     0.002 C 
HETATM   15  C8  UNL     1       3.353   7.449  10.090  1.00  0.00     0.035 C 
HETATM   16  C7  UNL     1       4.359   7.542  11.211  1.00  0.00    -0.068 C 
HETATM   17  C2  UNL     1       3.834   8.025  12.569  1.00  0.00    -0.016 C 
HETATM   18  C6  UNL     1       5.648   7.236  10.974  1.00  0.00     0.053 C 
HETATM   19  C1  UNL     1       3.621   9.554  12.482  1.00  0.00     0.020 C 
HETATM   20  C3  UNL     1       4.884   7.722  13.679  1.00  0.00     0.022 C 
HETATM   21  C4  UNL     1       6.310   8.092  13.296  1.00  0.00     0.084 C 
HETATM   22  C5  UNL     1       6.698   7.430  12.000  1.00  0.00     0.149 C 
HETATM   23  O1  UNL     1       7.859   7.118  11.744  1.00  0.00    -0.293 OA
HETATM   24  C39 UNL     1       1.813   7.796  14.205  1.00  0.00     0.007 C 
HETATM   25  C38 UNL     1       0.563   6.993  14.571  1.00  0.00     0.013 C 
HETATM   26  C37 UNL     1      -1.174   8.291  13.300  1.00  0.00     0.019 C 
BRANCH   7  27
HETATM   27  O2  UNL     1      -1.835   5.690  15.084  1.00  0.00    -0.381 OA
HETATM   28  H19 UNL     1      -2.135   6.568  15.379  1.00  0.00     0.211 HD
ENDBRANCH   7  27
ENDBRANCH   5   7
ENDBRANCH   4   5
ENDBRANCH   3   4
ENDBRANCH   1   3
BRANCH   1  29
HETATM   29  C18 UNL     1      -5.179   2.563  10.959  1.00  0.00     0.120 C 
BRANCH  29  30
HETATM   30  C19 UNL     1      -6.319   1.793  11.610  1.00  0.00     0.112 C 
BRANCH  30  31
HETATM   31  C20 UNL     1      -7.155   2.737  12.445  1.00  0.00     0.217 C 
HETATM   32  O6  UNL     1      -7.959   2.327  13.277  1.00  0.00    -0.274 OA
HETATM   33  N1  UNL     1      -6.977   4.067  12.135  1.00  0.00    -0.361 N 
HETATM   34  H26 UNL     1      -6.492   4.287  11.268  1.00  0.00     0.162 HD
BRANCH  33  35
HETATM   35  C21 UNL     1      -7.851   5.086  12.679  1.00  0.00     0.122 C 
BRANCH  35  36
HETATM   36  C22 UNL     1      -7.037   6.192  13.346  1.00  0.00     0.020 C 
BRANCH  36  37
HETATM   37  C23 UNL     1      -7.532   6.552  14.747  1.00  0.00     0.002 C 
BRANCH  37  38
HETATM   38  C24 UNL     1      -8.564   7.688  14.813  1.00  0.00     0.009 C 
BRANCH  38  39
HETATM   39  C25 UNL     1      -9.983   7.252  15.176  1.00  0.00     0.103 C 
BRANCH  39  40
HETATM   40  C26 UNL     1     -10.972   7.436  14.041  1.00  0.00     0.218 C 
HETATM   41  O7  UNL     1     -10.753   7.081  12.888  1.00  0.00    -0.274 OA
HETATM   42  N2  UNL     1     -12.132   8.071  14.423  1.00  0.00    -0.346 N 
HETATM   43  H37 UNL     1     -12.139   8.541  15.320  1.00  0.00     0.163 HD
BRANCH  42  44
HETATM   44  C27 UNL     1     -13.140   8.480  13.439  1.00  0.00     0.186 C 
BRANCH  44  45
HETATM   45  C28 UNL     1     -14.573   8.520  14.004  1.00  0.00     0.074 C 
BRANCH  45  46
HETATM   46  C29 UNL     1     -15.300   7.200  13.855  1.00  0.00    -0.056 A 
HETATM   47  C30 UNL     1     -15.070   6.152  14.757  1.00  0.00     0.007 A 
HETATM   48  C31 UNL     1     -15.755   4.944  14.625  1.00  0.00     0.001 A 
HETATM   49  C32 UNL     1     -16.675   4.772  13.592  1.00  0.00     0.000 A 
HETATM   50  C33 UNL     1     -16.910   5.807  12.689  1.00  0.00     0.001 A 
HETATM   51  C34 UNL     1     -16.226   7.015  12.819  1.00  0.00     0.007 A 
ENDBRANCH  45  46
ENDBRANCH  44  45
BRANCH  44  52
HETATM   52  C35 UNL     1     -12.711   9.789  12.756  1.00  0.00     0.163 C 
HETATM   53  O8  UNL     1     -12.894  10.922  13.186  1.00  0.00    -0.648 OA
BRANCH  52  54
HETATM   54  O9  UNL     1     -12.012   9.623  11.616  1.00  0.00    -0.775 OA
HETATM   55  H46 UNL     1     -11.893  10.537  11.280  1.00  0.00     0.167 HD
ENDBRANCH  52  54
ENDBRANCH  44  52
ENDBRANCH  42  44
ENDBRANCH  39  40
ENDBRANCH  38  39
ENDBRANCH  37  38
ENDBRANCH  36  37
ENDBRANCH  35  36
ENDBRANCH  33  35
ENDBRANCH  30  31
ENDBRANCH  29  30
ENDBRANCH   1  29
TORSDOF 19
ENDMDL
