MODEL 1
REMARK minimizedAffinity -9.87538052
REMARK  1 active torsions:
REMARK  status: ('A' for Active; 'I' for Inactive)
REMARK    1  A    between atoms: C2_2  and  N1_3 
ROOT
HETATM    1  N1  UNL     1      -6.155   3.006  12.147  1.00  0.00    -0.317 N 
HETATM    2  C3  UNL     1      -7.370   3.234  12.799  1.00  0.00     0.237 A 
HETATM    3  O1  UNL     1      -8.353   2.508  12.787  1.00  0.00    -0.272 OA
HETATM    4  C4  UNL     1      -7.247   4.581  13.545  1.00  0.00     0.063 A 
HETATM    5  C5  UNL     1      -8.252   5.579  12.969  1.00  0.00     0.030 C 
HETATM    6  C6  UNL     1      -7.467   4.361  15.041  1.00  0.00     0.030 C 
HETATM    7  C7  UNL     1      -5.821   4.984  13.237  1.00  0.00    -0.012 A 
HETATM    8  C8  UNL     1      -5.125   6.111  13.661  1.00  0.00     0.041 A 
HETATM    9  C9  UNL     1      -3.798   6.212  13.217  1.00  0.00     0.044 A 
HETATM   10  C10 UNL     1      -3.179   5.261  12.402  1.00  0.00     0.001 A 
HETATM   11  C11 UNL     1      -3.916   4.128  11.986  1.00  0.00     0.044 A 
HETATM   12  C12 UNL     1      -5.230   4.022  12.419  1.00  0.00     0.045 A 
HETATM   13  C13 UNL     1      -1.833   5.708  12.168  1.00  0.00    -0.017 A 
HETATM   14  C14 UNL     1      -1.679   6.918  12.830  1.00  0.00     0.069 A 
HETATM   15  N2  UNL     1      -2.867   7.195  13.460  1.00  0.00    -0.353 N 
HETATM   16  C15 UNL     1      -0.527   7.766  12.898  1.00  0.00     0.083 A 
HETATM   17  C16 UNL     1       0.738   7.591  12.363  1.00  0.00    -0.004 A 
HETATM   18  C17 UNL     1       1.259   6.460  11.541  1.00  0.00     0.043 C 
HETATM   19  C18 UNL     1       0.624   5.101  11.837  1.00  0.00     0.009 C 
HETATM   20  C19 UNL     1      -0.815   4.987  11.335  1.00  0.00     0.042 C 
HETATM   21  C20 UNL     1       1.458   8.760  12.750  1.00  0.00     0.030 A 
HETATM   22  C21 UNL     1       2.867   9.110  12.442  1.00  0.00     0.070 C 
HETATM   23  N3  UNL     1       0.705   9.591  13.477  1.00  0.00    -0.304 N 
ATOM     24  H3  UNL     1       0.971  10.488  13.883  1.00  0.00     0.186 HD
HETATM   25  N4  UNL     1      -0.481   8.972  13.546  1.00  0.00    -0.298 N 
HETATM   26  H14 UNL     1      -3.056   8.005  14.028  1.00  0.00     0.166 HD
HETATM   27  H24 UNL     1      -1.219   9.438  14.054  1.00  0.00     0.187 HD
ENDROOT
BRANCH   1  28
HETATM   28  C2  UNL     1      -5.871   1.812  11.383  1.00  0.00     0.128 C 
HETATM   29  C1  UNL     1      -4.475   1.279  11.654  1.00  0.00     0.027 C 
ENDBRANCH   1  28
TORSDOF 1
ENDMDL
MODEL 2
REMARK minimizedAffinity -9.56523418
REMARK  1 active torsions:
REMARK  status: ('A' for Active; 'I' for Inactive)
REMARK    1  A    between atoms: C2_2  and  N1_3 
ROOT
HETATM    1  N1  UNL     1      -0.765   3.846  11.647  1.00  0.00    -0.317 N 
HETATM    2  C3  UNL     1       0.461   4.482  11.429  1.00  0.00     0.237 A 
HETATM    3  O1  UNL     1       1.469   3.981  10.953  1.00  0.00    -0.272 OA
HETATM    4  C4  UNL     1       0.312   5.946  11.901  1.00  0.00     0.063 A 
HETATM    5  C5  UNL     1       1.261   6.205  13.071  1.00  0.00     0.030 C 
HETATM    6  C6  UNL     1       0.586   6.892  10.733  1.00  0.00     0.030 C 
HETATM    7  C7  UNL     1      -1.136   5.991  12.337  1.00  0.00    -0.012 A 
HETATM    8  C8  UNL     1      -1.860   7.066  12.840  1.00  0.00     0.041 A 
HETATM    9  C9  UNL     1      -3.203   6.807  13.153  1.00  0.00     0.044 A 
HETATM   10  C10 UNL     1      -3.812   5.562  12.981  1.00  0.00     0.001 A 
HETATM   11  C11 UNL     1      -3.047   4.487  12.471  1.00  0.00     0.044 A 
HETATM   12  C12 UNL     1      -1.717   4.735  12.161  1.00  0.00     0.045 A 
HETATM   13  C13 UNL     1      -5.180   5.691  13.403  1.00  0.00    -0.017 A 
HETATM   14  C14 UNL     1      -5.357   6.999  13.831  1.00  0.00     0.069 A 
HETATM   15  N2  UNL     1      -4.161   7.651  13.662  1.00  0.00    -0.353 N 
HETATM   16  C15 UNL     1      -6.538   7.624  14.350  1.00  0.00     0.083 A 
HETATM   17  C16 UNL     1      -7.811   7.109  14.525  1.00  0.00    -0.004 A 
HETATM   18  C17 UNL     1      -8.315   5.736  14.232  1.00  0.00     0.043 C 
HETATM   19  C18 UNL     1      -7.622   5.029  13.066  1.00  0.00     0.009 C 
HETATM   20  C19 UNL     1      -6.195   4.587  13.393  1.00  0.00     0.042 C 
HETATM   21  C20 UNL     1      -8.561   8.186  15.083  1.00  0.00     0.030 A 
HETATM   22  C21 UNL     1      -9.991   8.196  15.482  1.00  0.00     0.070 C 
HETATM   23  N3  UNL     1      -7.817   9.287  15.233  1.00  0.00    -0.304 N 
ATOM     24  H3  UNL     1      -8.103  10.194  15.600  1.00  0.00     0.186 HD
HETATM   25  N4  UNL     1      -6.608   8.918  14.790  1.00  0.00    -0.298 N 
HETATM   26  H14 UNL     1      -3.985   8.620  13.877  1.00  0.00     0.166 HD
HETATM   27  H24 UNL     1      -5.871   9.610  14.820  1.00  0.00     0.187 HD
ENDROOT
BRANCH   1  28
HETATM   28  C2  UNL     1      -1.028   2.473  11.280  1.00  0.00     0.128 C 
HETATM   29  C1  UNL     1      -2.493   2.108  11.447  1.00  0.00     0.027 C 
ENDBRANCH   1  28
TORSDOF 1
ENDMDL
MODEL 3
REMARK minimizedAffinity -9.38639259
REMARK  1 active torsions:
REMARK  status: ('A' for Active; 'I' for Inactive)
REMARK    1  A    between atoms: C2_2  and  N1_3 
ROOT
HETATM    1  N1  UNL     1       2.574   6.115  11.106  1.00  0.00    -0.317 N 
HETATM    2  C3  UNL     1       3.307   7.139  11.714  1.00  0.00     0.237 A 
HETATM    3  O1  UNL     1       4.457   7.464  11.461  1.00  0.00    -0.272 OA
HETATM    4  C4  UNL     1       2.392   7.794  12.774  1.00  0.00     0.063 A 
HETATM    5  C5  UNL     1       2.991   7.587  14.165  1.00  0.00     0.030 C 
HETATM    6  C6  UNL     1       2.214   9.277  12.452  1.00  0.00     0.030 C 
HETATM    7  C7  UNL     1       1.104   7.020  12.600  1.00  0.00    -0.012 A 
HETATM    8  C8  UNL     1      -0.103   7.177  13.274  1.00  0.00     0.041 A 
HETATM    9  C9  UNL     1      -1.136   6.310  12.888  1.00  0.00     0.044 A 
HETATM   10  C10 UNL     1      -1.001   5.338  11.894  1.00  0.00     0.001 A 
HETATM   11  C11 UNL     1       0.240   5.201  11.231  1.00  0.00     0.044 A 
HETATM   12  C12 UNL     1       1.268   6.054  11.608  1.00  0.00     0.045 A 
HETATM   13  C13 UNL     1      -2.264   4.660  11.782  1.00  0.00    -0.017 A 
HETATM   14  C14 UNL     1      -3.119   5.225  12.718  1.00  0.00     0.069 A 
HETATM   15  N2  UNL     1      -2.424   6.219  13.361  1.00  0.00    -0.353 N 
HETATM   16  C15 UNL     1      -4.483   4.895  13.004  1.00  0.00     0.083 A 
HETATM   17  C16 UNL     1      -5.316   3.964  12.407  1.00  0.00    -0.004 A 
HETATM   18  C17 UNL     1      -5.018   3.020  11.292  1.00  0.00     0.043 C 
HETATM   19  C18 UNL     1      -3.985   3.520  10.281  1.00  0.00     0.009 C 
HETATM   20  C19 UNL     1      -2.560   3.535  10.836  1.00  0.00     0.042 C 
HETATM   21  C20 UNL     1      -6.550   4.079  13.114  1.00  0.00     0.030 A 
HETATM   22  C21 UNL     1      -7.801   3.311  12.901  1.00  0.00     0.070 C 
HETATM   23  N3  UNL     1      -6.493   5.014  14.068  1.00  0.00    -0.304 N 
ATOM     24  H3  UNL     1      -7.230   5.302  14.711  1.00  0.00     0.186 HD
HETATM   25  N4  UNL     1      -5.241   5.483  13.982  1.00  0.00    -0.298 N 
HETATM   26  H14 UNL     1      -2.788   6.814  14.088  1.00  0.00     0.166 HD
HETATM   27  H24 UNL     1      -4.971   6.210  14.630  1.00  0.00     0.187 HD
ENDROOT
BRANCH   1  28
HETATM   28  C2  UNL     1       3.083   5.306  10.022  1.00  0.00     0.128 C 
HETATM   29  C1  UNL     1       2.877   5.968   8.669  1.00  0.00     0.027 C 
ENDBRANCH   1  28
TORSDOF 1
ENDMDL
MODEL 4
REMARK minimizedAffinity -9.27634811
REMARK  1 active torsions:
REMARK  status: ('A' for Active; 'I' for Inactive)
REMARK    1  A    between atoms: C2_2  and  N1_3 
ROOT
HETATM    1  N1  UNL     1      -5.293   4.614  12.989  1.00  0.00    -0.317 N 
HETATM    2  C3  UNL     1      -5.982   3.659  12.236  1.00  0.00     0.237 A 
HETATM    3  O1  UNL     1      -7.165   3.367  12.334  1.00  0.00    -0.272 OA
HETATM    4  C4  UNL     1      -4.973   3.033  11.247  1.00  0.00     0.063 A 
HETATM    5  C5  UNL     1      -4.808   1.546  11.557  1.00  0.00     0.030 C 
HETATM    6  C6  UNL     1      -5.451   3.260   9.814  1.00  0.00     0.030 C 
HETATM    7  C7  UNL     1      -3.711   3.811  11.551  1.00  0.00    -0.012 A 
HETATM    8  C8  UNL     1      -2.459   3.704  10.955  1.00  0.00     0.041 A 
HETATM    9  C9  UNL     1      -1.472   4.572  11.446  1.00  0.00     0.044 A 
HETATM   10  C10 UNL     1      -1.694   5.500  12.465  1.00  0.00     0.001 A 
HETATM   11  C11 UNL     1      -2.978   5.581  13.054  1.00  0.00     0.044 A 
HETATM   12  C12 UNL     1      -3.959   4.724  12.575  1.00  0.00     0.045 A 
HETATM   13  C13 UNL     1      -0.458   6.202  12.684  1.00  0.00    -0.017 A 
HETATM   14  C14 UNL     1       0.477   5.671  11.807  1.00  0.00     0.069 A 
HETATM   15  N2  UNL     1      -0.156   4.703  11.068  1.00  0.00    -0.353 N 
HETATM   16  C15 UNL     1       1.855   6.025  11.640  1.00  0.00     0.083 A 
HETATM   17  C16 UNL     1       2.604   7.004  12.271  1.00  0.00    -0.004 A 
HETATM   18  C17 UNL     1       2.183   7.970  13.327  1.00  0.00     0.043 C 
HETATM   19  C18 UNL     1       0.714   8.392  13.268  1.00  0.00     0.009 C 
HETATM   20  C19 UNL     1      -0.248   7.285  13.699  1.00  0.00     0.042 C 
HETATM   21  C20 UNL     1       3.907   6.883  11.703  1.00  0.00     0.030 A 
HETATM   22  C21 UNL     1       5.119   7.680  12.016  1.00  0.00     0.070 C 
HETATM   23  N3  UNL     1       3.962   5.913  10.785  1.00  0.00    -0.304 N 
ATOM     24  H3  UNL     1       4.764   5.621  10.226  1.00  0.00     0.186 HD
HETATM   25  N4  UNL     1       2.719   5.414  10.771  1.00  0.00    -0.298 N 
HETATM   26  H14 UNL     1       0.267   4.148  10.341  1.00  0.00     0.166 HD
HETATM   27  H24 UNL     1       2.534   4.647  10.139  1.00  0.00     0.187 HD
ENDROOT
BRANCH   1  28
HETATM   28  C2  UNL     1      -5.921   5.448  13.987  1.00  0.00     0.128 C 
HETATM   29  C1  UNL     1      -7.333   4.989  14.309  1.00  0.00     0.027 C 
ENDBRANCH   1  28
TORSDOF 1
ENDMDL
MODEL 5
REMARK minimizedAffinity -9.19631386
REMARK  1 active torsions:
REMARK  status: ('A' for Active; 'I' for Inactive)
REMARK    1  A    between atoms: C2_2  and  N1_3 
ROOT
HETATM    1  N1  UNL     1      -4.580   3.437  12.103  1.00  0.00    -0.317 N 
HETATM    2  C3  UNL     1      -5.917   3.040  12.020  1.00  0.00     0.237 A 
HETATM    3  O1  UNL     1      -6.366   2.121  11.350  1.00  0.00    -0.272 OA
HETATM    4  C4  UNL     1      -6.735   3.979  12.935  1.00  0.00     0.063 A 
HETATM    5  C5  UNL     1      -7.724   4.784  12.090  1.00  0.00     0.030 C 
HETATM    6  C6  UNL     1      -7.449   3.157  14.007  1.00  0.00     0.030 C 
HETATM    7  C7  UNL     1      -5.658   4.862  13.525  1.00  0.00    -0.012 A 
HETATM    8  C8  UNL     1      -5.788   5.895  14.447  1.00  0.00     0.041 A 
HETATM    9  C9  UNL     1      -4.597   6.536  14.819  1.00  0.00     0.044 A 
HETATM   10  C10 UNL     1      -3.340   6.186  14.320  1.00  0.00     0.001 A 
HETATM   11  C11 UNL     1      -3.242   5.133  13.381  1.00  0.00     0.044 A 
HETATM   12  C12 UNL     1      -4.417   4.496  13.006  1.00  0.00     0.045 A 
HETATM   13  C13 UNL     1      -2.376   7.057  14.936  1.00  0.00    -0.017 A 
HETATM   14  C14 UNL     1      -3.073   7.916  15.774  1.00  0.00     0.069 A 
HETATM   15  N2  UNL     1      -4.401   7.578  15.695  1.00  0.00    -0.353 N 
HETATM   16  C15 UNL     1      -2.568   8.970  16.603  1.00  0.00     0.083 A 
HETATM   17  C16 UNL     1      -1.264   9.384  16.818  1.00  0.00    -0.004 A 
HETATM   18  C17 UNL     1      -0.003   8.850  16.229  1.00  0.00     0.043 C 
HETATM   19  C18 UNL     1      -0.028   7.358  15.891  1.00  0.00     0.009 C 
HETATM   20  C19 UNL     1      -0.899   7.031  14.678  1.00  0.00     0.042 C 
HETATM   21  C20 UNL     1      -1.379  10.474  17.730  1.00  0.00     0.030 A 
HETATM   22  C21 UNL     1      -0.292  11.307  18.302  1.00  0.00     0.070 C 
HETATM   23  N3  UNL     1      -2.651  10.713  18.064  1.00  0.00    -0.304 N 
ATOM     24  H3  UNL     1      -3.011  11.426  18.699  1.00  0.00     0.186 HD
HETATM   25  N4  UNL     1      -3.342   9.799  17.370  1.00  0.00    -0.298 N 
HETATM   26  H14 UNL     1      -5.151   8.021  16.201  1.00  0.00     0.166 HD
HETATM   27  H24 UNL     1      -4.348   9.803  17.468  1.00  0.00     0.187 HD
ENDROOT
BRANCH   1  28
HETATM   28  C2  UNL     1      -3.502   2.757  11.422  1.00  0.00     0.128 C 
HETATM   29  C1  UNL     1      -2.952   3.575  10.264  1.00  0.00     0.027 C 
ENDBRANCH   1  28
TORSDOF 1
ENDMDL
MODEL 6
REMARK minimizedAffinity -9.14236927
REMARK  1 active torsions:
REMARK  status: ('A' for Active; 'I' for Inactive)
REMARK    1  A    between atoms: C2_2  and  N1_3 
ROOT
HETATM    1  N1  UNL     1      -3.948   4.124  12.937  1.00  0.00    -0.317 N 
HETATM    2  C3  UNL     1      -3.812   3.109  11.985  1.00  0.00     0.237 A 
HETATM    3  O1  UNL     1      -2.788   2.504  11.703  1.00  0.00    -0.272 OA
HETATM    4  C4  UNL     1      -5.202   2.885  11.348  1.00  0.00     0.063 A 
HETATM    5  C5  UNL     1      -5.144   3.231   9.860  1.00  0.00     0.030 C 
HETATM    6  C6  UNL     1      -5.643   1.440  11.573  1.00  0.00     0.030 C 
HETATM    7  C7  UNL     1      -6.062   3.865  12.116  1.00  0.00    -0.012 A 
HETATM    8  C8  UNL     1      -7.427   4.102  11.996  1.00  0.00     0.041 A 
HETATM    9  C9  UNL     1      -7.956   5.075  12.857  1.00  0.00     0.044 A 
HETATM   10  C10 UNL     1      -7.194   5.780  13.791  1.00  0.00     0.001 A 
HETATM   11  C11 UNL     1      -5.807   5.517  13.886  1.00  0.00     0.044 A 
HETATM   12  C12 UNL     1      -5.276   4.558  13.035  1.00  0.00     0.045 A 
HETATM   13  C13 UNL     1      -8.082   6.674  14.484  1.00  0.00    -0.017 A 
HETATM   14  C14 UNL     1      -9.347   6.500  13.942  1.00  0.00     0.069 A 
HETATM   15  N2  UNL     1      -9.249   5.528  12.976  1.00  0.00    -0.353 N 
HETATM   16  C15 UNL     1     -10.571   7.161  14.284  1.00  0.00     0.083 A 
HETATM   17  C16 UNL     1     -10.825   8.110  15.259  1.00  0.00    -0.004 A 
HETATM   18  C17 UNL     1      -9.880   8.730  16.232  1.00  0.00     0.043 C 
HETATM   19  C18 UNL     1      -8.720   7.833  16.666  1.00  0.00     0.009 C 
HETATM   20  C19 UNL     1      -7.676   7.627  15.569  1.00  0.00     0.042 C 
HETATM   21  C20 UNL     1     -12.215   8.400  15.124  1.00  0.00     0.030 A 
HETATM   22  C21 UNL     1     -13.030   9.359  15.912  1.00  0.00     0.070 C 
HETATM   23  N3  UNL     1     -12.783   7.682  14.151  1.00  0.00    -0.304 N 
ATOM     24  H3  UNL     1     -13.758   7.689  13.850  1.00  0.00     0.186 HD
HETATM   25  N4  UNL     1     -11.773   6.951  13.662  1.00  0.00    -0.298 N 
HETATM   26  H14 UNL     1     -10.010   5.179  12.415  1.00  0.00     0.166 HD
HETATM   27  H24 UNL     1     -11.980   6.327  12.894  1.00  0.00     0.187 HD
ENDROOT
BRANCH   1  28
HETATM   28  C2  UNL     1      -2.865   4.576  13.781  1.00  0.00     0.128 C 
HETATM   29  C1  UNL     1      -3.240   5.815  14.577  1.00  0.00     0.027 C 
ENDBRANCH   1  28
TORSDOF 1
ENDMDL
MODEL 7
REMARK minimizedAffinity -9.0558672
REMARK  1 active torsions:
REMARK  status: ('A' for Active; 'I' for Inactive)
REMARK    1  A    between atoms: C2_2  and  N1_3 
ROOT
HETATM    1  N1  UNL     1     -11.934   7.788  14.731  1.00  0.00    -0.317 N 
HETATM    2  C3  UNL     1     -12.075   8.955  15.488  1.00  0.00     0.237 A 
HETATM    3  O1  UNL     1     -13.123   9.476  15.838  1.00  0.00    -0.272 OA
HETATM    4  C4  UNL     1     -10.654   9.471  15.809  1.00  0.00     0.063 A 
HETATM    5  C5  UNL     1     -10.448  10.839  15.157  1.00  0.00     0.030 C 
HETATM    6  C6  UNL     1     -10.460   9.533  17.323  1.00  0.00     0.030 C 
HETATM    7  C7  UNL     1      -9.782   8.412  15.171  1.00  0.00    -0.012 A 
HETATM    8  C8  UNL     1      -8.394   8.325  15.150  1.00  0.00     0.041 A 
HETATM    9  C9  UNL     1      -7.861   7.213  14.481  1.00  0.00     0.044 A 
HETATM   10  C10 UNL     1      -8.642   6.232  13.866  1.00  0.00     0.001 A 
HETATM   11  C11 UNL     1     -10.051   6.351  13.901  1.00  0.00     0.044 A 
HETATM   12  C12 UNL     1     -10.585   7.450  14.559  1.00  0.00     0.045 A 
HETATM   13  C13 UNL     1      -7.744   5.262  13.299  1.00  0.00    -0.017 A 
HETATM   14  C14 UNL     1      -6.452   5.688  13.570  1.00  0.00     0.069 A 
HETATM   15  N2  UNL     1      -6.548   6.854  14.289  1.00  0.00    -0.353 N 
HETATM   16  C15 UNL     1      -5.208   5.074  13.213  1.00  0.00     0.083 A 
HETATM   17  C16 UNL     1      -4.964   3.887  12.544  1.00  0.00    -0.004 A 
HETATM   18  C17 UNL     1      -5.941   2.907  11.987  1.00  0.00     0.043 C 
HETATM   19  C18 UNL     1      -7.268   2.817  12.743  1.00  0.00     0.009 C 
HETATM   20  C19 UNL     1      -8.162   4.040  12.537  1.00  0.00     0.042 C 
HETATM   21  C20 UNL     1      -3.542   3.800  12.473  1.00  0.00     0.030 A 
HETATM   22  C21 UNL     1      -2.721   2.731  11.851  1.00  0.00     0.070 C 
HETATM   23  N3  UNL     1      -2.949   4.844  13.060  1.00  0.00    -0.304 N 
ATOM     24  H3  UNL     1      -1.950   5.026  13.157  1.00  0.00     0.186 HD
HETATM   25  N4  UNL     1      -3.972   5.593  13.491  1.00  0.00    -0.298 N 
HETATM   26  H14 UNL     1      -5.772   7.394  14.639  1.00  0.00     0.166 HD
HETATM   27  H24 UNL     1      -3.748   6.455  13.969  1.00  0.00     0.187 HD
ENDROOT
BRANCH   1  28
HETATM   28  C2  UNL     1     -13.051   6.987  14.285  1.00  0.00     0.128 C 
HETATM   29  C1  UNL     1     -13.524   7.387  12.897  1.00  0.00     0.027 C 
ENDBRANCH   1  28
TORSDOF 1
ENDMDL
MODEL 8
REMARK minimizedAffinity -8.9636879
REMARK  1 active torsions:
REMARK  status: ('A' for Active; 'I' for Inactive)
REMARK    1  A    between atoms: C2_2  and  N1_3 
ROOT
HETATM    1  N1  UNL     1      -1.564   4.536  12.567  1.00  0.00    -0.317 N 
HETATM    2  C3  UNL     1      -1.270   3.442  11.747  1.00  0.00     0.237 A 
HETATM    3  O1  UNL     1      -0.159   3.010  11.477  1.00  0.00    -0.272 OA
HETATM    4  C4  UNL     1      -2.614   2.870  11.241  1.00  0.00     0.063 A 
HETATM    5  C5  UNL     1      -2.688   3.008   9.721  1.00  0.00     0.030 C 
HETATM    6  C6  UNL     1      -2.750   1.414  11.682  1.00  0.00     0.030 C 
HETATM    7  C7  UNL     1      -3.618   3.766  11.933  1.00  0.00    -0.012 A 
HETATM    8  C8  UNL     1      -5.007   3.720  11.877  1.00  0.00     0.041 A 
HETATM    9  C9  UNL     1      -5.682   4.685  12.640  1.00  0.00     0.044 A 
HETATM   10  C10 UNL     1      -5.035   5.647  13.420  1.00  0.00     0.001 A 
HETATM   11  C11 UNL     1      -3.621   5.669  13.452  1.00  0.00     0.044 A 
HETATM   12  C12 UNL     1      -2.947   4.719  12.698  1.00  0.00     0.045 A 
HETATM   13  C13 UNL     1      -6.053   6.444  14.050  1.00  0.00    -0.017 A 
HETATM   14  C14 UNL     1      -7.280   5.957  13.623  1.00  0.00     0.069 A 
HETATM   15  N2  UNL     1      -7.033   4.896  12.787  1.00  0.00    -0.353 N 
HETATM   16  C15 UNL     1      -8.596   6.414  13.960  1.00  0.00     0.083 A 
HETATM   17  C16 UNL     1      -8.992   7.425  14.819  1.00  0.00    -0.004 A 
HETATM   18  C17 UNL     1      -8.148   8.344  15.636  1.00  0.00     0.043 C 
HETATM   19  C18 UNL     1      -6.816   7.755  16.102  1.00  0.00     0.009 C 
HETATM   20  C19 UNL     1      -5.798   7.599  14.972  1.00  0.00     0.042 C 
HETATM   21  C20 UNL     1     -10.416   7.423  14.743  1.00  0.00     0.030 A 
HETATM   22  C21 UNL     1     -11.371   8.310  15.454  1.00  0.00     0.070 C 
HETATM   23  N3  UNL     1     -10.870   6.480  13.912  1.00  0.00    -0.304 N 
ATOM     24  H3  UNL     1     -11.839   6.259  13.681  1.00  0.00     0.186 HD
HETATM   25  N4  UNL     1      -9.757   5.894  13.454  1.00  0.00    -0.298 N 
HETATM   26  H14 UNL     1      -7.732   4.333  12.330  1.00  0.00     0.166 HD
HETATM   27  H24 UNL     1      -9.868   5.140  12.790  1.00  0.00     0.187 HD
ENDROOT
BRANCH   1  28
HETATM   28  C2  UNL     1      -0.559   5.300  13.268  1.00  0.00     0.128 C 
HETATM   29  C1  UNL     1      -0.016   6.442  12.424  1.00  0.00     0.027 C 
ENDBRANCH   1  28
TORSDOF 1
ENDMDL
MODEL 9
REMARK minimizedAffinity -8.95762348
REMARK  1 active torsions:
REMARK  status: ('A' for Active; 'I' for Inactive)
REMARK    1  A    between atoms: C2_2  and  N1_3 
ROOT
HETATM    1  N1  UNL     1      -6.265   4.017  12.418  1.00  0.00    -0.317 N 
HETATM    2  C3  UNL     1      -7.513   4.108  13.041  1.00  0.00     0.237 A 
HETATM    3  O1  UNL     1      -8.543   3.546  12.698  1.00  0.00    -0.272 OA
HETATM    4  C4  UNL     1      -7.357   5.056  14.251  1.00  0.00     0.063 A 
HETATM    5  C5  UNL     1      -8.228   6.296  14.046  1.00  0.00     0.030 C 
HETATM    6  C6  UNL     1      -7.726   4.314  15.535  1.00  0.00     0.030 C 
HETATM    7  C7  UNL     1      -5.883   5.395  14.199  1.00  0.00    -0.012 A 
HETATM    8  C8  UNL     1      -5.145   6.201  15.058  1.00  0.00     0.041 A 
HETATM    9  C9  UNL     1      -3.780   6.324  14.760  1.00  0.00     0.044 A 
HETATM   10  C10 UNL     1      -3.163   5.690  13.679  1.00  0.00     0.001 A 
HETATM   11  C11 UNL     1      -3.943   4.879  12.821  1.00  0.00     0.044 A 
HETATM   12  C12 UNL     1      -5.295   4.755  13.109  1.00  0.00     0.045 A 
HETATM   13  C13 UNL     1      -1.771   6.049  13.707  1.00  0.00    -0.017 A 
HETATM   14  C14 UNL     1      -1.588   6.900  14.788  1.00  0.00     0.069 A 
HETATM   15  N2  UNL     1      -2.803   7.041  15.410  1.00  0.00    -0.353 N 
HETATM   16  C15 UNL     1      -0.385   7.536  15.238  1.00  0.00     0.083 A 
HETATM   17  C16 UNL     1       0.906   7.444  14.746  1.00  0.00    -0.004 A 
HETATM   18  C17 UNL     1       1.412   6.657  13.585  1.00  0.00     0.043 C 
HETATM   19  C18 UNL     1       0.652   5.360  13.303  1.00  0.00     0.009 C 
HETATM   20  C19 UNL     1      -0.741   5.593  12.718  1.00  0.00     0.042 C 
HETATM   21  C20 UNL     1       1.673   8.301  15.589  1.00  0.00     0.030 A 
HETATM   22  C21 UNL     1       3.127   8.593  15.516  1.00  0.00     0.070 C 
HETATM   23  N3  UNL     1       0.923   8.872  16.536  1.00  0.00    -0.304 N 
ATOM     24  H3  UNL     1       1.218   9.517  17.269  1.00  0.00     0.186 HD
HETATM   25  N4  UNL     1      -0.307   8.398  16.299  1.00  0.00    -0.298 N 
HETATM   26  H14 UNL     1      -2.981   7.593  16.234  1.00  0.00     0.166 HD
HETATM   27  H24 UNL     1      -1.052   8.713  16.906  1.00  0.00     0.187 HD
ENDROOT
BRANCH   1  28
HETATM   28  C2  UNL     1      -6.005   3.175  11.273  1.00  0.00     0.128 C 
HETATM   29  C1  UNL     1      -5.981   1.701  11.641  1.00  0.00     0.027 C 
ENDBRANCH   1  28
TORSDOF 1
ENDMDL
