MODEL 1
REMARK minimizedAffinity -10.0069075
REMARK  1 active torsions:
REMARK  status: ('A' for Active; 'I' for Inactive)
REMARK    1  A    between atoms: C2_2  and  N1_3 
ROOT
HETATM    1  N1  UNL     1      10.542  -5.701  31.175  1.00  0.00    -0.317 N 
HETATM    2  C3  UNL     1      10.839  -4.612  31.999  1.00  0.00     0.237 A 
HETATM    3  O1  UNL     1      11.933  -4.324  32.463  1.00  0.00    -0.272 OA
HETATM    4  C4  UNL     1       9.526  -3.829  32.220  1.00  0.00     0.063 A 
HETATM    5  C5  UNL     1       9.153  -3.863  33.702  1.00  0.00     0.030 C 
HETATM    6  C6  UNL     1       9.691  -2.397  31.714  1.00  0.00     0.030 C 
HETATM    7  C7  UNL     1       8.544  -4.615  31.379  1.00  0.00    -0.012 A 
HETATM    8  C8  UNL     1       7.191  -4.373  31.166  1.00  0.00     0.041 A 
HETATM    9  C9  UNL     1       6.533  -5.278  30.321  1.00  0.00     0.044 A 
HETATM   10  C10 UNL     1       7.162  -6.366  29.711  1.00  0.00     0.001 A 
HETATM   11  C11 UNL     1       8.538  -6.587  29.951  1.00  0.00     0.044 A 
HETATM   12  C12 UNL     1       9.196  -5.697  30.788  1.00  0.00     0.045 A 
HETATM   13  C13 UNL     1       6.171  -7.049  28.925  1.00  0.00    -0.017 A 
HETATM   14  C14 UNL     1       4.973  -6.371  29.093  1.00  0.00     0.069 A 
HETATM   15  N2  UNL     1       5.217  -5.307  29.925  1.00  0.00    -0.353 N 
HETATM   16  C15 UNL     1       3.689  -6.659  28.526  1.00  0.00     0.083 A 
HETATM   17  C16 UNL     1       3.312  -7.655  27.640  1.00  0.00    -0.004 A 
HETATM   18  C17 UNL     1       4.146  -8.730  27.030  1.00  0.00     0.043 C 
HETATM   19  C18 UNL     1       5.614  -8.362  26.808  1.00  0.00     0.009 C 
HETATM   20  C19 UNL     1       6.417  -8.282  28.107  1.00  0.00     0.042 C 
HETATM   21  C20 UNL     1       1.915  -7.450  27.442  1.00  0.00     0.030 A 
HETATM   22  C21 UNL     1       0.986  -8.236  26.591  1.00  0.00     0.070 C 
HETATM   23  N3  UNL     1       1.460  -6.404  28.140  1.00  0.00    -0.304 N 
ATOM     24  H3  UNL     1       0.509  -6.037  28.174  1.00  0.00     0.186 HD
HETATM   25  N4  UNL     1       2.545  -5.953  28.783  1.00  0.00    -0.298 N 
HETATM   26  H14 UNL     1       4.537  -4.625  30.222  1.00  0.00     0.166 HD
HETATM   27  H24 UNL     1       2.426  -5.152  29.389  1.00  0.00     0.187 HD
ENDROOT
BRANCH   1  28
HETATM   28  C2  UNL     1      11.535  -6.640  30.704  1.00  0.00     0.128 C 
HETATM   29  C1  UNL     1      10.966  -7.608  29.681  1.00  0.00     0.027 C 
ENDBRANCH   1  28
TORSDOF 1
ENDMDL
MODEL 2
REMARK minimizedAffinity -9.55504513
REMARK  1 active torsions:
REMARK  status: ('A' for Active; 'I' for Inactive)
REMARK    1  A    between atoms: C2_2  and  N1_3 
ROOT
HETATM    1  N1  UNL     1      11.112  -6.868  30.298  1.00  0.00    -0.317 N 
HETATM    2  C3  UNL     1      11.676  -5.781  30.973  1.00  0.00     0.237 A 
HETATM    3  O1  UNL     1      12.848  -5.648  31.294  1.00  0.00    -0.272 OA
HETATM    4  C4  UNL     1      10.541  -4.768  31.245  1.00  0.00     0.063 A 
HETATM    5  C5  UNL     1      10.342  -4.615  32.753  1.00  0.00     0.030 C 
HETATM    6  C6  UNL     1      10.876  -3.433  30.583  1.00  0.00     0.030 C 
HETATM    7  C7  UNL     1       9.354  -5.441  30.591  1.00  0.00    -0.012 A 
HETATM    8  C8  UNL     1       8.043  -4.987  30.492  1.00  0.00     0.041 A 
HETATM    9  C9  UNL     1       7.153  -5.833  29.813  1.00  0.00     0.044 A 
HETATM   10  C10 UNL     1       7.523  -7.059  29.256  1.00  0.00     0.001 A 
HETATM   11  C11 UNL     1       8.863  -7.494  29.377  1.00  0.00     0.044 A 
HETATM   12  C12 UNL     1       9.749  -6.663  30.049  1.00  0.00     0.045 A 
HETATM   13  C13 UNL     1       6.350  -7.625  28.646  1.00  0.00    -0.017 A 
HETATM   14  C14 UNL     1       5.305  -6.739  28.864  1.00  0.00     0.069 A 
HETATM   15  N2  UNL     1       5.813  -5.667  29.556  1.00  0.00    -0.353 N 
HETATM   16  C15 UNL     1       3.934  -6.848  28.461  1.00  0.00     0.083 A 
HETATM   17  C16 UNL     1       3.301  -7.833  27.724  1.00  0.00    -0.004 A 
HETATM   18  C17 UNL     1       3.873  -9.083  27.145  1.00  0.00     0.043 C 
HETATM   19  C18 UNL     1       5.345  -8.993  26.740  1.00  0.00     0.009 C 
HETATM   20  C19 UNL     1       6.296  -8.945  27.936  1.00  0.00     0.042 C 
HETATM   21  C20 UNL     1       1.942  -7.408  27.647  1.00  0.00     0.030 A 
HETATM   22  C21 UNL     1       0.806  -8.090  26.978  1.00  0.00     0.070 C 
HETATM   23  N3  UNL     1       1.746  -6.246  28.277  1.00  0.00    -0.304 N 
ATOM     24  H3  UNL     1       0.878  -5.718  28.370  1.00  0.00     0.186 HD
HETATM   25  N4  UNL     1       2.957  -5.936  28.759  1.00  0.00    -0.298 N 
HETATM   26  H14 UNL     1       5.291  -4.857  29.849  1.00  0.00     0.166 HD
HETATM   27  H24 UNL     1       3.041  -5.079  29.290  1.00  0.00     0.187 HD
ENDROOT
BRANCH   1  28
HETATM   28  C2  UNL     1      11.879  -7.999  29.827  1.00  0.00     0.128 C 
HETATM   29  C1  UNL     1      13.352  -7.878  30.182  1.00  0.00     0.027 C 
ENDBRANCH   1  28
TORSDOF 1
ENDMDL
MODEL 3
REMARK minimizedAffinity -9.03805828
REMARK  1 active torsions:
REMARK  status: ('A' for Active; 'I' for Inactive)
REMARK    1  A    between atoms: C2_2  and  N1_3 
ROOT
HETATM    1  N1  UNL     1       7.511  -3.695  31.375  1.00  0.00    -0.317 N 
HETATM    2  C3  UNL     1       8.728  -3.549  32.047  1.00  0.00     0.237 A 
HETATM    3  O1  UNL     1       9.042  -2.640  32.801  1.00  0.00    -0.272 OA
HETATM    4  C4  UNL     1       9.616  -4.754  31.661  1.00  0.00     0.063 A 
HETATM    5  C5  UNL     1      10.852  -4.260  30.911  1.00  0.00     0.030 C 
HETATM    6  C6  UNL     1       9.995  -5.534  32.919  1.00  0.00     0.030 C 
HETATM    7  C7  UNL     1       8.696  -5.548  30.760  1.00  0.00    -0.012 A 
HETATM    8  C8  UNL     1       8.937  -6.759  30.120  1.00  0.00     0.041 A 
HETATM    9  C9  UNL     1       7.881  -7.264  29.347  1.00  0.00     0.044 A 
HETATM   10  C10 UNL     1       6.648  -6.622  29.208  1.00  0.00     0.001 A 
HETATM   11  C11 UNL     1       6.435  -5.390  29.868  1.00  0.00     0.044 A 
HETATM   12  C12 UNL     1       7.477  -4.883  30.632  1.00  0.00     0.045 A 
HETATM   13  C13 UNL     1       5.832  -7.441  28.353  1.00  0.00    -0.017 A 
HETATM   14  C14 UNL     1       6.594  -8.542  27.988  1.00  0.00     0.069 A 
HETATM   15  N2  UNL     1       7.815  -8.419  28.605  1.00  0.00    -0.353 N 
HETATM   16  C15 UNL     1       6.237  -9.643  27.143  1.00  0.00     0.083 A 
HETATM   17  C16 UNL     1       5.041  -9.921  26.504  1.00  0.00    -0.004 A 
HETATM   18  C17 UNL     1       3.774  -9.134  26.505  1.00  0.00     0.043 C 
HETATM   19  C18 UNL     1       3.511  -8.334  27.782  1.00  0.00     0.009 C 
HETATM   20  C19 UNL     1       4.429  -7.121  27.932  1.00  0.00     0.042 C 
HETATM   21  C20 UNL     1       5.281 -11.140  25.805  1.00  0.00     0.030 A 
HETATM   22  C21 UNL     1       4.343 -11.900  24.942  1.00  0.00     0.070 C 
HETATM   23  N3  UNL     1       6.525 -11.591  26.001  1.00  0.00    -0.304 N 
ATOM     24  H3  UNL     1       6.953 -12.437  25.626  1.00  0.00     0.186 HD
HETATM   25  N4  UNL     1       7.076 -10.671  26.803  1.00  0.00    -0.298 N 
HETATM   26  H14 UNL     1       8.576  -9.074  28.535  1.00  0.00     0.166 HD
HETATM   27  H24 UNL     1       8.038 -10.811  27.079  1.00  0.00     0.187 HD
ENDROOT
BRANCH   1  28
HETATM   28  C2  UNL     1       6.401  -2.782  31.527  1.00  0.00     0.128 C 
HETATM   29  C1  UNL     1       5.176  -3.237  30.751  1.00  0.00     0.027 C 
ENDBRANCH   1  28
TORSDOF 1
ENDMDL
MODEL 4
REMARK minimizedAffinity -8.73369694
REMARK  1 active torsions:
REMARK  status: ('A' for Active; 'I' for Inactive)
REMARK    1  A    between atoms: C2_2  and  N1_3 
ROOT
HETATM    1  N1  UNL     1       3.348  -9.795  26.396  1.00  0.00    -0.317 N 
HETATM    2  C3  UNL     1       1.974  -9.895  26.161  1.00  0.00     0.237 A 
HETATM    3  O1  UNL     1       1.400 -10.782  25.547  1.00  0.00    -0.272 OA
HETATM    4  C4  UNL     1       1.302  -8.671  26.825  1.00  0.00     0.063 A 
HETATM    5  C5  UNL     1       0.642  -7.805  25.752  1.00  0.00     0.030 C 
HETATM    6  C6  UNL     1       0.291  -9.144  27.869  1.00  0.00     0.030 C 
HETATM    7  C7  UNL     1       2.483  -7.969  27.460  1.00  0.00    -0.012 A 
HETATM    8  C8  UNL     1       2.496  -6.806  28.222  1.00  0.00     0.041 A 
HETATM    9  C9  UNL     1       3.753  -6.395  28.689  1.00  0.00     0.044 A 
HETATM   10  C10 UNL     1       4.939  -7.085  28.429  1.00  0.00     0.001 A 
HETATM   11  C11 UNL     1       4.893  -8.263  27.648  1.00  0.00     0.044 A 
HETATM   12  C12 UNL     1       3.652  -8.674  27.180  1.00  0.00     0.045 A 
HETATM   13  C13 UNL     1       6.005  -6.366  29.074  1.00  0.00    -0.017 A 
HETATM   14  C14 UNL     1       5.440  -5.258  29.689  1.00  0.00     0.069 A 
HETATM   15  N2  UNL     1       4.088  -5.302  29.454  1.00  0.00    -0.353 N 
HETATM   16  C15 UNL     1       6.081  -4.228  30.452  1.00  0.00     0.083 A 
HETATM   17  C16 UNL     1       7.411  -4.085  30.809  1.00  0.00    -0.004 A 
HETATM   18  C17 UNL     1       8.569  -4.967  30.483  1.00  0.00     0.043 C 
HETATM   19  C18 UNL     1       8.227  -6.449  30.325  1.00  0.00     0.009 C 
HETATM   20  C19 UNL     1       7.453  -6.756  29.044  1.00  0.00     0.042 C 
HETATM   21  C20 UNL     1       7.454  -2.872  31.557  1.00  0.00     0.030 A 
HETATM   22  C21 UNL     1       8.634  -2.223  32.182  1.00  0.00     0.070 C 
HETATM   23  N3  UNL     1       6.246  -2.310  31.666  1.00  0.00    -0.304 N 
ATOM     24  H3  UNL     1       5.994  -1.448  32.150  1.00  0.00     0.186 HD
HETATM   25  N4  UNL     1       5.444  -3.143  30.991  1.00  0.00    -0.298 N 
HETATM   26  H14 UNL     1       3.412  -4.633  29.786  1.00  0.00     0.166 HD
HETATM   27  H24 UNL     1       4.463  -2.902  30.936  1.00  0.00     0.187 HD
ENDROOT
BRANCH   1  28
HETATM   28  C2  UNL     1       4.304 -10.790  25.969  1.00  0.00     0.128 C 
HETATM   29  C1  UNL     1       4.471 -10.812  24.459  1.00  0.00     0.027 C 
ENDBRANCH   1  28
TORSDOF 1
ENDMDL
MODEL 5
REMARK minimizedAffinity -8.49777603
REMARK  1 active torsions:
REMARK  status: ('A' for Active; 'I' for Inactive)
REMARK    1  A    between atoms: C2_2  and  N1_3 
ROOT
HETATM    1  N1  UNL     1       4.118  -7.394  28.197  1.00  0.00    -0.317 N 
HETATM    2  C3  UNL     1       4.173  -8.356  27.184  1.00  0.00     0.237 A 
HETATM    3  O1  UNL     1       3.226  -8.942  26.681  1.00  0.00    -0.272 OA
HETATM    4  C4  UNL     1       5.660  -8.548  26.810  1.00  0.00     0.063 A 
HETATM    5  C5  UNL     1       6.088  -9.979  27.133  1.00  0.00     0.030 C 
HETATM    6  C6  UNL     1       5.864  -8.219  25.332  1.00  0.00     0.030 C 
HETATM    7  C7  UNL     1       6.344  -7.544  27.711  1.00  0.00    -0.012 A 
HETATM    8  C8  UNL     1       7.698  -7.243  27.808  1.00  0.00     0.041 A 
HETATM    9  C9  UNL     1       8.039  -6.249  28.738  1.00  0.00     0.044 A 
HETATM   10  C10 UNL     1       7.106  -5.579  29.532  1.00  0.00     0.001 A 
HETATM   11  C11 UNL     1       5.736  -5.911  29.413  1.00  0.00     0.044 A 
HETATM   12  C12 UNL     1       5.392  -6.895  28.497  1.00  0.00     0.045 A 
HETATM   13  C13 UNL     1       7.830  -4.639  30.345  1.00  0.00    -0.017 A 
HETATM   14  C14 UNL     1       9.175  -4.777  30.034  1.00  0.00     0.069 A 
HETATM   15  N2  UNL     1       9.275  -5.740  29.061  1.00  0.00    -0.353 N 
HETATM   16  C15 UNL     1      10.300  -4.073  30.575  1.00  0.00     0.083 A 
HETATM   17  C16 UNL     1      10.343  -3.053  31.511  1.00  0.00    -0.004 A 
HETATM   18  C17 UNL     1       9.217  -2.403  32.240  1.00  0.00     0.043 C 
HETATM   19  C18 UNL     1       7.895  -2.351  31.473  1.00  0.00     0.009 C 
HETATM   20  C19 UNL     1       7.215  -3.714  31.353  1.00  0.00     0.042 C 
HETATM   21  C20 UNL     1      11.731  -2.759  31.657  1.00  0.00     0.030 A 
HETATM   22  C21 UNL     1      12.364  -1.749  32.543  1.00  0.00     0.070 C 
HETATM   23  N3  UNL     1      12.490  -3.526  30.868  1.00  0.00    -0.304 N 
ATOM     24  H3  UNL     1      13.505  -3.518  30.772  1.00  0.00     0.186 HD
HETATM   25  N4  UNL     1      11.605  -4.306  30.234  1.00  0.00    -0.298 N 
HETATM   26  H14 UNL     1      10.130  -6.050  28.627  1.00  0.00     0.166 HD
HETATM   27  H24 UNL     1      11.970  -4.984  29.578  1.00  0.00     0.187 HD
ENDROOT
BRANCH   1  28
HETATM   28  C2  UNL     1       2.883  -6.910  28.771  1.00  0.00     0.128 C 
HETATM   29  C1  UNL     1       1.743  -6.921  27.766  1.00  0.00     0.027 C 
ENDBRANCH   1  28
TORSDOF 1
ENDMDL
MODEL 6
REMARK minimizedAffinity -8.30751324
REMARK  1 active torsions:
REMARK  status: ('A' for Active; 'I' for Inactive)
REMARK    1  A    between atoms: C2_2  and  N1_3 
ROOT
HETATM    1  N1  UNL     1       8.712  -4.631  30.810  1.00  0.00    -0.317 N 
HETATM    2  C3  UNL     1       7.432  -4.315  31.274  1.00  0.00     0.237 A 
HETATM    3  O1  UNL     1       7.155  -3.702  32.294  1.00  0.00    -0.272 OA
HETATM    4  C4  UNL     1       6.418  -4.885  30.256  1.00  0.00     0.063 A 
HETATM    5  C5  UNL     1       5.561  -5.956  30.931  1.00  0.00     0.030 C 
HETATM    6  C6  UNL     1       5.563  -3.751  29.693  1.00  0.00     0.030 C 
HETATM    7  C7  UNL     1       7.329  -5.481  29.204  1.00  0.00    -0.012 A 
HETATM    8  C8  UNL     1       6.986  -6.122  28.019  1.00  0.00     0.041 A 
HETATM    9  C9  UNL     1       8.058  -6.567  27.231  1.00  0.00     0.044 A 
HETATM   10  C10 UNL     1       9.400  -6.392  27.580  1.00  0.00     0.001 A 
HETATM   11  C11 UNL     1       9.715  -5.738  28.793  1.00  0.00     0.044 A 
HETATM   12  C12 UNL     1       8.659  -5.298  29.579  1.00  0.00     0.045 A 
HETATM   13  C13 UNL     1      10.194  -6.969  26.529  1.00  0.00    -0.017 A 
HETATM   14  C14 UNL     1       9.318  -7.490  25.588  1.00  0.00     0.069 A 
HETATM   15  N2  UNL     1       8.043  -7.227  26.025  1.00  0.00    -0.353 N 
HETATM   16  C15 UNL     1       9.614  -8.172  24.363  1.00  0.00     0.083 A 
HETATM   17  C16 UNL     1      10.837  -8.457  23.779  1.00  0.00    -0.004 A 
HETATM   18  C17 UNL     1      12.208  -8.142  24.274  1.00  0.00     0.043 C 
HETATM   19  C18 UNL     1      12.315  -6.868  25.113  1.00  0.00     0.009 C 
HETATM   20  C19 UNL     1      11.693  -7.008  26.502  1.00  0.00     0.042 C 
HETATM   21  C20 UNL     1      10.507  -9.155  22.580  1.00  0.00     0.030 A 
HETATM   22  C21 UNL     1      11.433  -9.710  21.561  1.00  0.00     0.070 C 
HETATM   23  N3  UNL     1       9.186  -9.286  22.425  1.00  0.00    -0.304 N 
ATOM     24  H3  UNL     1       8.684  -9.734  21.659  1.00  0.00     0.186 HD
HETATM   25  N4  UNL     1       8.676  -8.690  23.511  1.00  0.00    -0.298 N 
HETATM   26  H14 UNL     1       7.194  -7.477  25.544  1.00  0.00     0.166 HD
HETATM   27  H24 UNL     1       7.670  -8.679  23.606  1.00  0.00     0.187 HD
ENDROOT
BRANCH   1  28
HETATM   28  C2  UNL     1       9.926  -4.216  31.475  1.00  0.00     0.128 C 
HETATM   29  C1  UNL     1      10.351  -5.198  32.555  1.00  0.00     0.027 C 
ENDBRANCH   1  28
TORSDOF 1
ENDMDL
MODEL 7
REMARK minimizedAffinity -8.26006413
REMARK  1 active torsions:
REMARK  status: ('A' for Active; 'I' for Inactive)
REMARK    1  A    between atoms: C2_2  and  N1_3 
ROOT
HETATM    1  N1  UNL     1       1.492  -8.791  26.851  1.00  0.00    -0.317 N 
HETATM    2  C3  UNL     1       1.612  -9.919  26.033  1.00  0.00     0.237 A 
HETATM    3  O1  UNL     1       0.712 -10.480  25.426  1.00  0.00    -0.272 OA
HETATM    4  C4  UNL     1       3.101 -10.333  26.033  1.00  0.00     0.063 A 
HETATM    5  C5  UNL     1       3.246 -11.721  26.657  1.00  0.00     0.030 C 
HETATM    6  C6  UNL     1       3.644 -10.296  24.606  1.00  0.00     0.030 C 
HETATM    7  C7  UNL     1       3.726  -9.263  26.902  1.00  0.00    -0.012 A 
HETATM    8  C8  UNL     1       5.061  -9.096  27.252  1.00  0.00     0.041 A 
HETATM    9  C9  UNL     1       5.346  -7.995  28.073  1.00  0.00     0.044 A 
HETATM   10  C10 UNL     1       4.377  -7.098  28.529  1.00  0.00     0.001 A 
HETATM   11  C11 UNL     1       3.027  -7.297  28.159  1.00  0.00     0.044 A 
HETATM   12  C12 UNL     1       2.737  -8.386  27.348  1.00  0.00     0.045 A 
HETATM   13  C13 UNL     1       5.049  -6.112  29.331  1.00  0.00    -0.017 A 
HETATM   14  C14 UNL     1       6.396  -6.446  29.352  1.00  0.00     0.069 A 
HETATM   15  N2  UNL     1       6.551  -7.572  28.583  1.00  0.00    -0.353 N 
HETATM   16  C15 UNL     1       7.477  -5.782  30.017  1.00  0.00     0.083 A 
HETATM   17  C16 UNL     1       7.476  -4.622  30.775  1.00  0.00    -0.004 A 
HETATM   18  C17 UNL     1       6.330  -3.735  31.128  1.00  0.00     0.043 C 
HETATM   19  C18 UNL     1       5.212  -3.679  30.086  1.00  0.00     0.009 C 
HETATM   20  C19 UNL     1       4.382  -4.961  30.024  1.00  0.00     0.042 C 
HETATM   21  C20 UNL     1       8.833  -4.457  31.181  1.00  0.00     0.030 A 
HETATM   22  C21 UNL     1       9.411  -3.379  32.022  1.00  0.00     0.070 C 
HETATM   23  N3  UNL     1       9.618  -5.429  30.706  1.00  0.00    -0.304 N 
ATOM     24  H3  UNL     1      10.622  -5.548  30.838  1.00  0.00     0.186 HD
HETATM   25  N4  UNL     1       8.777  -6.211  30.016  1.00  0.00    -0.298 N 
HETATM   26  H14 UNL     1       7.422  -8.045  28.403  1.00  0.00     0.166 HD
HETATM   27  H24 UNL     1       9.165  -7.030  29.568  1.00  0.00     0.187 HD
ENDROOT
BRANCH   1  28
HETATM   28  C2  UNL     1       0.249  -8.083  27.055  1.00  0.00     0.128 C 
HETATM   29  C1  UNL     1      -0.766  -8.919  27.818  1.00  0.00     0.027 C 
ENDBRANCH   1  28
TORSDOF 1
ENDMDL
MODEL 8
REMARK minimizedAffinity -8.19260502
REMARK  1 active torsions:
REMARK  status: ('A' for Active; 'I' for Inactive)
REMARK    1  A    between atoms: C2_2  and  N1_3 
ROOT
HETATM    1  N1  UNL     1      12.014  -6.344  30.430  1.00  0.00    -0.317 N 
HETATM    2  C3  UNL     1      13.036  -7.252  30.135  1.00  0.00     0.237 A 
HETATM    3  O1  UNL     1      14.206  -7.170  30.476  1.00  0.00    -0.272 OA
HETATM    4  C4  UNL     1      12.414  -8.389  29.293  1.00  0.00     0.063 A 
HETATM    5  C5  UNL     1      13.050  -8.404  27.903  1.00  0.00     0.030 C 
HETATM    6  C6  UNL     1      12.602  -9.723  30.014  1.00  0.00     0.030 C 
HETATM    7  C7  UNL     1      10.958  -7.979  29.236  1.00  0.00    -0.012 A 
HETATM    8  C8  UNL     1       9.894  -8.633  28.625  1.00  0.00     0.041 A 
HETATM    9  C9  UNL     1       8.642  -8.011  28.747  1.00  0.00     0.044 A 
HETATM   10  C10 UNL     1       8.437  -6.812  29.433  1.00  0.00     0.001 A 
HETATM   11  C11 UNL     1       9.541  -6.169  30.040  1.00  0.00     0.044 A 
HETATM   12  C12 UNL     1      10.783  -6.778  29.922  1.00  0.00     0.045 A 
HETATM   13  C13 UNL     1       7.036  -6.501  29.344  1.00  0.00    -0.017 A 
HETATM   14  C14 UNL     1       6.438  -7.505  28.597  1.00  0.00     0.069 A 
HETATM   15  N2  UNL     1       7.418  -8.405  28.259  1.00  0.00    -0.353 N 
HETATM   16  C15 UNL     1       5.063  -7.649  28.221  1.00  0.00     0.083 A 
HETATM   17  C16 UNL     1       3.970  -6.857  28.530  1.00  0.00    -0.004 A 
HETATM   18  C17 UNL     1       3.919  -5.606  29.341  1.00  0.00     0.043 C 
HETATM   19  C18 UNL     1       4.961  -5.517  30.457  1.00  0.00     0.009 C 
HETATM   20  C19 UNL     1       6.381  -5.290  29.938  1.00  0.00     0.042 C 
HETATM   21  C20 UNL     1       2.872  -7.489  27.875  1.00  0.00     0.030 A 
HETATM   22  C21 UNL     1       1.450  -7.063  27.858  1.00  0.00     0.070 C 
HETATM   23  N3  UNL     1       3.249  -8.591  27.220  1.00  0.00    -0.304 N 
ATOM     24  H3  UNL     1       2.667  -9.230  26.677  1.00  0.00     0.186 HD
HETATM   25  N4  UNL     1       4.568  -8.660  27.441  1.00  0.00    -0.298 N 
HETATM   26  H14 UNL     1       7.283  -9.248  27.724  1.00  0.00     0.166 HD
HETATM   27  H24 UNL     1       5.070  -9.430  27.022  1.00  0.00     0.187 HD
ENDROOT
BRANCH   1  28
HETATM   28  C2  UNL     1      12.204  -5.169  31.249  1.00  0.00     0.128 C 
HETATM   29  C1  UNL     1      12.015  -3.884  30.459  1.00  0.00     0.027 C 
ENDBRANCH   1  28
TORSDOF 1
ENDMDL
MODEL 9
REMARK minimizedAffinity -8.06203079
REMARK  1 active torsions:
REMARK  status: ('A' for Active; 'I' for Inactive)
REMARK    1  A    between atoms: C2_2  and  N1_3 
ROOT
HETATM    1  N1  UNL     1       7.584  -4.616  30.717  1.00  0.00    -0.317 N 
HETATM    2  C3  UNL     1       8.270  -3.888  31.694  1.00  0.00     0.237 A 
HETATM    3  O1  UNL     1       7.794  -3.398  32.707  1.00  0.00    -0.272 OA
HETATM    4  C4  UNL     1       9.751  -3.813  31.259  1.00  0.00     0.063 A 
HETATM    5  C5  UNL     1      10.135  -2.356  31.001  1.00  0.00     0.030 C 
HETATM    6  C6  UNL     1      10.633  -4.447  32.332  1.00  0.00     0.030 C 
HETATM    7  C7  UNL     1       9.746  -4.623  29.981  1.00  0.00    -0.012 A 
HETATM    8  C8  UNL     1      10.811  -4.928  29.141  1.00  0.00     0.041 A 
HETATM    9  C9  UNL     1      10.501  -5.714  28.020  1.00  0.00     0.044 A 
HETATM   10  C10 UNL     1       9.216  -6.182  27.735  1.00  0.00     0.001 A 
HETATM   11  C11 UNL     1       8.153  -5.850  28.607  1.00  0.00     0.044 A 
HETATM   12  C12 UNL     1       8.452  -5.071  29.716  1.00  0.00     0.045 A 
HETATM   13  C13 UNL     1       9.299  -6.948  26.521  1.00  0.00    -0.017 A 
HETATM   14  C14 UNL     1      10.620  -6.910  26.098  1.00  0.00     0.069 A 
HETATM   15  N2  UNL     1      11.323  -6.173  27.019  1.00  0.00    -0.353 N 
HETATM   16  C15 UNL     1      11.212  -7.511  24.941  1.00  0.00     0.083 A 
HETATM   17  C16 UNL     1      10.642  -8.314  23.967  1.00  0.00    -0.004 A 
HETATM   18  C17 UNL     1       9.229  -8.772  23.840  1.00  0.00     0.043 C 
HETATM   19  C18 UNL     1       8.486  -8.952  25.165  1.00  0.00     0.009 C 
HETATM   20  C19 UNL     1       8.144  -7.628  25.848  1.00  0.00     0.042 C 
HETATM   21  C20 UNL     1      11.712  -8.603  23.069  1.00  0.00     0.030 A 
HETATM   22  C21 UNL     1      11.670  -9.420  21.830  1.00  0.00     0.070 C 
HETATM   23  N3  UNL     1      12.858  -8.036  23.458  1.00  0.00    -0.304 N 
ATOM     24  H3  UNL     1      13.770  -8.087  23.005  1.00  0.00     0.186 HD
HETATM   25  N4  UNL     1      12.527  -7.384  24.580  1.00  0.00    -0.298 N 
HETATM   26  H14 UNL     1      12.312  -5.980  26.985  1.00  0.00     0.166 HD
HETATM   27  H24 UNL     1      13.258  -6.867  25.050  1.00  0.00     0.187 HD
ENDROOT
BRANCH   1  28
HETATM   28  C2  UNL     1       6.179  -4.941  30.803  1.00  0.00     0.128 C 
HETATM   29  C1  UNL     1       5.307  -3.892  30.132  1.00  0.00     0.027 C 
ENDBRANCH   1  28
TORSDOF 1
ENDMDL
