REMARK  8 active torsions:
REMARK  status: ('A' for Active; 'I' for Inactive)
REMARK    1  A    between atoms: C2_2  and  N1_3 
REMARK       I    between atoms: N1_3  and  C3_4 
REMARK    2  A    between atoms: C3_4  and  C4_6 
REMARK    3  A    between atoms: C6_8  and  C7_9 
REMARK    4  A    between atoms: C10_15  and  N4_16 
REMARK       I    between atoms: N4_16  and  C11_17 
REMARK       I    between atoms: C11_17  and  N5_19 
REMARK    5  A    between atoms: N5_19  and  C12_20 
REMARK    6  A    between atoms: C12_20  and  C13_21 
REMARK    7  A    between atoms: C12_20  and  C15_24 
REMARK    8  A    between atoms: C13_21  and  O3_22 
ROOT
HETATM    1  C7  UNL     1       3.763   0.717   1.451  1.00  0.00     0.044 A 
HETATM    2  N2  UNL     1       3.832  -0.562   1.829  1.00  0.00    -0.303 N 
ATOM      3  H2  UNL     1       4.621  -1.056   2.246  1.00  0.00     0.186 HD
HETATM    4  N3  UNL     1       2.609  -1.045   1.527  1.00  0.00    -0.300 N 
HETATM    5  C8  UNL     1       1.768  -0.117   0.974  1.00  0.00     0.065 A 
HETATM    6  C9  UNL     1       0.440  -0.198   0.554  1.00  0.00     0.080 A 
HETATM    7  C10 UNL     1      -0.092   0.982   0.046  1.00  0.00     0.111 A 
HETATM    8  N6  UNL     1       0.604   2.140  -0.049  1.00  0.00    -0.351 N 
ATOM      9  H6  UNL     1       0.159   2.973  -0.435  1.00  0.00     0.166 HD
HETATM   10  C21 UNL     1       1.897   2.192   0.371  1.00  0.00     0.105 A 
HETATM   11  C22 UNL     1       2.506   1.056   0.898  1.00  0.00     0.032 A 
HETATM   12  H11 UNL     1       2.404  -2.015   1.739  1.00  0.00     0.187 HD
ENDROOT
BRANCH   7  13
HETATM   13  N4  UNL     1      -1.410   1.103  -0.398  1.00  0.00    -0.295 N 
HETATM   14  C11 UNL     1      -2.381   0.141  -0.465  1.00  0.00     0.322 C 
HETATM   15  O2  UNL     1      -2.250  -1.046  -0.190  1.00  0.00    -0.247 OA
HETATM   16  N5  UNL     1      -3.579   0.676  -0.895  1.00  0.00    -0.332 N 
HETATM   17  H14 UNL     1      -3.738   1.618  -0.568  1.00  0.00     0.165 HD
HETATM   18  H13 UNL     1      -1.614   2.022  -0.760  1.00  0.00     0.172 HD
BRANCH  16  19
HETATM   19  C12 UNL     1      -4.778  -0.163  -0.931  1.00  0.00     0.143 C 
BRANCH  19  20
HETATM   20  C13 UNL     1      -4.732  -1.234  -2.051  1.00  0.00     0.197 C 
BRANCH  20  21
HETATM   21  O3  UNL     1      -5.562  -2.367  -1.739  1.00  0.00    -0.394 OA
HETATM   22  C14 UNL     1      -4.870  -3.348  -0.966  1.00  0.00     0.201 C 
ENDBRANCH  20  21
ENDBRANCH  19  20
BRANCH  19  23
HETATM   23  C15 UNL     1      -6.014   0.721  -1.061  1.00  0.00    -0.033 A 
HETATM   24  C16 UNL     1      -6.133   1.672  -2.089  1.00  0.00     0.009 A 
HETATM   25  C17 UNL     1      -7.262   2.486  -2.182  1.00  0.00     0.001 A 
HETATM   26  C18 UNL     1      -8.289   2.360  -1.252  1.00  0.00     0.000 A 
HETATM   27  C19 UNL     1      -8.188   1.416  -0.233  1.00  0.00     0.001 A 
HETATM   28  C20 UNL     1      -7.059   0.601  -0.138  1.00  0.00     0.009 A 
ENDBRANCH  19  23
ENDBRANCH  16  19
ENDBRANCH   7  13
BRANCH   1  29
HETATM   29  C6  UNL     1       4.899   1.749   1.674  1.00  0.00     0.052 A 
HETATM   30  C4  UNL     1       6.378   1.490   1.770  1.00  0.00     0.088 A 
HETATM   31  C5  UNL     1       5.790   2.086   0.509  1.00  0.00     0.026 A 
BRANCH  30  32
HETATM   32  C3  UNL     1       7.181   0.245   1.645  1.00  0.00     0.222 C 
HETATM   33  N1  UNL     1       6.517  -0.933   1.440  1.00  0.00    -0.361 N 
HETATM   34  H6  UNL     1       5.500  -0.930   1.533  1.00  0.00     0.162 HD
HETATM   35  O1  UNL     1       8.405   0.327   1.743  1.00  0.00    -0.273 OA
BRANCH  33  36
HETATM   36  C2  UNL     1       7.196  -2.205   1.383  1.00  0.00     0.118 C 
HETATM   37  C1  UNL     1       7.867  -2.435   0.031  1.00  0.00     0.026 C 
ENDBRANCH  33  36
ENDBRANCH  30  32
ENDBRANCH   1  29
TORSDOF 8
