REMARK  7 active torsions:
REMARK  status: ('A' for Active; 'I' for Inactive)
REMARK       I    between atoms: C1_2  and  N1_3 
REMARK    1  A    between atoms: C1_2  and  C8_12 
REMARK    2  A    between atoms: N1_3  and  C2_4 
REMARK    3  A    between atoms: C5_7  and  O2_8 
REMARK    4  A    between atoms: N2_15  and  C11_16 
REMARK    5  A    between atoms: C11_16  and  C12_17 
REMARK       I    between atoms: C12_17  and  N3_19 
REMARK    6  A    between atoms: N4_22  and  C15_23 
REMARK    7  A    between atoms: C18_26  and  C19_27 
ROOT
HETATM    1  C11 UNL     1      -0.861  -0.372  -0.097  1.00  0.00     0.374 C 
ENDROOT
BRANCH   1   2
HETATM    2  N2  UNL     1      -2.273   0.049  -0.093  1.00  0.00     0.098 N 
HETATM    3  C10 UNL     1      -2.668   0.812   1.087  1.00  0.00     0.274 C 
HETATM    4  C9  UNL     1      -4.182   0.779   0.978  1.00  0.00     0.046 C 
HETATM    5  C8  UNL     1      -4.480  -0.648   0.526  1.00  0.00     0.108 C 
HETATM    6  C27 UNL     1      -3.191  -1.099  -0.173  1.00  0.00     0.287 C 
BRANCH   5   7
HETATM    7  C1  UNL     1      -5.725  -0.788  -0.346  1.00  0.00     0.228 C 
HETATM    8  O1  UNL     1      -5.717  -1.436  -1.387  1.00  0.00    -0.273 OA
HETATM    9  N1  UNL     1      -6.842  -0.195   0.226  1.00  0.00    -0.327 N 
HETATM   10  H1  UNL     1      -6.705   0.266   1.117  1.00  0.00     0.169 HD
BRANCH   9  11
HETATM   11  C2  UNL     1      -8.155  -0.150  -0.291  1.00  0.00     0.036 A 
HETATM   12  C3  UNL     1      -8.537  -0.718  -1.510  1.00  0.00     0.032 A 
HETATM   13  C4  UNL     1      -9.861  -0.631  -1.955  1.00  0.00     0.040 A 
HETATM   14  C5  UNL     1     -10.808   0.026  -1.181  1.00  0.00     0.087 A 
HETATM   15  C6  UNL     1     -10.441   0.598   0.035  1.00  0.00     0.069 A 
HETATM   16 CL1  UNL     1     -11.610   1.417   1.003  1.00  0.00    -0.081 Cl
HETATM   17  C7  UNL     1      -9.121   0.512   0.481  1.00  0.00     0.056 A 
BRANCH  14  18
HETATM   18  O2  UNL     1     -12.087   0.084  -1.659  1.00  0.00    -0.359 OA
HETATM   19  H4  UNL     1     -12.618   0.577  -1.007  1.00  0.00     0.217 HD
ENDBRANCH  14  18
ENDBRANCH   9  11
ENDBRANCH   5   7
ENDBRANCH   1   2
BRANCH   1  20
HETATM   20  C12 UNL     1       0.135   0.796  -0.261  1.00  0.00     0.248 C 
HETATM   21  O3  UNL     1      -0.178   1.977  -0.101  1.00  0.00    -0.271 OA
HETATM   22  N3  UNL     1       1.447   0.443  -0.599  1.00  0.00    -0.348 N 
HETATM   23  C13 UNL     1       2.443   1.520  -0.680  1.00  0.00     0.145 C 
HETATM   24  C26 UNL     1       2.046  -0.857  -0.264  1.00  0.00     0.145 C 
HETATM   25  C14 UNL     1       3.200   1.655   0.658  1.00  0.00     0.143 C 
HETATM   26  N4  UNL     1       3.808   0.349   1.047  1.00  0.00    -0.378 N 
HETATM   27  C25 UNL     1       2.827  -0.761   1.068  1.00  0.00     0.143 C 
BRANCH  26  28
HETATM   28  C15 UNL     1       5.126   0.127   0.642  1.00  0.00     0.030 A 
HETATM   29  C16 UNL     1       6.118   1.081   0.921  1.00  0.00     0.030 A 
HETATM   30  C17 UNL     1       7.457   0.898   0.548  1.00  0.00     0.015 A 
HETATM   31  C18 UNL     1       7.862  -0.266  -0.109  1.00  0.00    -0.019 A 
HETATM   32  C23 UNL     1       6.892  -1.234  -0.381  1.00  0.00     0.015 A 
HETATM   33  C24 UNL     1       5.553  -1.041  -0.003  1.00  0.00     0.030 A 
BRANCH  31  34
HETATM   34  C19 UNL     1       9.266  -0.442  -0.504  1.00  0.00     0.015 A 
HETATM   35  C20 UNL     1      10.117   0.477  -1.093  1.00  0.00     0.020 A 
HETATM   36  C21 UNL     1      11.423  -0.046  -1.320  1.00  0.00     0.008 A 
HETATM   37  C22 UNL     1      11.536  -1.348  -0.889  1.00  0.00     0.050 A 
HETATM   38  S1  UNL     1      10.076  -1.929  -0.217  1.00  0.00    -0.101 SA
ENDBRANCH  31  34
ENDBRANCH  26  28
ENDBRANCH   1  20
TORSDOF 7
