REMARK  6 active torsions:
REMARK  status: ('A' for Active; 'I' for Inactive)
REMARK    1  A    between atoms: N1_2  and  C2_3 
REMARK    2  A    between atoms: C2_3  and  C3_4 
REMARK    3  A    between atoms: C3_4  and  N2_5 
REMARK    4  A    between atoms: C3_4  and  C18_28 
REMARK       I    between atoms: N2_5  and  C4_6 
REMARK       I    between atoms: C4_6  and  N3_8 
REMARK    5  A    between atoms: C9_15  and  N5_16 
REMARK    6  A    between atoms: N5_16  and  C10_17 
ROOT
HETATM    1  N2  UNL     1      -2.376  -0.809  -0.422  1.00  0.00    -0.333 N 
HETATM    2  C4  UNL     1      -1.818  -1.080  -1.645  1.00  0.00     0.319 C 
HETATM    3  O1  UNL     1      -2.495  -1.406  -2.616  1.00  0.00    -0.247 OA
HETATM    4  N3  UNL     1      -0.436  -0.955  -1.690  1.00  0.00    -0.328 N 
HETATM    5  C5  UNL     1       0.202  -1.136  -2.993  1.00  0.00     0.132 C 
HETATM    6  C6  UNL     1       1.626  -1.669  -2.850  1.00  0.00     0.062 C 
HETATM    7  C7  UNL     1       2.410  -0.877  -1.855  1.00  0.00    -0.016 A 
HETATM    8  C8  UNL     1       3.784  -0.863  -1.832  1.00  0.00     0.115 A 
HETATM    9  N4  UNL     1       4.508  -0.183  -0.925  1.00  0.00    -0.201 N 
ATOM     10  H4  UNL     1       5.528  -0.190  -0.949  1.00  0.00     0.183 HD
HETATM   11  C9  UNL     1       3.840   0.504   0.010  1.00  0.00     0.682 A 
HETATM   12  N6  UNL     1       2.497   0.537   0.077  1.00  0.00    -0.193 N 
ATOM     13  H6  UNL     1       2.021   1.070   0.805  1.00  0.00     0.184 HD
HETATM   14  C16 UNL     1       1.796  -0.157  -0.848  1.00  0.00     0.052 A 
HETATM   15  C17 UNL     1       0.288  -0.095  -0.745  1.00  0.00     0.185 C 
HETATM   16  H8  UNL     1      -1.840  -1.196   0.340  1.00  0.00     0.165 HD
ENDROOT
BRANCH   1  17
HETATM   17  C3  UNL     1      -3.825  -0.904  -0.236  1.00  0.00     0.147 C 
BRANCH  17  18
HETATM   18  C2  UNL     1      -4.592   0.235  -0.982  1.00  0.00     0.298 C 
BRANCH  18  19
HETATM   19  N1  UNL     1      -6.058   0.094  -0.896  1.00  0.00     0.081 N 
HETATM   20  C1  UNL     1      -6.725   1.207  -1.560  1.00  0.00     0.306 C 
HETATM   21  H4  UNL     1      -6.332  -0.776  -1.355  1.00  0.00     0.315 HD
ENDBRANCH  18  19
ENDBRANCH  17  18
BRANCH  17  22
HETATM   22  C18 UNL     1      -4.123  -0.922   1.260  1.00  0.00    -0.032 A 
HETATM   23  C19 UNL     1      -4.721  -2.051   1.845  1.00  0.00     0.012 A 
HETATM   24  C20 UNL     1      -4.988  -2.084   3.215  1.00  0.00     0.044 A 
HETATM   25  C21 UNL     1      -4.658  -0.991   4.010  1.00  0.00     0.138 A 
HETATM   26  F2  UNL     1      -4.921  -1.048   5.324  1.00  0.00    -0.204 F 
HETATM   27  C22 UNL     1      -4.062   0.136   3.451  1.00  0.00     0.073 A 
HETATM   28 CL1  UNL     1      -3.641   1.487   4.431  1.00  0.00    -0.081 Cl
HETATM   29  C23 UNL     1      -3.792   0.172   2.082  1.00  0.00     0.036 A 
ENDBRANCH  17  22
ENDBRANCH   1  17
BRANCH  11  30
HETATM   30  N5  UNL     1       4.489   1.244   0.994  1.00  0.00    -0.192 N 
HETATM   31  H14 UNL     1       3.795   1.662   1.595  1.00  0.00     0.184 HD
BRANCH  30  32
HETATM   32  C10 UNL     1       5.831   1.470   1.318  1.00  0.00     0.049 A 
HETATM   33  C11 UNL     1       6.123   2.313   2.407  1.00  0.00     0.033 A 
HETATM   34  C12 UNL     1       7.441   2.590   2.779  1.00  0.00     0.044 A 
HETATM   35  C13 UNL     1       8.484   2.025   2.060  1.00  0.00     0.116 A 
HETATM   36  F1  UNL     1       9.749   2.289   2.411  1.00  0.00    -0.206 F 
HETATM   37  C14 UNL     1       8.230   1.192   0.981  1.00  0.00     0.044 A 
HETATM   38  C15 UNL     1       6.908   0.919   0.613  1.00  0.00     0.033 A 
ENDBRANCH  30  32
ENDBRANCH  11  30
TORSDOF 6
