REMARK  5 active torsions:
REMARK  status: ('A' for Active; 'I' for Inactive)
REMARK    1  A    between atoms: N1_1  and  C1_2 
REMARK    2  A    between atoms: C9_15  and  C10_16 
REMARK    3  A    between atoms: C13_19  and  O1_20 
REMARK    4  A    between atoms: O1_20  and  C14_21 
REMARK    5  A    between atoms: C14_21  and  C15_22 
ROOT
HETATM    1  C1  UNL     1       0.946  -4.132  -0.952  1.00  0.00     0.146 C 
HETATM    2  N2  UNL     1       2.148  -4.189  -0.482  1.00  0.00    -0.171 N 
ATOM      3  H2  UNL     1       2.555  -5.067  -0.161  1.00  0.00     0.186 HD
HETATM    4  C2  UNL     1       2.843  -3.023  -0.436  1.00  0.00     0.689 A 
HETATM    5  N3  UNL     1       4.109  -2.834  -0.120  1.00  0.00    -0.189 N 
ATOM      6  H3  UNL     1       4.783  -3.547   0.160  1.00  0.00     0.184 HD
HETATM    7  C3  UNL     1       4.339  -1.486  -0.243  1.00  0.00     0.079 A 
HETATM    8  C4  UNL     1       5.519  -0.761  -0.024  1.00  0.00     0.072 A 
HETATM    9  C5  UNL     1       5.511   0.619  -0.254  1.00  0.00     0.104 A 
HETATM   10  C6  UNL     1       4.343   1.271  -0.668  1.00  0.00     0.104 A 
HETATM   11  C7  UNL     1       3.146   0.568  -0.850  1.00  0.00     0.072 A 
HETATM   12  C8  UNL     1       3.187  -0.814  -0.642  1.00  0.00     0.084 A 
HETATM   13  N4  UNL     1       2.254  -1.812  -0.722  1.00  0.00    -0.159 N 
HETATM   14  C9  UNL     1       0.855  -1.735  -1.108  1.00  0.00     0.221 C 
HETATM   15  N7  UNL     1       0.282  -3.040  -1.411  1.00  0.00    -0.242 NA
HETATM   16  O2  UNL     1       4.270   2.630  -0.827  1.00  0.00    -0.348 OA
HETATM   17  C24 UNL     1       5.136   3.097  -1.862  1.00  0.00     0.178 C 
HETATM   18  C25 UNL     1       6.564   3.278  -1.372  1.00  0.00     0.053 C 
HETATM   19  C26 UNL     1       7.224   1.935  -1.103  1.00  0.00     0.178 C 
HETATM   20  O3  UNL     1       6.668   1.290   0.043  1.00  0.00    -0.348 OA
HETATM   21  H17 UNL     1      -0.718  -3.085  -1.249  1.00  0.00     0.132 HD
ENDROOT
BRANCH  14  22
HETATM   22  C10 UNL     1       0.007  -1.046  -0.049  1.00  0.00    -0.020 A 
HETATM   23  C11 UNL     1      -0.883  -0.023  -0.418  1.00  0.00     0.013 A 
HETATM   24  C12 UNL     1      -1.703   0.597   0.533  1.00  0.00     0.037 A 
HETATM   25  C13 UNL     1      -1.652   0.204   1.869  1.00  0.00     0.069 A 
HETATM   26  C22 UNL     1      -0.778  -0.818   2.242  1.00  0.00     0.037 A 
HETATM   27  C23 UNL     1       0.040  -1.443   1.297  1.00  0.00     0.013 A 
BRANCH  25  28
HETATM   28  O1  UNL     1      -2.399   0.712   2.895  1.00  0.00    -0.345 OA
BRANCH  28  29
HETATM   29  C14 UNL     1      -3.287   1.803   2.614  1.00  0.00     0.234 C 
BRANCH  29  30
HETATM   30  C15 UNL     1      -4.573   1.374   1.985  1.00  0.00     0.051 A 
HETATM   31  C16 UNL     1      -5.402   0.326   2.337  1.00  0.00     0.125 A 
HETATM   32  N5  UNL     1      -6.441   0.355   1.446  1.00  0.00    -0.317 N 
HETATM   33  C17 UNL     1      -7.551  -0.481   1.348  1.00  0.00     0.098 A 
HETATM   34  C21 UNL     1      -6.206   1.426   0.591  1.00  0.00     0.111 A 
HETATM   35  C18 UNL     1      -8.457  -0.254   0.381  1.00  0.00     0.018 A 
HETATM   36  C19 UNL     1      -8.249   0.861  -0.531  1.00  0.00     0.005 A 
HETATM   37  C20 UNL     1      -7.171   1.664  -0.429  1.00  0.00     0.049 A 
HETATM   38  N6  UNL     1      -5.088   2.050   0.896  1.00  0.00    -0.343 N 
ATOM     39  H6  UNL     1      -4.686   2.862   0.427  1.00  0.00     0.167 HD
ENDBRANCH  29  30
ENDBRANCH  28  29
ENDBRANCH  25  28
ENDBRANCH  14  22
BRANCH   1  40
HETATM   40  N1  UNL     1       0.177  -5.243  -1.045  1.00  0.00    -0.278 NA
HETATM   41  H1  UNL     1       0.734  -6.065  -0.822  1.00  0.00     0.126 HD
HETATM   42  H2  UNL     1      -0.250  -5.350  -1.957  1.00  0.00     0.126 HD
ENDBRANCH   1  40
TORSDOF 5
