REMARK  5 active torsions:
REMARK  status: ('A' for Active; 'I' for Inactive)
REMARK    1  A    between atoms: C2_2  and  N1_3 
REMARK    2  A    between atoms: C2_2  and  C14_24 
REMARK       I    between atoms: N1_3  and  C3_4 
REMARK       I    between atoms: C3_4  and  N2_6 
REMARK    3  A    between atoms: N2_6  and  C4_7 
REMARK    4  A    between atoms: N5_14  and  C8_15 
REMARK    5  A    between atoms: C10_17  and  N6_18 
ROOT
HETATM    1  C4  UNL     1      -0.208  -0.092   0.118  1.00  0.00     0.111 A 
HETATM    2  C5  UNL     1       0.441  -1.296  -0.126  1.00  0.00     0.080 A 
HETATM    3  C6  UNL     1       1.822  -1.275   0.065  1.00  0.00     0.067 A 
HETATM    4  N3  UNL     1       2.778  -2.241  -0.067  1.00  0.00    -0.298 N 
HETATM    5  N4  UNL     1       4.023  -1.823   0.210  1.00  0.00    -0.284 N 
ATOM      6  H4  UNL     1       4.887  -2.365   0.177  1.00  0.00     0.188 HD
HETATM    7  C7  UNL     1       3.874  -0.537   0.538  1.00  0.00     0.130 A 
HETATM    8  N5  UNL     1       4.878   0.300   0.896  1.00  0.00    -0.370 N 
HETATM    9  C12 UNL     1       2.510  -0.138   0.465  1.00  0.00     0.052 A 
HETATM   10  C13 UNL     1       1.777   1.029   0.685  1.00  0.00     0.107 A 
HETATM   11  N7  UNL     1       0.430   1.038   0.506  1.00  0.00    -0.351 N 
ATOM     12  H7  UNL     1      -0.100   1.895   0.664  1.00  0.00     0.166 HD
HETATM   13  H8  UNL     1       2.647  -3.209  -0.339  1.00  0.00     0.187 HD
HETATM   14  H9  UNL     1       4.691   1.295   0.928  1.00  0.00     0.161 HD
ENDROOT
BRANCH   1  15
HETATM   15  N2  UNL     1      -1.585   0.083  -0.020  1.00  0.00    -0.295 N 
HETATM   16  C3  UNL     1      -2.539  -0.859  -0.296  1.00  0.00     0.322 C 
HETATM   17  N1  UNL     1      -3.790  -0.291  -0.379  1.00  0.00    -0.335 N 
HETATM   18  O1  UNL     1      -2.353  -2.060  -0.444  1.00  0.00    -0.247 OA
HETATM   19  H5  UNL     1      -3.845   0.700  -0.556  1.00  0.00     0.165 HD
HETATM   20  H6  UNL     1      -1.882   1.011   0.234  1.00  0.00     0.172 HD
BRANCH  17  21
HETATM   21  C2  UNL     1      -4.969  -1.078  -0.703  1.00  0.00     0.115 C 
HETATM   22  C1  UNL     1      -5.006  -1.431  -2.194  1.00  0.00     0.037 C 
BRANCH  21  23
HETATM   23  C14 UNL     1      -6.199  -0.337  -0.205  1.00  0.00    -0.036 A 
HETATM   24  C15 UNL     1      -6.598  -0.509   1.132  1.00  0.00     0.009 A 
HETATM   25  C16 UNL     1      -7.705   0.170   1.645  1.00  0.00     0.001 A 
HETATM   26  C17 UNL     1      -8.425   1.040   0.831  1.00  0.00     0.000 A 
HETATM   27  C18 UNL     1      -8.034   1.236  -0.491  1.00  0.00     0.001 A 
HETATM   28  C19 UNL     1      -6.926   0.558  -1.005  1.00  0.00     0.009 A 
ENDBRANCH  21  23
ENDBRANCH  17  21
ENDBRANCH   1  15
BRANCH   8  29
HETATM   29  C8  UNL     1       6.267  -0.048   0.760  1.00  0.00     0.087 C 
HETATM   30  C9  UNL     1       6.853   0.335  -0.622  1.00  0.00     0.060 C 
HETATM   31  C10 UNL     1       7.292   1.678  -0.002  1.00  0.00     0.221 C 
HETATM   32  C11 UNL     1       7.208   1.010   1.386  1.00  0.00     0.060 C 
BRANCH  31  33
HETATM   33  N6  UNL     1       8.685   1.947  -0.337  1.00  0.00     0.083 N 
HETATM   34  H14 UNL     1       9.311   1.146  -0.263  1.00  0.00     0.313 HD
HETATM   35  H15 UNL     1       9.109   2.687   0.222  1.00  0.00     0.313 HD
ENDBRANCH  31  33
ENDBRANCH   8  29
TORSDOF 5
