REMARK  6 active torsions:
REMARK  status: ('A' for Active; 'I' for Inactive)
REMARK    1  A    between atoms: O1_2  and  C2_3 
REMARK    2  A    between atoms: C2_3  and  C3_4 
REMARK    3  A    between atoms: C3_4  and  N1_5 
REMARK    4  A    between atoms: C3_4  and  C15_26 
REMARK       I    between atoms: N1_5  and  C4_6 
REMARK       I    between atoms: C4_6  and  N2_8 
REMARK    5  A    between atoms: N2_8  and  C5_9 
REMARK    6  A    between atoms: N5_16  and  C9_17 
ROOT
HETATM    1  C5  UNL     1       0.453  -0.392   0.610  1.00  0.00     0.111 A 
HETATM    2  C6  UNL     1       1.179   0.254  -0.383  1.00  0.00     0.080 A 
HETATM    3  C7  UNL     1       2.563   0.229  -0.217  1.00  0.00     0.067 A 
HETATM    4  N3  UNL     1       3.585   0.744  -0.963  1.00  0.00    -0.298 N 
HETATM    5  N4  UNL     1       4.806   0.497  -0.466  1.00  0.00    -0.284 N 
ATOM      6  H4  UNL     1       5.706   0.783  -0.851  1.00  0.00     0.188 HD
HETATM    7  C8  UNL     1       4.579  -0.206   0.644  1.00  0.00     0.130 A 
HETATM    8  N5  UNL     1       5.521  -0.692   1.482  1.00  0.00    -0.368 N 
HETATM    9  C13 UNL     1       3.182  -0.398   0.856  1.00  0.00     0.052 A 
HETATM   10  C14 UNL     1       2.374  -1.021   1.807  1.00  0.00     0.107 A 
HETATM   11  N6  UNL     1       1.021  -1.010   1.673  1.00  0.00    -0.351 N 
ATOM     12  H6  UNL     1       0.435  -1.466   2.372  1.00  0.00     0.166 HD
HETATM   13  H10 UNL     1       3.516   1.275  -1.824  1.00  0.00     0.187 HD
HETATM   14  H11 UNL     1       5.253  -1.265   2.273  1.00  0.00     0.161 HD
ENDROOT
BRANCH   1  15
HETATM   15  N2  UNL     1      -0.939  -0.483   0.612  1.00  0.00    -0.295 N 
HETATM   16  C4  UNL     1      -1.831   0.066  -0.269  1.00  0.00     0.322 C 
HETATM   17  N1  UNL     1      -3.125  -0.284   0.058  1.00  0.00    -0.332 N 
HETATM   18  O2  UNL     1      -1.562   0.786  -1.220  1.00  0.00    -0.247 OA
HETATM   19  H7  UNL     1      -3.207  -1.206   0.460  1.00  0.00     0.165 HD
HETATM   20  H8  UNL     1      -1.293  -0.955   1.428  1.00  0.00     0.172 HD
BRANCH  17  21
HETATM   21  C3  UNL     1      -4.241   0.096  -0.810  1.00  0.00     0.143 C 
BRANCH  21  22
HETATM   22  C2  UNL     1      -4.521   1.619  -0.820  1.00  0.00     0.197 C 
BRANCH  22  23
HETATM   23  O1  UNL     1      -5.408   1.945  -1.901  1.00  0.00    -0.394 OA
HETATM   24  C1  UNL     1      -5.671   3.339  -1.957  1.00  0.00     0.201 C 
ENDBRANCH  22  23
ENDBRANCH  21  22
BRANCH  21  25
HETATM   25  C15 UNL     1      -5.480  -0.687  -0.389  1.00  0.00    -0.033 A 
HETATM   26  C16 UNL     1      -5.966  -0.634   0.929  1.00  0.00     0.009 A 
HETATM   27  C17 UNL     1      -7.097  -1.363   1.300  1.00  0.00     0.001 A 
HETATM   28  C18 UNL     1      -7.757  -2.153   0.361  1.00  0.00     0.000 A 
HETATM   29  C19 UNL     1      -7.290  -2.211  -0.951  1.00  0.00     0.001 A 
HETATM   30  C20 UNL     1      -6.159  -1.483  -1.325  1.00  0.00     0.009 A 
ENDBRANCH  21  25
ENDBRANCH  17  21
ENDBRANCH   1  15
BRANCH   8  31
HETATM   31  C9  UNL     1       6.958  -0.583   1.283  1.00  0.00     0.109 C 
HETATM   32  C10 UNL     1       7.507   0.823   1.318  1.00  0.00     0.053 C 
HETATM   33  C11 UNL     1       8.878   0.634   0.697  1.00  0.00     0.169 C 
HETATM   34  O3  UNL     1       8.817  -0.508  -0.174  1.00  0.00    -0.389 OA
HETATM   35  C12 UNL     1       7.518  -1.114  -0.027  1.00  0.00     0.192 C 
ENDBRANCH   8  31
TORSDOF 6
