REMARK  7 active torsions:
REMARK  status: ('A' for Active; 'I' for Inactive)
REMARK    1  A    between atoms: C2_2  and  N1_3 
REMARK    2  A    between atoms: C2_2  and  C19_30 
REMARK       I    between atoms: N1_3  and  C3_4 
REMARK       I    between atoms: C3_4  and  N2_6 
REMARK    3  A    between atoms: N2_6  and  C4_7 
REMARK    4  A    between atoms: C7_13  and  C8_14 
REMARK       I    between atoms: C8_14  and  N5_16 
REMARK    5  A    between atoms: N5_16  and  C9_17 
REMARK    6  A    between atoms: C9_17  and  C10_18 
REMARK    7  A    between atoms: N6_21  and  C13_22 
ROOT
HETATM    1  C4  UNL     1      -2.304  -0.248   0.228  1.00  0.00     0.111 A 
HETATM    2  C5  UNL     1      -1.676  -0.782  -0.891  1.00  0.00     0.080 A 
HETATM    3  C6  UNL     1      -0.327  -1.095  -0.722  1.00  0.00     0.065 A 
HETATM    4  N3  UNL     1       0.601  -1.624  -1.574  1.00  0.00    -0.299 N 
HETATM    5  N4  UNL     1       1.823  -1.780  -1.031  1.00  0.00    -0.294 N 
ATOM      6  H4  UNL     1       2.665  -2.151  -1.472  1.00  0.00     0.187 HD
HETATM    7  C7  UNL     1       1.674  -1.330   0.235  1.00  0.00     0.130 A 
HETATM    8  C17 UNL     1       0.344  -0.888   0.475  1.00  0.00     0.041 A 
HETATM    9  C18 UNL     1      -0.361  -0.341   1.547  1.00  0.00     0.106 A 
HETATM   10  N7  UNL     1      -1.675  -0.025   1.406  1.00  0.00    -0.351 N 
ATOM     11  H7  UNL     1      -2.188   0.381   2.189  1.00  0.00     0.166 HD
HETATM   12  H8  UNL     1       0.462  -1.899  -2.540  1.00  0.00     0.187 HD
ENDROOT
BRANCH   1  13
HETATM   13  N2  UNL     1      -3.647   0.126   0.252  1.00  0.00    -0.295 N 
HETATM   14  C3  UNL     1      -4.600  -0.058  -0.712  1.00  0.00     0.322 C 
HETATM   15  N1  UNL     1      -5.810   0.468  -0.324  1.00  0.00    -0.335 N 
HETATM   16  O1  UNL     1      -4.445  -0.626  -1.786  1.00  0.00    -0.247 OA
HETATM   17  H5  UNL     1      -5.810   1.164   0.407  1.00  0.00     0.165 HD
HETATM   18  H6  UNL     1      -3.933   0.469   1.156  1.00  0.00     0.172 HD
BRANCH  15  19
HETATM   19  C2  UNL     1      -6.981   0.422  -1.185  1.00  0.00     0.115 C 
HETATM   20  C1  UNL     1      -6.876   1.450  -2.317  1.00  0.00     0.037 C 
BRANCH  19  21
HETATM   21  C19 UNL     1      -8.224   0.565  -0.321  1.00  0.00    -0.036 A 
HETATM   22  C20 UNL     1      -8.758  -0.583   0.294  1.00  0.00     0.009 A 
HETATM   23  C21 UNL     1      -9.879  -0.499   1.120  1.00  0.00     0.001 A 
HETATM   24  C22 UNL     1     -10.482   0.734   1.351  1.00  0.00     0.000 A 
HETATM   25  C23 UNL     1      -9.959   1.884   0.762  1.00  0.00     0.001 A 
HETATM   26  C24 UNL     1      -8.834   1.802  -0.063  1.00  0.00     0.009 A 
ENDBRANCH  19  21
ENDBRANCH  15  19
ENDBRANCH   1  13
BRANCH   7  27
HETATM   27  C8  UNL     1       2.792  -1.323   1.190  1.00  0.00     0.270 C 
HETATM   28  O2  UNL     1       2.676  -0.940   2.350  1.00  0.00    -0.266 OA
HETATM   29  N5  UNL     1       3.971  -1.781   0.645  1.00  0.00    -0.355 N 
HETATM   30  H9  UNL     1       3.908  -2.081  -0.326  1.00  0.00     0.162 HD
BRANCH  29  31
HETATM   31  C9  UNL     1       5.216  -1.874   1.373  1.00  0.00     0.129 C 
BRANCH  31  32
HETATM   32  C10 UNL     1       6.223  -0.773   1.035  1.00  0.00     0.033 C 
HETATM   33  C11 UNL     1       5.740   0.659   1.278  1.00  0.00     0.038 C 
HETATM   34  C12 UNL     1       5.928   1.363  -0.058  1.00  0.00     0.273 C 
HETATM   35  N6  UNL     1       6.996   0.617  -0.748  1.00  0.00     0.093 N 
HETATM   36  C16 UNL     1       6.683  -0.783  -0.425  1.00  0.00     0.279 C 
BRANCH  35  37
HETATM   37  C13 UNL     1       8.345   1.110  -0.389  1.00  0.00     0.223 A 
HETATM   38  C14 UNL     1       9.526   0.581  -1.165  1.00  0.00     0.038 A 
HETATM   39  C15 UNL     1       9.413   0.310   0.305  1.00  0.00     0.038 A 
ENDBRANCH  35  37
ENDBRANCH  31  32
ENDBRANCH  29  31
ENDBRANCH   7  27
TORSDOF 7
