REMARK  3 active torsions:
REMARK  status: ('A' for Active; 'I' for Inactive)
REMARK    1  A    between atoms: C4_4  and  C5_5 
REMARK    2  A    between atoms: C8_11  and  N3_12 
REMARK       I    between atoms: N3_12  and  C9_13 
REMARK       I    between atoms: C9_13  and  N4_15 
REMARK    3  A    between atoms: N4_15  and  C10_16 
ROOT
HETATM    1  C5  UNL     1       4.529   1.547   1.074  1.00  0.00     0.072 A 
HETATM    2  N1  UNL     1       4.292   2.326   2.143  1.00  0.00    -0.299 N 
ATOM      3  H1  UNL     1       4.970   2.849   2.697  1.00  0.00     0.187 HD
HETATM    4  N2  UNL     1       2.963   2.261   2.317  1.00  0.00    -0.299 N 
HETATM    5  C6  UNL     1       2.315   1.494   1.392  1.00  0.00     0.065 A 
HETATM    6  C7  UNL     1       0.966   1.188   1.219  1.00  0.00     0.080 A 
HETATM    7  C8  UNL     1       0.678   0.374   0.131  1.00  0.00     0.111 A 
HETATM    8  N6  UNL     1       1.620  -0.104  -0.715  1.00  0.00    -0.351 N 
ATOM      9  H6  UNL     1       1.348  -0.703  -1.495  1.00  0.00     0.166 HD
HETATM   10  C19 UNL     1       2.928   0.213  -0.526  1.00  0.00     0.105 A 
HETATM   11  C20 UNL     1       3.310   1.016   0.550  1.00  0.00     0.036 A 
HETATM   12  H5  UNL     1       2.554   2.775   3.090  1.00  0.00     0.187 HD
ENDROOT
BRANCH   7  13
HETATM   13  N3  UNL     1      -0.611  -0.044  -0.201  1.00  0.00    -0.295 N 
HETATM   14  C9  UNL     1      -1.797   0.314   0.380  1.00  0.00     0.322 C 
HETATM   15  O1  UNL     1      -1.947   1.112   1.295  1.00  0.00    -0.247 OA
HETATM   16  N4  UNL     1      -2.858  -0.338  -0.211  1.00  0.00    -0.334 N 
HETATM   17  H8  UNL     1      -2.651  -1.219  -0.659  1.00  0.00     0.165 HD
HETATM   18  H7  UNL     1      -0.630  -0.592  -1.046  1.00  0.00     0.172 HD
BRANCH  16  19
HETATM   19  C10 UNL     1      -4.215  -0.175   0.293  1.00  0.00     0.121 C 
HETATM   20  C11 UNL     1      -4.394  -1.010   1.575  1.00  0.00     0.030 C 
HETATM   21  C12 UNL     1      -5.863  -1.119   1.962  1.00  0.00     0.007 C 
HETATM   22  C13 UNL     1      -6.641  -1.851   0.872  1.00  0.00     0.039 C 
HETATM   23  C14 UNL     1      -6.375  -1.290  -0.501  1.00  0.00    -0.047 A 
HETATM   24  C15 UNL     1      -7.272  -1.564  -1.539  1.00  0.00     0.024 A 
HETATM   25  C18 UNL     1      -5.229  -0.526  -0.775  1.00  0.00    -0.014 A 
HETATM   26  C16 UNL     1      -7.018  -1.043  -2.796  1.00  0.00     0.088 A 
HETATM   27  N5  UNL     1      -5.949  -0.277  -3.086  1.00  0.00    -0.375 N 
HETATM   28  C17 UNL     1      -5.090  -0.029  -2.071  1.00  0.00     0.097 A 
ATOM     29  H5  UNL     1      -5.795   0.097  -4.022  1.00  0.00     0.164 HD
ENDBRANCH  16  19
ENDBRANCH   7  13
BRANCH   1  30
HETATM   30  C4  UNL     1       5.892   1.349   0.585  1.00  0.00    -0.004 A 
HETATM   31  C3  UNL     1       6.332   0.095   0.153  1.00  0.00     0.038 A 
HETATM   32  C2  UNL     1       7.638  -0.039  -0.307  1.00  0.00     0.005 A 
HETATM   33  C1  UNL     1       8.139  -1.374  -0.771  1.00  0.00     0.068 C 
HETATM   34  N7  UNL     1       8.506   0.998  -0.352  1.00  0.00    -0.369 N 
HETATM   35  C22 UNL     1       8.066   2.196   0.088  1.00  0.00     0.089 A 
ATOM     36  H7  UNL     1       9.456   0.879  -0.705  1.00  0.00     0.165 HD
HETATM   37  C21 UNL     1       6.787   2.419   0.561  1.00  0.00     0.031 A 
ENDBRANCH   1  30
TORSDOF 3
