REMARK  8 active torsions:
REMARK  status: ('A' for Active; 'I' for Inactive)
REMARK    1  A    between atoms: S1_2  and  C2_3 
REMARK    2  A    between atoms: C2_3  and  C3_4 
REMARK       I    between atoms: C3_4  and  N1_6 
REMARK    3  A    between atoms: N1_6  and  C4_7 
REMARK    4  A    between atoms: C8_14  and  C9_15 
REMARK    5  A    between atoms: N4_26  and  C19_27 
REMARK    6  A    between atoms: C19_27  and  C20_28 
REMARK       I    between atoms: C20_28  and  N5_30 
REMARK    7  A    between atoms: N6_33  and  C23_34 
REMARK    8  A    between atoms: C26_37  and  C27_38 
ROOT
HETATM    1  C2  UNL     1      -1.775  -2.065   0.765  1.00  0.00     0.117 C 
HETATM    2  C17 UNL     1      -1.692  -1.514  -0.673  1.00  0.00     0.062 C 
HETATM    3  C18 UNL     1      -0.500  -2.225  -1.296  1.00  0.00     0.275 C 
HETATM    4  N4  UNL     1       0.432  -2.487  -0.198  1.00  0.00     0.099 N 
HETATM    5  C35 UNL     1      -0.451  -2.848   0.933  1.00  0.00     0.303 C 
ENDROOT
BRANCH   1   6
HETATM    6  S1  UNL     1      -1.893  -0.628   1.960  1.00  0.00    -0.152 SA
HETATM    7  C1  UNL     1      -2.135  -1.531   3.518  1.00  0.00     0.091 C 
ENDBRANCH   1   6
BRANCH   1   8
HETATM    8  C3  UNL     1      -3.024  -2.962   0.971  1.00  0.00     0.242 C 
HETATM    9  O1  UNL     1      -2.936  -4.089   1.452  1.00  0.00    -0.271 OA
HETATM   10  N1  UNL     1      -4.211  -2.337   0.612  1.00  0.00    -0.326 N 
HETATM   11  H4  UNL     1      -4.132  -1.363   0.339  1.00  0.00     0.169 HD
BRANCH  10  12
HETATM   12  C4  UNL     1      -5.515  -2.871   0.619  1.00  0.00     0.035 A 
HETATM   13  C5  UNL     1      -5.826  -4.165   1.037  1.00  0.00     0.032 A 
HETATM   14  C6  UNL     1      -7.141  -4.648   1.012  1.00  0.00     0.034 A 
HETATM   15  C7  UNL     1      -8.130  -3.790   0.523  1.00  0.00     0.060 A 
HETATM   16  N2  UNL     1      -9.477  -3.956   0.364  1.00  0.00    -0.299 N 
HETATM   17  C15 UNL     1      -7.867  -2.502   0.077  1.00  0.00     0.023 A 
HETATM   18  N3  UNL     1     -10.108  -2.892  -0.153  1.00  0.00    -0.299 N 
HETATM   19  H7  UNL     1     -10.029  -4.773   0.595  1.00  0.00     0.187 HD
HETATM   20  C8  UNL     1      -9.134  -1.991  -0.363  1.00  0.00     0.070 A 
ATOM     21  H3  UNL     1     -11.105  -2.790  -0.344  1.00  0.00     0.187 HD
HETATM   22  C16 UNL     1      -6.539  -2.028   0.150  1.00  0.00     0.045 A 
BRANCH  20  23
HETATM   23  C9  UNL     1      -9.445  -0.695  -0.974  1.00  0.00    -0.007 A 
HETATM   24  C10 UNL     1      -8.552  -0.078  -1.865  1.00  0.00     0.017 A 
HETATM   25  C11 UNL     1      -8.865   1.155  -2.444  1.00  0.00     0.043 A 
HETATM   26  C12 UNL     1     -10.077   1.764  -2.147  1.00  0.00     0.116 A 
HETATM   27  F1  UNL     1     -10.379   2.945  -2.703  1.00  0.00    -0.206 F 
HETATM   28  C13 UNL     1     -10.985   1.164  -1.284  1.00  0.00     0.043 A 
HETATM   29  C14 UNL     1     -10.669  -0.066  -0.700  1.00  0.00     0.017 A 
ENDBRANCH  20  23
ENDBRANCH  10  12
ENDBRANCH   1   8
BRANCH   4  30
HETATM   30  C19 UNL     1       1.304  -1.336   0.126  1.00  0.00     0.374 C 
BRANCH  30  31
HETATM   31  C20 UNL     1       2.298  -0.982  -1.004  1.00  0.00     0.248 C 
HETATM   32  O2  UNL     1       2.389  -1.628  -2.050  1.00  0.00    -0.271 OA
HETATM   33  N5  UNL     1       3.077   0.164  -0.798  1.00  0.00    -0.348 N 
HETATM   34  C21 UNL     1       4.042   0.515  -1.848  1.00  0.00     0.145 C 
HETATM   35  C34 UNL     1       3.529   0.581   0.539  1.00  0.00     0.145 C 
HETATM   36  C22 UNL     1       5.412  -0.137  -1.560  1.00  0.00     0.143 C 
HETATM   37  N6  UNL     1       5.894   0.251  -0.201  1.00  0.00    -0.378 N 
HETATM   38  C33 UNL     1       4.904  -0.054   0.860  1.00  0.00     0.143 C 
BRANCH  37  39
HETATM   39  C23 UNL     1       6.707   1.383  -0.115  1.00  0.00     0.030 A 
HETATM   40  C24 UNL     1       6.547   2.382   0.852  1.00  0.00     0.030 A 
HETATM   41  C25 UNL     1       7.393   3.505   0.914  1.00  0.00     0.017 A 
HETATM   42  C26 UNL     1       8.457   3.679   0.016  1.00  0.00     0.008 A 
HETATM   43  C31 UNL     1       8.640   2.665  -0.935  1.00  0.00     0.017 A 
HETATM   44  C32 UNL     1       7.794   1.545  -0.989  1.00  0.00     0.030 A 
BRANCH  42  45
HETATM   45  C27 UNL     1       9.342   4.861   0.071  1.00  0.00     0.115 A 
HETATM   46  N7  UNL     1      10.290   4.988  -0.881  1.00  0.00    -0.352 N 
HETATM   47  C28 UNL     1      11.071   6.082  -0.812  1.00  0.00     0.091 A 
ATOM     48  H7  UNL     1      10.409   4.290  -1.616  1.00  0.00     0.166 HD
HETATM   49  C29 UNL     1      10.944   7.046   0.159  1.00  0.00     0.034 A 
HETATM   50  C30 UNL     1       9.953   6.827   1.083  1.00  0.00     0.091 A 
HETATM   51  N8  UNL     1       9.143   5.752   1.065  1.00  0.00    -0.352 N 
ATOM     52  H8  UNL     1       8.416   5.618   1.767  1.00  0.00     0.166 HD
ENDBRANCH  42  45
ENDBRANCH  37  39
ENDBRANCH  30  31
ENDBRANCH   4  30
TORSDOF 8
