REMARK  9 active torsions:
REMARK  status: ('A' for Active; 'I' for Inactive)
REMARK    1  A    between atoms: O1_2  and  C2_3 
REMARK    2  A    between atoms: C2_3  and  C3_4 
REMARK    3  A    between atoms: C3_4  and  O2_5 
REMARK    4  A    between atoms: O2_5  and  C4_6 
REMARK    5  A    between atoms: C7_12  and  N3_13 
REMARK       I    between atoms: N3_13  and  C8_14 
REMARK       I    between atoms: C8_14  and  N4_16 
REMARK    6  A    between atoms: N4_16  and  C9_17 
REMARK    7  A    between atoms: N5_21  and  C13_22 
REMARK    8  A    between atoms: C13_22  and  C14_23 
REMARK    9  A    between atoms: C19_29  and  O4_30 
ROOT
HETATM    1  N3  UNL     1       1.583  -1.479   0.382  1.00  0.00    -0.295 N 
HETATM    2  C8  UNL     1       0.455  -0.836   0.816  1.00  0.00     0.322 C 
HETATM    3  O3  UNL     1       0.368   0.345   1.126  1.00  0.00    -0.247 OA
HETATM    4  N4  UNL     1      -0.615  -1.704   0.881  1.00  0.00    -0.337 N 
HETATM    5  H10 UNL     1       1.578  -2.485   0.336  1.00  0.00     0.172 HD
HETATM    6  H11 UNL     1      -0.573  -2.484   0.242  1.00  0.00     0.164 HD
ENDROOT
BRANCH   1   7
HETATM    7  C7  UNL     1       2.852  -0.943   0.163  1.00  0.00     0.111 A 
HETATM    8  C6  UNL     1       3.133   0.417   0.235  1.00  0.00     0.080 A 
HETATM    9  C5  UNL     1       4.464   0.761  -0.001  1.00  0.00     0.067 A 
HETATM   10  N2  UNL     1       5.113   1.967  -0.005  1.00  0.00    -0.298 N 
HETATM   11  C23 UNL     1       5.437  -0.184  -0.295  1.00  0.00     0.060 A 
HETATM   12  N1  UNL     1       6.431   1.879  -0.273  1.00  0.00    -0.279 N 
HETATM   13  H8  UNL     1       4.715   2.882   0.175  1.00  0.00     0.187 HD
HETATM   14  C4  UNL     1       6.617   0.568  -0.447  1.00  0.00     0.171 A 
ATOM     15  H1  UNL     1       7.119   2.630  -0.329  1.00  0.00     0.189 HD
HETATM   16  C22 UNL     1       5.069  -1.525  -0.361  1.00  0.00     0.108 A 
HETATM   17  N6  UNL     1       3.778  -1.888  -0.133  1.00  0.00    -0.351 N 
ATOM     18  H6  UNL     1       3.507  -2.870  -0.185  1.00  0.00     0.166 HD
BRANCH  14  19
HETATM   19  O2  UNL     1       7.836   0.065  -0.743  1.00  0.00    -0.332 OA
BRANCH  19  20
HETATM   20  C3  UNL     1       8.901   1.019  -0.684  1.00  0.00     0.203 C 
BRANCH  20  21
HETATM   21  C2  UNL     1      10.218   0.311  -1.015  1.00  0.00     0.193 C 
BRANCH  21  22
HETATM   22  O1  UNL     1      10.562  -0.733  -0.096  1.00  0.00    -0.394 OA
HETATM   23  C1  UNL     1      10.956  -0.260   1.185  1.00  0.00     0.201 C 
ENDBRANCH  21  22
ENDBRANCH  20  21
ENDBRANCH  19  20
ENDBRANCH  14  19
ENDBRANCH   1   7
BRANCH   4  24
HETATM   24  C9  UNL     1      -1.952  -1.219   1.226  1.00  0.00     0.114 C 
HETATM   25  C10 UNL     1      -2.816  -2.386   1.729  1.00  0.00     0.029 C 
HETATM   26  C11 UNL     1      -4.299  -2.208   1.401  1.00  0.00     0.032 C 
HETATM   27  C12 UNL     1      -4.693  -0.734   1.368  1.00  0.00     0.273 C 
HETATM   28  N5  UNL     1      -3.965   0.039   0.355  1.00  0.00     0.094 N 
HETATM   29  C21 UNL     1      -2.634  -0.508   0.037  1.00  0.00     0.297 C 
BRANCH  28  30
HETATM   30  C13 UNL     1      -4.734   0.268  -0.881  1.00  0.00     0.317 C 
BRANCH  30  31
HETATM   31  C14 UNL     1      -5.861   1.263  -0.721  1.00  0.00     0.042 A 
HETATM   32  C15 UNL     1      -5.550   2.623  -0.587  1.00  0.00     0.127 A 
HETATM   33  F1  UNL     1      -4.272   3.028  -0.628  1.00  0.00    -0.205 F 
HETATM   34  C16 UNL     1      -6.541   3.588  -0.435  1.00  0.00     0.043 A 
HETATM   35  C17 UNL     1      -7.876   3.201  -0.418  1.00  0.00     0.006 A 
HETATM   36  C18 UNL     1      -8.212   1.852  -0.559  1.00  0.00     0.037 A 
HETATM   37  C19 UNL     1      -7.215   0.877  -0.710  1.00  0.00     0.079 A 
BRANCH  37  38
HETATM   38  O4  UNL     1      -7.463  -0.463  -0.862  1.00  0.00    -0.355 OA
HETATM   39  C20 UNL     1      -8.813  -0.898  -0.750  1.00  0.00     0.210 C 
ENDBRANCH  37  38
ENDBRANCH  30  31
ENDBRANCH  28  30
ENDBRANCH   4  24
TORSDOF 9
