REMARK  6 active torsions:
REMARK  status: ('A' for Active; 'I' for Inactive)
REMARK       I    between atoms: C1_2  and  N1_3 
REMARK    1  A    between atoms: C1_2  and  C13_19 
REMARK    2  A    between atoms: N1_3  and  C2_4 
REMARK    3  A    between atoms: C2_4  and  C3_5 
REMARK    4  A    between atoms: C2_4  and  C9_13 
REMARK    5  A    between atoms: C18_26  and  N4_27 
REMARK    6  A    between atoms: N4_27  and  C19_28 
ROOT
HETATM    1  C13 UNL     1      -0.382   0.457   0.159  1.00  0.00     0.034 A 
HETATM    2  C14 UNL     1      -0.328   0.896   1.485  1.00  0.00     0.018 A 
HETATM    3  C15 UNL     1       0.912   1.085   2.093  1.00  0.00     0.016 A 
HETATM    4  C16 UNL     1       2.093   0.838   1.366  1.00  0.00     0.006 A 
HETATM    5  C17 UNL     1       3.365   0.994   1.889  1.00  0.00     0.104 A 
HETATM    6  N3  UNL     1       4.493   0.760   1.196  1.00  0.00    -0.342 N 
ATOM      7  H3  UNL     1       5.414   0.875   1.619  1.00  0.00     0.167 HD
HETATM    8  C18 UNL     1       4.348   0.368  -0.076  1.00  0.00     0.157 A 
HETATM    9  N5  UNL     1       3.164   0.177  -0.671  1.00  0.00    -0.332 N 
ATOM     10  H5  UNL     1       3.110  -0.141  -1.639  1.00  0.00     0.168 HD
HETATM   11  C24 UNL     1       2.052   0.414   0.037  1.00  0.00     0.047 A 
HETATM   12  C25 UNL     1       0.807   0.235  -0.551  1.00  0.00     0.047 A 
ENDROOT
BRANCH   1  13
HETATM   13  C1  UNL     1      -1.676   0.240  -0.544  1.00  0.00     0.252 C 
HETATM   14  O1  UNL     1      -1.731   0.306  -1.766  1.00  0.00    -0.268 OA
HETATM   15  N1  UNL     1      -2.758  -0.078   0.255  1.00  0.00    -0.345 N 
HETATM   16  H1  UNL     1      -2.540  -0.511   1.146  1.00  0.00     0.163 HD
BRANCH  15  17
HETATM   17  C2  UNL     1      -4.032  -0.503  -0.346  1.00  0.00     0.159 C 
BRANCH  17  18
HETATM   18  C3  UNL     1      -4.747   0.668  -1.013  1.00  0.00    -0.030 A 
HETATM   19  C4  UNL     1      -4.814   1.936  -0.408  1.00  0.00     0.012 A 
HETATM   20  C5  UNL     1      -5.472   2.995  -1.038  1.00  0.00     0.044 A 
HETATM   21  C6  UNL     1      -6.064   2.799  -2.280  1.00  0.00     0.138 A 
HETATM   22  F1  UNL     1      -6.694   3.830  -2.863  1.00  0.00    -0.204 F 
HETATM   23  C7  UNL     1      -6.001   1.557  -2.903  1.00  0.00     0.073 A 
HETATM   24 CL1  UNL     1      -6.730   1.307  -4.443  1.00  0.00    -0.081 Cl
HETATM   25  C8  UNL     1      -5.343   0.496  -2.276  1.00  0.00     0.036 A 
ENDBRANCH  17  18
BRANCH  17  26
HETATM   26  C9  UNL     1      -4.879  -1.281   0.688  1.00  0.00     0.155 C 
HETATM   27  F2  UNL     1      -4.016  -2.174   1.302  1.00  0.00    -0.238 F 
HETATM   28  C10 UNL     1      -5.535  -0.502   1.817  1.00  0.00     0.078 C 
HETATM   29  C11 UNL     1      -6.548  -1.511   2.329  1.00  0.00     0.273 C 
HETATM   30  N2  UNL     1      -7.113  -2.085   1.107  1.00  0.00     0.086 N 
HETATM   31  C12 UNL     1      -6.030  -2.111   0.106  1.00  0.00     0.315 C 
HETATM   32  H10 UNL     1      -7.468  -3.025   1.282  1.00  0.00     0.316 HD
ENDBRANCH  17  26
ENDBRANCH  15  17
ENDBRANCH   1  13
BRANCH   8  33
HETATM   33  N4  UNL     1       5.455   0.119  -0.872  1.00  0.00    -0.259 NA
HETATM   34  H16 UNL     1       5.109  -0.423  -1.657  1.00  0.00     0.131 HD
BRANCH  33  35
HETATM   35  C19 UNL     1       6.642  -0.396  -0.199  1.00  0.00     0.067 C 
HETATM   36  C20 UNL     1       7.562   0.757   0.214  1.00  0.00     0.046 C 
HETATM   37  C21 UNL     1       8.867   0.211   0.772  1.00  0.00     0.169 C 
HETATM   38  O2  UNL     1       9.509  -0.642  -0.174  1.00  0.00    -0.391 OA
HETATM   39  C22 UNL     1       8.709  -1.772  -0.518  1.00  0.00     0.169 C 
HETATM   40  C23 UNL     1       7.398  -1.331  -1.150  1.00  0.00     0.046 C 
ENDBRANCH  33  35
ENDBRANCH   8  33
TORSDOF 6
