REMARK  7 active torsions:
REMARK  status: ('A' for Active; 'I' for Inactive)
REMARK       I    between atoms: C1_2  and  N1_3 
REMARK    1  A    between atoms: C1_2  and  C8_12 
REMARK    2  A    between atoms: N1_3  and  C2_4 
REMARK    3  A    between atoms: C5_7  and  O2_8 
REMARK    4  A    between atoms: N2_15  and  C11_16 
REMARK    5  A    between atoms: C11_16  and  C12_17 
REMARK       I    between atoms: C12_17  and  N3_19 
REMARK    6  A    between atoms: N4_22  and  C15_23 
REMARK    7  A    between atoms: C18_26  and  C19_27 
ROOT
HETATM    1  C12 UNL     1       0.342  -2.778  -0.309  1.00  0.00     0.248 C 
HETATM    2  O3  UNL     1       0.485  -3.781  -1.015  1.00  0.00    -0.271 OA
HETATM    3  N3  UNL     1      -0.803  -1.998  -0.366  1.00  0.00    -0.348 N 
HETATM    4  C13 UNL     1      -1.903  -2.400  -1.242  1.00  0.00     0.145 C 
HETATM    5  C14 UNL     1      -3.285  -2.054  -0.659  1.00  0.00     0.143 C 
HETATM    6  N4  UNL     1      -3.395  -0.629  -0.292  1.00  0.00    -0.378 N 
HETATM    7  C25 UNL     1      -2.139   0.125  -0.146  1.00  0.00     0.143 C 
HETATM    8  C26 UNL     1      -1.006  -0.764   0.400  1.00  0.00     0.145 C 
ENDROOT
BRANCH   1   9
HETATM    9  C11 UNL     1       1.449  -2.370   0.677  1.00  0.00     0.374 C 
BRANCH   9  10
HETATM   10  N2  UNL     1       2.276  -1.263   0.135  1.00  0.00     0.098 N 
HETATM   11  C10 UNL     1       3.104  -1.697  -1.002  1.00  0.00     0.274 C 
HETATM   12  C9  UNL     1       4.345  -2.340  -0.399  1.00  0.00     0.046 C 
HETATM   13  C8  UNL     1       4.483  -1.698   0.981  1.00  0.00     0.108 C 
HETATM   14  C27 UNL     1       3.255  -0.806   1.139  1.00  0.00     0.287 C 
BRANCH  13  15
HETATM   15  C1  UNL     1       5.775  -0.919   1.193  1.00  0.00     0.228 C 
HETATM   16  O1  UNL     1       6.463  -1.143   2.185  1.00  0.00    -0.273 OA
HETATM   17  N1  UNL     1       6.041   0.030   0.222  1.00  0.00    -0.327 N 
HETATM   18  H1  UNL     1       5.371   0.115  -0.533  1.00  0.00     0.169 HD
BRANCH  17  19
HETATM   19  C2  UNL     1       7.143   0.910   0.156  1.00  0.00     0.036 A 
HETATM   20  C3  UNL     1       7.194   1.781  -0.943  1.00  0.00     0.032 A 
HETATM   21  C4  UNL     1       8.248   2.687  -1.092  1.00  0.00     0.040 A 
HETATM   22  C5  UNL     1       9.254   2.727  -0.138  1.00  0.00     0.087 A 
HETATM   23  C6  UNL     1       9.216   1.868   0.961  1.00  0.00     0.069 A 
HETATM   24 CL1  UNL     1      10.469   1.921   2.146  1.00  0.00    -0.081 Cl
HETATM   25  C7  UNL     1       8.165   0.960   1.109  1.00  0.00     0.056 A 
BRANCH  22  26
HETATM   26  O2  UNL     1      10.264   3.630  -0.322  1.00  0.00    -0.359 OA
HETATM   27  H4  UNL     1      10.874   3.536   0.433  1.00  0.00     0.217 HD
ENDBRANCH  22  26
ENDBRANCH  17  19
ENDBRANCH  13  15
ENDBRANCH   9  10
ENDBRANCH   1   9
BRANCH   6  28
HETATM   28  C15 UNL     1      -4.631  -0.004  -0.237  1.00  0.00     0.030 A 
HETATM   29  C16 UNL     1      -4.775   1.383  -0.373  1.00  0.00     0.030 A 
HETATM   30  C17 UNL     1      -6.027   2.016  -0.301  1.00  0.00     0.014 A 
HETATM   31  C18 UNL     1      -7.200   1.283  -0.084  1.00  0.00    -0.023 A 
HETATM   32  C23 UNL     1      -7.069  -0.104   0.049  1.00  0.00     0.014 A 
HETATM   33  C24 UNL     1      -5.814  -0.728  -0.027  1.00  0.00     0.030 A 
BRANCH  31  34
HETATM   34  C19 UNL     1      -8.508   1.941   0.003  1.00  0.00     0.005 A 
HETATM   35  C20 UNL     1      -9.431   1.668   1.000  1.00  0.00     0.102 A 
HETATM   36  N5  UNL     1     -10.644   2.255   1.109  1.00  0.00    -0.361 N 
HETATM   37  C21 UNL     1     -10.933   3.164   0.168  1.00  0.00     0.180 A 
ATOM     38  H5  UNL     1     -11.296   2.021   1.858  1.00  0.00     0.166 HD
HETATM   39  N6  UNL     1     -10.136   3.526  -0.847  1.00  0.00    -0.361 N 
HETATM   40  C22 UNL     1      -8.939   2.898  -0.902  1.00  0.00     0.102 A 
ATOM     41  H6  UNL     1     -10.414   4.228  -1.533  1.00  0.00     0.166 HD
ENDBRANCH  31  34
ENDBRANCH   6  28
TORSDOF 7
