REMARK  6 active torsions:
REMARK  status: ('A' for Active; 'I' for Inactive)
REMARK    1  A    between atoms: O1_2  and  C2_3 
REMARK    2  A    between atoms: C2_3  and  C3_4 
REMARK    3  A    between atoms: C3_4  and  N1_5 
REMARK    4  A    between atoms: C3_4  and  C16_27 
REMARK       I    between atoms: N1_5  and  C4_6 
REMARK       I    between atoms: C4_6  and  N2_8 
REMARK    5  A    between atoms: N2_8  and  C5_9 
REMARK    6  A    between atoms: N5_16  and  C9_17 
ROOT
HETATM    1  C5  UNL     1       0.050   0.175  -0.328  1.00  0.00     0.111 A 
HETATM    2  C6  UNL     1      -0.406  -0.614   0.721  1.00  0.00     0.080 A 
HETATM    3  C7  UNL     1      -1.772  -0.894   0.702  1.00  0.00     0.067 A 
HETATM    4  N3  UNL     1      -2.569  -1.624   1.537  1.00  0.00    -0.298 N 
HETATM    5  N4  UNL     1      -3.863  -1.647   1.181  1.00  0.00    -0.284 N 
ATOM      6  H4  UNL     1      -4.636  -2.110   1.659  1.00  0.00     0.188 HD
HETATM    7  C8  UNL     1      -3.908  -0.925   0.059  1.00  0.00     0.130 A 
HETATM    8  N5  UNL     1      -5.020  -0.680  -0.671  1.00  0.00    -0.370 N 
HETATM    9  C14 UNL     1      -2.622  -0.424  -0.289  1.00  0.00     0.052 A 
HETATM   10  C15 UNL     1      -2.079   0.360  -1.306  1.00  0.00     0.107 A 
HETATM   11  N6  UNL     1      -0.751   0.655  -1.310  1.00  0.00    -0.351 N 
ATOM     12  H6  UNL     1      -0.359   1.236  -2.051  1.00  0.00     0.166 HD
HETATM   13  H10 UNL     1      -2.291  -2.129   2.370  1.00  0.00     0.187 HD
HETATM   14  H11 UNL     1      -5.011   0.065  -1.363  1.00  0.00     0.161 HD
ENDROOT
BRANCH   1  15
HETATM   15  N2  UNL     1       1.379   0.571  -0.470  1.00  0.00    -0.295 N 
HETATM   16  C4  UNL     1       2.468   0.187   0.267  1.00  0.00     0.322 C 
HETATM   17  N1  UNL     1       3.602   0.843  -0.171  1.00  0.00    -0.332 N 
HETATM   18  O2  UNL     1       2.474  -0.618   1.188  1.00  0.00    -0.247 OA
HETATM   19  H7  UNL     1       3.424   1.817  -0.378  1.00  0.00     0.165 HD
HETATM   20  H8  UNL     1       1.541   1.102  -1.310  1.00  0.00     0.172 HD
BRANCH  17  21
HETATM   21  C3  UNL     1       4.876   0.648   0.522  1.00  0.00     0.143 C 
BRANCH  21  22
HETATM   22  C2  UNL     1       5.860   1.777   0.144  1.00  0.00     0.197 C 
BRANCH  22  23
HETATM   23  O1  UNL     1       5.244   3.046   0.414  1.00  0.00    -0.394 OA
HETATM   24  C1  UNL     1       6.131   4.123   0.139  1.00  0.00     0.201 C 
ENDBRANCH  22  23
ENDBRANCH  21  22
BRANCH  21  25
HETATM   25  C16 UNL     1       5.498  -0.703   0.213  1.00  0.00    -0.033 A 
HETATM   26  C17 UNL     1       5.973  -1.512   1.256  1.00  0.00     0.009 A 
HETATM   27  C18 UNL     1       6.572  -2.744   0.985  1.00  0.00     0.001 A 
HETATM   28  C19 UNL     1       6.704  -3.182  -0.330  1.00  0.00     0.000 A 
HETATM   29  C20 UNL     1       6.235  -2.392  -1.377  1.00  0.00     0.001 A 
HETATM   30  C21 UNL     1       5.636  -1.160  -1.108  1.00  0.00     0.009 A 
ENDBRANCH  21  25
ENDBRANCH  17  21
ENDBRANCH   1  15
BRANCH   8  31
HETATM   31  C9  UNL     1      -6.355  -0.956  -0.140  1.00  0.00     0.087 C 
HETATM   32  C10 UNL     1      -7.339  -1.117  -1.310  1.00  0.00     0.051 C 
HETATM   33  C11 UNL     1      -8.058   0.186  -1.647  1.00  0.00     0.169 C 
HETATM   34  O3  UNL     1      -7.210   1.300  -1.390  1.00  0.00    -0.391 OA
HETATM   35  C12 UNL     1      -6.980   1.490   0.010  1.00  0.00     0.169 C 
HETATM   36  C13 UNL     1      -6.808   0.179   0.777  1.00  0.00     0.051 C 
ENDBRANCH   8  31
TORSDOF 6
