REMARK  7 active torsions:
REMARK  status: ('A' for Active; 'I' for Inactive)
REMARK    1  A    between atoms: O1_2  and  C2_3 
REMARK    2  A    between atoms: C2_3  and  C3_4 
REMARK    3  A    between atoms: C3_4  and  O2_5 
REMARK    4  A    between atoms: O2_5  and  C4_6 
REMARK    5  A    between atoms: C7_12  and  N3_13 
REMARK       I    between atoms: N3_13  and  C8_14 
REMARK       I    between atoms: C8_14  and  N4_16 
REMARK    6  A    between atoms: N4_16  and  C9_17 
REMARK    7  A    between atoms: C9_17  and  C10_18 
ROOT
HETATM    1  C4  UNL     1      -3.847   0.377   1.038  1.00  0.00     0.171 A 
HETATM    2  N1  UNL     1      -3.666   1.103   2.142  1.00  0.00    -0.279 N 
ATOM      3  H1  UNL     1      -4.363   1.623   2.676  1.00  0.00     0.189 HD
HETATM    4  N2  UNL     1      -2.353   0.988   2.385  1.00  0.00    -0.298 N 
HETATM    5  C5  UNL     1      -1.683   0.215   1.476  1.00  0.00     0.067 A 
HETATM    6  C6  UNL     1      -0.336  -0.139   1.384  1.00  0.00     0.080 A 
HETATM    7  C7  UNL     1      -0.011  -0.958   0.312  1.00  0.00     0.111 A 
HETATM    8  N5  UNL     1      -0.915  -1.390  -0.596  1.00  0.00    -0.351 N 
ATOM      9  H5  UNL     1      -0.616  -1.988  -1.366  1.00  0.00     0.166 HD
HETATM   10  C16 UNL     1      -2.221  -1.029  -0.485  1.00  0.00     0.108 A 
HETATM   11  C17 UNL     1      -2.644  -0.211   0.563  1.00  0.00     0.060 A 
HETATM   12  H8  UNL     1      -1.970   1.465   3.194  1.00  0.00     0.187 HD
ENDROOT
BRANCH   7  13
HETATM   13  N3  UNL     1       1.281  -1.413   0.051  1.00  0.00    -0.295 N 
HETATM   14  C8  UNL     1       2.412  -1.246   0.803  1.00  0.00     0.322 C 
HETATM   15  O3  UNL     1       2.484  -0.682   1.888  1.00  0.00    -0.247 OA
HETATM   16  N4  UNL     1       3.506  -1.819   0.192  1.00  0.00    -0.339 N 
HETATM   17  H11 UNL     1       3.460  -1.922  -0.810  1.00  0.00     0.164 HD
HETATM   18  H10 UNL     1       1.318  -2.022  -0.751  1.00  0.00     0.172 HD
BRANCH  16  19
HETATM   19  C9  UNL     1       4.827  -1.710   0.769  1.00  0.00     0.162 C 
BRANCH  19  20
HETATM   20  C10 UNL     1       5.570  -0.524   0.206  1.00  0.00    -0.039 A 
HETATM   21  C11 UNL     1       5.413   0.746   0.777  1.00  0.00     0.010 A 
HETATM   22  C12 UNL     1       6.082   1.852   0.245  1.00  0.00     0.026 A 
HETATM   23  C13 UNL     1       6.910   1.703  -0.870  1.00  0.00     0.055 A 
HETATM   24 CL1  UNL     1       7.704   3.112  -1.477  1.00  0.00    -0.083 Cl
HETATM   25  C14 UNL     1       7.066   0.442  -1.455  1.00  0.00     0.056 A 
HETATM   26 CL2  UNL     1       8.065   0.180  -2.840  1.00  0.00    -0.083 Cl
HETATM   27  C15 UNL     1       6.395  -0.665  -0.920  1.00  0.00     0.034 A 
ENDBRANCH  19  20
ENDBRANCH  16  19
ENDBRANCH   7  13
BRANCH   1  28
HETATM   28  O2  UNL     1      -5.129   0.359   0.618  1.00  0.00    -0.332 OA
BRANCH  28  29
HETATM   29  C3  UNL     1      -5.383  -0.391  -0.564  1.00  0.00     0.203 C 
BRANCH  29  30
HETATM   30  C2  UNL     1      -6.872  -0.287  -0.907  1.00  0.00     0.193 C 
BRANCH  30  31
HETATM   31  O1  UNL     1      -7.192   0.893  -1.652  1.00  0.00    -0.394 OA
HETATM   32  C1  UNL     1      -7.144   2.083  -0.874  1.00  0.00     0.201 C 
ENDBRANCH  30  31
ENDBRANCH  29  30
ENDBRANCH  28  29
ENDBRANCH   1  28
TORSDOF 7
