REMARK  4 active torsions:
REMARK  status: ('A' for Active; 'I' for Inactive)
REMARK    1  A    between atoms: C2_2  and  N1_3 
REMARK    2  A    between atoms: C2_2  and  C16_28 
REMARK       I    between atoms: N1_3  and  C3_4 
REMARK       I    between atoms: C3_4  and  N2_6 
REMARK    3  A    between atoms: N2_6  and  C4_7 
REMARK    4  A    between atoms: C7_13  and  N5_14 
ROOT
HETATM    1  C4  UNL     1      -0.247   0.330  -0.212  1.00  0.00     0.111 A 
HETATM    2  C5  UNL     1       0.427   1.068  -1.184  1.00  0.00     0.080 A 
HETATM    3  C6  UNL     1       1.789   1.263  -0.953  1.00  0.00     0.067 A 
HETATM    4  N3  UNL     1       2.756   1.926  -1.652  1.00  0.00    -0.298 N 
HETATM    5  N4  UNL     1       3.968   1.890  -1.085  1.00  0.00    -0.284 N 
ATOM      6  H4  UNL     1       4.827   2.324  -1.422  1.00  0.00     0.188 HD
HETATM    7  C7  UNL     1       3.802   1.159   0.020  1.00  0.00     0.132 A 
HETATM    8  C14 UNL     1       2.439   0.760   0.166  1.00  0.00     0.053 A 
HETATM    9  C15 UNL     1       1.679   0.061   1.104  1.00  0.00     0.107 A 
HETATM   10  N7  UNL     1       0.353  -0.145   0.896  1.00  0.00    -0.351 N 
ATOM     11  H7  UNL     1      -0.193  -0.663   1.584  1.00  0.00     0.166 HD
HETATM   12  H8  UNL     1       2.655   2.432  -2.524  1.00  0.00     0.187 HD
ENDROOT
BRANCH   1  13
HETATM   13  N2  UNL     1      -1.618   0.126  -0.416  1.00  0.00    -0.295 N 
HETATM   14  C3  UNL     1      -2.422  -0.711   0.322  1.00  0.00     0.322 C 
HETATM   15  N1  UNL     1      -3.744  -0.566  -0.074  1.00  0.00    -0.335 N 
HETATM   16  O1  UNL     1      -2.084  -1.500   1.192  1.00  0.00    -0.247 OA
HETATM   17  H5  UNL     1      -3.986   0.391  -0.284  1.00  0.00     0.165 HD
HETATM   18  H6  UNL     1      -2.022   0.487  -1.263  1.00  0.00     0.172 HD
BRANCH  15  19
HETATM   19  C2  UNL     1      -4.791  -1.318   0.605  1.00  0.00     0.115 C 
HETATM   20  C1  UNL     1      -4.769  -2.804   0.229  1.00  0.00     0.037 C 
BRANCH  19  21
HETATM   21  C16 UNL     1      -6.141  -0.686   0.296  1.00  0.00    -0.036 A 
HETATM   22  C17 UNL     1      -6.683  -0.711  -1.002  1.00  0.00     0.012 A 
HETATM   23  C18 UNL     1      -7.913  -0.108  -1.269  1.00  0.00     0.043 A 
HETATM   24  C19 UNL     1      -8.601   0.530  -0.245  1.00  0.00     0.116 A 
HETATM   25  F1  UNL     1      -9.779   1.111  -0.504  1.00  0.00    -0.206 F 
HETATM   26  C20 UNL     1      -8.082   0.577   1.043  1.00  0.00     0.043 A 
HETATM   27  C21 UNL     1      -6.853  -0.027   1.314  1.00  0.00     0.012 A 
ENDBRANCH  19  21
ENDBRANCH  15  19
ENDBRANCH   1  13
BRANCH   7  28
HETATM   28  N5  UNL     1       4.792   0.848   0.909  1.00  0.00    -0.359 N 
HETATM   29  C8  UNL     1       5.115  -0.596   1.078  1.00  0.00     0.130 C 
HETATM   30  C9  UNL     1       6.000  -1.139  -0.073  1.00  0.00     0.068 C 
HETATM   31  C10 UNL     1       7.157  -0.220  -0.286  1.00  0.00     0.009 A 
HETATM   32  S1  UNL     1       8.604  -0.625  -1.077  1.00  0.00    -0.087 SA
HETATM   33  C12 UNL     1       7.181   1.096   0.131  1.00  0.00     0.040 A 
HETATM   34  C11 UNL     1       9.168   0.977  -0.790  1.00  0.00     0.138 A 
HETATM   35  N6  UNL     1       8.350   1.780  -0.140  1.00  0.00    -0.361 N 
ATOM     36  H6  UNL     1       8.547   2.746   0.120  1.00  0.00     0.165 HD
HETATM   37  C13 UNL     1       6.022   1.699   0.877  1.00  0.00     0.182 C 
ENDBRANCH   7  28
TORSDOF 4
