REMARK  4 active torsions:
REMARK  status: ('A' for Active; 'I' for Inactive)
REMARK    1  A    between atoms: C2_2  and  N1_3 
REMARK    2  A    between atoms: C2_2  and  C17_26 
REMARK       I    between atoms: N1_3  and  C3_4 
REMARK       I    between atoms: C3_4  and  N2_6 
REMARK    3  A    between atoms: N2_6  and  C4_7 
REMARK    4  A    between atoms: C7_13  and  C8_14 
ROOT
HETATM    1  C8  UNL     1       5.655  -0.240   0.191  1.00  0.00    -0.007 A 
HETATM    2  C9  UNL     1       5.788  -1.224  -0.799  1.00  0.00     0.015 A 
HETATM    3  C10 UNL     1       6.992  -1.367  -1.499  1.00  0.00     0.023 A 
HETATM    4  C11 UNL     1       8.077  -0.532  -1.212  1.00  0.00     0.044 A 
HETATM    5  C12 UNL     1       9.310  -0.681  -1.929  1.00  0.00     0.099 C 
HETATM    6  N5  UNL     1      10.305  -0.803  -2.513  1.00  0.00    -0.191 NA
HETATM    7  C13 UNL     1       7.955   0.444  -0.219  1.00  0.00     0.023 A 
HETATM    8  C14 UNL     1       6.752   0.585   0.480  1.00  0.00     0.015 A 
ENDROOT
BRANCH   1   9
HETATM    9  C7  UNL     1       4.403  -0.078   0.931  1.00  0.00     0.072 A 
HETATM   10  N4  UNL     1       4.417   0.157   2.254  1.00  0.00    -0.299 N 
HETATM   11  N3  UNL     1       3.122   0.228   2.596  1.00  0.00    -0.299 N 
ATOM     12  H4  UNL     1       5.230   0.259   2.862  1.00  0.00     0.187 HD
HETATM   13  C6  UNL     1       2.259   0.074   1.549  1.00  0.00     0.065 A 
HETATM   14  H8  UNL     1       2.889   0.392   3.569  1.00  0.00     0.187 HD
HETATM   15  C5  UNL     1       0.866   0.094   1.482  1.00  0.00     0.080 A 
HETATM   16  C15 UNL     1       3.064  -0.119   0.435  1.00  0.00     0.036 A 
HETATM   17  C4  UNL     1       0.332  -0.083   0.212  1.00  0.00     0.111 A 
HETATM   18  N6  UNL     1       1.086  -0.267  -0.898  1.00  0.00    -0.351 N 
HETATM   19  C16 UNL     1       2.441  -0.279  -0.804  1.00  0.00     0.105 A 
ATOM     20  H6  UNL     1       0.636  -0.397  -1.804  1.00  0.00     0.166 HD
BRANCH  17  21
HETATM   21  N2  UNL     1      -1.037  -0.099  -0.054  1.00  0.00    -0.295 N 
HETATM   22  C3  UNL     1      -2.074   0.141   0.807  1.00  0.00     0.322 C 
HETATM   23  N1  UNL     1      -3.289  -0.003   0.177  1.00  0.00    -0.335 N 
HETATM   24  O1  UNL     1      -1.980   0.455   1.986  1.00  0.00    -0.247 OA
HETATM   25  H5  UNL     1      -3.312  -0.551  -0.669  1.00  0.00     0.165 HD
HETATM   26  H6  UNL     1      -1.236  -0.196  -1.037  1.00  0.00     0.172 HD
BRANCH  23  27
HETATM   27  C2  UNL     1      -4.543   0.148   0.897  1.00  0.00     0.115 C 
HETATM   28  C1  UNL     1      -4.833  -1.075   1.775  1.00  0.00     0.037 C 
BRANCH  27  29
HETATM   29  C17 UNL     1      -5.648   0.456  -0.098  1.00  0.00    -0.034 A 
HETATM   30  C18 UNL     1      -6.317  -0.548  -0.818  1.00  0.00     0.009 A 
HETATM   31  C19 UNL     1      -7.309  -0.223  -1.747  1.00  0.00     0.002 A 
HETATM   32  C20 UNL     1      -7.641   1.111  -1.979  1.00  0.00     0.024 A 
HETATM   33  C21 UNL     1      -6.974   2.116  -1.284  1.00  0.00     0.034 A 
HETATM   34 CL1  UNL     1      -7.372   3.765  -1.576  1.00  0.00    -0.084 Cl
HETATM   35  C22 UNL     1      -5.983   1.797  -0.355  1.00  0.00     0.033 A 
ENDBRANCH  27  29
ENDBRANCH  23  27
ENDBRANCH  17  21
ENDBRANCH   1   9
TORSDOF 4
