REMARK  7 active torsions:
REMARK  status: ('A' for Active; 'I' for Inactive)
REMARK       I    between atoms: C1_2  and  N1_3 
REMARK    1  A    between atoms: C1_2  and  C8_12 
REMARK    2  A    between atoms: N1_3  and  C2_4 
REMARK    3  A    between atoms: C5_7  and  O2_8 
REMARK    4  A    between atoms: N2_15  and  C11_16 
REMARK    5  A    between atoms: C11_16  and  C12_17 
REMARK       I    between atoms: C12_17  and  N3_19 
REMARK    6  A    between atoms: N4_22  and  C15_23 
REMARK    7  A    between atoms: C18_26  and  C19_27 
ROOT
HETATM    1  C12 UNL     1      -0.685   0.929  -0.697  1.00  0.00     0.248 C 
HETATM    2  O3  UNL     1      -1.148   2.045  -0.448  1.00  0.00    -0.271 OA
HETATM    3  N3  UNL     1       0.656   0.632  -0.426  1.00  0.00    -0.348 N 
HETATM    4  C13 UNL     1       1.405   1.610   0.377  1.00  0.00     0.140 C 
HETATM    5  C14 UNL     1       2.929   1.529   0.178  1.00  0.00     0.115 C 
HETATM    6  N4  UNL     1       3.401   0.129   0.327  1.00  0.00    -0.280 NA
HETATM    7  C27 UNL     1       2.717  -0.785  -0.609  1.00  0.00     0.115 C 
HETATM    8  C28 UNL     1       1.194  -0.736  -0.386  1.00  0.00     0.140 C 
ENDROOT
BRANCH   1   9
HETATM    9  C11 UNL     1      -1.523  -0.207  -1.326  1.00  0.00     0.374 C 
BRANCH   9  10
HETATM   10  N2  UNL     1      -2.905   0.195  -1.646  1.00  0.00     0.098 N 
HETATM   11  C10 UNL     1      -3.616  -0.845  -2.389  1.00  0.00     0.274 C 
HETATM   12  C9  UNL     1      -5.077  -0.428  -2.270  1.00  0.00     0.046 C 
HETATM   13  C8  UNL     1      -5.136   0.482  -1.038  1.00  0.00     0.108 C 
HETATM   14  C29 UNL     1      -3.731   0.415  -0.449  1.00  0.00     0.287 C 
BRANCH  13  15
HETATM   15  C1  UNL     1      -6.217   0.074  -0.049  1.00  0.00     0.228 C 
HETATM   16  O1  UNL     1      -5.953  -0.325   1.079  1.00  0.00    -0.273 OA
HETATM   17  N1  UNL     1      -7.489   0.225  -0.584  1.00  0.00    -0.327 N 
HETATM   18  H1  UNL     1      -7.538   0.572  -1.534  1.00  0.00     0.169 HD
BRANCH  17  19
HETATM   19  C2  UNL     1      -8.725  -0.023   0.048  1.00  0.00     0.036 A 
HETATM   20  C3  UNL     1      -8.855  -0.451   1.372  1.00  0.00     0.032 A 
HETATM   21  C4  UNL     1     -10.119  -0.673   1.932  1.00  0.00     0.040 A 
HETATM   22  C5  UNL     1     -11.264  -0.469   1.164  1.00  0.00     0.087 A 
HETATM   23  C6  UNL     1     -11.147  -0.038  -0.158  1.00  0.00     0.069 A 
HETATM   24 CL1  UNL     1     -12.538   0.253  -1.138  1.00  0.00    -0.081 Cl
HETATM   25  C7  UNL     1      -9.883   0.183  -0.714  1.00  0.00     0.056 A 
BRANCH  22  26
HETATM   26  O2  UNL     1     -12.498  -0.683   1.711  1.00  0.00    -0.359 OA
HETATM   27  H4  UNL     1     -12.398  -0.949   2.639  1.00  0.00     0.217 HD
ENDBRANCH  22  26
ENDBRANCH  17  19
ENDBRANCH  13  15
ENDBRANCH   9  10
ENDBRANCH   1   9
BRANCH   6  28
HETATM   28  C15 UNL     1       4.799   0.039   0.422  1.00  0.00     0.010 A 
HETATM   29  C16 UNL     1       5.613  -0.539  -0.560  1.00  0.00     0.024 A 
HETATM   30  C17 UNL     1       7.007  -0.597  -0.410  1.00  0.00     0.014 A 
HETATM   31  C18 UNL     1       7.640  -0.088   0.732  1.00  0.00    -0.026 A 
HETATM   32  C25 UNL     1       6.828   0.480   1.721  1.00  0.00     0.014 A 
HETATM   33  C26 UNL     1       5.437   0.541   1.566  1.00  0.00     0.024 A 
BRANCH  31  34
HETATM   34  C19 UNL     1       9.104  -0.152   0.887  1.00  0.00    -0.023 A 
HETATM   35  C20 UNL     1       9.807  -1.354   0.673  1.00  0.00     0.012 A 
HETATM   36  C21 UNL     1      11.198  -1.418   0.813  1.00  0.00     0.004 A 
HETATM   37  C22 UNL     1      11.911  -0.278   1.172  1.00  0.00     0.042 A 
HETATM   38  C23 UNL     1      11.228   0.913   1.388  1.00  0.00     0.117 A 
HETATM   39  F1  UNL     1      11.913   2.012   1.734  1.00  0.00    -0.206 F 
HETATM   40  C24 UNL     1       9.845   0.986   1.249  1.00  0.00     0.054 A 
ENDBRANCH  31  34
ENDBRANCH   6  28
TORSDOF 7
