REMARK  5 active torsions:
REMARK  status: ('A' for Active; 'I' for Inactive)
REMARK    1  A    between atoms: C2_2  and  N1_3 
REMARK    2  A    between atoms: C2_2  and  C16_25 
REMARK       I    between atoms: N1_3  and  C3_4 
REMARK       I    between atoms: C3_4  and  N2_6 
REMARK    3  A    between atoms: N2_6  and  C4_7 
REMARK    4  A    between atoms: C7_13  and  N5_14 
REMARK    5  A    between atoms: N5_14  and  C8_15 
ROOT
HETATM    1  C4  UNL     1       0.514   0.435   0.348  1.00  0.00     0.111 A 
HETATM    2  C5  UNL     1       0.152   1.775   0.309  1.00  0.00     0.080 A 
HETATM    3  C6  UNL     1      -1.198   2.032   0.551  1.00  0.00     0.066 A 
HETATM    4  N3  UNL     1      -1.909   3.197   0.618  1.00  0.00    -0.298 N 
HETATM    5  N4  UNL     1      -3.210   3.031   0.902  1.00  0.00    -0.289 N 
ATOM      6  H4  UNL     1      -3.923   3.750   1.021  1.00  0.00     0.188 HD
HETATM    7  C7  UNL     1      -3.355   1.709   0.992  1.00  0.00     0.109 A 
HETATM    8  C14 UNL     1      -2.122   1.027   0.808  1.00  0.00     0.047 A 
HETATM    9  C15 UNL     1      -1.663  -0.289   0.850  1.00  0.00     0.106 A 
HETATM   10  N6  UNL     1      -0.354  -0.569   0.611  1.00  0.00    -0.351 N 
ATOM     11  H6  UNL     1      -0.027  -1.535   0.630  1.00  0.00     0.166 HD
HETATM   12  H8  UNL     1      -1.560   4.141   0.495  1.00  0.00     0.187 HD
ENDROOT
BRANCH   1  13
HETATM   13  N2  UNL     1       1.818  -0.017   0.143  1.00  0.00    -0.295 N 
HETATM   14  C3  UNL     1       2.926   0.704  -0.212  1.00  0.00     0.322 C 
HETATM   15  N1  UNL     1       4.044  -0.102  -0.252  1.00  0.00    -0.335 N 
HETATM   16  O1  UNL     1       2.962   1.899  -0.471  1.00  0.00    -0.247 OA
HETATM   17  H5  UNL     1       4.030  -0.873   0.401  1.00  0.00     0.165 HD
HETATM   18  H6  UNL     1       1.888  -1.021   0.175  1.00  0.00     0.172 HD
BRANCH  15  19
HETATM   19  C2  UNL     1       5.361   0.460  -0.520  1.00  0.00     0.115 C 
HETATM   20  C1  UNL     1       5.533   0.831  -1.997  1.00  0.00     0.037 C 
BRANCH  19  21
HETATM   21  C16 UNL     1       6.429  -0.517  -0.056  1.00  0.00    -0.036 A 
HETATM   22  C17 UNL     1       6.627  -1.752  -0.697  1.00  0.00     0.009 A 
HETATM   23  C18 UNL     1       7.597  -2.644  -0.238  1.00  0.00     0.001 A 
HETATM   24  C19 UNL     1       8.377  -2.319   0.871  1.00  0.00     0.000 A 
HETATM   25  C20 UNL     1       8.186  -1.102   1.523  1.00  0.00     0.001 A 
HETATM   26  C21 UNL     1       7.217  -0.207   1.064  1.00  0.00     0.009 A 
ENDBRANCH  19  21
ENDBRANCH  15  19
ENDBRANCH   1  13
BRANCH   7  27
HETATM   27  N5  UNL     1      -4.556   1.152   1.280  1.00  0.00    -0.273 NA
HETATM   28  H9  UNL     1      -5.245   1.873   1.489  1.00  0.00     0.129 HD
BRANCH  27  29
HETATM   29  C8  UNL     1      -5.128   0.133   0.398  1.00  0.00     0.061 C 
HETATM   30  C9  UNL     1      -6.223  -0.618   1.160  1.00  0.00     0.020 C 
HETATM   31  C10 UNL     1      -6.828  -1.748   0.324  1.00  0.00     0.002 C 
HETATM   32  C11 UNL     1      -6.793  -1.480  -1.181  1.00  0.00     0.000 C 
HETATM   33  C12 UNL     1      -6.867   0.008  -1.490  1.00  0.00     0.002 C 
HETATM   34  C13 UNL     1      -5.691   0.777  -0.883  1.00  0.00     0.020 C 
ENDBRANCH  27  29
ENDBRANCH   7  27
TORSDOF 5
