REMARK  7 active torsions:
REMARK  status: ('A' for Active; 'I' for Inactive)
REMARK    1  A    between atoms: O1_2  and  C2_3 
REMARK    2  A    between atoms: C2_3  and  C3_4 
REMARK    3  A    between atoms: C3_4  and  N1_5 
REMARK    4  A    between atoms: C3_4  and  C16_26 
REMARK       I    between atoms: N1_5  and  C4_6 
REMARK       I    between atoms: C4_6  and  N2_8 
REMARK    5  A    between atoms: N2_8  and  C5_9 
REMARK    6  A    between atoms: N5_16  and  C9_17 
REMARK    7  A    between atoms: C9_17  and  C10_18 
ROOT
HETATM    1  C5  UNL     1      -0.013  -0.094  -0.493  1.00  0.00     0.111 A 
HETATM    2  C6  UNL     1       0.424   0.862   0.417  1.00  0.00     0.080 A 
HETATM    3  C7  UNL     1       1.808   1.005   0.507  1.00  0.00     0.067 A 
HETATM    4  N3  UNL     1       2.597   1.820   1.267  1.00  0.00    -0.298 N 
HETATM    5  N4  UNL     1       3.913   1.658   1.064  1.00  0.00    -0.284 N 
ATOM      6  H4  UNL     1       4.682   2.155   1.514  1.00  0.00     0.188 HD
HETATM    7  C8  UNL     1       3.988   0.699   0.139  1.00  0.00     0.129 A 
HETATM    8  N5  UNL     1       5.134   0.200  -0.379  1.00  0.00    -0.374 N 
HETATM    9  C14 UNL     1       2.694   0.249  -0.248  1.00  0.00     0.052 A 
HETATM   10  C15 UNL     1       2.167  -0.696  -1.128  1.00  0.00     0.107 A 
HETATM   11  N6  UNL     1       0.821  -0.854  -1.242  1.00  0.00    -0.351 N 
ATOM     12  H6  UNL     1       0.440  -1.543  -1.890  1.00  0.00     0.166 HD
HETATM   13  H10 UNL     1       2.299   2.511   1.946  1.00  0.00     0.187 HD
HETATM   14  H11 UNL     1       5.096  -0.307  -1.256  1.00  0.00     0.161 HD
ENDROOT
BRANCH   1  15
HETATM   15  N2  UNL     1      -1.359  -0.383  -0.718  1.00  0.00    -0.295 N 
HETATM   16  C4  UNL     1      -2.462   0.246  -0.210  1.00  0.00     0.322 C 
HETATM   17  N1  UNL     1      -3.622  -0.364  -0.641  1.00  0.00    -0.332 N 
HETATM   18  O2  UNL     1      -2.470   1.227   0.522  1.00  0.00    -0.247 OA
HETATM   19  H7  UNL     1      -3.542  -1.364  -0.760  1.00  0.00     0.165 HD
HETATM   20  H8  UNL     1      -1.489  -1.078  -1.437  1.00  0.00     0.172 HD
BRANCH  17  21
HETATM   21  C3  UNL     1      -4.917   0.093  -0.136  1.00  0.00     0.143 C 
BRANCH  21  22
HETATM   22  C2  UNL     1      -5.317   1.488  -0.685  1.00  0.00     0.197 C 
BRANCH  22  23
HETATM   23  O1  UNL     1      -6.336   2.115   0.109  1.00  0.00    -0.394 OA
HETATM   24  C1  UNL     1      -5.801   2.807   1.232  1.00  0.00     0.201 C 
ENDBRANCH  22  23
ENDBRANCH  21  22
BRANCH  21  25
HETATM   25  C16 UNL     1      -5.979  -0.955  -0.448  1.00  0.00    -0.033 A 
HETATM   26  C17 UNL     1      -6.746  -1.509   0.589  1.00  0.00     0.009 A 
HETATM   27  C18 UNL     1      -7.715  -2.476   0.317  1.00  0.00     0.001 A 
HETATM   28  C19 UNL     1      -7.930  -2.902  -0.992  1.00  0.00     0.000 A 
HETATM   29  C20 UNL     1      -7.179  -2.360  -2.032  1.00  0.00     0.001 A 
HETATM   30  C21 UNL     1      -6.209  -1.393  -1.763  1.00  0.00     0.009 A 
ENDBRANCH  21  25
ENDBRANCH  17  21
ENDBRANCH   1  15
BRANCH   8  31
HETATM   31  C9  UNL     1       6.398   0.878  -0.128  1.00  0.00     0.126 C 
BRANCH  31  32
HETATM   32  C10 UNL     1       7.559   0.046  -0.656  1.00  0.00     0.003 C 
HETATM   33  C11 UNL     1       8.980   0.545  -0.284  1.00  0.00     0.006 C 
HETATM   34  C12 UNL     1       9.392  -0.937  -0.171  1.00  0.00     0.001 C 
HETATM   35  C13 UNL     1       7.911  -1.251   0.122  1.00  0.00     0.006 C 
ENDBRANCH  31  32
ENDBRANCH   8  31
TORSDOF 7
