REMARK  6 active torsions:
REMARK  status: ('A' for Active; 'I' for Inactive)
REMARK    1  A    between atoms: C2_2  and  C3_3 
REMARK       I    between atoms: C3_3  and  N1_5 
REMARK    2  A    between atoms: N1_5  and  C4_6 
REMARK    3  A    between atoms: C9_11  and  N2_12 
REMARK    4  A    between atoms: N2_12  and  C10_13 
REMARK    5  A    between atoms: C11_16  and  N4_17 
REMARK    6  A    between atoms: N4_17  and  C12_18 
ROOT
HETATM    1  C10 UNL     1      -0.722   0.374  -1.234  1.00  0.00     0.110 A 
HETATM    2  N3  UNL     1       0.340  -0.006  -0.492  1.00  0.00    -0.322 N 
ATOM      3  H3  UNL     1       0.210  -0.548   0.363  1.00  0.00     0.169 HD
HETATM    4  C11 UNL     1       1.566   0.342  -0.900  1.00  0.00     0.158 A 
HETATM    5  N5  UNL     1       1.809   1.040  -2.015  1.00  0.00    -0.341 N 
ATOM      6  H5  UNL     1       2.760   1.262  -2.309  1.00  0.00     0.167 HD
HETATM    7  C17 UNL     1       0.739   1.435  -2.730  1.00  0.00     0.117 A 
HETATM    8  C18 UNL     1      -0.557   1.140  -2.381  1.00  0.00     0.088 A 
HETATM    9 CL1  UNL     1      -1.872   1.683  -3.346  1.00  0.00    -0.079 Cl
ENDROOT
BRANCH   1  10
HETATM   10  N2  UNL     1      -2.040   0.085  -0.778  1.00  0.00    -0.242 NA
HETATM   11  H9  UNL     1      -2.628  -0.088  -1.595  1.00  0.00     0.135 HD
BRANCH  10  12
HETATM   12  C9  UNL     1      -2.400  -0.886   0.206  1.00  0.00     0.041 A 
HETATM   13  C4  UNL     1      -3.569  -0.668   0.974  1.00  0.00     0.056 A 
HETATM   14  C5  UNL     1      -4.027  -1.664   1.839  1.00  0.00     0.031 A 
HETATM   15  C6  UNL     1      -3.339  -2.875   1.944  1.00  0.00     0.002 A 
HETATM   16  C7  UNL     1      -2.199  -3.103   1.179  1.00  0.00     0.002 A 
HETATM   17  C8  UNL     1      -1.739  -2.119   0.303  1.00  0.00     0.026 A 
BRANCH  13  18
HETATM   18  N1  UNL     1      -4.200   0.588   0.822  1.00  0.00    -0.322 N 
HETATM   19  C3  UNL     1      -5.333   1.049   1.443  1.00  0.00     0.244 C 
HETATM   20  O1  UNL     1      -6.030   0.459   2.260  1.00  0.00    -0.268 OA
HETATM   21  H4  UNL     1      -3.678   1.232   0.240  1.00  0.00     0.169 HD
BRANCH  19  22
HETATM   22  C2  UNL     1      -5.697   2.451   1.090  1.00  0.00     0.064 C 
HETATM   23  C1  UNL     1      -5.459   3.050  -0.084  1.00  0.00     0.017 C 
ENDBRANCH  19  22
ENDBRANCH  13  18
ENDBRANCH  10  12
ENDBRANCH   1  10
BRANCH   4  24
HETATM   24  N4  UNL     1       2.602  -0.075  -0.079  1.00  0.00    -0.259 NA
HETATM   25  H10 UNL     1       2.190  -0.786   0.519  1.00  0.00     0.131 HD
BRANCH  24  26
HETATM   26  C12 UNL     1       3.858  -0.435  -0.737  1.00  0.00     0.067 C 
HETATM   27  C13 UNL     1       4.776   0.786  -0.874  1.00  0.00     0.046 C 
HETATM   28  C14 UNL     1       5.369   1.194   0.466  1.00  0.00     0.169 C 
HETATM   29  O2  UNL     1       6.062   0.097   1.060  1.00  0.00    -0.391 OA
HETATM   30  C15 UNL     1       5.179  -0.984   1.352  1.00  0.00     0.169 C 
HETATM   31  C16 UNL     1       4.565  -1.532   0.071  1.00  0.00     0.046 C 
ENDBRANCH  24  26
ENDBRANCH   4  24
TORSDOF 6
