REMARK  7 active torsions:
REMARK  status: ('A' for Active; 'I' for Inactive)
REMARK    1  A    between atoms: C2_2  and  C3_3 
REMARK       I    between atoms: C3_3  and  N1_5 
REMARK    2  A    between atoms: N1_5  and  C4_6 
REMARK    3  A    between atoms: C9_11  and  N2_12 
REMARK    4  A    between atoms: N2_12  and  C10_13 
REMARK    5  A    between atoms: C11_16  and  N4_17 
REMARK    6  A    between atoms: N4_17  and  C12_18 
REMARK    7  A    between atoms: C18_27  and  C19_28 
ROOT
HETATM    1  C10 UNL     1       0.467  -1.647  -0.432  1.00  0.00     0.103 A 
HETATM    2  N3  UNL     1      -0.034  -0.413  -0.658  1.00  0.00    -0.322 N 
ATOM      3  H3  UNL     1       0.387   0.201  -1.355  1.00  0.00     0.169 HD
HETATM    4  C11 UNL     1      -1.095  -0.015   0.054  1.00  0.00     0.158 A 
HETATM    5  N5  UNL     1      -1.686  -0.772   0.980  1.00  0.00    -0.342 N 
ATOM      6  H5  UNL     1      -2.498  -0.441   1.500  1.00  0.00     0.167 HD
HETATM    7  C17 UNL     1      -1.162  -1.991   1.196  1.00  0.00     0.110 A 
HETATM    8  C18 UNL     1      -0.083  -2.495   0.506  1.00  0.00     0.101 A 
ENDROOT
BRANCH   1   9
HETATM    9  N2  UNL     1       1.609  -1.996  -1.187  1.00  0.00    -0.243 NA
HETATM   10  H9  UNL     1       1.458  -2.902  -1.629  1.00  0.00     0.135 HD
BRANCH   9  11
HETATM   11  C9  UNL     1       2.938  -1.940  -0.660  1.00  0.00     0.041 A 
HETATM   12  C4  UNL     1       3.475  -0.781  -0.046  1.00  0.00     0.056 A 
HETATM   13  C5  UNL     1       4.765  -0.831   0.496  1.00  0.00     0.031 A 
HETATM   14  C6  UNL     1       5.531  -1.997   0.416  1.00  0.00     0.002 A 
HETATM   15  C7  UNL     1       5.023  -3.124  -0.217  1.00  0.00     0.002 A 
HETATM   16  C8  UNL     1       3.738  -3.095  -0.757  1.00  0.00     0.026 A 
BRANCH  12  17
HETATM   17  N1  UNL     1       2.711   0.409  -0.064  1.00  0.00    -0.322 N 
HETATM   18  C3  UNL     1       2.998   1.609   0.538  1.00  0.00     0.244 C 
HETATM   19  O1  UNL     1       3.911   1.857   1.317  1.00  0.00    -0.268 OA
HETATM   20  H4  UNL     1       1.824   0.338  -0.559  1.00  0.00     0.169 HD
BRANCH  18  21
HETATM   21  C2  UNL     1       2.024   2.691   0.228  1.00  0.00     0.064 C 
HETATM   22  C1  UNL     1       1.471   2.884  -0.977  1.00  0.00     0.017 C 
ENDBRANCH  18  21
ENDBRANCH  12  17
ENDBRANCH   9  11
ENDBRANCH   1   9
BRANCH   8  23
HETATM   23  C19 UNL     1       0.432  -3.853   0.800  1.00  0.00     0.421 C 
HETATM   24  F1  UNL     1       1.481  -3.859   1.663  1.00  0.00    -0.166 F 
HETATM   25  F2  UNL     1       0.855  -4.513  -0.318  1.00  0.00    -0.166 F 
HETATM   26  F3  UNL     1      -0.508  -4.668   1.358  1.00  0.00    -0.166 F 
ENDBRANCH   8  23
BRANCH   4  27
HETATM   27  N4  UNL     1      -1.560   1.254  -0.223  1.00  0.00    -0.259 NA
HETATM   28  H10 UNL     1      -1.194   1.530  -1.127  1.00  0.00     0.131 HD
BRANCH  27  29
HETATM   29  C12 UNL     1      -2.969   1.538   0.018  1.00  0.00     0.067 C 
HETATM   30  C13 UNL     1      -3.858   0.877  -1.039  1.00  0.00     0.046 C 
HETATM   31  C14 UNL     1      -5.300   1.332  -0.867  1.00  0.00     0.169 C 
HETATM   32  O2  UNL     1      -5.389   2.754  -0.933  1.00  0.00    -0.391 OA
HETATM   33  C15 UNL     1      -4.649   3.391   0.107  1.00  0.00     0.169 C 
HETATM   34  C16 UNL     1      -3.170   3.056  -0.009  1.00  0.00     0.046 C 
ENDBRANCH  27  29
ENDBRANCH   4  27
TORSDOF 7
