REMARK  5 active torsions:
REMARK  status: ('A' for Active; 'I' for Inactive)
REMARK    1  A    between atoms: C2_2  and  N1_3 
REMARK    2  A    between atoms: C2_2  and  C18_30 
REMARK       I    between atoms: N1_3  and  C3_4 
REMARK       I    between atoms: C3_4  and  N2_6 
REMARK    3  A    between atoms: N2_6  and  C4_7 
REMARK    4  A    between atoms: C7_13  and  C8_14 
REMARK    5  A    between atoms: C11_17  and  N5_18 
ROOT
HETATM    1  C4  UNL     1      -0.726  -0.365   0.001  1.00  0.00     0.111 A 
HETATM    2  C5  UNL     1      -0.299  -1.388   0.836  1.00  0.00     0.080 A 
HETATM    3  C6  UNL     1       1.083  -1.499   0.982  1.00  0.00     0.065 A 
HETATM    4  N3  UNL     1       1.856  -2.358   1.709  1.00  0.00    -0.299 N 
HETATM    5  N4  UNL     1       3.174  -2.132   1.606  1.00  0.00    -0.299 N 
ATOM      6  H4  UNL     1       3.931  -2.629   2.075  1.00  0.00     0.187 HD
HETATM    7  C7  UNL     1       3.273  -1.103   0.746  1.00  0.00     0.072 A 
HETATM    8  C16 UNL     1       1.978  -0.653   0.341  1.00  0.00     0.036 A 
HETATM    9  C17 UNL     1       1.459   0.361  -0.465  1.00  0.00     0.105 A 
HETATM   10  N8  UNL     1       0.115   0.489  -0.627  1.00  0.00    -0.351 N 
ATOM     11  H8  UNL     1      -0.259   1.228  -1.222  1.00  0.00     0.166 HD
HETATM   12  H8  UNL     1       1.543  -3.118   2.303  1.00  0.00     0.187 HD
ENDROOT
BRANCH   1  13
HETATM   13  N2  UNL     1      -2.069  -0.097  -0.267  1.00  0.00    -0.295 N 
HETATM   14  C3  UNL     1      -3.172  -0.811   0.118  1.00  0.00     0.322 C 
HETATM   15  N1  UNL     1      -4.331  -0.200  -0.317  1.00  0.00    -0.335 N 
HETATM   16  O1  UNL     1      -3.176  -1.856   0.754  1.00  0.00    -0.247 OA
HETATM   17  H5  UNL     1      -4.278   0.807  -0.367  1.00  0.00     0.165 HD
HETATM   18  H6  UNL     1      -2.189   0.654  -0.927  1.00  0.00     0.172 HD
BRANCH  15  19
HETATM   19  C2  UNL     1      -5.635  -0.746   0.031  1.00  0.00     0.115 C 
HETATM   20  C1  UNL     1      -5.949  -2.022  -0.757  1.00  0.00     0.037 C 
BRANCH  19  21
HETATM   21  C18 UNL     1      -6.705   0.313  -0.187  1.00  0.00    -0.036 A 
HETATM   22  C19 UNL     1      -6.973   0.830  -1.468  1.00  0.00     0.012 A 
HETATM   23  C20 UNL     1      -7.950   1.811  -1.648  1.00  0.00     0.043 A 
HETATM   24  C21 UNL     1      -8.659   2.281  -0.550  1.00  0.00     0.116 A 
HETATM   25  F1  UNL     1      -9.595   3.223  -0.723  1.00  0.00    -0.206 F 
HETATM   26  C22 UNL     1      -8.409   1.791   0.726  1.00  0.00     0.043 A 
HETATM   27  C23 UNL     1      -7.432   0.810   0.909  1.00  0.00     0.012 A 
ENDBRANCH  19  21
ENDBRANCH  15  19
ENDBRANCH   1  13
BRANCH   7  28
HETATM   28  C8  UNL     1       4.583  -0.579   0.358  1.00  0.00    -0.007 A 
HETATM   29  C9  UNL     1       4.846  -0.188  -0.960  1.00  0.00     0.016 A 
HETATM   30  C10 UNL     1       6.103   0.315  -1.315  1.00  0.00     0.032 A 
HETATM   31  C11 UNL     1       7.120   0.426  -0.355  1.00  0.00     0.054 A 
HETATM   32  C14 UNL     1       6.867   0.024   0.962  1.00  0.00     0.032 A 
HETATM   33  C15 UNL     1       5.607  -0.477   1.310  1.00  0.00     0.016 A 
BRANCH  31  34
HETATM   34  N5  UNL     1       8.388   0.938  -0.735  1.00  0.00    -0.250 N 
HETATM   35  C12 UNL     1       9.514   1.120   0.035  1.00  0.00     0.132 A 
HETATM   36  C13 UNL     1      10.447   1.642  -0.827  1.00  0.00     0.123 A 
HETATM   37  N6  UNL     1       9.900   1.770  -2.066  1.00  0.00    -0.294 N 
HETATM   38  N7  UNL     1       8.647   1.340  -2.005  1.00  0.00    -0.016 NA
ATOM     39  H6  UNL     1      10.370   2.133  -2.895  1.00  0.00     0.183 HD
ENDBRANCH  31  34
ENDBRANCH   7  28
TORSDOF 5
