REMARK  6 active torsions:
REMARK  status: ('A' for Active; 'I' for Inactive)
REMARK    1  A    between atoms: O1_2  and  C2_3 
REMARK    2  A    between atoms: C2_3  and  C3_4 
REMARK    3  A    between atoms: C3_4  and  N1_5 
REMARK    4  A    between atoms: C3_4  and  C17_27 
REMARK       I    between atoms: N1_5  and  C4_6 
REMARK       I    between atoms: C4_6  and  N2_8 
REMARK    5  A    between atoms: N2_8  and  C5_9 
REMARK    6  A    between atoms: N5_16  and  C9_17 
ROOT
HETATM    1  C5  UNL     1       0.664  -0.456  -1.005  1.00  0.00     0.111 A 
HETATM    2  C6  UNL     1       0.856  -1.820  -0.825  1.00  0.00     0.080 A 
HETATM    3  C7  UNL     1       2.188  -2.227  -0.749  1.00  0.00     0.067 A 
HETATM    4  N3  UNL     1       2.758  -3.459  -0.606  1.00  0.00    -0.298 N 
HETATM    5  N4  UNL     1       4.101  -3.447  -0.607  1.00  0.00    -0.284 N 
ATOM      6  H4  UNL     1       4.735  -4.244  -0.554  1.00  0.00     0.188 HD
HETATM    7  C8  UNL     1       4.416  -2.152  -0.693  1.00  0.00     0.134 A 
HETATM    8  N5  UNL     1       5.700  -1.727  -0.727  1.00  0.00    -0.341 N 
HETATM    9  C15 UNL     1       3.253  -1.340  -0.828  1.00  0.00     0.053 A 
HETATM   10  C16 UNL     1       2.967   0.012  -1.028  1.00  0.00     0.107 A 
HETATM   11  N6  UNL     1       1.677   0.437  -1.103  1.00  0.00    -0.351 N 
ATOM     12  H6  UNL     1       1.473   1.428  -1.233  1.00  0.00     0.166 HD
HETATM   13  H10 UNL     1       2.285  -4.353  -0.523  1.00  0.00     0.187 HD
HETATM   14  H11 UNL     1       6.368  -2.489  -0.811  1.00  0.00     0.167 HD
ENDROOT
BRANCH   1  15
HETATM   15  N2  UNL     1      -0.594   0.140  -1.097  1.00  0.00    -0.295 N 
HETATM   16  C4  UNL     1      -1.824  -0.460  -1.114  1.00  0.00     0.322 C 
HETATM   17  N1  UNL     1      -2.832   0.472  -1.186  1.00  0.00    -0.332 N 
HETATM   18  O2  UNL     1      -2.043  -1.665  -1.096  1.00  0.00    -0.247 OA
HETATM   19  H7  UNL     1      -2.628   1.413  -0.885  1.00  0.00     0.165 HD
HETATM   20  H8  UNL     1      -0.540   1.134  -1.247  1.00  0.00     0.172 HD
BRANCH  17  21
HETATM   21  C3  UNL     1      -4.237   0.097  -1.098  1.00  0.00     0.143 C 
BRANCH  21  22
HETATM   22  C2  UNL     1      -5.105   1.068  -1.933  1.00  0.00     0.197 C 
BRANCH  22  23
HETATM   23  O1  UNL     1      -4.770   2.438  -1.654  1.00  0.00    -0.394 OA
HETATM   24  C1  UNL     1      -5.562   3.333  -2.427  1.00  0.00     0.201 C 
ENDBRANCH  22  23
ENDBRANCH  21  22
BRANCH  21  25
HETATM   25  C17 UNL     1      -4.659  -0.023   0.363  1.00  0.00    -0.033 A 
HETATM   26  C18 UNL     1      -4.948   1.097   1.161  1.00  0.00     0.012 A 
HETATM   27  C19 UNL     1      -5.314   0.944   2.500  1.00  0.00     0.043 A 
HETATM   28  C20 UNL     1      -5.380  -0.328   3.054  1.00  0.00     0.116 A 
HETATM   29  F1  UNL     1      -5.729  -0.472   4.339  1.00  0.00    -0.206 F 
HETATM   30  C21 UNL     1      -5.082  -1.451   2.295  1.00  0.00     0.043 A 
HETATM   31  C22 UNL     1      -4.718  -1.299   0.956  1.00  0.00     0.012 A 
ENDBRANCH  21  25
ENDBRANCH  17  21
ENDBRANCH   1  15
BRANCH   8  32
HETATM   32  C9  UNL     1       6.310  -0.622  -0.092  1.00  0.00     0.033 A 
HETATM   33  C10 UNL     1       7.558  -0.188  -0.562  1.00  0.00     0.029 A 
HETATM   34  C11 UNL     1       8.198   0.915   0.010  1.00  0.00     0.002 A 
HETATM   35  C12 UNL     1       7.596   1.600   1.062  1.00  0.00     0.000 A 
HETATM   36  C13 UNL     1       6.358   1.181   1.542  1.00  0.00     0.002 A 
HETATM   37  C14 UNL     1       5.720   0.078   0.967  1.00  0.00     0.029 A 
ENDBRANCH   8  32
TORSDOF 6
