REMARK  7 active torsions:
REMARK  status: ('A' for Active; 'I' for Inactive)
REMARK    1  A    between atoms: O1_2  and  C2_3 
REMARK    2  A    between atoms: C2_3  and  C3_4 
REMARK    3  A    between atoms: C3_4  and  O2_5 
REMARK    4  A    between atoms: O2_5  and  C4_6 
REMARK    5  A    between atoms: C7_12  and  N3_13 
REMARK       I    between atoms: N3_13  and  C8_14 
REMARK       I    between atoms: C8_14  and  N4_16 
REMARK    6  A    between atoms: N4_16  and  C9_17 
REMARK    7  A    between atoms: C9_17  and  C10_18 
ROOT
HETATM    1  C4  UNL     1       3.598   0.332  -0.158  1.00  0.00     0.171 A 
HETATM    2  N1  UNL     1       4.038   1.519  -0.581  1.00  0.00    -0.279 N 
ATOM      3  H1  UNL     1       4.994   1.876  -0.586  1.00  0.00     0.189 HD
HETATM    4  N2  UNL     1       2.914   2.131  -0.999  1.00  0.00    -0.298 N 
HETATM    5  C5  UNL     1       1.781   1.373  -0.864  1.00  0.00     0.067 A 
HETATM    6  C6  UNL     1       0.442   1.617  -1.171  1.00  0.00     0.080 A 
HETATM    7  C7  UNL     1      -0.439   0.572  -0.889  1.00  0.00     0.111 A 
HETATM    8  N5  UNL     1      -0.046  -0.594  -0.340  1.00  0.00    -0.351 N 
ATOM      9  H5  UNL     1      -0.737  -1.318  -0.142  1.00  0.00     0.166 HD
HETATM   10  C16 UNL     1       1.262  -0.814  -0.048  1.00  0.00     0.108 A 
HETATM   11  C17 UNL     1       2.207   0.174  -0.307  1.00  0.00     0.060 A 
HETATM   12  H8  UNL     1       2.992   3.071  -1.371  1.00  0.00     0.187 HD
ENDROOT
BRANCH   7  13
HETATM   13  N3  UNL     1      -1.792   0.797  -1.177  1.00  0.00    -0.295 N 
HETATM   14  C8  UNL     1      -2.788  -0.152  -1.136  1.00  0.00     0.322 C 
HETATM   15  O3  UNL     1      -2.663  -1.357  -0.968  1.00  0.00    -0.247 OA
HETATM   16  N4  UNL     1      -4.022   0.440  -1.354  1.00  0.00    -0.339 N 
HETATM   17  H11 UNL     1      -4.110   1.386  -1.019  1.00  0.00     0.164 HD
HETATM   18  H10 UNL     1      -2.038   1.677  -1.594  1.00  0.00     0.172 HD
BRANCH  16  19
HETATM   19  C9  UNL     1      -5.232  -0.353  -1.284  1.00  0.00     0.162 C 
BRANCH  19  20
HETATM   20  C10 UNL     1      -5.874  -0.244   0.077  1.00  0.00    -0.040 A 
HETATM   21  C11 UNL     1      -5.372  -0.987   1.156  1.00  0.00     0.010 A 
HETATM   22  C12 UNL     1      -5.946  -0.875   2.424  1.00  0.00     0.024 A 
HETATM   23  C13 UNL     1      -7.024  -0.016   2.621  1.00  0.00     0.034 A 
HETATM   24 CL1  UNL     1      -7.732   0.126   4.183  1.00  0.00    -0.084 Cl
HETATM   25  C14 UNL     1      -7.531   0.734   1.561  1.00  0.00     0.024 A 
HETATM   26  C15 UNL     1      -6.956   0.623   0.293  1.00  0.00     0.010 A 
ENDBRANCH  19  20
ENDBRANCH  16  19
ENDBRANCH   7  13
BRANCH   1  27
HETATM   27  O2  UNL     1       4.445  -0.592   0.348  1.00  0.00    -0.332 OA
BRANCH  27  28
HETATM   28  C3  UNL     1       5.810  -0.172   0.415  1.00  0.00     0.203 C 
BRANCH  28  29
HETATM   29  C2  UNL     1       6.632  -1.314   1.012  1.00  0.00     0.193 C 
BRANCH  29  30
HETATM   30  O1  UNL     1       8.004  -0.969   1.202  1.00  0.00    -0.394 OA
HETATM   31  C1  UNL     1       8.761  -1.004   0.000  1.00  0.00     0.201 C 
ENDBRANCH  29  30
ENDBRANCH  28  29
ENDBRANCH  27  28
ENDBRANCH   1  27
TORSDOF 7
