REMARK  7 active torsions:
REMARK  status: ('A' for Active; 'I' for Inactive)
REMARK    1  A    between atoms: C2_2  and  C3_3 
REMARK       I    between atoms: C3_3  and  N1_5 
REMARK    2  A    between atoms: N1_5  and  C4_6 
REMARK    3  A    between atoms: C9_11  and  N2_12 
REMARK    4  A    between atoms: N2_12  and  C10_13 
REMARK    5  A    between atoms: C11_16  and  N4_17 
REMARK    6  A    between atoms: N4_17  and  C12_18 
REMARK    7  A    between atoms: C15_21  and  N5_22 
ROOT
HETATM    1  C10 UNL     1       2.110  -0.863  -0.911  1.00  0.00     0.110 A 
HETATM    2  N3  UNL     1       1.074  -0.141  -0.430  1.00  0.00    -0.322 N 
ATOM      3  H3  UNL     1       1.235   0.650   0.193  1.00  0.00     0.169 HD
HETATM    4  C11 UNL     1      -0.168  -0.486  -0.789  1.00  0.00     0.158 A 
HETATM    5  N6  UNL     1      -0.451  -1.512  -1.598  1.00  0.00    -0.341 N 
ATOM      6  H6  UNL     1      -1.412  -1.766  -1.826  1.00  0.00     0.167 HD
HETATM    7  C20 UNL     1       0.599  -2.194  -2.097  1.00  0.00     0.117 A 
HETATM    8  C21 UNL     1       1.912  -1.914  -1.795  1.00  0.00     0.088 A 
HETATM    9 CL1  UNL     1       3.164  -2.802  -2.569  1.00  0.00    -0.079 Cl
ENDROOT
BRANCH   1  10
HETATM   10  N2  UNL     1       3.381  -0.444  -0.482  1.00  0.00    -0.242 NA
HETATM   11  H9  UNL     1       3.261   0.467  -0.017  1.00  0.00     0.135 HD
BRANCH  10  12
HETATM   12  C9  UNL     1       4.373  -1.168   0.233  1.00  0.00     0.041 A 
HETATM   13  C4  UNL     1       5.661  -0.617   0.447  1.00  0.00     0.056 A 
HETATM   14  C5  UNL     1       6.672  -1.418   1.007  1.00  0.00     0.031 A 
HETATM   15  C6  UNL     1       6.411  -2.723   1.422  1.00  0.00     0.002 A 
HETATM   16  C7  UNL     1       5.135  -3.249   1.273  1.00  0.00     0.002 A 
HETATM   17  C8  UNL     1       4.131  -2.481   0.681  1.00  0.00     0.026 A 
BRANCH  13  18
HETATM   18  N1  UNL     1       6.060   0.701   0.105  1.00  0.00    -0.322 N 
HETATM   19  C3  UNL     1       5.264   1.816   0.008  1.00  0.00     0.244 C 
HETATM   20  O1  UNL     1       4.081   1.905   0.322  1.00  0.00    -0.268 OA
HETATM   21  H4  UNL     1       7.055   0.874   0.117  1.00  0.00     0.169 HD
BRANCH  19  22
HETATM   22  C2  UNL     1       5.984   3.050  -0.411  1.00  0.00     0.064 C 
HETATM   23  C1  UNL     1       7.031   3.078  -1.247  1.00  0.00     0.017 C 
ENDBRANCH  19  22
ENDBRANCH  13  18
ENDBRANCH  10  12
ENDBRANCH   1  10
BRANCH   4  24
HETATM   24  N4  UNL     1      -1.178   0.300  -0.255  1.00  0.00    -0.259 NA
HETATM   25  H10 UNL     1      -0.739   0.808   0.507  1.00  0.00     0.131 HD
BRANCH  24  26
HETATM   26  C12 UNL     1      -2.432  -0.378   0.062  1.00  0.00     0.063 C 
HETATM   27  C13 UNL     1      -3.120   0.360   1.227  1.00  0.00     0.022 C 
HETATM   28  C14 UNL     1      -3.928   1.565   0.750  1.00  0.00     0.037 C 
HETATM   29  C15 UNL     1      -5.031   1.185  -0.267  1.00  0.00     0.222 C 
HETATM   30  C18 UNL     1      -4.801  -0.213  -0.881  1.00  0.00     0.037 C 
HETATM   31  C19 UNL     1      -3.324  -0.434  -1.195  1.00  0.00     0.022 C 
BRANCH  29  32
HETATM   32  N5  UNL     1      -6.384   1.411   0.284  1.00  0.00     0.084 N 
HETATM   33  C16 UNL     1      -7.414   1.407  -0.755  1.00  0.00     0.309 C 
HETATM   34  C17 UNL     1      -6.763   0.517   1.375  1.00  0.00     0.309 C 
ENDBRANCH  29  32
ENDBRANCH  24  26
ENDBRANCH   4  24
TORSDOF 7
