REMARK  7 active torsions:
REMARK  status: ('A' for Active; 'I' for Inactive)
REMARK       I    between atoms: C1_2  and  N1_3 
REMARK    1  A    between atoms: C1_2  and  C8_12 
REMARK    2  A    between atoms: N1_3  and  C2_4 
REMARK    3  A    between atoms: C5_7  and  O2_8 
REMARK    4  A    between atoms: N2_15  and  C11_16 
REMARK    5  A    between atoms: C11_16  and  C12_17 
REMARK       I    between atoms: C12_17  and  N3_19 
REMARK    6  A    between atoms: N4_22  and  C15_23 
REMARK    7  A    between atoms: C18_26  and  C19_27 
ROOT
HETATM    1  C12 UNL     1       0.582  -1.386  -0.531  1.00  0.00     0.248 C 
HETATM    2  O3  UNL     1       0.989  -2.550  -0.480  1.00  0.00    -0.271 OA
HETATM    3  N3  UNL     1      -0.786  -1.095  -0.460  1.00  0.00    -0.348 N 
HETATM    4  C13 UNL     1      -1.710  -2.233  -0.552  1.00  0.00     0.140 C 
HETATM    5  C14 UNL     1      -3.097  -1.941   0.045  1.00  0.00     0.115 C 
HETATM    6  N4  UNL     1      -3.651  -0.688  -0.513  1.00  0.00    -0.280 NA
HETATM    7  C25 UNL     1      -2.750   0.467  -0.295  1.00  0.00     0.115 C 
HETATM    8  C26 UNL     1      -1.356   0.189  -0.890  1.00  0.00     0.140 C 
ENDROOT
BRANCH   1   9
HETATM    9  C11 UNL     1       1.535  -0.173  -0.641  1.00  0.00     0.374 C 
BRANCH   9  10
HETATM   10  N2  UNL     1       2.964  -0.564  -0.676  1.00  0.00     0.098 N 
HETATM   11  C10 UNL     1       3.440  -1.064   0.622  1.00  0.00     0.274 C 
HETATM   12  C9  UNL     1       3.874   0.165   1.406  1.00  0.00     0.046 C 
HETATM   13  C8  UNL     1       4.257   1.191   0.342  1.00  0.00     0.108 C 
HETATM   14  C27 UNL     1       3.831   0.582  -0.991  1.00  0.00     0.287 C 
BRANCH  13  15
HETATM   15  C1  UNL     1       5.734   1.566   0.358  1.00  0.00     0.228 C 
HETATM   16  O1  UNL     1       6.059   2.741   0.506  1.00  0.00    -0.273 OA
HETATM   17  N1  UNL     1       6.597   0.497   0.191  1.00  0.00    -0.327 N 
HETATM   18  H1  UNL     1       6.173  -0.418   0.083  1.00  0.00     0.169 HD
BRANCH  17  19
HETATM   19  C2  UNL     1       8.007   0.526   0.136  1.00  0.00     0.036 A 
HETATM   20  C3  UNL     1       8.772   1.690   0.260  1.00  0.00     0.032 A 
HETATM   21  C4  UNL     1      10.170   1.637   0.188  1.00  0.00     0.040 A 
HETATM   22  C5  UNL     1      10.804   0.418  -0.009  1.00  0.00     0.087 A 
HETATM   23  C6  UNL     1      10.053  -0.750  -0.135  1.00  0.00     0.069 A 
HETATM   24 CL1  UNL     1      10.833  -2.268  -0.384  1.00  0.00    -0.081 Cl
HETATM   25  C7  UNL     1       8.660  -0.697  -0.065  1.00  0.00     0.056 A 
BRANCH  22  26
HETATM   26  O2  UNL     1      12.170   0.417  -0.073  1.00  0.00    -0.359 OA
HETATM   27  H4  UNL     1      12.452  -0.504  -0.224  1.00  0.00     0.217 HD
ENDBRANCH  22  26
ENDBRANCH  17  19
ENDBRANCH  13  15
ENDBRANCH   9  10
ENDBRANCH   1   9
BRANCH   6  28
HETATM   28  C15 UNL     1      -5.005  -0.403  -0.274  1.00  0.00     0.010 A 
HETATM   29  C16 UNL     1      -5.647   0.594  -1.022  1.00  0.00     0.024 A 
HETATM   30  C17 UNL     1      -7.000   0.910  -0.832  1.00  0.00     0.017 A 
HETATM   31  C18 UNL     1      -7.787   0.230   0.110  1.00  0.00     0.008 A 
HETATM   32  C23 UNL     1      -7.149  -0.781   0.848  1.00  0.00     0.017 A 
HETATM   33  C24 UNL     1      -5.792  -1.091   0.658  1.00  0.00     0.024 A 
BRANCH  31  34
HETATM   34  C19 UNL     1      -9.215   0.551   0.304  1.00  0.00     0.115 A 
HETATM   35  N5  UNL     1      -9.947  -0.269   1.089  1.00  0.00    -0.352 N 
HETATM   36  C20 UNL     1     -11.250   0.039   1.234  1.00  0.00     0.091 A 
ATOM     37  H5  UNL     1      -9.534  -1.080   1.549  1.00  0.00     0.166 HD
HETATM   38  C21 UNL     1     -11.845   1.124   0.638  1.00  0.00     0.034 A 
HETATM   39  C22 UNL     1     -11.016   1.901  -0.136  1.00  0.00     0.091 A 
HETATM   40  N6  UNL     1      -9.709   1.640  -0.321  1.00  0.00    -0.352 N 
ATOM     41  H6  UNL     1      -9.121   2.235  -0.904  1.00  0.00     0.166 HD
ENDBRANCH  31  34
ENDBRANCH   6  28
TORSDOF 7
