REMARK  4 active torsions:
REMARK  status: ('A' for Active; 'I' for Inactive)
REMARK    1  A    between atoms: C2_2  and  N1_3 
REMARK    2  A    between atoms: C2_2  and  C14_25 
REMARK       I    between atoms: N1_3  and  C3_4 
REMARK       I    between atoms: C3_4  and  N2_6 
REMARK    3  A    between atoms: N2_6  and  C4_7 
REMARK    4  A    between atoms: N5_14  and  C8_15 
ROOT
HETATM    1  C4  UNL     1       0.046  -0.326   0.250  1.00  0.00     0.111 A 
HETATM    2  C5  UNL     1      -0.524  -1.117  -0.740  1.00  0.00     0.080 A 
HETATM    3  C6  UNL     1      -1.916  -1.192  -0.709  1.00  0.00     0.067 A 
HETATM    4  N3  UNL     1      -2.815  -1.859  -1.493  1.00  0.00    -0.298 N 
HETATM    5  N4  UNL     1      -4.098  -1.669  -1.143  1.00  0.00    -0.284 N 
ATOM      6  H4  UNL     1      -4.932  -2.053  -1.586  1.00  0.00     0.188 HD
HETATM    7  C7  UNL     1      -4.030  -0.862  -0.082  1.00  0.00     0.130 A 
HETATM    8  N5  UNL     1      -5.090  -0.404   0.616  1.00  0.00    -0.369 N 
HETATM    9  C12 UNL     1      -2.684  -0.526   0.235  1.00  0.00     0.052 A 
HETATM   10  C13 UNL     1      -2.029   0.249   1.192  1.00  0.00     0.107 A 
HETATM   11  N6  UNL     1      -0.672   0.341   1.184  1.00  0.00    -0.351 N 
ATOM     12  H6  UNL     1      -0.195   0.912   1.882  1.00  0.00     0.166 HD
HETATM   13  H8  UNL     1      -2.617  -2.460  -2.284  1.00  0.00     0.187 HD
HETATM   14  H9  UNL     1      -4.970   0.332   1.317  1.00  0.00     0.161 HD
ENDROOT
BRANCH   1  15
HETATM   15  N2  UNL     1       1.420  -0.124   0.377  1.00  0.00    -0.295 N 
HETATM   16  C3  UNL     1       2.438  -0.706  -0.330  1.00  0.00     0.322 C 
HETATM   17  N1  UNL     1       3.662  -0.216   0.075  1.00  0.00    -0.335 N 
HETATM   18  O1  UNL     1       2.322  -1.554  -1.205  1.00  0.00    -0.247 OA
HETATM   19  H5  UNL     1       3.647   0.743   0.390  1.00  0.00     0.165 HD
HETATM   20  H6  UNL     1       1.653   0.443   1.177  1.00  0.00     0.172 HD
BRANCH  17  21
HETATM   21  C2  UNL     1       4.890  -0.638  -0.584  1.00  0.00     0.115 C 
HETATM   22  C1  UNL     1       5.282  -2.068  -0.198  1.00  0.00     0.037 C 
BRANCH  21  23
HETATM   23  C14 UNL     1       6.003   0.345  -0.261  1.00  0.00    -0.036 A 
HETATM   24  C15 UNL     1       6.465   0.523   1.054  1.00  0.00     0.009 A 
HETATM   25  C16 UNL     1       7.478   1.442   1.336  1.00  0.00     0.001 A 
HETATM   26  C17 UNL     1       8.039   2.198   0.309  1.00  0.00     0.000 A 
HETATM   27  C18 UNL     1       7.588   2.037  -0.999  1.00  0.00     0.001 A 
HETATM   28  C19 UNL     1       6.575   1.118  -1.283  1.00  0.00     0.009 A 
ENDBRANCH  21  23
ENDBRANCH  17  21
ENDBRANCH   1  15
BRANCH   8  29
HETATM   29  C8  UNL     1      -6.459  -0.611   0.157  1.00  0.00     0.095 C 
HETATM   30  C9  UNL     1      -6.843   0.376  -0.941  1.00  0.00     0.038 C 
HETATM   31  C10 UNL     1      -6.977   1.743  -0.294  1.00  0.00     0.111 C 
HETATM   32  S1  UNL     1      -7.526   1.502   1.441  1.00  0.00     0.017 S 
HETATM   33  O2  UNL     1      -6.234   1.932   2.399  1.00  0.00    -0.258 OA
HETATM   34  C11 UNL     1      -7.451  -0.324   1.279  1.00  0.00     0.133 C 
ENDBRANCH   8  29
TORSDOF 4
