REMARK  6 active torsions:
REMARK  status: ('A' for Active; 'I' for Inactive)
REMARK    1  A    between atoms: C2_2  and  N1_3 
REMARK    2  A    between atoms: C2_2  and  C16_27 
REMARK       I    between atoms: N1_3  and  C3_4 
REMARK       I    between atoms: C3_4  and  N2_6 
REMARK    3  A    between atoms: N2_6  and  C4_7 
REMARK    4  A    between atoms: C7_13  and  O2_14 
REMARK    5  A    between atoms: O2_14  and  C8_15 
REMARK    6  A    between atoms: C8_15  and  C9_16 
ROOT
HETATM    1  C4  UNL     1      -0.211   0.204  -0.529  1.00  0.00     0.111 A 
HETATM    2  C5  UNL     1       0.628   0.885   0.346  1.00  0.00     0.080 A 
HETATM    3  C6  UNL     1       1.942   1.039  -0.093  1.00  0.00     0.067 A 
HETATM    4  N3  UNL     1       3.036   1.640   0.473  1.00  0.00    -0.298 N 
HETATM    5  N4  UNL     1       4.147   1.574  -0.282  1.00  0.00    -0.279 N 
ATOM      6  H4  UNL     1       5.075   1.945  -0.076  1.00  0.00     0.189 HD
HETATM    7  C7  UNL     1       3.745   0.908  -1.364  1.00  0.00     0.171 A 
HETATM    8  C14 UNL     1       2.384   0.546  -1.313  1.00  0.00     0.060 A 
HETATM    9  C15 UNL     1       1.480  -0.129  -2.128  1.00  0.00     0.108 A 
HETATM   10  N6  UNL     1       0.192  -0.294  -1.724  1.00  0.00    -0.351 N 
ATOM     11  H6  UNL     1      -0.470  -0.792  -2.319  1.00  0.00     0.166 HD
HETATM   12  H8  UNL     1       3.090   2.112   1.370  1.00  0.00     0.187 HD
ENDROOT
BRANCH   1  13
HETATM   13  N2  UNL     1      -1.557  -0.051  -0.265  1.00  0.00    -0.295 N 
HETATM   14  C3  UNL     1      -2.312   0.372   0.795  1.00  0.00     0.322 C 
HETATM   15  N1  UNL     1      -3.597  -0.114   0.719  1.00  0.00    -0.335 N 
HETATM   16  O1  UNL     1      -1.938   1.096   1.709  1.00  0.00    -0.247 OA
HETATM   17  H5  UNL     1      -3.756  -0.924   0.140  1.00  0.00     0.165 HD
HETATM   18  H6  UNL     1      -2.015  -0.520  -1.030  1.00  0.00     0.172 HD
BRANCH  15  19
HETATM   19  C2  UNL     1      -4.575   0.154   1.761  1.00  0.00     0.115 C 
HETATM   20  C1  UNL     1      -4.312  -0.698   3.007  1.00  0.00     0.037 C 
BRANCH  19  21
HETATM   21  C16 UNL     1      -5.972  -0.033   1.189  1.00  0.00    -0.036 A 
HETATM   22  C17 UNL     1      -6.563  -1.301   1.052  1.00  0.00     0.012 A 
HETATM   23  C18 UNL     1      -7.838  -1.435   0.498  1.00  0.00     0.043 A 
HETATM   24  C19 UNL     1      -8.523  -0.306   0.069  1.00  0.00     0.116 A 
HETATM   25  F1  UNL     1      -9.745  -0.437  -0.463  1.00  0.00    -0.206 F 
HETATM   26  C20 UNL     1      -7.956   0.957   0.178  1.00  0.00     0.043 A 
HETATM   27  C21 UNL     1      -6.682   1.093   0.732  1.00  0.00     0.012 A 
ENDBRANCH  19  21
ENDBRANCH  15  19
ENDBRANCH   1  13
BRANCH   7  28
HETATM   28  O2  UNL     1       4.595   0.619  -2.374  1.00  0.00    -0.328 OA
BRANCH  28  29
HETATM   29  C8  UNL     1       5.934   1.102  -2.210  1.00  0.00     0.234 C 
BRANCH  29  30
HETATM   30  C9  UNL     1       6.845   0.191  -1.409  1.00  0.00     0.033 A 
HETATM   31  C10 UNL     1       6.580  -1.172  -1.278  1.00  0.00     0.027 A 
HETATM   32  C11 UNL     1       7.471  -1.971  -0.567  1.00  0.00     0.003 A 
HETATM   33  C12 UNL     1       8.610  -1.398  -0.015  1.00  0.00     0.017 A 
HETATM   34  C13 UNL     1       8.813  -0.043  -0.204  1.00  0.00     0.088 A 
HETATM   35  N5  UNL     1       7.969   0.756  -0.892  1.00  0.00    -0.367 N 
ATOM     36  H5  UNL     1       8.168   1.748  -1.019  1.00  0.00     0.165 HD
ENDBRANCH  29  30
ENDBRANCH  28  29
ENDBRANCH   7  28
TORSDOF 6
