REMARK  6 active torsions:
REMARK  status: ('A' for Active; 'I' for Inactive)
REMARK    1  A    between atoms: O1_2  and  C2_3 
REMARK    2  A    between atoms: C5_6  and  C6_7 
REMARK    3  A    between atoms: C6_7  and  N1_8 
REMARK       I    between atoms: N1_8  and  C7_9 
REMARK       I    between atoms: C7_9  and  N2_11 
REMARK    4  A    between atoms: N2_11  and  C8_12 
REMARK    5  A    between atoms: C11_18  and  C12_19 
REMARK    6  A    between atoms: C21_31  and  O3_32 
ROOT
HETATM    1  C8  UNL     1       1.235   1.073  -0.558  1.00  0.00     0.111 A 
HETATM    2  C9  UNL     1       0.381   0.956  -1.647  1.00  0.00     0.080 A 
HETATM    3  C10 UNL     1       0.974   0.487  -2.819  1.00  0.00     0.065 A 
HETATM    4  N3  UNL     1       0.469   0.259  -4.067  1.00  0.00    -0.299 N 
HETATM    5  N4  UNL     1       1.372  -0.194  -4.950  1.00  0.00    -0.299 N 
ATOM      6  H4  UNL     1       1.226  -0.415  -5.935  1.00  0.00     0.187 HD
HETATM    7  C11 UNL     1       2.512  -0.291  -4.245  1.00  0.00     0.072 A 
HETATM    8  C18 UNL     1       2.318   0.149  -2.900  1.00  0.00     0.036 A 
HETATM    9  C19 UNL     1       3.105   0.311  -1.758  1.00  0.00     0.105 A 
HETATM   10  N5  UNL     1       2.552   0.764  -0.603  1.00  0.00    -0.351 N 
ATOM     11  H5  UNL     1       3.130   0.871   0.231  1.00  0.00     0.166 HD
HETATM   12  H11 UNL     1      -0.484   0.398  -4.383  1.00  0.00     0.187 HD
ENDROOT
BRANCH   1  13
HETATM   13  N2  UNL     1       0.824   1.512   0.701  1.00  0.00    -0.295 N 
HETATM   14  C7  UNL     1      -0.408   1.971   1.084  1.00  0.00     0.322 C 
HETATM   15  N1  UNL     1      -0.426   2.277   2.428  1.00  0.00    -0.339 N 
HETATM   16  O2  UNL     1      -1.384   2.119   0.360  1.00  0.00    -0.247 OA
HETATM   17  H8  UNL     1       0.237   1.786   3.007  1.00  0.00     0.164 HD
HETATM   18  H9  UNL     1       1.586   1.563   1.358  1.00  0.00     0.172 HD
BRANCH  15  19
HETATM   19  C6  UNL     1      -1.647   2.696   3.083  1.00  0.00     0.163 C 
BRANCH  19  20
HETATM   20  C5  UNL     1      -2.336   1.526   3.739  1.00  0.00    -0.038 A 
HETATM   21  C4  UNL     1      -2.157   1.261   5.100  1.00  0.00     0.012 A 
HETATM   22  C3  UNL     1      -2.779   0.160   5.697  1.00  0.00     0.040 A 
HETATM   23  C2  UNL     1      -3.583  -0.697   4.939  1.00  0.00     0.101 A 
HETATM   24  C21 UNL     1      -3.764  -0.445   3.565  1.00  0.00     0.102 A 
HETATM   25  C20 UNL     1      -3.140   0.663   2.978  1.00  0.00     0.048 A 
BRANCH  23  26
HETATM   26  O1  UNL     1      -4.229  -1.801   5.440  1.00  0.00    -0.353 OA
HETATM   27  C1  UNL     1      -4.059  -2.095   6.819  1.00  0.00     0.210 C 
ENDBRANCH  23  26
BRANCH  24  28
HETATM   28  O3  UNL     1      -4.562  -1.333   2.886  1.00  0.00    -0.353 OA
HETATM   29  C22 UNL     1      -4.752  -1.117   1.495  1.00  0.00     0.210 C 
ENDBRANCH  24  28
ENDBRANCH  19  20
ENDBRANCH  15  19
ENDBRANCH   1  13
BRANCH   7  30
HETATM   30  C12 UNL     1       3.738  -0.785  -4.873  1.00  0.00    -0.007 A 
HETATM   31  C13 UNL     1       4.586  -1.677  -4.198  1.00  0.00     0.017 A 
HETATM   32  C14 UNL     1       5.753  -2.140  -4.811  1.00  0.00     0.043 A 
HETATM   33  C15 UNL     1       6.069  -1.718  -6.097  1.00  0.00     0.116 A 
HETATM   34  F1  UNL     1       7.187  -2.166  -6.681  1.00  0.00    -0.206 F 
HETATM   35  C16 UNL     1       5.237  -0.846  -6.787  1.00  0.00     0.043 A 
HETATM   36  C17 UNL     1       4.069  -0.383  -6.177  1.00  0.00     0.017 A 
ENDBRANCH   7  30
TORSDOF 6
