REMARK  3 active torsions:
REMARK  status: ('A' for Active; 'I' for Inactive)
REMARK    1  A    between atoms: C4_4  and  C5_5 
REMARK    2  A    between atoms: C8_11  and  N3_12 
REMARK       I    between atoms: N3_12  and  C9_13 
REMARK       I    between atoms: C9_13  and  N4_15 
REMARK    3  A    between atoms: N4_15  and  C11_17 
ROOT
HETATM    1  C5  UNL     1      -3.950  -0.234  -0.191  1.00  0.00     0.072 A 
HETATM    2  N1  UNL     1      -4.350  -1.171  -1.068  1.00  0.00    -0.299 N 
ATOM      3  H1  UNL     1      -5.297  -1.518  -1.223  1.00  0.00     0.187 HD
HETATM    4  N2  UNL     1      -3.224  -1.548  -1.693  1.00  0.00    -0.299 N 
HETATM    5  C6  UNL     1      -2.098  -0.924  -1.240  1.00  0.00     0.065 A 
HETATM    6  C7  UNL     1      -0.757  -1.045  -1.606  1.00  0.00     0.080 A 
HETATM    7  C8  UNL     1       0.124  -0.237  -0.900  1.00  0.00     0.111 A 
HETATM    8  N5  UNL     1      -0.262   0.606   0.087  1.00  0.00    -0.351 N 
ATOM      9  H5  UNL     1       0.433   1.169   0.577  1.00  0.00     0.166 HD
HETATM   10  C17 UNL     1      -1.574   0.702   0.425  1.00  0.00     0.105 A 
HETATM   11  C18 UNL     1      -2.533  -0.059  -0.246  1.00  0.00     0.036 A 
HETATM   12  H5  UNL     1      -3.291  -2.249  -2.423  1.00  0.00     0.187 HD
ENDROOT
BRANCH   7  13
HETATM   13  N3  UNL     1       1.504  -0.217  -1.113  1.00  0.00    -0.294 N 
HETATM   14  C9  UNL     1       2.235  -0.864  -2.069  1.00  0.00     0.324 C 
HETATM   15  O1  UNL     1       1.731  -1.555  -2.953  1.00  0.00    -0.247 OA
HETATM   16  N4  UNL     1       3.620  -0.694  -1.985  1.00  0.00    -0.334 N 
HETATM   17  C10 UNL     1       4.432  -1.342  -3.010  1.00  0.00     0.155 C 
HETATM   18  H7  UNL     1       1.953   0.443  -0.507  1.00  0.00     0.172 HD
BRANCH  16  19
HETATM   19  C11 UNL     1       4.383  -0.018  -0.914  1.00  0.00     0.088 C 
HETATM   20  C12 UNL     1       4.187   1.511  -0.906  1.00  0.00     0.025 C 
HETATM   21  C13 UNL     1       4.209   2.107   0.501  1.00  0.00     0.002 C 
HETATM   22  C14 UNL     1       5.300   1.472   1.354  1.00  0.00     0.000 C 
HETATM   23  C15 UNL     1       5.123  -0.039   1.513  1.00  0.00     0.002 C 
HETATM   24  C16 UNL     1       4.208  -0.673   0.464  1.00  0.00     0.025 C 
ENDBRANCH  16  19
ENDBRANCH   7  13
BRANCH   1  25
HETATM   25  C4  UNL     1      -4.919   0.442   0.669  1.00  0.00    -0.004 A 
HETATM   26  C3  UNL     1      -5.975  -0.280   1.234  1.00  0.00     0.038 A 
HETATM   27  C2  UNL     1      -6.882   0.380   2.055  1.00  0.00     0.005 A 
HETATM   28  C1  UNL     1      -8.022  -0.372   2.673  1.00  0.00     0.068 C 
HETATM   29  N6  UNL     1      -6.788   1.702   2.328  1.00  0.00    -0.369 N 
HETATM   30  C20 UNL     1      -5.773   2.384   1.757  1.00  0.00     0.089 A 
ATOM     31  H6  UNL     1      -7.458   2.165   2.942  1.00  0.00     0.165 HD
HETATM   32  C19 UNL     1      -4.825   1.808   0.931  1.00  0.00     0.031 A 
ENDBRANCH   1  25
TORSDOF 3
