REMARK  8 active torsions:
REMARK  status: ('A' for Active; 'I' for Inactive)
REMARK    1  A    between atoms: C2_2  and  C3_3 
REMARK    2  A    between atoms: C5_7  and  C6_8 
REMARK    3  A    between atoms: C9_11  and  N2_12 
REMARK       I    between atoms: N3_15  and  C12_16 
REMARK    4  A    between atoms: C12_16  and  C13_18 
REMARK    5  A    between atoms: C13_18  and  N4_19 
REMARK    6  A    between atoms: C16_22  and  C17_23 
REMARK       I    between atoms: C17_23  and  N5_25 
REMARK    7  A    between atoms: N5_25  and  C18_26 
REMARK    8  A    between atoms: C21_29  and  O3_30 
ROOT
HETATM    1  N2  UNL     1       1.610   0.900   1.277  1.00  0.00    -0.378 N 
HETATM    2  C10 UNL     1       0.994   1.850   0.327  1.00  0.00     0.143 C 
HETATM    3  C11 UNL     1      -0.368   2.364   0.824  1.00  0.00     0.145 C 
HETATM    4  N3  UNL     1      -1.223   1.248   1.226  1.00  0.00    -0.348 N 
HETATM    5  C12 UNL     1      -2.427   0.876   0.645  1.00  0.00     0.248 C 
HETATM    6  O1  UNL     1      -3.117  -0.022   1.137  1.00  0.00    -0.271 OA
HETATM    7  C25 UNL     1      -0.635   0.344   2.219  1.00  0.00     0.145 C 
HETATM    8  C26 UNL     1       0.860   0.614   2.516  1.00  0.00     0.143 C 
ENDROOT
BRANCH   5   9
HETATM    9  C13 UNL     1      -2.850   1.614  -0.643  1.00  0.00     0.374 C 
BRANCH   9  10
HETATM   10  N4  UNL     1      -3.789   0.807  -1.446  1.00  0.00     0.098 N 
HETATM   11  C14 UNL     1      -3.171  -0.409  -1.997  1.00  0.00     0.274 C 
HETATM   12  C15 UNL     1      -4.088  -0.804  -3.152  1.00  0.00     0.046 C 
HETATM   13  C16 UNL     1      -4.974   0.418  -3.401  1.00  0.00     0.108 C 
HETATM   14  C24 UNL     1      -4.309   1.536  -2.609  1.00  0.00     0.287 C 
BRANCH  13  15
HETATM   15  C17 UNL     1      -6.415   0.167  -2.947  1.00  0.00     0.228 C 
HETATM   16  O2  UNL     1      -7.319   0.124  -3.778  1.00  0.00    -0.273 OA
HETATM   17  N5  UNL     1      -6.540  -0.027  -1.584  1.00  0.00    -0.327 N 
HETATM   18  H20 UNL     1      -5.675   0.080  -1.050  1.00  0.00     0.169 HD
BRANCH  17  19
HETATM   19  C18 UNL     1      -7.698  -0.337  -0.849  1.00  0.00     0.036 A 
HETATM   20  C19 UNL     1      -8.958  -0.523  -1.427  1.00  0.00     0.032 A 
HETATM   21  C20 UNL     1     -10.064  -0.843  -0.633  1.00  0.00     0.040 A 
HETATM   22  C21 UNL     1      -9.911  -0.974   0.741  1.00  0.00     0.087 A 
HETATM   23  C22 UNL     1      -8.659  -0.792   1.328  1.00  0.00     0.069 A 
HETATM   24 CL1  UNL     1      -8.466  -0.957   3.035  1.00  0.00    -0.081 Cl
HETATM   25  C23 UNL     1      -7.552  -0.475   0.538  1.00  0.00     0.056 A 
BRANCH  22  26
HETATM   26  O3  UNL     1     -11.022  -1.299   1.469  1.00  0.00    -0.359 OA
HETATM   27  H23 UNL     1     -10.748  -1.346   2.405  1.00  0.00     0.217 HD
ENDBRANCH  22  26
ENDBRANCH  17  19
ENDBRANCH  13  15
ENDBRANCH   9  10
ENDBRANCH   5   9
BRANCH   1  28
HETATM   28  C9  UNL     1       2.965   0.623   1.154  1.00  0.00     0.030 A 
HETATM   29  C8  UNL     1       3.601   0.661  -0.096  1.00  0.00     0.030 A 
HETATM   30  C7  UNL     1       4.962   0.358  -0.254  1.00  0.00     0.017 A 
HETATM   31  C6  UNL     1       5.765  -0.010   0.835  1.00  0.00     0.008 A 
HETATM   32  C28 UNL     1       5.137  -0.046   2.089  1.00  0.00     0.017 A 
HETATM   33  C27 UNL     1       3.772   0.261   2.242  1.00  0.00     0.030 A 
BRANCH  31  34
HETATM   34  C5  UNL     1       7.190  -0.350   0.660  1.00  0.00     0.115 A 
HETATM   35  N1  UNL     1       7.875  -0.797   1.732  1.00  0.00    -0.351 N 
HETATM   36  C4  UNL     1       9.165  -1.132   1.527  1.00  0.00     0.098 A 
ATOM     37  H1  UNL     1       7.440  -0.878   2.651  1.00  0.00     0.166 HD
HETATM   38  C3  UNL     1       9.802  -1.036   0.309  1.00  0.00    -0.028 A 
HETATM   39  C29 UNL     1       9.015  -0.557  -0.716  1.00  0.00     0.098 A 
HETATM   40  N6  UNL     1       7.721  -0.214  -0.572  1.00  0.00    -0.351 N 
ATOM     41  H6  UNL     1       7.169   0.132  -1.357  1.00  0.00     0.166 HD
BRANCH  38  42
HETATM   42  C2  UNL     1      11.231  -1.433   0.104  1.00  0.00     0.037 C 
HETATM   43  C1  UNL     1      11.359  -2.742  -0.664  1.00  0.00     0.010 C 
ENDBRANCH  38  42
ENDBRANCH  31  34
ENDBRANCH   1  28
TORSDOF 8
