REMARK  5 active torsions:
REMARK  status: ('A' for Active; 'I' for Inactive)
REMARK    1  A    between atoms: O1_2  and  C2_3 
REMARK    2  A    between atoms: C5_6  and  C6_7 
REMARK    3  A    between atoms: C9_13  and  N3_14 
REMARK       I    between atoms: N3_14  and  C10_15 
REMARK       I    between atoms: C10_15  and  N4_17 
REMARK    4  A    between atoms: N4_17  and  C11_18 
REMARK    5  A    between atoms: C11_18  and  C12_19 
ROOT
HETATM    1  C6  UNL     1      -3.103   0.975   0.067  1.00  0.00     0.072 A 
HETATM    2  N1  UNL     1      -2.962   2.133   0.736  1.00  0.00    -0.299 N 
ATOM      3  H1  UNL     1      -3.692   2.692   1.179  1.00  0.00     0.187 HD
HETATM    4  N2  UNL     1      -1.645   2.388   0.690  1.00  0.00    -0.299 N 
HETATM    5  C7  UNL     1      -0.912   1.431   0.049  1.00  0.00     0.065 A 
HETATM    6  C8  UNL     1       0.456   1.315  -0.193  1.00  0.00     0.080 A 
HETATM    7  C9  UNL     1       0.840   0.173  -0.883  1.00  0.00     0.111 A 
HETATM    8  N5  UNL     1      -0.028  -0.782  -1.291  1.00  0.00    -0.351 N 
ATOM      9  H5  UNL     1       0.315  -1.604  -1.788  1.00  0.00     0.166 HD
HETATM   10  C18 UNL     1      -1.356  -0.646  -1.039  1.00  0.00     0.105 A 
HETATM   11  C19 UNL     1      -1.834   0.481  -0.367  1.00  0.00     0.036 A 
HETATM   12  H6  UNL     1      -1.306   3.238   1.126  1.00  0.00     0.187 HD
ENDROOT
BRANCH   7  13
HETATM   13  N3  UNL     1       2.163  -0.120  -1.214  1.00  0.00    -0.295 N 
HETATM   14  C10 UNL     1       3.278   0.654  -1.036  1.00  0.00     0.322 C 
HETATM   15  O2  UNL     1       3.306   1.789  -0.579  1.00  0.00    -0.247 OA
HETATM   16  N4  UNL     1       4.412  -0.004  -1.462  1.00  0.00    -0.339 N 
HETATM   17  H9  UNL     1       4.374  -1.012  -1.452  1.00  0.00     0.164 HD
HETATM   18  H8  UNL     1       2.247  -0.976  -1.738  1.00  0.00     0.172 HD
BRANCH  16  19
HETATM   19  C11 UNL     1       5.724   0.583  -1.294  1.00  0.00     0.162 C 
BRANCH  19  20
HETATM   20  C12 UNL     1       6.386   0.079  -0.036  1.00  0.00    -0.040 A 
HETATM   21  C13 UNL     1       6.084   0.664   1.205  1.00  0.00     0.012 A 
HETATM   22  C14 UNL     1       6.676   0.187   2.375  1.00  0.00     0.043 A 
HETATM   23  C15 UNL     1       7.564  -0.878   2.307  1.00  0.00     0.116 A 
HETATM   24  F1  UNL     1       8.132  -1.338   3.430  1.00  0.00    -0.206 F 
HETATM   25  C16 UNL     1       7.871  -1.478   1.091  1.00  0.00     0.043 A 
HETATM   26  C17 UNL     1       7.280  -1.003  -0.081  1.00  0.00     0.012 A 
ENDBRANCH  19  20
ENDBRANCH  16  19
ENDBRANCH   7  13
BRANCH   1  27
HETATM   27  C5  UNL     1      -4.424   0.376  -0.120  1.00  0.00    -0.007 A 
HETATM   28  C4  UNL     1      -5.360   0.399   0.923  1.00  0.00     0.016 A 
HETATM   29  C3  UNL     1      -6.627  -0.177   0.766  1.00  0.00     0.037 A 
HETATM   30  C2  UNL     1      -6.976  -0.778  -0.443  1.00  0.00     0.068 A 
HETATM   31  C21 UNL     1      -6.052  -0.792  -1.489  1.00  0.00     0.037 A 
HETATM   32  C20 UNL     1      -4.786  -0.217  -1.334  1.00  0.00     0.016 A 
BRANCH  30  33
HETATM   33  O1  UNL     1      -8.173  -1.375  -0.729  1.00  0.00    -0.356 OA
HETATM   34  C1  UNL     1      -9.157  -1.365   0.297  1.00  0.00     0.210 C 
ENDBRANCH  30  33
ENDBRANCH   1  27
TORSDOF 5
