REMARK  7 active torsions:
REMARK  status: ('A' for Active; 'I' for Inactive)
REMARK       I    between atoms: C1_2  and  N1_3 
REMARK    1  A    between atoms: C1_2  and  C8_12 
REMARK    2  A    between atoms: N1_3  and  C2_4 
REMARK    3  A    between atoms: C5_7  and  O2_8 
REMARK    4  A    between atoms: N2_15  and  C11_16 
REMARK    5  A    between atoms: C11_16  and  C12_17 
REMARK       I    between atoms: C12_17  and  N3_19 
REMARK    6  A    between atoms: N4_22  and  C15_23 
REMARK    7  A    between atoms: C18_26  and  C19_27 
ROOT
HETATM    1  C12 UNL     1       1.287   0.298  -0.528  1.00  0.00     0.248 C 
HETATM    2  O3  UNL     1       2.069  -0.128   0.328  1.00  0.00    -0.271 OA
HETATM    3  N3  UNL     1      -0.093   0.167  -0.381  1.00  0.00    -0.348 N 
HETATM    4  C13 UNL     1      -1.063   0.531  -1.424  1.00  0.00     0.140 C 
HETATM    5  C14 UNL     1      -2.470   0.819  -0.866  1.00  0.00     0.115 C 
HETATM    6  N4  UNL     1      -2.922  -0.288  -0.006  1.00  0.00    -0.280 NA
HETATM    7  C25 UNL     1      -1.992  -0.523   1.128  1.00  0.00     0.115 C 
HETATM    8  C26 UNL     1      -0.572  -0.812   0.608  1.00  0.00     0.140 C 
ENDROOT
BRANCH   1   9
HETATM    9  C11 UNL     1       1.794   1.015  -1.799  1.00  0.00     0.374 C 
BRANCH   9  10
HETATM   10  N2  UNL     1       3.219   0.729  -2.033  1.00  0.00     0.098 N 
HETATM   11  C10 UNL     1       3.799   1.548  -3.098  1.00  0.00     0.274 C 
HETATM   12  C9  UNL     1       5.111   0.833  -3.412  1.00  0.00     0.046 C 
HETATM   13  C8  UNL     1       4.932  -0.590  -2.878  1.00  0.00     0.108 C 
HETATM   14  C27 UNL     1       3.470  -0.661  -2.450  1.00  0.00     0.287 C 
BRANCH  13  15
HETATM   15  C1  UNL     1       5.888  -0.864  -1.715  1.00  0.00     0.228 C 
HETATM   16  O1  UNL     1       6.850  -1.613  -1.873  1.00  0.00    -0.273 OA
HETATM   17  N1  UNL     1       5.589  -0.153  -0.567  1.00  0.00    -0.327 N 
HETATM   18  H1  UNL     1       4.688   0.331  -0.572  1.00  0.00     0.169 HD
BRANCH  17  19
HETATM   19  C2  UNL     1       6.346  -0.040   0.614  1.00  0.00     0.037 A 
HETATM   20  C3  UNL     1       7.609  -0.610   0.792  1.00  0.00     0.032 A 
HETATM   21  C4  UNL     1       8.331  -0.395   1.973  1.00  0.00     0.042 A 
HETATM   22  C5  UNL     1       7.775   0.378   2.986  1.00  0.00     0.104 A 
HETATM   23  C6  UNL     1       6.499   0.914   2.831  1.00  0.00     0.151 A 
HETATM   24  F1  UNL     1       5.951   1.654   3.808  1.00  0.00    -0.203 F 
HETATM   25  C7  UNL     1       5.788   0.715   1.652  1.00  0.00     0.074 A 
BRANCH  22  26
HETATM   26  O2  UNL     1       8.472   0.628   4.135  1.00  0.00    -0.358 OA
HETATM   27  H4  UNL     1       9.367   0.260   4.049  1.00  0.00     0.217 HD
ENDBRANCH  22  26
ENDBRANCH  17  19
ENDBRANCH  13  15
ENDBRANCH   9  10
ENDBRANCH   1   9
BRANCH   6  28
HETATM   28  C15 UNL     1      -4.272  -0.298   0.385  1.00  0.00     0.010 A 
HETATM   29  C16 UNL     1      -4.841  -1.491   0.852  1.00  0.00     0.024 A 
HETATM   30  C17 UNL     1      -6.181  -1.560   1.258  1.00  0.00     0.017 A 
HETATM   31  C18 UNL     1      -7.021  -0.436   1.210  1.00  0.00     0.008 A 
HETATM   32  C23 UNL     1      -6.453   0.753   0.724  1.00  0.00     0.017 A 
HETATM   33  C24 UNL     1      -5.112   0.820   0.315  1.00  0.00     0.024 A 
BRANCH  31  34
HETATM   34  C19 UNL     1      -8.431  -0.499   1.641  1.00  0.00     0.115 A 
HETATM   35  N5  UNL     1      -9.164   0.631   1.566  1.00  0.00    -0.352 N 
HETATM   36  C20 UNL     1     -10.450   0.545   1.958  1.00  0.00     0.091 A 
ATOM     37  H5  UNL     1      -8.764   1.507   1.229  1.00  0.00     0.166 HD
HETATM   38  C21 UNL     1     -11.026  -0.611   2.425  1.00  0.00     0.034 A 
HETATM   39  C22 UNL     1     -10.199  -1.707   2.466  1.00  0.00     0.091 A 
HETATM   40  N6  UNL     1      -8.910  -1.682   2.080  1.00  0.00    -0.352 N 
ATOM     41  H6  UNL     1      -8.324  -2.516   2.117  1.00  0.00     0.166 HD
ENDBRANCH  31  34
ENDBRANCH   6  28
TORSDOF 7
