REMARK  6 active torsions:
REMARK  status: ('A' for Active; 'I' for Inactive)
REMARK    1  A    between atoms: O1_2  and  C2_3 
REMARK    2  A    between atoms: C2_3  and  C3_4 
REMARK    3  A    between atoms: C3_4  and  N1_5 
REMARK    4  A    between atoms: C3_4  and  C15_26 
REMARK       I    between atoms: N1_5  and  C4_6 
REMARK       I    between atoms: C4_6  and  N2_8 
REMARK    5  A    between atoms: N2_8  and  C5_9 
REMARK    6  A    between atoms: N5_16  and  C9_17 
ROOT
HETATM    1  C5  UNL     1       0.338   0.870  -0.349  1.00  0.00     0.111 A 
HETATM    2  C6  UNL     1       1.261   1.462  -1.211  1.00  0.00     0.080 A 
HETATM    3  C7  UNL     1       2.601   1.190  -0.937  1.00  0.00     0.067 A 
HETATM    4  N3  UNL     1       3.764   1.586  -1.534  1.00  0.00    -0.298 N 
HETATM    5  N4  UNL     1       4.872   1.090  -0.965  1.00  0.00    -0.284 N 
ATOM      6  H4  UNL     1       5.841   1.241  -1.246  1.00  0.00     0.188 HD
HETATM    7  C8  UNL     1       4.419   0.354   0.052  1.00  0.00     0.130 A 
HETATM    8  N5  UNL     1       5.192  -0.340   0.918  1.00  0.00    -0.368 N 
HETATM    9  C13 UNL     1       2.998   0.379   0.118  1.00  0.00     0.052 A 
HETATM   10  C14 UNL     1       2.009  -0.174   0.930  1.00  0.00     0.107 A 
HETATM   11  N6  UNL     1       0.698   0.072   0.674  1.00  0.00    -0.351 N 
ATOM     12  H6  UNL     1      -0.020  -0.351   1.262  1.00  0.00     0.166 HD
HETATM   13  H10 UNL     1       3.873   2.195  -2.336  1.00  0.00     0.187 HD
HETATM   14  H11 UNL     1       4.765  -1.056   1.496  1.00  0.00     0.161 HD
ENDROOT
BRANCH   1  15
HETATM   15  N2  UNL     1      -1.015   1.109  -0.618  1.00  0.00    -0.295 N 
HETATM   16  C4  UNL     1      -2.064   0.806   0.221  1.00  0.00     0.322 C 
HETATM   17  N1  UNL     1      -3.266   1.044  -0.427  1.00  0.00    -0.332 N 
HETATM   18  O2  UNL     1      -2.001   0.419   1.379  1.00  0.00    -0.247 OA
HETATM   19  H7  UNL     1      -3.254   0.842  -1.413  1.00  0.00     0.165 HD
HETATM   20  H8  UNL     1      -1.238   1.722  -1.383  1.00  0.00     0.172 HD
BRANCH  17  21
HETATM   21  C3  UNL     1      -4.535   0.777   0.251  1.00  0.00     0.143 C 
BRANCH  21  22
HETATM   22  C2  UNL     1      -5.626   1.779  -0.198  1.00  0.00     0.197 C 
BRANCH  22  23
HETATM   23  O1  UNL     1      -5.299   3.102   0.247  1.00  0.00    -0.394 OA
HETATM   24  C1  UNL     1      -6.313   4.038  -0.092  1.00  0.00     0.201 C 
ENDBRANCH  22  23
ENDBRANCH  21  22
BRANCH  21  25
HETATM   25  C15 UNL     1      -4.944  -0.672   0.022  1.00  0.00    -0.033 A 
HETATM   26  C16 UNL     1      -5.558  -1.103  -1.166  1.00  0.00     0.009 A 
HETATM   27  C17 UNL     1      -5.901  -2.446  -1.344  1.00  0.00     0.001 A 
HETATM   28  C18 UNL     1      -5.624  -3.378  -0.347  1.00  0.00     0.000 A 
HETATM   29  C19 UNL     1      -4.997  -2.971   0.827  1.00  0.00     0.001 A 
HETATM   30  C20 UNL     1      -4.655  -1.629   1.008  1.00  0.00     0.009 A 
ENDBRANCH  21  25
ENDBRANCH  17  21
ENDBRANCH   1  15
BRANCH   8  31
HETATM   31  C9  UNL     1       6.612  -0.529   0.655  1.00  0.00     0.109 C 
HETATM   32  C10 UNL     1       6.865  -1.675  -0.301  1.00  0.00     0.053 C 
HETATM   33  C11 UNL     1       8.279  -2.069   0.053  1.00  0.00     0.169 C 
HETATM   34  O3  UNL     1       8.402  -1.901   1.471  1.00  0.00    -0.389 OA
HETATM   35  C12 UNL     1       7.380  -0.982   1.898  1.00  0.00     0.192 C 
ENDBRANCH   8  31
TORSDOF 6
