REMARK  6 active torsions:
REMARK  status: ('A' for Active; 'I' for Inactive)
REMARK    1  A    between atoms: C4_4  and  C5_5 
REMARK    2  A    between atoms: C8_11  and  N3_12 
REMARK       I    between atoms: N3_12  and  C9_13 
REMARK       I    between atoms: C9_13  and  N4_15 
REMARK    3  A    between atoms: N4_15  and  C10_16 
REMARK    4  A    between atoms: C10_16  and  C11_17 
REMARK    5  A    between atoms: N5_20  and  C14_21 
REMARK    6  A    between atoms: C14_21  and  C15_22 
ROOT
HETATM    1  C5  UNL     1       6.737  -0.155  -0.776  1.00  0.00     0.072 A 
HETATM    2  N1  UNL     1       6.911  -0.093  -2.106  1.00  0.00    -0.299 N 
ATOM      3  H1  UNL     1       7.787  -0.164  -2.624  1.00  0.00     0.187 HD
HETATM    4  N2  UNL     1       5.677   0.083  -2.603  1.00  0.00    -0.299 N 
HETATM    5  C6  UNL     1       4.696   0.122  -1.654  1.00  0.00     0.065 A 
HETATM    6  C7  UNL     1       3.314   0.275  -1.753  1.00  0.00     0.080 A 
HETATM    7  C8  UNL     1       2.628   0.232  -0.547  1.00  0.00     0.111 A 
HETATM    8  N6  UNL     1       3.231   0.069   0.653  1.00  0.00    -0.351 N 
ATOM      9  H6  UNL     1       2.674   0.060   1.507  1.00  0.00     0.166 HD
HETATM   10  C22 UNL     1       4.579  -0.083   0.720  1.00  0.00     0.105 A 
HETATM   11  C23 UNL     1       5.352  -0.045  -0.441  1.00  0.00     0.036 A 
HETATM   12  H5  UNL     1       5.567   0.145  -3.607  1.00  0.00     0.187 HD
ENDROOT
BRANCH   7  13
HETATM   13  N3  UNL     1       1.244   0.378  -0.446  1.00  0.00    -0.295 N 
HETATM   14  C9  UNL     1       0.316   0.357  -1.454  1.00  0.00     0.321 C 
HETATM   15  O1  UNL     1       0.532   0.141  -2.638  1.00  0.00    -0.247 OA
HETATM   16  N4  UNL     1      -0.951   0.611  -0.959  1.00  0.00    -0.342 N 
HETATM   17  H8  UNL     1      -0.953   1.262  -0.186  1.00  0.00     0.164 HD
HETATM   18  H7  UNL     1       0.912   0.282   0.502  1.00  0.00     0.172 HD
BRANCH  16  19
HETATM   19  C10 UNL     1      -2.073   0.712  -1.877  1.00  0.00     0.130 C 
BRANCH  19  20
HETATM   20  C11 UNL     1      -3.396   0.791  -1.130  1.00  0.00     0.033 C 
HETATM   21  C12 UNL     1      -4.591   1.048  -2.034  1.00  0.00     0.038 C 
HETATM   22  C13 UNL     1      -5.748   0.672  -1.123  1.00  0.00     0.273 C 
HETATM   23  N5  UNL     1      -5.266  -0.503  -0.381  1.00  0.00     0.093 N 
HETATM   24  C21 UNL     1      -3.793  -0.506  -0.431  1.00  0.00     0.279 C 
BRANCH  23  25
HETATM   25  C14 UNL     1      -5.773  -0.562   0.993  1.00  0.00     0.311 C 
BRANCH  25  26
HETATM   26  C15 UNL     1      -7.277  -0.716   1.078  1.00  0.00    -0.030 A 
HETATM   27  C16 UNL     1      -7.898  -1.890   0.632  1.00  0.00     0.009 A 
HETATM   28  C17 UNL     1      -9.283  -2.045   0.730  1.00  0.00     0.001 A 
HETATM   29  C18 UNL     1     -10.060  -1.027   1.271  1.00  0.00     0.000 A 
HETATM   30  C19 UNL     1      -9.456   0.151   1.711  1.00  0.00     0.001 A 
HETATM   31  C20 UNL     1      -8.072   0.306   1.616  1.00  0.00     0.009 A 
ENDBRANCH  25  26
ENDBRANCH  23  25
ENDBRANCH  19  20
ENDBRANCH  16  19
ENDBRANCH   7  13
BRANCH   1  32
HETATM   32  C4  UNL     1       7.882  -0.331   0.116  1.00  0.00    -0.004 A 
HETATM   33  C3  UNL     1       7.955   0.329   1.344  1.00  0.00     0.038 A 
HETATM   34  C2  UNL     1       9.069   0.126   2.155  1.00  0.00     0.005 A 
HETATM   35  C1  UNL     1       9.173   0.827   3.476  1.00  0.00     0.068 C 
HETATM   36  N7  UNL     1      10.088  -0.690   1.804  1.00  0.00    -0.369 N 
HETATM   37  C25 UNL     1      10.004  -1.309   0.610  1.00  0.00     0.089 A 
ATOM     38  H7  UNL     1      10.889  -0.832   2.419  1.00  0.00     0.165 HD
HETATM   39  C24 UNL     1       8.940  -1.159  -0.260  1.00  0.00     0.031 A 
ENDBRANCH   1  32
TORSDOF 6
