REMARK  6 active torsions:
REMARK  status: ('A' for Active; 'I' for Inactive)
REMARK    1  A    between atoms: O1_2  and  C2_3 
REMARK    2  A    between atoms: C2_3  and  C3_4 
REMARK    3  A    between atoms: C3_4  and  N1_5 
REMARK    4  A    between atoms: C3_4  and  C14_24 
REMARK       I    between atoms: N1_5  and  C4_6 
REMARK       I    between atoms: C4_6  and  N2_8 
REMARK    5  A    between atoms: N2_8  and  C5_9 
REMARK    6  A    between atoms: N5_16  and  C9_17 
ROOT
HETATM    1  C5  UNL     1      -1.168   0.677   0.066  1.00  0.00     0.111 A 
HETATM    2  C6  UNL     1      -1.848  -0.488  -0.267  1.00  0.00     0.080 A 
HETATM    3  C7  UNL     1      -3.239  -0.386  -0.254  1.00  0.00     0.067 A 
HETATM    4  N3  UNL     1      -4.223  -1.294  -0.515  1.00  0.00    -0.298 N 
HETATM    5  N4  UNL     1      -5.465  -0.807  -0.393  1.00  0.00    -0.284 N 
ATOM      6  H4  UNL     1      -6.345  -1.303  -0.538  1.00  0.00     0.188 HD
HETATM    7  C8  UNL     1      -5.298   0.471  -0.039  1.00  0.00     0.130 A 
HETATM    8  N5  UNL     1      -6.264   1.393   0.206  1.00  0.00    -0.370 N 
HETATM    9  C12 UNL     1      -3.908   0.787   0.063  1.00  0.00     0.052 A 
HETATM   10  C13 UNL     1      -3.142   1.911   0.380  1.00  0.00     0.107 A 
HETATM   11  N6  UNL     1      -1.785   1.842   0.376  1.00  0.00    -0.351 N 
ATOM     12  H6  UNL     1      -1.231   2.667   0.606  1.00  0.00     0.166 HD
HETATM   13  H10 UNL     1      -4.114  -2.266  -0.781  1.00  0.00     0.187 HD
HETATM   14  H11 UNL     1      -5.981   2.328   0.481  1.00  0.00     0.161 HD
ENDROOT
BRANCH   1  15
HETATM   15  N2  UNL     1       0.223   0.773   0.101  1.00  0.00    -0.295 N 
HETATM   16  C4  UNL     1       1.150  -0.222  -0.056  1.00  0.00     0.322 C 
HETATM   17  N1  UNL     1       2.430   0.284   0.007  1.00  0.00    -0.332 N 
HETATM   18  O2  UNL     1       0.917  -1.412  -0.217  1.00  0.00    -0.247 OA
HETATM   19  H7  UNL     1       2.519   1.217  -0.371  1.00  0.00     0.165 HD
HETATM   20  H8  UNL     1       0.540   1.683   0.396  1.00  0.00     0.172 HD
BRANCH  17  21
HETATM   21  C3  UNL     1       3.587  -0.580  -0.236  1.00  0.00     0.143 C 
BRANCH  21  22
HETATM   22  C2  UNL     1       3.818  -1.619   0.890  1.00  0.00     0.197 C 
BRANCH  22  23
HETATM   23  O1  UNL     1       4.781  -2.595   0.468  1.00  0.00    -0.394 OA
HETATM   24  C1  UNL     1       5.014  -3.568   1.476  1.00  0.00     0.201 C 
ENDBRANCH  22  23
ENDBRANCH  21  22
BRANCH  21  25
HETATM   25  C14 UNL     1       4.820   0.293  -0.444  1.00  0.00    -0.033 A 
HETATM   26  C15 UNL     1       5.227   1.228   0.524  1.00  0.00     0.009 A 
HETATM   27  C16 UNL     1       6.351   2.028   0.312  1.00  0.00     0.001 A 
HETATM   28  C17 UNL     1       7.082   1.905  -0.867  1.00  0.00     0.000 A 
HETATM   29  C18 UNL     1       6.693   0.981  -1.834  1.00  0.00     0.001 A 
HETATM   30  C19 UNL     1       5.569   0.180  -1.625  1.00  0.00     0.009 A 
ENDBRANCH  21  25
ENDBRANCH  17  21
ENDBRANCH   1  15
BRANCH   8  31
HETATM   31  C9  UNL     1      -7.709   1.157   0.143  1.00  0.00     0.083 A 
HETATM   32  C10 UNL     1      -8.384   0.274  -0.866  1.00  0.00     0.027 A 
HETATM   33  C11 UNL     1      -8.382  -0.107   0.590  1.00  0.00     0.027 A 
ENDBRANCH   8  31
TORSDOF 6
