REMARK  6 active torsions:
REMARK  status: ('A' for Active; 'I' for Inactive)
REMARK    1  A    between atoms: O1_2  and  C2_3 
REMARK    2  A    between atoms: C7_9  and  C8_10 
REMARK    3  A    between atoms: C8_10  and  N1_11 
REMARK    4  A    between atoms: C12_15  and  N2_16 
REMARK       I    between atoms: N2_16  and  C13_17 
REMARK       I    between atoms: C13_17  and  N3_19 
REMARK    5  A    between atoms: N3_19  and  C14_20 
REMARK    6  A    between atoms: C17_26  and  C18_27 
ROOT
HETATM    1  C14 UNL     1       1.741   0.074  -2.135  1.00  0.00     0.111 A 
HETATM    2  C15 UNL     1       2.638   0.326  -3.174  1.00  0.00     0.080 A 
HETATM    3  C16 UNL     1       3.950   0.604  -2.785  1.00  0.00     0.065 A 
HETATM    4  N4  UNL     1       5.080   0.886  -3.497  1.00  0.00    -0.299 N 
HETATM    5  N5  UNL     1       6.176   1.061  -2.745  1.00  0.00    -0.299 N 
ATOM      6  H5  UNL     1       7.125   1.260  -3.060  1.00  0.00     0.187 HD
HETATM    7  C17 UNL     1       5.741   0.915  -1.483  1.00  0.00     0.072 A 
HETATM    8  C26 UNL     1       4.344   0.628  -1.454  1.00  0.00     0.036 A 
HETATM    9  C27 UNL     1       3.381   0.367  -0.478  1.00  0.00     0.105 A 
HETATM   10  N8  UNL     1       2.098   0.109  -0.838  1.00  0.00    -0.351 N 
ATOM     11  H8  UNL     1       1.396  -0.060  -0.117  1.00  0.00     0.166 HD
HETATM   12  H19 UNL     1       5.178   0.948  -4.504  1.00  0.00     0.187 HD
ENDROOT
BRANCH   1  13
HETATM   13  N3  UNL     1       0.425  -0.236  -2.505  1.00  0.00    -0.295 N 
HETATM   14  C13 UNL     1      -0.594  -0.579  -1.645  1.00  0.00     0.322 C 
HETATM   15  N2  UNL     1      -1.748  -0.860  -2.361  1.00  0.00    -0.337 N 
HETATM   16  O2  UNL     1      -0.552  -0.658  -0.426  1.00  0.00    -0.247 OA
HETATM   17  H16 UNL     1      -1.864  -0.340  -3.216  1.00  0.00     0.164 HD
HETATM   18  H17 UNL     1       0.237  -0.344  -3.485  1.00  0.00     0.172 HD
BRANCH  15  19
HETATM   19  C12 UNL     1      -2.983  -1.229  -1.666  1.00  0.00     0.114 C 
HETATM   20  C11 UNL     1      -3.890  -2.004  -2.625  1.00  0.00     0.029 C 
HETATM   21  C10 UNL     1      -5.232  -2.301  -1.973  1.00  0.00     0.032 C 
HETATM   22  C9  UNL     1      -5.895  -1.019  -1.463  1.00  0.00     0.273 C 
HETATM   23  N1  UNL     1      -5.031  -0.316  -0.507  1.00  0.00     0.094 N 
HETATM   24  C28 UNL     1      -3.720   0.010  -1.101  1.00  0.00     0.297 C 
BRANCH  23  25
HETATM   25  C8  UNL     1      -5.666   0.918   0.005  1.00  0.00     0.317 C 
BRANCH  25  26
HETATM   26  C7  UNL     1      -6.824   0.662   0.942  1.00  0.00     0.042 A 
HETATM   27  C2  UNL     1      -6.625   0.308   2.286  1.00  0.00     0.079 A 
HETATM   28  C3  UNL     1      -7.724   0.075   3.125  1.00  0.00     0.037 A 
HETATM   29  C4  UNL     1      -9.025   0.166   2.627  1.00  0.00     0.006 A 
HETATM   30  C5  UNL     1      -9.232   0.503   1.293  1.00  0.00     0.043 A 
HETATM   31  C6  UNL     1      -8.138   0.751   0.468  1.00  0.00     0.127 A 
HETATM   32  F1  UNL     1      -8.367   1.072  -0.815  1.00  0.00    -0.205 F 
BRANCH  27  33
HETATM   33  O1  UNL     1      -5.332   0.278   2.741  1.00  0.00    -0.355 OA
HETATM   34  C1  UNL     1      -5.039  -0.789   3.637  1.00  0.00     0.210 C 
ENDBRANCH  27  33
ENDBRANCH  25  26
ENDBRANCH  23  25
ENDBRANCH  15  19
ENDBRANCH   1  13
BRANCH   7  35
HETATM   35  C18 UNL     1       6.662   1.026  -0.349  1.00  0.00    -0.006 A 
HETATM   36  C19 UNL     1       6.293   1.845   0.776  1.00  0.00     0.016 A 
HETATM   37  C20 UNL     1       7.085   1.995   1.940  1.00  0.00     0.033 A 
HETATM   38  C21 UNL     1       8.281   1.261   1.906  1.00  0.00     0.059 A 
HETATM   39  N6  UNL     1       9.254   1.148   2.825  1.00  0.00    -0.299 N 
HETATM   40  C24 UNL     1       8.623   0.464   0.756  1.00  0.00     0.010 A 
HETATM   41  N7  UNL     1      10.150   0.301   2.276  1.00  0.00    -0.306 N 
ATOM     42  H6  UNL     1       9.305   1.602   3.737  1.00  0.00     0.187 HD
HETATM   43  C22 UNL     1      11.334  -0.059   3.019  1.00  0.00     0.177 C 
HETATM   44  C23 UNL     1       9.824  -0.132   1.023  1.00  0.00     0.123 A 
HETATM   45  C25 UNL     1       7.879   0.302  -0.406  1.00  0.00     0.029 A 
ENDBRANCH   7  35
TORSDOF 6
