REMARK  6 active torsions:
REMARK  status: ('A' for Active; 'I' for Inactive)
REMARK    1  A    between atoms: O1_2  and  C2_3 
REMARK    2  A    between atoms: C2_3  and  C3_4 
REMARK    3  A    between atoms: C3_4  and  N1_5 
REMARK    4  A    between atoms: C3_4  and  C15_26 
REMARK       I    between atoms: N1_5  and  C4_6 
REMARK       I    between atoms: C4_6  and  N2_8 
REMARK    5  A    between atoms: N2_8  and  C5_9 
REMARK    6  A    between atoms: N5_16  and  C9_17 
ROOT
HETATM    1  C5  UNL     1       0.283   0.218   0.546  1.00  0.00     0.111 A 
HETATM    2  C6  UNL     1       0.804  -0.230  -0.662  1.00  0.00     0.080 A 
HETATM    3  C7  UNL     1       2.158  -0.560  -0.638  1.00  0.00     0.067 A 
HETATM    4  N3  UNL     1       3.003  -1.026  -1.605  1.00  0.00    -0.298 N 
HETATM    5  N4  UNL     1       4.262  -1.228  -1.183  1.00  0.00    -0.284 N 
ATOM      6  H4  UNL     1       5.057  -1.566  -1.725  1.00  0.00     0.188 HD
HETATM    7  C8  UNL     1       4.235  -0.886   0.106  1.00  0.00     0.130 A 
HETATM    8  N5  UNL     1       5.294  -0.932   0.948  1.00  0.00    -0.368 N 
HETATM    9  C13 UNL     1       2.938  -0.457   0.505  1.00  0.00     0.052 A 
HETATM   10  C14 UNL     1       2.329  -0.007   1.677  1.00  0.00     0.107 A 
HETATM   11  N6  UNL     1       1.011   0.326   1.683  1.00  0.00    -0.351 N 
ATOM     12  H6  UNL     1       0.571   0.656   2.542  1.00  0.00     0.166 HD
HETATM   13  H10 UNL     1       2.783  -1.225  -2.574  1.00  0.00     0.187 HD
HETATM   14  H11 UNL     1       5.257  -0.406   1.813  1.00  0.00     0.161 HD
ENDROOT
BRANCH   1  15
HETATM   15  N2  UNL     1      -1.053   0.582   0.718  1.00  0.00    -0.295 N 
HETATM   16  C4  UNL     1      -2.037   0.686  -0.229  1.00  0.00     0.322 C 
HETATM   17  N1  UNL     1      -3.247   1.002   0.352  1.00  0.00    -0.332 N 
HETATM   18  O2  UNL     1      -1.895   0.536  -1.436  1.00  0.00    -0.247 OA
HETATM   19  H7  UNL     1      -3.361   0.700   1.305  1.00  0.00     0.165 HD
HETATM   20  H8  UNL     1      -1.245   0.918   1.648  1.00  0.00     0.172 HD
BRANCH  17  21
HETATM   21  C3  UNL     1      -4.468   1.071  -0.451  1.00  0.00     0.143 C 
BRANCH  21  22
HETATM   22  C2  UNL     1      -5.452   2.123   0.112  1.00  0.00     0.197 C 
BRANCH  22  23
HETATM   23  O1  UNL     1      -4.917   3.442  -0.065  1.00  0.00    -0.394 OA
HETATM   24  C1  UNL     1      -5.813   4.440   0.404  1.00  0.00     0.201 C 
ENDBRANCH  22  23
ENDBRANCH  21  22
BRANCH  21  25
HETATM   25  C15 UNL     1      -5.092  -0.315  -0.544  1.00  0.00    -0.033 A 
HETATM   26  C16 UNL     1      -5.824  -0.879   0.514  1.00  0.00     0.009 A 
HETATM   27  C17 UNL     1      -6.369  -2.160   0.399  1.00  0.00     0.001 A 
HETATM   28  C18 UNL     1      -6.181  -2.899  -0.767  1.00  0.00     0.000 A 
HETATM   29  C19 UNL     1      -5.440  -2.362  -1.817  1.00  0.00     0.001 A 
HETATM   30  C20 UNL     1      -4.897  -1.081  -1.705  1.00  0.00     0.009 A 
ENDBRANCH  21  25
ENDBRANCH  17  21
ENDBRANCH   1  15
BRANCH   8  31
HETATM   31  C9  UNL     1       6.638  -1.150   0.428  1.00  0.00     0.109 C 
HETATM   32  C10 UNL     1       7.269   0.136  -0.062  1.00  0.00     0.053 C 
HETATM   33  C11 UNL     1       8.742  -0.169   0.075  1.00  0.00     0.169 C 
HETATM   34  O3  UNL     1       8.877  -0.946   1.270  1.00  0.00    -0.389 OA
HETATM   35  C12 UNL     1       7.616  -1.594   1.518  1.00  0.00     0.192 C 
ENDBRANCH   8  31
TORSDOF 6
