REMARK  8 active torsions:
REMARK  status: ('A' for Active; 'I' for Inactive)
REMARK    1  A    between atoms: O1_2  and  C2_3 
REMARK    2  A    between atoms: C2_3  and  C3_4 
REMARK    3  A    between atoms: C3_4  and  N1_5 
REMARK    4  A    between atoms: C3_4  and  C18_28 
REMARK       I    between atoms: N1_5  and  C4_6 
REMARK       I    between atoms: C4_6  and  N2_8 
REMARK    5  A    between atoms: N2_8  and  C5_9 
REMARK    6  A    between atoms: C8_15  and  O3_16 
REMARK    7  A    between atoms: O3_16  and  C9_17 
REMARK    8  A    between atoms: C9_17  and  C10_18 
ROOT
HETATM    1  C5  UNL     1       0.131  -0.139   0.158  1.00  0.00     0.111 A 
HETATM    2  C6  UNL     1       0.621   0.235  -1.088  1.00  0.00     0.080 A 
HETATM    3  C7  UNL     1       2.010   0.210  -1.211  1.00  0.00     0.067 A 
HETATM    4  N3  UNL     1       2.846   0.505  -2.255  1.00  0.00    -0.298 N 
HETATM    5  N4  UNL     1       4.154   0.353  -1.971  1.00  0.00    -0.279 N 
ATOM      6  H4  UNL     1       4.958   0.509  -2.580  1.00  0.00     0.189 HD
HETATM    7  C8  UNL     1       4.142  -0.052  -0.698  1.00  0.00     0.171 A 
HETATM    8  C16 UNL     1       2.843  -0.163  -0.165  1.00  0.00     0.060 A 
HETATM    9  C17 UNL     1       2.271  -0.527   1.050  1.00  0.00     0.108 A 
HETATM   10  N5  UNL     1       0.918  -0.513   1.195  1.00  0.00    -0.351 N 
ATOM     11  H5  UNL     1       0.497  -0.784   2.084  1.00  0.00     0.166 HD
HETATM   12  H10 UNL     1       2.587   0.815  -3.185  1.00  0.00     0.187 HD
ENDROOT
BRANCH   1  13
HETATM   13  N2  UNL     1      -1.229  -0.183   0.468  1.00  0.00    -0.295 N 
HETATM   14  C4  UNL     1      -2.289   0.226  -0.294  1.00  0.00     0.322 C 
HETATM   15  N1  UNL     1      -3.483  -0.024   0.349  1.00  0.00    -0.332 N 
HETATM   16  O2  UNL     1      -2.230   0.760  -1.394  1.00  0.00    -0.247 OA
HETATM   17  H7  UNL     1      -3.472  -0.863   0.910  1.00  0.00     0.165 HD
HETATM   18  H8  UNL     1      -1.398  -0.445   1.426  1.00  0.00     0.172 HD
BRANCH  15  19
HETATM   19  C3  UNL     1      -4.759   0.245  -0.317  1.00  0.00     0.143 C 
BRANCH  19  20
HETATM   20  C2  UNL     1      -5.043   1.756  -0.499  1.00  0.00     0.197 C 
BRANCH  20  21
HETATM   21  O1  UNL     1      -6.154   1.943  -1.388  1.00  0.00    -0.394 OA
HETATM   22  C1  UNL     1      -6.442   3.321  -1.580  1.00  0.00     0.201 C 
ENDBRANCH  20  21
ENDBRANCH  19  20
BRANCH  19  23
HETATM   23  C18 UNL     1      -5.878  -0.437   0.465  1.00  0.00    -0.033 A 
HETATM   24  C19 UNL     1      -6.073  -0.186   1.834  1.00  0.00     0.009 A 
HETATM   25  C20 UNL     1      -7.096  -0.826   2.536  1.00  0.00     0.001 A 
HETATM   26  C21 UNL     1      -7.937  -1.721   1.880  1.00  0.00     0.000 A 
HETATM   27  C22 UNL     1      -7.760  -1.976   0.522  1.00  0.00     0.001 A 
HETATM   28  C23 UNL     1      -6.737  -1.338  -0.182  1.00  0.00     0.009 A 
ENDBRANCH  19  23
ENDBRANCH  15  19
ENDBRANCH   1  13
BRANCH   7  29
HETATM   29  O3  UNL     1       5.287  -0.317  -0.033  1.00  0.00    -0.330 OA
BRANCH  29  30
HETATM   30  C9  UNL     1       6.471  -0.133  -0.805  1.00  0.00     0.216 C 
BRANCH  30  31
HETATM   31  C10 UNL     1       7.651  -0.463   0.078  1.00  0.00    -0.034 A 
HETATM   32  C11 UNL     1       8.095  -1.787   0.206  1.00  0.00     0.009 A 
HETATM   33  C12 UNL     1       9.174  -2.095   1.036  1.00  0.00     0.001 A 
HETATM   34  C13 UNL     1       9.814  -1.085   1.752  1.00  0.00     0.000 A 
HETATM   35  C14 UNL     1       9.373   0.233   1.644  1.00  0.00     0.001 A 
HETATM   36  C15 UNL     1       8.293   0.543   0.814  1.00  0.00     0.009 A 
ENDBRANCH  30  31
ENDBRANCH  29  30
ENDBRANCH   7  29
TORSDOF 8
