REMARK  5 active torsions:
REMARK  status: ('A' for Active; 'I' for Inactive)
REMARK    1  A    between atoms: C2_2  and  C3_3 
REMARK       I    between atoms: C3_3  and  N1_5 
REMARK    2  A    between atoms: N1_5  and  C4_6 
REMARK    3  A    between atoms: C9_11  and  N2_12 
REMARK    4  A    between atoms: N2_12  and  C10_13 
REMARK    5  A    between atoms: C11_16  and  N4_17 
ROOT
HETATM    1  C10 UNL     1       0.003  -1.526   0.401  1.00  0.00     0.124 A 
HETATM    2  N3  UNL     1      -0.949  -0.603   0.142  1.00  0.00    -0.179 N 
ATOM      3  H3  UNL     1      -0.727   0.233  -0.399  1.00  0.00     0.185 HD
HETATM    4  C11 UNL     1      -2.192  -0.804   0.609  1.00  0.00     0.684 A 
HETATM    5  N7  UNL     1      -2.539  -1.879   1.332  1.00  0.00    -0.200 N 
ATOM      6  H7  UNL     1      -3.495  -2.011   1.663  1.00  0.00     0.183 HD
HETATM    7  C16 UNL     1      -1.572  -2.776   1.603  1.00  0.00     0.133 A 
HETATM    8  C17 UNL     1      -0.275  -2.648   1.171  1.00  0.00     0.089 A 
HETATM    9 CL1  UNL     1       0.905  -3.835   1.562  1.00  0.00    -0.079 Cl
ENDROOT
BRANCH   1  10
HETATM   10  N2  UNL     1       1.342  -1.285  -0.023  1.00  0.00    -0.241 NA
HETATM   11  H9  UNL     1       1.763  -2.186  -0.262  1.00  0.00     0.135 HD
BRANCH  10  12
HETATM   12  C9  UNL     1       1.740  -0.360  -1.036  1.00  0.00     0.041 A 
HETATM   13  C4  UNL     1       3.012   0.254  -0.933  1.00  0.00     0.056 A 
HETATM   14  C5  UNL     1       3.481   1.054  -1.977  1.00  0.00     0.031 A 
HETATM   15  C6  UNL     1       2.707   1.240  -3.125  1.00  0.00     0.002 A 
HETATM   16  C7  UNL     1       1.466   0.622  -3.242  1.00  0.00     0.002 A 
HETATM   17  C8  UNL     1       0.990  -0.186  -2.209  1.00  0.00     0.026 A 
BRANCH  13  18
HETATM   18  N1  UNL     1       3.728   0.028   0.266  1.00  0.00    -0.322 N 
HETATM   19  C3  UNL     1       4.988   0.474   0.595  1.00  0.00     0.244 C 
HETATM   20  O1  UNL     1       5.756   1.113  -0.111  1.00  0.00    -0.268 OA
HETATM   21  H4  UNL     1       3.204  -0.503   0.951  1.00  0.00     0.169 HD
BRANCH  19  22
HETATM   22  C2  UNL     1       5.368   0.071   1.981  1.00  0.00     0.064 C 
HETATM   23  C1  UNL     1       6.574   0.382   2.476  1.00  0.00     0.017 C 
ENDBRANCH  19  22
ENDBRANCH  13  18
ENDBRANCH  10  12
ENDBRANCH   1  10
BRANCH   4  24
HETATM   24  N4  UNL     1      -3.105   0.201   0.285  1.00  0.00    -0.175 N 
HETATM   25  C12 UNL     1      -4.418   0.289   0.602  1.00  0.00     0.138 A 
HETATM   26  C13 UNL     1      -5.279  -0.539   1.291  1.00  0.00     0.069 A 
HETATM   27  N6  UNL     1      -5.188   1.370   0.230  1.00  0.00    -0.281 N 
HETATM   28  C14 UNL     1      -6.522   0.119   1.278  1.00  0.00     0.111 A 
HETATM   29  N5  UNL     1      -6.474   1.283   0.630  1.00  0.00    -0.308 N 
ATOM     30  H5  UNL     1      -7.230   1.950   0.474  1.00  0.00     0.186 HD
HETATM   31  C15 UNL     1      -4.765   2.533  -0.513  1.00  0.00     0.179 C 
HETATM   32  H10 UNL     1      -2.607   0.914  -0.235  1.00  0.00     0.186 HD
ENDBRANCH   4  24
TORSDOF 5
