REMARK  6 active torsions:
REMARK  status: ('A' for Active; 'I' for Inactive)
REMARK       I    between atoms: C1_2  and  N1_3 
REMARK    1  A    between atoms: C1_2  and  C13_19 
REMARK    2  A    between atoms: N1_3  and  C2_4 
REMARK    3  A    between atoms: C2_4  and  C3_5 
REMARK    4  A    between atoms: C2_4  and  C9_13 
REMARK    5  A    between atoms: C18_26  and  N4_27 
REMARK    6  A    between atoms: N4_27  and  C19_28 
ROOT
HETATM    1  C13 UNL     1      -0.469   1.076   1.938  1.00  0.00     0.034 A 
HETATM    2  C14 UNL     1       0.091   1.667   3.073  1.00  0.00     0.018 A 
HETATM    3  C15 UNL     1       1.476   1.738   3.201  1.00  0.00     0.016 A 
HETATM    4  C16 UNL     1       2.296   1.230   2.179  1.00  0.00     0.006 A 
HETATM    5  C17 UNL     1       3.679   1.271   2.208  1.00  0.00     0.104 A 
HETATM    6  N3  UNL     1       4.463   0.808   1.219  1.00  0.00    -0.342 N 
ATOM      7  H3  UNL     1       5.480   0.848   1.280  1.00  0.00     0.167 HD
HETATM    8  C18 UNL     1       3.843   0.292   0.151  1.00  0.00     0.157 A 
HETATM    9  N5  UNL     1       2.512   0.183   0.036  1.00  0.00    -0.332 N 
ATOM     10  H5  UNL     1       2.091  -0.245  -0.789  1.00  0.00     0.168 HD
HETATM   11  C24 UNL     1       1.750   0.651   1.032  1.00  0.00     0.047 A 
HETATM   12  C25 UNL     1       0.366   0.578   0.929  1.00  0.00     0.047 A 
ENDROOT
BRANCH   1  13
HETATM   13  C1  UNL     1      -1.951   1.051   1.809  1.00  0.00     0.252 C 
HETATM   14  O1  UNL     1      -2.628   1.875   2.409  1.00  0.00    -0.268 OA
HETATM   15  N1  UNL     1      -2.481   0.052   1.011  1.00  0.00    -0.345 N 
HETATM   16  H1  UNL     1      -1.944  -0.808   0.994  1.00  0.00     0.163 HD
BRANCH  15  17
HETATM   17  C2  UNL     1      -3.938  -0.136   0.931  1.00  0.00     0.159 C 
BRANCH  17  18
HETATM   18  C3  UNL     1      -4.617   1.042   0.235  1.00  0.00    -0.030 A 
HETATM   19  C4  UNL     1      -5.831   1.546   0.733  1.00  0.00     0.012 A 
HETATM   20  C5  UNL     1      -6.460   2.631   0.117  1.00  0.00     0.044 A 
HETATM   21  C6  UNL     1      -5.879   3.230  -0.994  1.00  0.00     0.138 A 
HETATM   22  F1  UNL     1      -6.503   4.273  -1.560  1.00  0.00    -0.204 F 
HETATM   23  C7  UNL     1      -4.672   2.757  -1.499  1.00  0.00     0.073 A 
HETATM   24 CL1  UNL     1      -3.947   3.492  -2.873  1.00  0.00    -0.081 Cl
HETATM   25  C8  UNL     1      -4.042   1.671  -0.888  1.00  0.00     0.036 A 
ENDBRANCH  17  18
BRANCH  17  26
HETATM   26  C9  UNL     1      -4.274  -1.523   0.328  1.00  0.00     0.155 C 
HETATM   27  F2  UNL     1      -3.462  -2.430   0.987  1.00  0.00    -0.238 F 
HETATM   28  C10 UNL     1      -5.714  -2.004   0.523  1.00  0.00     0.078 C 
HETATM   29  C11 UNL     1      -6.117  -2.610  -0.817  1.00  0.00     0.273 C 
HETATM   30  N2  UNL     1      -4.870  -2.837  -1.538  1.00  0.00     0.086 N 
HETATM   31  C12 UNL     1      -4.017  -1.700  -1.171  1.00  0.00     0.315 C 
HETATM   32  H10 UNL     1      -5.031  -2.871  -2.543  1.00  0.00     0.316 HD
ENDBRANCH  17  26
ENDBRANCH  15  17
ENDBRANCH   1  13
BRANCH   8  33
HETATM   33  N4  UNL     1       4.568  -0.177  -0.931  1.00  0.00    -0.259 NA
HETATM   34  H16 UNL     1       3.941  -0.774  -1.460  1.00  0.00     0.131 HD
BRANCH  33  35
HETATM   35  C19 UNL     1       5.906  -0.697  -0.667  1.00  0.00     0.067 C 
HETATM   36  C20 UNL     1       6.948   0.419  -0.796  1.00  0.00     0.046 C 
HETATM   37  C21 UNL     1       8.354  -0.157  -0.690  1.00  0.00     0.169 C 
HETATM   38  O2  UNL     1       8.566  -1.178  -1.665  1.00  0.00    -0.391 OA
HETATM   39  C22 UNL     1       7.666  -2.273  -1.509  1.00  0.00     0.169 C 
HETATM   40  C23 UNL     1       6.224  -1.811  -1.673  1.00  0.00     0.046 C 
ENDBRANCH  33  35
ENDBRANCH   8  33
TORSDOF 6
