REMARK  7 active torsions:
REMARK  status: ('A' for Active; 'I' for Inactive)
REMARK    1  A    between atoms: O1_2  and  C2_3 
REMARK    2  A    between atoms: C2_3  and  C3_4 
REMARK    3  A    between atoms: C3_4  and  O2_5 
REMARK    4  A    between atoms: O2_5  and  C4_6 
REMARK    5  A    between atoms: C7_12  and  N3_13 
REMARK       I    between atoms: N3_13  and  C8_14 
REMARK       I    between atoms: C8_14  and  N4_16 
REMARK    6  A    between atoms: N4_16  and  C9_17 
REMARK    7  A    between atoms: C9_17  and  C10_18 
ROOT
HETATM    1  C4  UNL     1       3.898  -0.420   0.904  1.00  0.00     0.171 A 
HETATM    2  N1  UNL     1       3.906   0.601   1.764  1.00  0.00    -0.279 N 
ATOM      3  H1  UNL     1       4.707   1.111   2.136  1.00  0.00     0.189 HD
HETATM    4  N2  UNL     1       2.597   0.794   2.021  1.00  0.00    -0.298 N 
HETATM    5  C5  UNL     1       1.764  -0.057   1.345  1.00  0.00     0.067 A 
HETATM    6  C6  UNL     1       0.376  -0.185   1.321  1.00  0.00     0.080 A 
HETATM    7  C7  UNL     1      -0.111  -1.192   0.494  1.00  0.00     0.111 A 
HETATM    8  N5  UNL     1       0.680  -2.001  -0.252  1.00  0.00    -0.351 N 
ATOM      9  H5  UNL     1       0.262  -2.718  -0.845  1.00  0.00     0.166 HD
HETATM   10  C16 UNL     1       2.032  -1.856  -0.209  1.00  0.00     0.108 A 
HETATM   11  C17 UNL     1       2.601  -0.874   0.596  1.00  0.00     0.060 A 
HETATM   12  H8  UNL     1       2.335   1.529   2.670  1.00  0.00     0.187 HD
ENDROOT
BRANCH   7  13
HETATM   13  N3  UNL     1      -1.469  -1.468   0.335  1.00  0.00    -0.295 N 
HETATM   14  C8  UNL     1      -2.535  -0.910   0.990  1.00  0.00     0.322 C 
HETATM   15  O3  UNL     1      -2.478  -0.077   1.885  1.00  0.00    -0.247 OA
HETATM   16  N4  UNL     1      -3.726  -1.427   0.527  1.00  0.00    -0.339 N 
HETATM   17  H11 UNL     1      -3.722  -1.775  -0.420  1.00  0.00     0.164 HD
HETATM   18  H10 UNL     1      -1.634  -2.249  -0.279  1.00  0.00     0.172 HD
BRANCH  16  19
HETATM   19  C9  UNL     1      -4.995  -0.921   1.003  1.00  0.00     0.162 C 
BRANCH  19  20
HETATM   20  C10 UNL     1      -5.560   0.100   0.049  1.00  0.00    -0.040 A 
HETATM   21  C11 UNL     1      -6.503  -0.270  -0.922  1.00  0.00     0.009 A 
HETATM   22  C12 UNL     1      -7.004   0.677  -1.817  1.00  0.00     0.001 A 
HETATM   23  C13 UNL     1      -6.565   1.998  -1.755  1.00  0.00     0.000 A 
HETATM   24  C14 UNL     1      -5.623   2.375  -0.800  1.00  0.00     0.001 A 
HETATM   25  C15 UNL     1      -5.121   1.431   0.096  1.00  0.00     0.009 A 
ENDBRANCH  19  20
ENDBRANCH  16  19
ENDBRANCH   7  13
BRANCH   1  26
HETATM   26  O2  UNL     1       5.045  -0.917   0.389  1.00  0.00    -0.332 OA
BRANCH  26  27
HETATM   27  C3  UNL     1       6.253  -0.347   0.908  1.00  0.00     0.203 C 
BRANCH  27  28
HETATM   28  C2  UNL     1       6.620   0.974   0.223  1.00  0.00     0.193 C 
BRANCH  28  29
HETATM   29  O1  UNL     1       7.252   0.783  -1.052  1.00  0.00    -0.394 OA
HETATM   30  C1  UNL     1       6.347   0.389  -2.075  1.00  0.00     0.201 C 
ENDBRANCH  28  29
ENDBRANCH  27  28
ENDBRANCH  26  27
ENDBRANCH   1  26
TORSDOF 7
