REMARK  7 active torsions:
REMARK  status: ('A' for Active; 'I' for Inactive)
REMARK       I    between atoms: C1_2  and  N1_3 
REMARK    1  A    between atoms: C1_2  and  C8_12 
REMARK    2  A    between atoms: N1_3  and  C2_4 
REMARK    3  A    between atoms: C5_7  and  O2_8 
REMARK    4  A    between atoms: N2_15  and  C11_16 
REMARK    5  A    between atoms: C11_16  and  C12_17 
REMARK       I    between atoms: C12_17  and  N3_19 
REMARK    6  A    between atoms: N4_22  and  C15_23 
REMARK    7  A    between atoms: C18_26  and  C19_27 
ROOT
HETATM    1  C12 UNL     1       0.340   1.375  -1.417  1.00  0.00     0.248 C 
HETATM    2  O3  UNL     1       0.497   1.769  -2.574  1.00  0.00    -0.271 OA
HETATM    3  N3  UNL     1       1.168   1.821  -0.385  1.00  0.00    -0.348 N 
HETATM    4  C13 UNL     1       1.332   1.147   0.907  1.00  0.00     0.145 C 
HETATM    5  C14 UNL     1       2.640   0.323   0.941  1.00  0.00     0.143 C 
HETATM    6  N4  UNL     1       3.800   1.177   0.569  1.00  0.00    -0.378 N 
HETATM    7  C24 UNL     1       3.619   1.872  -0.732  1.00  0.00     0.143 C 
HETATM    8  C25 UNL     1       2.307   2.682  -0.725  1.00  0.00     0.145 C 
ENDROOT
BRANCH   1   9
HETATM    9  C11 UNL     1      -0.790   0.403  -1.009  1.00  0.00     0.374 C 
BRANCH   9  10
HETATM   10  N2  UNL     1      -1.725   0.109  -2.116  1.00  0.00     0.098 N 
HETATM   11  C10 UNL     1      -2.581   1.255  -2.455  1.00  0.00     0.274 C 
HETATM   12  C9  UNL     1      -3.840   1.134  -1.598  1.00  0.00     0.046 C 
HETATM   13  C8  UNL     1      -3.780  -0.262  -0.979  1.00  0.00     0.108 C 
HETATM   14  C26 UNL     1      -2.678  -0.958  -1.767  1.00  0.00     0.287 C 
BRANCH  13  15
HETATM   15  C1  UNL     1      -5.102  -1.016  -1.016  1.00  0.00     0.228 C 
HETATM   16  O1  UNL     1      -5.208  -2.109  -1.559  1.00  0.00    -0.273 OA
HETATM   17  N1  UNL     1      -6.102  -0.352  -0.320  1.00  0.00    -0.327 N 
HETATM   18  H1  UNL     1      -5.847   0.527   0.113  1.00  0.00     0.169 HD
BRANCH  17  19
HETATM   19  C2  UNL     1      -7.423  -0.790  -0.088  1.00  0.00     0.036 A 
HETATM   20  C3  UNL     1      -8.233   0.036   0.707  1.00  0.00     0.032 A 
HETATM   21  C4  UNL     1      -9.551  -0.321   0.997  1.00  0.00     0.040 A 
HETATM   22  C5  UNL     1     -10.069  -1.501   0.482  1.00  0.00     0.087 A 
HETATM   23  C6  UNL     1      -9.276  -2.331  -0.311  1.00  0.00     0.069 A 
HETATM   24 CL1  UNL     1      -9.925  -3.793  -0.953  1.00  0.00    -0.081 Cl
HETATM   25  C7  UNL     1      -7.957  -1.975  -0.601  1.00  0.00     0.056 A 
BRANCH  22  26
HETATM   26  O2  UNL     1     -11.367  -1.807   0.786  1.00  0.00    -0.359 OA
HETATM   27  H4  UNL     1     -11.576  -2.646   0.335  1.00  0.00     0.217 HD
ENDBRANCH  22  26
ENDBRANCH  17  19
ENDBRANCH  13  15
ENDBRANCH   9  10
ENDBRANCH   1   9
BRANCH   6  28
HETATM   28  C15 UNL     1       5.047   0.588   0.831  1.00  0.00     0.030 A 
HETATM   29  C16 UNL     1       5.381   0.227   2.146  1.00  0.00     0.030 A 
HETATM   30  C17 UNL     1       6.624  -0.340   2.470  1.00  0.00     0.016 A 
HETATM   31  C18 UNL     1       7.589  -0.566   1.483  1.00  0.00    -0.002 A 
HETATM   32  C22 UNL     1       7.268  -0.195   0.170  1.00  0.00     0.016 A 
HETATM   33  C23 UNL     1       6.023   0.370  -0.148  1.00  0.00     0.030 A 
BRANCH  31  34
HETATM   34  C19 UNL     1       8.921  -1.138   1.761  1.00  0.00     0.084 A 
HETATM   35  N5  UNL     1       9.959  -1.019   0.951  1.00  0.00    -0.359 N 
HETATM   36  C20 UNL     1      11.067  -1.646   1.487  1.00  0.00     0.096 A 
ATOM     37  H5  UNL     1       9.944  -0.532   0.055  1.00  0.00     0.166 HD
HETATM   38  C21 UNL     1      10.868  -2.261   2.702  1.00  0.00     0.069 A 
HETATM   39  S1  UNL     1       9.240  -2.056   3.191  1.00  0.00    -0.082 SA
ENDBRANCH  31  34
ENDBRANCH   6  28
TORSDOF 7
