REMARK  7 active torsions:
REMARK  status: ('A' for Active; 'I' for Inactive)
REMARK    1  A    between atoms: C2_2  and  N1_3 
REMARK    2  A    between atoms: C2_2  and  C17_27 
REMARK       I    between atoms: N1_3  and  C3_4 
REMARK       I    between atoms: C3_4  and  N2_6 
REMARK    3  A    between atoms: N2_6  and  C4_7 
REMARK    4  A    between atoms: C7_13  and  O2_14 
REMARK    5  A    between atoms: O2_14  and  C8_15 
REMARK    6  A    between atoms: C8_15  and  C9_16 
REMARK    7  A    between atoms: C9_16  and  C10_17 
ROOT
HETATM    1  C4  UNL     1       1.620   0.165   0.593  1.00  0.00     0.111 A 
HETATM    2  C5  UNL     1       1.131  -0.758   1.512  1.00  0.00     0.080 A 
HETATM    3  C6  UNL     1      -0.249  -0.721   1.711  1.00  0.00     0.067 A 
HETATM    4  N3  UNL     1      -1.081  -1.449   2.519  1.00  0.00    -0.298 N 
HETATM    5  N4  UNL     1      -2.379  -1.100   2.428  1.00  0.00    -0.279 N 
ATOM      6  H4  UNL     1      -3.177  -1.487   2.932  1.00  0.00     0.189 HD
HETATM    7  C7  UNL     1      -2.367  -0.124   1.517  1.00  0.00     0.171 A 
HETATM    8  C15 UNL     1      -1.076   0.167   1.036  1.00  0.00     0.060 A 
HETATM    9  C16 UNL     1      -0.505   1.054   0.127  1.00  0.00     0.108 A 
HETATM   10  N6  UNL     1       0.838   1.041  -0.083  1.00  0.00    -0.351 N 
ATOM     11  H6  UNL     1       1.257   1.690  -0.749  1.00  0.00     0.166 HD
HETATM   12  H8  UNL     1      -0.825  -2.192   3.160  1.00  0.00     0.187 HD
ENDROOT
BRANCH   1  13
HETATM   13  N2  UNL     1       2.970   0.276   0.260  1.00  0.00    -0.295 N 
HETATM   14  C3  UNL     1       4.041  -0.375   0.810  1.00  0.00     0.322 C 
HETATM   15  N1  UNL     1       5.213  -0.016   0.179  1.00  0.00    -0.335 N 
HETATM   16  O1  UNL     1       4.008  -1.168   1.742  1.00  0.00    -0.247 OA
HETATM   17  H5  UNL     1       5.111   0.210  -0.800  1.00  0.00     0.165 HD
HETATM   18  H6  UNL     1       3.146   1.025  -0.391  1.00  0.00     0.172 HD
BRANCH  15  19
HETATM   19  C2  UNL     1       6.480  -0.634   0.548  1.00  0.00     0.115 C 
HETATM   20  C1  UNL     1       6.995  -0.117   1.895  1.00  0.00     0.037 C 
BRANCH  19  21
HETATM   21  C17 UNL     1       7.497  -0.404  -0.558  1.00  0.00    -0.036 A 
HETATM   22  C18 UNL     1       7.938   0.888  -0.892  1.00  0.00     0.009 A 
HETATM   23  C19 UNL     1       8.861   1.082  -1.921  1.00  0.00     0.001 A 
HETATM   24  C20 UNL     1       9.351  -0.011  -2.634  1.00  0.00     0.000 A 
HETATM   25  C21 UNL     1       8.918  -1.297  -2.319  1.00  0.00     0.001 A 
HETATM   26  C22 UNL     1       7.996  -1.493  -1.289  1.00  0.00     0.009 A 
ENDBRANCH  19  21
ENDBRANCH  15  19
ENDBRANCH   1  13
BRANCH   7  27
HETATM   27  O2  UNL     1      -3.503   0.509   1.149  1.00  0.00    -0.334 OA
BRANCH  27  28
HETATM   28  C8  UNL     1      -4.701  -0.094   1.640  1.00  0.00     0.179 C 
BRANCH  28  29
HETATM   29  C9  UNL     1      -5.902   0.704   1.124  1.00  0.00     0.062 C 
BRANCH  29  30
HETATM   30  C10 UNL     1      -6.061   0.669  -0.412  1.00  0.00     0.222 C 
HETATM   31  C11 UNL     1      -7.133   1.685  -0.874  1.00  0.00     0.036 C 
HETATM   32  C12 UNL     1      -8.517   1.053  -0.963  1.00  0.00     0.004 C 
HETATM   33  C13 UNL     1      -8.509  -0.164  -1.892  1.00  0.00     0.030 C 
HETATM   34  C14 UNL     1      -7.105  -0.730  -2.110  1.00  0.00     0.270 C 
HETATM   35  N5  UNL     1      -6.336  -0.708  -0.869  1.00  0.00     0.088 N 
HETATM   36  H22 UNL     1      -6.863  -1.211  -0.155  1.00  0.00     0.316 HD
ENDBRANCH  29  30
ENDBRANCH  28  29
ENDBRANCH  27  28
ENDBRANCH   7  27
TORSDOF 7
