REMARK  7 active torsions:
REMARK  status: ('A' for Active; 'I' for Inactive)
REMARK    1  A    between atoms: O1_2  and  C2_3 
REMARK    2  A    between atoms: C2_3  and  C3_4 
REMARK    3  A    between atoms: C3_4  and  N1_5 
REMARK    4  A    between atoms: C3_4  and  C18_29 
REMARK       I    between atoms: N1_5  and  C4_6 
REMARK       I    between atoms: C4_6  and  N2_8 
REMARK    5  A    between atoms: N2_8  and  C5_9 
REMARK    6  A    between atoms: C8_15  and  O3_16 
REMARK    7  A    between atoms: O3_16  and  C9_17 
ROOT
HETATM    1  C9  UNL     1       5.942  -0.521   0.081  1.00  0.00     0.130 C 
HETATM    2  C10 UNL     1       6.926  -1.698   0.042  1.00  0.00     0.034 C 
HETATM    3  C11 UNL     1       8.374  -1.246   0.233  1.00  0.00     0.021 C 
HETATM    4  C12 UNL     1       8.795  -0.149  -0.753  1.00  0.00     0.093 C 
HETATM    5  C13 UNL     1       8.987  -0.699  -2.110  1.00  0.00     0.064 C 
HETATM    6  N5  UNL     1       9.138  -1.130  -3.177  1.00  0.00    -0.197 NA
HETATM    7  C14 UNL     1       7.784   1.005  -0.764  1.00  0.00     0.021 C 
HETATM    8  C15 UNL     1       6.344   0.532  -0.961  1.00  0.00     0.034 C 
ENDROOT
BRANCH   1   9
HETATM    9  O3  UNL     1       4.650  -1.054  -0.222  1.00  0.00    -0.329 OA
BRANCH   9  10
HETATM   10  C8  UNL     1       3.592  -0.341   0.226  1.00  0.00     0.171 A 
HETATM   11  N4  UNL     1       3.751   0.766   0.954  1.00  0.00    -0.279 N 
HETATM   12  N3  UNL     1       2.486   1.165   1.185  1.00  0.00    -0.298 N 
ATOM     13  H4  UNL     1       4.620   1.204   1.261  1.00  0.00     0.189 HD
HETATM   14  C7  UNL     1       1.534   0.354   0.628  1.00  0.00     0.067 A 
HETATM   15  H10 UNL     1       2.337   2.006   1.733  1.00  0.00     0.187 HD
HETATM   16  C6  UNL     1       0.140   0.413   0.623  1.00  0.00     0.080 A 
HETATM   17  C16 UNL     1       2.239  -0.657  -0.010  1.00  0.00     0.060 A 
HETATM   18  C5  UNL     1      -0.493  -0.616  -0.066  1.00  0.00     0.111 A 
HETATM   19  N6  UNL     1       0.168  -1.617  -0.695  1.00  0.00    -0.351 N 
HETATM   20  C17 UNL     1       1.528  -1.651  -0.676  1.00  0.00     0.108 A 
ATOM     21  H6  UNL     1      -0.354  -2.345  -1.183  1.00  0.00     0.166 HD
BRANCH  18  22
HETATM   22  N2  UNL     1      -1.878  -0.717  -0.196  1.00  0.00    -0.295 N 
HETATM   23  C4  UNL     1      -2.845   0.084   0.346  1.00  0.00     0.322 C 
HETATM   24  N1  UNL     1      -4.102  -0.308  -0.053  1.00  0.00    -0.332 N 
HETATM   25  O2  UNL     1      -2.666   1.032   1.101  1.00  0.00    -0.247 OA
HETATM   26  H7  UNL     1      -4.159  -0.784  -0.942  1.00  0.00     0.165 HD
HETATM   27  H8  UNL     1      -2.158  -1.542  -0.701  1.00  0.00     0.172 HD
BRANCH  24  28
HETATM   28  C3  UNL     1      -5.281   0.467   0.333  1.00  0.00     0.143 C 
BRANCH  28  29
HETATM   29  C2  UNL     1      -5.631   0.269   1.833  1.00  0.00     0.197 C 
BRANCH  29  30
HETATM   30  O1  UNL     1      -6.765   1.025   2.273  1.00  0.00    -0.394 OA
HETATM   31  C1  UNL     1      -6.491   2.413   2.411  1.00  0.00     0.201 C 
ENDBRANCH  29  30
ENDBRANCH  28  29
BRANCH  28  32
HETATM   32  C18 UNL     1      -6.413   0.134  -0.631  1.00  0.00    -0.033 A 
HETATM   33  C19 UNL     1      -7.226  -0.999  -0.475  1.00  0.00     0.009 A 
HETATM   34  C20 UNL     1      -8.227  -1.292  -1.405  1.00  0.00     0.001 A 
HETATM   35  C21 UNL     1      -8.422  -0.465  -2.509  1.00  0.00     0.000 A 
HETATM   36  C22 UNL     1      -7.612   0.654  -2.689  1.00  0.00     0.001 A 
HETATM   37  C23 UNL     1      -6.613   0.950  -1.760  1.00  0.00     0.009 A 
ENDBRANCH  28  32
ENDBRANCH  24  28
ENDBRANCH  18  22
ENDBRANCH   9  10
ENDBRANCH   1   9
TORSDOF 7
