REMARK  8 active torsions:
REMARK  status: ('A' for Active; 'I' for Inactive)
REMARK    1  A    between atoms: O1_2  and  C2_3 
REMARK    2  A    between atoms: C2_3  and  C3_4 
REMARK    3  A    between atoms: C3_4  and  O2_5 
REMARK    4  A    between atoms: O2_5  and  C4_6 
REMARK    5  A    between atoms: C7_12  and  N3_13 
REMARK       I    between atoms: N3_13  and  C8_14 
REMARK       I    between atoms: C8_14  and  N4_16 
REMARK    6  A    between atoms: N4_16  and  C9_17 
REMARK    7  A    between atoms: C9_17  and  C10_18 
REMARK    8  A    between atoms: C10_18  and  C11_19 
ROOT
HETATM    1  C4  UNL     1      -3.899  -0.126   0.756  1.00  0.00     0.171 A 
HETATM    2  N1  UNL     1      -3.978   0.618   1.861  1.00  0.00    -0.279 N 
ATOM      3  H1  UNL     1      -4.771   0.734   2.492  1.00  0.00     0.189 HD
HETATM    4  N2  UNL     1      -2.756   1.178   1.941  1.00  0.00    -0.298 N 
HETATM    5  C5  UNL     1      -1.904   0.803   0.937  1.00  0.00     0.067 A 
HETATM    6  C6  UNL     1      -0.579   1.139   0.659  1.00  0.00     0.080 A 
HETATM    7  C7  UNL     1      -0.044   0.547  -0.480  1.00  0.00     0.111 A 
HETATM    8  N6  UNL     1      -0.733  -0.305  -1.277  1.00  0.00    -0.351 N 
ATOM      9  H6  UNL     1      -0.283  -0.713  -2.096  1.00  0.00     0.166 HD
HETATM   10  C16 UNL     1      -2.024  -0.616  -0.985  1.00  0.00     0.108 A 
HETATM   11  C17 UNL     1      -2.636  -0.062   0.136  1.00  0.00     0.060 A 
HETATM   12  H8  UNL     1      -2.564   1.810   2.711  1.00  0.00     0.187 HD
ENDROOT
BRANCH   7  13
HETATM   13  N3  UNL     1       1.263   0.761  -0.916  1.00  0.00    -0.295 N 
HETATM   14  C8  UNL     1       2.208   1.604  -0.399  1.00  0.00     0.321 C 
HETATM   15  O3  UNL     1       2.068   2.359   0.555  1.00  0.00    -0.247 OA
HETATM   16  N4  UNL     1       3.391   1.514  -1.100  1.00  0.00    -0.342 N 
HETATM   17  H11 UNL     1       3.573   0.642  -1.577  1.00  0.00     0.164 HD
HETATM   18  H10 UNL     1       1.465   0.287  -1.782  1.00  0.00     0.172 HD
BRANCH  16  19
HETATM   19  C9  UNL     1       4.571   2.261  -0.691  1.00  0.00     0.130 C 
BRANCH  19  20
HETATM   20  C10 UNL     1       5.236   1.711   0.574  1.00  0.00     0.076 C 
BRANCH  20  21
HETATM   21  C11 UNL     1       5.699   0.286   0.405  1.00  0.00     0.010 A 
HETATM   22  C12 UNL     1       5.207  -0.720   1.233  1.00  0.00     0.025 A 
HETATM   23  C13 UNL     1       5.657  -2.024   1.048  1.00  0.00     0.003 A 
HETATM   24  C14 UNL     1       6.585  -2.289   0.049  1.00  0.00     0.017 A 
HETATM   25  C15 UNL     1       7.026  -1.233  -0.729  1.00  0.00     0.088 A 
HETATM   26  N5  UNL     1       6.603   0.042  -0.575  1.00  0.00    -0.369 N 
ATOM     27  H5  UNL     1       6.951   0.791  -1.173  1.00  0.00     0.165 HD
ENDBRANCH  20  21
ENDBRANCH  19  20
ENDBRANCH  16  19
ENDBRANCH   7  13
BRANCH   1  28
HETATM   28  O2  UNL     1      -4.950  -0.860   0.325  1.00  0.00    -0.332 OA
BRANCH  28  29
HETATM   29  C3  UNL     1      -6.144  -0.694   1.099  1.00  0.00     0.203 C 
BRANCH  29  30
HETATM   30  C2  UNL     1      -7.248  -1.570   0.501  1.00  0.00     0.193 C 
BRANCH  30  31
HETATM   31  O1  UNL     1      -7.930  -0.956  -0.599  1.00  0.00    -0.394 OA
HETATM   32  C1  UNL     1      -7.140  -0.857  -1.776  1.00  0.00     0.201 C 
ENDBRANCH  30  31
ENDBRANCH  29  30
ENDBRANCH  28  29
ENDBRANCH   1  28
TORSDOF 8
