REMARK  6 active torsions:
REMARK  status: ('A' for Active; 'I' for Inactive)
REMARK    1  A    between atoms: O1_2  and  C2_3 
REMARK    2  A    between atoms: C2_3  and  C3_4 
REMARK    3  A    between atoms: C3_4  and  N1_5 
REMARK    4  A    between atoms: C3_4  and  C17_28 
REMARK       I    between atoms: N1_5  and  C4_6 
REMARK       I    between atoms: C4_6  and  N2_8 
REMARK    5  A    between atoms: N2_8  and  C5_9 
REMARK    6  A    between atoms: N5_16  and  C9_17 
ROOT
HETATM    1  C5  UNL     1       0.542  -0.493   0.057  1.00  0.00     0.111 A 
HETATM    2  C6  UNL     1       1.098   0.673  -0.453  1.00  0.00     0.080 A 
HETATM    3  C7  UNL     1       2.492   0.703  -0.477  1.00  0.00     0.067 A 
HETATM    4  N3  UNL     1       3.379   1.653  -0.897  1.00  0.00    -0.298 N 
HETATM    5  N4  UNL     1       4.665   1.312  -0.734  1.00  0.00    -0.284 N 
ATOM      6  H4  UNL     1       5.491   1.871  -0.948  1.00  0.00     0.188 HD
HETATM    7  C8  UNL     1       4.622   0.075  -0.227  1.00  0.00     0.134 A 
HETATM    8  N5  UNL     1       5.691  -0.691   0.116  1.00  0.00    -0.339 N 
HETATM    9  C15 UNL     1       3.276  -0.352  -0.032  1.00  0.00     0.053 A 
HETATM   10  C16 UNL     1       2.631  -1.492   0.448  1.00  0.00     0.107 A 
HETATM   11  N6  UNL     1       1.274  -1.546   0.491  1.00  0.00    -0.351 N 
ATOM     12  H6  UNL     1       0.807  -2.379   0.850  1.00  0.00     0.166 HD
HETATM   13  H10 UNL     1       3.172   2.564  -1.292  1.00  0.00     0.187 HD
HETATM   14  H11 UNL     1       5.560  -1.391   0.835  1.00  0.00     0.167 HD
ENDROOT
BRANCH   1  15
HETATM   15  N2  UNL     1      -0.833  -0.709   0.161  1.00  0.00    -0.295 N 
HETATM   16  C4  UNL     1      -1.854   0.167  -0.093  1.00  0.00     0.322 C 
HETATM   17  N1  UNL     1      -3.078  -0.440   0.091  1.00  0.00    -0.332 N 
HETATM   18  O2  UNL     1      -1.740   1.339  -0.423  1.00  0.00    -0.247 OA
HETATM   19  H7  UNL     1      -3.087  -1.419  -0.156  1.00  0.00     0.165 HD
HETATM   20  H8  UNL     1      -1.054  -1.598   0.580  1.00  0.00     0.172 HD
BRANCH  17  21
HETATM   21  C3  UNL     1      -4.319   0.273  -0.223  1.00  0.00     0.143 C 
BRANCH  21  22
HETATM   22  C2  UNL     1      -4.616   1.437   0.754  1.00  0.00     0.197 C 
BRANCH  22  23
HETATM   23  O1  UNL     1      -5.680   2.250   0.241  1.00  0.00    -0.394 OA
HETATM   24  C1  UNL     1      -5.971   3.338   1.109  1.00  0.00     0.201 C 
ENDBRANCH  22  23
ENDBRANCH  21  22
BRANCH  21  25
HETATM   25  C17 UNL     1      -5.467  -0.730  -0.254  1.00  0.00    -0.033 A 
HETATM   26  C18 UNL     1      -5.756  -1.547   0.853  1.00  0.00     0.009 A 
HETATM   27  C19 UNL     1      -6.802  -2.469   0.803  1.00  0.00     0.001 A 
HETATM   28  C20 UNL     1      -7.574  -2.587  -0.350  1.00  0.00     0.000 A 
HETATM   29  C21 UNL     1      -7.302  -1.781  -1.455  1.00  0.00     0.001 A 
HETATM   30  C22 UNL     1      -6.256  -0.858  -1.408  1.00  0.00     0.009 A 
ENDBRANCH  21  25
ENDBRANCH  17  21
ENDBRANCH   1  15
BRANCH   8  31
HETATM   31  C9  UNL     1       7.060  -0.385  -0.083  1.00  0.00     0.055 A 
HETATM   32  C10 UNL     1       7.892  -0.337   1.050  1.00  0.00     0.031 A 
HETATM   33  C11 UNL     1       9.237   0.030   0.945  1.00  0.00     0.002 A 
HETATM   34  C12 UNL     1       9.774   0.360  -0.296  1.00  0.00     0.002 A 
HETATM   35  C13 UNL     1       8.969   0.314  -1.433  1.00  0.00     0.026 A 
HETATM   36  C14 UNL     1       7.621  -0.054  -1.332  1.00  0.00     0.060 A 
HETATM   37 CL1  UNL     1       6.740  -0.206  -2.816  1.00  0.00    -0.082 Cl
ENDBRANCH   8  31
TORSDOF 6
