REMARK  5 active torsions:
REMARK  status: ('A' for Active; 'I' for Inactive)
REMARK    1  A    between atoms: C4_4  and  C5_5 
REMARK    2  A    between atoms: C8_11  and  N3_12 
REMARK       I    between atoms: N3_12  and  C9_13 
REMARK       I    between atoms: C9_13  and  N4_15 
REMARK    3  A    between atoms: N4_15  and  C10_16 
REMARK    4  A    between atoms: C10_16  and  C11_17 
REMARK    5  A    between atoms: C11_17  and  C12_18 
ROOT
HETATM    1  C5  UNL     1       4.736   0.862   0.565  1.00  0.00     0.072 A 
HETATM    2  N1  UNL     1       4.806   1.845   1.480  1.00  0.00    -0.299 N 
ATOM      3  H1  UNL     1       5.573   2.499   1.637  1.00  0.00     0.187 HD
HETATM    4  N2  UNL     1       3.641   1.773   2.140  1.00  0.00    -0.299 N 
HETATM    5  C6  UNL     1       2.795   0.806   1.679  1.00  0.00     0.065 A 
HETATM    6  C7  UNL     1       1.515   0.419   2.073  1.00  0.00     0.080 A 
HETATM    7  C8  UNL     1       0.951  -0.628   1.347  1.00  0.00     0.111 A 
HETATM    8  N7  UNL     1       1.580  -1.222   0.315  1.00  0.00    -0.351 N 
ATOM      9  H7  UNL     1       1.116  -1.975  -0.193  1.00  0.00     0.166 HD
HETATM   10  C20 UNL     1       2.825  -0.830  -0.056  1.00  0.00     0.105 A 
HETATM   11  C21 UNL     1       3.475   0.194   0.634  1.00  0.00     0.036 A 
HETATM   12  H5  UNL     1       3.483   2.424   2.900  1.00  0.00     0.187 HD
ENDROOT
BRANCH   7  13
HETATM   13  N3  UNL     1      -0.332  -1.034   1.729  1.00  0.00    -0.295 N 
HETATM   14  C9  UNL     1      -1.039  -2.090   1.206  1.00  0.00     0.321 C 
HETATM   15  O1  UNL     1      -0.671  -2.902   0.368  1.00  0.00    -0.247 OA
HETATM   16  N4  UNL     1      -2.297  -2.152   1.784  1.00  0.00    -0.342 N 
HETATM   17  H8  UNL     1      -2.713  -1.248   1.989  1.00  0.00     0.164 HD
HETATM   18  H7  UNL     1      -0.758  -0.573   2.515  1.00  0.00     0.172 HD
BRANCH  16  19
HETATM   19  C10 UNL     1      -3.282  -3.094   1.277  1.00  0.00     0.132 C 
BRANCH  19  20
HETATM   20  C11 UNL     1      -3.901  -2.638  -0.050  1.00  0.00     0.096 C 
BRANCH  20  21
HETATM   21  C12 UNL     1      -4.594  -1.309   0.066  1.00  0.00     0.085 A 
HETATM   22  N5  UNL     1      -4.551  -0.497   1.108  1.00  0.00    -0.344 N 
HETATM   23  C13 UNL     1      -5.316   0.589   0.767  1.00  0.00     0.060 A 
ATOM     24  H5  UNL     1      -4.052  -0.647   1.985  1.00  0.00     0.167 HD
HETATM   25  C14 UNL     1      -5.610   1.739   1.515  1.00  0.00     0.032 A 
HETATM   26  C18 UNL     1      -5.837   0.452  -0.517  1.00  0.00     0.062 A 
HETATM   27  C15 UNL     1      -6.424   2.724   0.946  1.00  0.00     0.002 A 
HETATM   28  C16 UNL     1      -6.939   2.566  -0.342  1.00  0.00     0.002 A 
HETATM   29  C17 UNL     1      -6.657   1.424  -1.102  1.00  0.00     0.032 A 
HETATM   30  N6  UNL     1      -5.352  -0.761  -0.948  1.00  0.00    -0.339 N 
HETATM   31  C19 UNL     1      -5.583  -1.358  -2.242  1.00  0.00     0.158 C 
ENDBRANCH  20  21
ENDBRANCH  19  20
ENDBRANCH  16  19
ENDBRANCH   7  13
BRANCH   1  32
HETATM   32  C4  UNL     1       5.858   0.606  -0.339  1.00  0.00    -0.004 A 
HETATM   33  C3  UNL     1       6.600   1.674  -0.851  1.00  0.00     0.038 A 
HETATM   34  C2  UNL     1       7.665   1.411  -1.705  1.00  0.00     0.005 A 
HETATM   35  C1  UNL     1       8.470   2.542  -2.272  1.00  0.00     0.068 C 
HETATM   36  N8  UNL     1       8.014   0.155  -2.067  1.00  0.00    -0.369 N 
HETATM   37  C23 UNL     1       7.295  -0.864  -1.549  1.00  0.00     0.089 A 
ATOM     38  H8  UNL     1       8.790  -0.016  -2.706  1.00  0.00     0.165 HD
HETATM   39  C22 UNL     1       6.223  -0.694  -0.691  1.00  0.00     0.031 A 
ENDBRANCH   1  32
TORSDOF 5
