REMARK  5 active torsions:
REMARK  status: ('A' for Active; 'I' for Inactive)
REMARK    1  A    between atoms: O1_2  and  C2_3 
REMARK    2  A    between atoms: C2_3  and  C3_4 
REMARK    3  A    between atoms: C3_4  and  N1_5 
REMARK    4  A    between atoms: C3_4  and  C17_31 
REMARK       I    between atoms: N1_5  and  C4_6 
REMARK       I    between atoms: C4_6  and  N2_8 
REMARK    5  A    between atoms: N2_8  and  C5_9 
ROOT
HETATM    1  C5  UNL     1       0.525  -0.384   0.085  1.00  0.00     0.111 A 
HETATM    2  C6  UNL     1       0.877  -1.378  -0.820  1.00  0.00     0.080 A 
HETATM    3  C7  UNL     1       2.248  -1.546  -1.015  1.00  0.00     0.065 A 
HETATM    4  N3  UNL     1       2.959  -2.398  -1.811  1.00  0.00    -0.299 N 
HETATM    5  N4  UNL     1       4.290  -2.236  -1.739  1.00  0.00    -0.299 N 
ATOM      6  H4  UNL     1       5.011  -2.741  -2.254  1.00  0.00     0.187 HD
HETATM    7  C8  UNL     1       4.455  -1.258  -0.834  1.00  0.00     0.072 A 
HETATM    8  C9  UNL     1       5.749  -0.757  -0.439  1.00  0.00    -0.002 A 
HETATM    9  C10 UNL     1       6.125  -0.736   0.984  1.00  0.00     0.033 A 
HETATM   10  C11 UNL     1       7.330  -0.268   1.351  1.00  0.00     0.119 A 
HETATM   11  N5  UNL     1       8.217   0.195   0.384  1.00  0.00    -0.250 N 
HETATM   12  N6  UNL     1       9.458   0.710   0.551  1.00  0.00    -0.288 N 
ATOM     13  H6  UNL     1       9.984   0.847   1.414  1.00  0.00     0.188 HD
HETATM   14  C12 UNL     1       9.817   0.993  -0.701  1.00  0.00     0.199 A 
HETATM   15  N7  UNL     1       8.901   0.696  -1.667  1.00  0.00    -0.336 N 
ATOM     16  H7  UNL     1       8.971   0.834  -2.675  1.00  0.00     0.168 HD
HETATM   17  C13 UNL     1       7.905   0.188  -0.976  1.00  0.00     0.128 A 
HETATM   18  C14 UNL     1       6.637  -0.323  -1.365  1.00  0.00     0.064 A 
HETATM   19  C15 UNL     1       3.200  -0.781  -0.354  1.00  0.00     0.036 A 
HETATM   20  C16 UNL     1       2.756   0.204   0.532  1.00  0.00     0.105 A 
HETATM   21  N8  UNL     1       1.426   0.386   0.741  1.00  0.00    -0.351 N 
ATOM     22  H8  UNL     1       1.106   1.103   1.392  1.00  0.00     0.166 HD
HETATM   23  H10 UNL     1       2.594  -3.111  -2.434  1.00  0.00     0.187 HD
ENDROOT
BRANCH   1  24
HETATM   24  N2  UNL     1      -0.794  -0.057   0.393  1.00  0.00    -0.295 N 
HETATM   25  C4  UNL     1      -1.945  -0.670  -0.019  1.00  0.00     0.322 C 
HETATM   26  N1  UNL     1      -3.054   0.003   0.445  1.00  0.00    -0.332 N 
HETATM   27  O2  UNL     1      -2.029  -1.684  -0.700  1.00  0.00    -0.247 OA
HETATM   28  H7  UNL     1      -2.936   1.005   0.501  1.00  0.00     0.165 HD
HETATM   29  H8  UNL     1      -0.865   0.672   1.086  1.00  0.00     0.172 HD
BRANCH  26  30
HETATM   30  C3  UNL     1      -4.387  -0.398   0.010  1.00  0.00     0.143 C 
BRANCH  30  31
HETATM   31  C2  UNL     1      -4.646  -0.034  -1.475  1.00  0.00     0.197 C 
BRANCH  31  32
HETATM   32  O1  UNL     1      -4.240   1.318  -1.750  1.00  0.00    -0.394 OA
HETATM   33  C1  UNL     1      -4.488   1.667  -3.106  1.00  0.00     0.201 C 
ENDBRANCH  31  32
ENDBRANCH  30  31
BRANCH  30  34
HETATM   34  C17 UNL     1      -5.427   0.172   0.967  1.00  0.00    -0.033 A 
HETATM   35  C18 UNL     1      -5.771   1.536   0.971  1.00  0.00     0.012 A 
HETATM   36  C19 UNL     1      -6.723   2.027   1.867  1.00  0.00     0.043 A 
HETATM   37  C20 UNL     1      -7.330   1.163   2.769  1.00  0.00     0.116 A 
HETATM   38  F1  UNL     1      -8.243   1.637   3.626  1.00  0.00    -0.206 F 
HETATM   39  C21 UNL     1      -6.999  -0.184   2.796  1.00  0.00     0.043 A 
HETATM   40  C22 UNL     1      -6.048  -0.679   1.901  1.00  0.00     0.012 A 
ENDBRANCH  30  34
ENDBRANCH  26  30
ENDBRANCH   1  24
TORSDOF 5
