REMARK  6 active torsions:
REMARK  status: ('A' for Active; 'I' for Inactive)
REMARK    1  A    between atoms: O1_2  and  C2_3 
REMARK    2  A    between atoms: C2_3  and  C3_4 
REMARK    3  A    between atoms: C3_4  and  N1_5 
REMARK    4  A    between atoms: C3_4  and  C14_25 
REMARK       I    between atoms: N1_5  and  C4_6 
REMARK       I    between atoms: C4_6  and  N2_8 
REMARK    5  A    between atoms: N2_8  and  C5_9 
REMARK    6  A    between atoms: N5_16  and  C9_17 
ROOT
HETATM    1  C5  UNL     1       1.151  -0.068   0.369  1.00  0.00     0.111 A 
HETATM    2  C6  UNL     1       1.655  -1.288  -0.060  1.00  0.00     0.080 A 
HETATM    3  C7  UNL     1       3.031  -1.451   0.098  1.00  0.00     0.067 A 
HETATM    4  N3  UNL     1       3.858  -2.497  -0.195  1.00  0.00    -0.298 N 
HETATM    5  N4  UNL     1       5.147  -2.274   0.101  1.00  0.00    -0.284 N 
ATOM      6  H4  UNL     1       5.938  -2.904  -0.034  1.00  0.00     0.188 HD
HETATM    7  C8  UNL     1       5.160  -1.042   0.612  1.00  0.00     0.130 A 
HETATM    8  N5  UNL     1       6.327  -0.493   1.018  1.00  0.00    -0.366 N 
HETATM    9  C12 UNL     1       3.855  -0.471   0.642  1.00  0.00     0.052 A 
HETATM   10  C13 UNL     1       3.256   0.721   1.051  1.00  0.00     0.107 A 
HETATM   11  N6  UNL     1       1.917   0.910   0.902  1.00  0.00    -0.351 N 
ATOM     12  H6  UNL     1       1.491   1.790   1.193  1.00  0.00     0.166 HD
HETATM   13  H10 UNL     1       3.604  -3.393  -0.597  1.00  0.00     0.187 HD
HETATM   14  H11 UNL     1       7.128  -1.067   0.758  1.00  0.00     0.161 HD
ENDROOT
BRANCH   1  15
HETATM   15  N2  UNL     1      -0.196   0.283   0.279  1.00  0.00    -0.295 N 
HETATM   16  C4  UNL     1      -1.254  -0.497  -0.096  1.00  0.00     0.322 C 
HETATM   17  N1  UNL     1      -2.424   0.223  -0.124  1.00  0.00    -0.332 N 
HETATM   18  O2  UNL     1      -1.216  -1.689  -0.373  1.00  0.00    -0.247 OA
HETATM   19  H7  UNL     1      -2.357   1.226  -0.216  1.00  0.00     0.165 HD
HETATM   20  H8  UNL     1      -0.383   1.196   0.664  1.00  0.00     0.172 HD
BRANCH  17  21
HETATM   21  C3  UNL     1      -3.688  -0.388  -0.535  1.00  0.00     0.143 C 
BRANCH  21  22
HETATM   22  C2  UNL     1      -3.694  -0.682  -2.062  1.00  0.00     0.197 C 
BRANCH  22  23
HETATM   23  O1  UNL     1      -4.897  -1.289  -2.547  1.00  0.00    -0.394 OA
HETATM   24  C1  UNL     1      -5.048  -2.640  -2.133  1.00  0.00     0.201 C 
ENDBRANCH  22  23
ENDBRANCH  21  22
BRANCH  21  25
HETATM   25  C14 UNL     1      -4.823   0.487  -0.016  1.00  0.00    -0.033 A 
HETATM   26  C15 UNL     1      -5.090   0.491   1.366  1.00  0.00     0.009 A 
HETATM   27  C16 UNL     1      -6.100   1.292   1.904  1.00  0.00     0.001 A 
HETATM   28  C17 UNL     1      -6.856   2.108   1.069  1.00  0.00     0.000 A 
HETATM   29  C18 UNL     1      -6.604   2.123  -0.301  1.00  0.00     0.001 A 
HETATM   30  C19 UNL     1      -5.593   1.321  -0.839  1.00  0.00     0.009 A 
ENDBRANCH  21  25
ENDBRANCH  17  21
ENDBRANCH   1  15
BRANCH   8  31
HETATM   31  C9  UNL     1       6.621   0.909   1.106  1.00  0.00     0.130 C 
HETATM   32  C10 UNL     1       6.820   1.602  -0.248  1.00  0.00     0.195 C 
HETATM   33  O3  UNL     1       8.144   2.053   0.131  1.00  0.00    -0.387 OA
HETATM   34  C11 UNL     1       8.111   1.216   1.313  1.00  0.00     0.195 C 
ENDBRANCH   8  31
TORSDOF 6
