REMARK  6 active torsions:
REMARK  status: ('A' for Active; 'I' for Inactive)
REMARK    1  A    between atoms: O1_2  and  C2_3 
REMARK    2  A    between atoms: C7_9  and  C8_10 
REMARK    3  A    between atoms: C8_10  and  N1_11 
REMARK    4  A    between atoms: C12_15  and  N2_16 
REMARK       I    between atoms: N2_16  and  C13_17 
REMARK       I    between atoms: C13_17  and  N3_19 
REMARK    5  A    between atoms: N3_19  and  C14_20 
REMARK    6  A    between atoms: C17_26  and  C18_27 
ROOT
HETATM    1  N2  UNL     1      -1.827  -1.950  -1.720  1.00  0.00    -0.337 N 
HETATM    2  C13 UNL     1      -0.772  -1.913  -0.829  1.00  0.00     0.322 C 
HETATM    3  O2  UNL     1      -0.783  -2.516   0.238  1.00  0.00    -0.247 OA
HETATM    4  N3  UNL     1       0.256  -1.155  -1.324  1.00  0.00    -0.295 N 
HETATM    5  H16 UNL     1      -1.979  -1.063  -2.185  1.00  0.00     0.164 HD
HETATM    6  H17 UNL     1       0.222  -0.899  -2.298  1.00  0.00     0.172 HD
ENDROOT
BRANCH   4   7
HETATM    7  C14 UNL     1       1.483  -0.867  -0.725  1.00  0.00     0.111 A 
HETATM    8  C15 UNL     1       1.780  -1.189   0.594  1.00  0.00     0.080 A 
HETATM    9  C16 UNL     1       3.057  -0.828   1.022  1.00  0.00     0.065 A 
HETATM   10  N4  UNL     1       3.693  -0.993   2.217  1.00  0.00    -0.299 N 
HETATM   11  C24 UNL     1       3.973  -0.182   0.202  1.00  0.00     0.036 A 
HETATM   12  N5  UNL     1       4.942  -0.506   2.246  1.00  0.00    -0.299 N 
HETATM   13  H19 UNL     1       3.321  -1.414   3.063  1.00  0.00     0.187 HD
HETATM   14  C17 UNL     1       5.130   0.013   1.020  1.00  0.00     0.072 A 
ATOM     15  H5  UNL     1       5.602  -0.525   3.024  1.00  0.00     0.187 HD
HETATM   16  C25 UNL     1       3.591   0.099  -1.111  1.00  0.00     0.105 A 
HETATM   17  N7  UNL     1       2.350  -0.237  -1.553  1.00  0.00    -0.351 N 
ATOM     18  H7  UNL     1       2.072  -0.014  -2.509  1.00  0.00     0.166 HD
BRANCH  14  19
HETATM   19  C18 UNL     1       6.392   0.668   0.680  1.00  0.00    -0.004 A 
HETATM   20  C19 UNL     1       6.421   1.833  -0.085  1.00  0.00     0.031 A 
HETATM   21  C20 UNL     1       7.649   2.412  -0.353  1.00  0.00     0.089 A 
HETATM   22  N6  UNL     1       8.827   1.917   0.083  1.00  0.00    -0.369 N 
HETATM   23  C21 UNL     1       8.789   0.790   0.832  1.00  0.00     0.005 A 
ATOM     24  H6  UNL     1       9.710   2.374  -0.143  1.00  0.00     0.165 HD
HETATM   25  C22 UNL     1      10.093   0.258   1.346  1.00  0.00     0.068 C 
HETATM   26  C23 UNL     1       7.599   0.146   1.155  1.00  0.00     0.038 A 
ENDBRANCH  14  19
ENDBRANCH   4   7
BRANCH   1  27
HETATM   27  C12 UNL     1      -3.076  -2.620  -1.347  1.00  0.00     0.114 C 
HETATM   28  C11 UNL     1      -3.808  -3.118  -2.601  1.00  0.00     0.029 C 
HETATM   29  C10 UNL     1      -5.006  -2.246  -2.975  1.00  0.00     0.032 C 
HETATM   30  C9  UNL     1      -4.751  -0.766  -2.700  1.00  0.00     0.273 C 
HETATM   31  N1  UNL     1      -4.342  -0.458  -1.320  1.00  0.00     0.094 N 
HETATM   32  C26 UNL     1      -3.972  -1.660  -0.536  1.00  0.00     0.297 C 
BRANCH  31  33
HETATM   33  C8  UNL     1      -5.365   0.356  -0.632  1.00  0.00     0.317 C 
BRANCH  33  34
HETATM   34  C7  UNL     1      -4.918   0.942   0.689  1.00  0.00     0.042 A 
HETATM   35  C2  UNL     1      -4.123   2.102   0.766  1.00  0.00     0.079 A 
HETATM   36  C3  UNL     1      -3.738   2.593   2.023  1.00  0.00     0.037 A 
HETATM   37  C4  UNL     1      -4.131   1.941   3.195  1.00  0.00     0.006 A 
HETATM   38  C5  UNL     1      -4.914   0.795   3.123  1.00  0.00     0.043 A 
HETATM   39  C6  UNL     1      -5.303   0.311   1.879  1.00  0.00     0.127 A 
HETATM   40  F1  UNL     1      -6.057  -0.799   1.836  1.00  0.00    -0.205 F 
BRANCH  35  41
HETATM   41  O1  UNL     1      -3.790   2.689  -0.429  1.00  0.00    -0.355 OA
HETATM   42  C1  UNL     1      -2.948   3.834  -0.385  1.00  0.00     0.210 C 
ENDBRANCH  35  41
ENDBRANCH  33  34
ENDBRANCH  31  33
ENDBRANCH   1  27
TORSDOF 6
