REMARK  7 active torsions:
REMARK  status: ('A' for Active; 'I' for Inactive)
REMARK    1  A    between atoms: O1_2  and  C2_3 
REMARK    2  A    between atoms: C2_3  and  C3_4 
REMARK    3  A    between atoms: C3_4  and  N1_5 
REMARK    4  A    between atoms: C3_4  and  C17_28 
REMARK       I    between atoms: N1_5  and  C4_6 
REMARK       I    between atoms: C4_6  and  N2_8 
REMARK    5  A    between atoms: N2_8  and  C5_9 
REMARK    6  A    between atoms: C8_15  and  O3_16 
REMARK    7  A    between atoms: O3_16  and  C9_17 
ROOT
HETATM    1  C5  UNL     1       0.552  -0.695   0.623  1.00  0.00     0.110 A 
HETATM    2  C6  UNL     1      -0.181  -0.861   1.799  1.00  0.00     0.080 A 
HETATM    3  C7  UNL     1      -1.561  -0.700   1.674  1.00  0.00     0.067 A 
HETATM    4  N3  UNL     1      -2.587  -0.771   2.579  1.00  0.00    -0.298 N 
HETATM    5  N4  UNL     1      -3.804  -0.547   2.050  1.00  0.00    -0.279 N 
ATOM      6  H4  UNL     1      -4.709  -0.546   2.521  1.00  0.00     0.189 HD
HETATM    7  C8  UNL     1      -3.540  -0.326   0.761  1.00  0.00     0.171 A 
HETATM    8  C15 UNL     1      -2.166  -0.404   0.459  1.00  0.00     0.060 A 
HETATM    9  C16 UNL     1      -1.364  -0.266  -0.669  1.00  0.00     0.108 A 
HETATM   10  N5  UNL     1      -0.019  -0.421  -0.567  1.00  0.00    -0.351 N 
ATOM     11  H5  UNL     1       0.565  -0.329  -1.398  1.00  0.00     0.166 HD
HETATM   12  H10 UNL     1      -2.525  -0.967   3.572  1.00  0.00     0.187 HD
ENDROOT
BRANCH   1  13
HETATM   13  N2  UNL     1       1.938  -0.868   0.717  1.00  0.00    -0.299 N 
HETATM   14  C4  UNL     1       2.857  -0.537  -0.253  1.00  0.00     0.300 C 
HETATM   15  N1  UNL     1       4.113  -0.990   0.127  1.00  0.00    -0.233 NA
HETATM   16  O2  UNL     1       2.656   0.070  -1.294  1.00  0.00    -0.254 OA
HETATM   17  H7  UNL     1       4.070  -1.945   0.458  1.00  0.00     0.133 HD
HETATM   18  H8  UNL     1       2.328  -1.074   1.621  1.00  0.00     0.171 HD
BRANCH  15  19
HETATM   19  C3  UNL     1       5.247  -0.785  -0.777  1.00  0.00     0.121 C 
BRANCH  19  20
HETATM   20  C2  UNL     1       6.391  -1.761  -0.421  1.00  0.00     0.191 C 
BRANCH  20  21
HETATM   21  O1  UNL     1       5.881  -3.105  -0.417  1.00  0.00    -0.394 OA
HETATM   22  C1  UNL     1       6.917  -4.050  -0.187  1.00  0.00     0.201 C 
ENDBRANCH  20  21
ENDBRANCH  19  20
BRANCH  19  23
HETATM   23  C17 UNL     1       5.746   0.649  -0.739  1.00  0.00    -0.038 A 
HETATM   24  C18 UNL     1       6.172   1.245   0.460  1.00  0.00     0.009 A 
HETATM   25  C19 UNL     1       6.652   2.556   0.472  1.00  0.00     0.001 A 
HETATM   26  C20 UNL     1       6.706   3.291  -0.710  1.00  0.00     0.000 A 
HETATM   27  C21 UNL     1       6.273   2.719  -1.904  1.00  0.00     0.001 A 
HETATM   28  C22 UNL     1       5.795   1.407  -1.919  1.00  0.00     0.009 A 
ENDBRANCH  19  23
ENDBRANCH  15  19
ENDBRANCH   1  13
BRANCH   7  29
HETATM   29  O3  UNL     1      -4.521  -0.059  -0.131  1.00  0.00    -0.329 OA
BRANCH  29  30
HETATM   30  C9  UNL     1      -5.853   0.011   0.397  1.00  0.00     0.135 C 
HETATM   31  C10 UNL     1      -6.102   1.399   1.001  1.00  0.00     0.059 C 
HETATM   32  C11 UNL     1      -7.568   1.773   0.891  1.00  0.00     0.170 C 
HETATM   33  O4  UNL     1      -8.034   1.826  -0.458  1.00  0.00    -0.386 OA
HETATM   34  C12 UNL     1      -7.292   1.036  -1.395  1.00  0.00     0.119 C 
HETATM   35  C13 UNL     1      -8.198   0.778  -2.591  1.00  0.00     0.039 C 
HETATM   36  C14 UNL     1      -6.816  -0.271  -0.767  1.00  0.00     0.064 C 
ENDBRANCH  29  30
ENDBRANCH   7  29
TORSDOF 7
