REMARK  5 active torsions:
REMARK  status: ('A' for Active; 'I' for Inactive)
REMARK    1  A    between atoms: C4_4  and  C5_5 
REMARK    2  A    between atoms: C8_11  and  N3_12 
REMARK       I    between atoms: N3_12  and  C9_13 
REMARK       I    between atoms: C9_13  and  N4_15 
REMARK    3  A    between atoms: N4_15  and  C10_16 
REMARK    4  A    between atoms: C10_16  and  C12_18 
REMARK    5  A    between atoms: C15_21  and  N5_22 
ROOT
HETATM    1  N3  UNL     1      -0.093  -0.448  -0.057  1.00  0.00    -0.295 N 
HETATM    2  C9  UNL     1       0.861  -1.421   0.059  1.00  0.00     0.322 C 
HETATM    3  O1  UNL     1       0.685  -2.564   0.461  1.00  0.00    -0.247 OA
HETATM    4  N4  UNL     1       2.096  -0.964  -0.336  1.00  0.00    -0.335 N 
HETATM    5  H7  UNL     1       0.173   0.463  -0.392  1.00  0.00     0.172 HD
HETATM    6  H8  UNL     1       2.182  -0.031  -0.706  1.00  0.00     0.165 HD
ENDROOT
BRANCH   1   7
HETATM    7  C8  UNL     1      -1.456  -0.526   0.231  1.00  0.00     0.111 A 
HETATM    8  C7  UNL     1      -2.075  -1.666   0.725  1.00  0.00     0.080 A 
HETATM    9  C6  UNL     1      -3.449  -1.551   0.937  1.00  0.00     0.065 A 
HETATM   10  N2  UNL     1      -4.375  -2.436   1.411  1.00  0.00    -0.299 N 
HETATM   11  C21 UNL     1      -4.157  -0.388   0.671  1.00  0.00     0.036 A 
HETATM   12  N1  UNL     1      -5.621  -1.944   1.480  1.00  0.00    -0.299 N 
HETATM   13  H5  UNL     1      -4.219  -3.393   1.710  1.00  0.00     0.187 HD
HETATM   14  C5  UNL     1      -5.514  -0.692   1.000  1.00  0.00     0.072 A 
ATOM     15  H1  UNL     1      -6.460  -2.413   1.820  1.00  0.00     0.187 HD
HETATM   16  C20 UNL     1      -3.449   0.717   0.195  1.00  0.00     0.105 A 
HETATM   17  N8  UNL     1      -2.111   0.631  -0.023  1.00  0.00    -0.351 N 
ATOM     18  H8  UNL     1      -1.600   1.439  -0.378  1.00  0.00     0.166 HD
BRANCH  14  19
HETATM   19  C4  UNL     1      -6.693   0.164   0.883  1.00  0.00    -0.004 A 
HETATM   20  C3  UNL     1      -6.879   0.987  -0.231  1.00  0.00     0.038 A 
HETATM   21  C2  UNL     1      -8.018   1.784  -0.297  1.00  0.00     0.005 A 
HETATM   22  C1  UNL     1      -8.245   2.677  -1.481  1.00  0.00     0.068 C 
HETATM   23  N9  UNL     1      -8.956   1.796   0.676  1.00  0.00    -0.369 N 
HETATM   24  C23 UNL     1      -8.765   0.980   1.735  1.00  0.00     0.089 A 
ATOM     25  H9  UNL     1      -9.777   2.398   0.613  1.00  0.00     0.165 HD
HETATM   26  C22 UNL     1      -7.666   0.155   1.881  1.00  0.00     0.031 A 
ENDBRANCH  14  19
ENDBRANCH   1   7
BRANCH   4  27
HETATM   27  C10 UNL     1       3.273  -1.818  -0.345  1.00  0.00     0.115 C 
HETATM   28  C11 UNL     1       3.263  -2.774  -1.542  1.00  0.00     0.037 C 
BRANCH  27  29
HETATM   29  C12 UNL     1       4.524  -0.955  -0.307  1.00  0.00    -0.036 A 
HETATM   30  C13 UNL     1       4.907  -0.162  -1.400  1.00  0.00     0.011 A 
HETATM   31  C14 UNL     1       6.044   0.648  -1.331  1.00  0.00     0.032 A 
HETATM   32  C15 UNL     1       6.820   0.681  -0.164  1.00  0.00     0.057 A 
HETATM   33  C18 UNL     1       6.445  -0.103   0.933  1.00  0.00     0.032 A 
HETATM   34  C19 UNL     1       5.303  -0.908   0.859  1.00  0.00     0.011 A 
BRANCH  32  35
HETATM   35  N5  UNL     1       7.967   1.515  -0.114  1.00  0.00    -0.251 N 
HETATM   36  C16 UNL     1       8.876   1.679   0.905  1.00  0.00     0.208 A 
HETATM   37  N6  UNL     1       9.797   2.553   0.567  1.00  0.00    -0.346 N 
HETATM   38  C17 UNL     1       9.418   2.913  -0.689  1.00  0.00     0.199 A 
ATOM     39  H6  UNL     1      10.596   2.880   1.110  1.00  0.00     0.167 HD
HETATM   40  N7  UNL     1       8.321   2.315  -1.154  1.00  0.00    -0.288 N 
ATOM     41  H7  UNL     1       7.864   2.429  -2.059  1.00  0.00     0.188 HD
ENDBRANCH  32  35
ENDBRANCH  27  29
ENDBRANCH   4  27
TORSDOF 5
