REMARK  5 active torsions:
REMARK  status: ('A' for Active; 'I' for Inactive)
REMARK    1  A    between atoms: C4_5  and  C5_6 
REMARK    2  A    between atoms: C8_9  and  C9_10 
REMARK    3  A    between atoms: C12_16  and  N3_17 
REMARK       I    between atoms: N3_17  and  C13_18 
REMARK       I    between atoms: C13_18  and  N4_20 
REMARK    4  A    between atoms: N4_20  and  C14_21 
REMARK    5  A    between atoms: C14_21  and  C16_23 
ROOT
HETATM    1  C9  UNL     1      -2.672   1.019  -1.896  1.00  0.00     0.073 A 
HETATM    2  N1  UNL     1      -2.591   1.488  -3.153  1.00  0.00    -0.299 N 
ATOM      3  H1  UNL     1      -3.359   1.740  -3.776  1.00  0.00     0.187 HD
HETATM    4  N2  UNL     1      -1.276   1.551  -3.405  1.00  0.00    -0.299 N 
HETATM    5  C10 UNL     1      -0.486   1.173  -2.358  1.00  0.00     0.065 A 
HETATM    6  C11 UNL     1       0.899   1.110  -2.207  1.00  0.00     0.080 A 
HETATM    7  C12 UNL     1       1.350   0.686  -0.958  1.00  0.00     0.111 A 
HETATM    8  N5  UNL     1       0.517   0.347   0.042  1.00  0.00    -0.351 N 
ATOM      9  H5  UNL     1       0.901   0.032   0.933  1.00  0.00     0.166 HD
HETATM   10  C22 UNL     1      -0.829   0.419  -0.121  1.00  0.00     0.105 A 
HETATM   11  C23 UNL     1      -1.368   0.826  -1.342  1.00  0.00     0.036 A 
HETATM   12  H7  UNL     1      -0.981   1.873  -4.321  1.00  0.00     0.187 HD
ENDROOT
BRANCH   7  13
HETATM   13  N3  UNL     1       2.737   0.594  -0.787  1.00  0.00    -0.295 N 
HETATM   14  C13 UNL     1       3.383   0.376   0.408  1.00  0.00     0.322 C 
HETATM   15  O1  UNL     1       2.896   0.343   1.527  1.00  0.00    -0.247 OA
HETATM   16  N4  UNL     1       4.742   0.211   0.185  1.00  0.00    -0.335 N 
HETATM   17  H10 UNL     1       4.941  -0.318  -0.651  1.00  0.00     0.165 HD
HETATM   18  H9  UNL     1       3.322   0.870  -1.556  1.00  0.00     0.172 HD
BRANCH  16  19
HETATM   19  C14 UNL     1       5.631  -0.074   1.306  1.00  0.00     0.115 C 
HETATM   20  C15 UNL     1       5.857   1.159   2.187  1.00  0.00     0.037 C 
BRANCH  19  21
HETATM   21  C16 UNL     1       6.950  -0.618   0.777  1.00  0.00    -0.036 A 
HETATM   22  C17 UNL     1       7.340  -1.932   1.088  1.00  0.00     0.012 A 
HETATM   23  C18 UNL     1       8.541  -2.449   0.600  1.00  0.00     0.043 A 
HETATM   24  C19 UNL     1       9.354  -1.658  -0.201  1.00  0.00     0.116 A 
HETATM   25  F1  UNL     1      10.505  -2.157  -0.671  1.00  0.00    -0.206 F 
HETATM   26  C20 UNL     1       8.988  -0.359  -0.527  1.00  0.00     0.043 A 
HETATM   27  C21 UNL     1       7.788   0.161  -0.041  1.00  0.00     0.012 A 
ENDBRANCH  19  21
ENDBRANCH  16  19
ENDBRANCH   7  13
BRANCH   1  28
HETATM   28  C8  UNL     1      -3.973   0.790  -1.275  1.00  0.00     0.008 A 
HETATM   29  C7  UNL     1      -5.051   1.641  -1.529  1.00  0.00     0.017 A 
HETATM   30  C6  UNL     1      -6.288   1.403  -0.924  1.00  0.00     0.033 A 
HETATM   31  C5  UNL     1      -6.426   0.311  -0.070  1.00  0.00     0.066 A 
HETATM   32  N6  UNL     1      -5.394  -0.537   0.178  1.00  0.00    -0.363 N 
HETATM   33  C24 UNL     1      -4.208  -0.285  -0.430  1.00  0.00     0.102 A 
ATOM     34  H6  UNL     1      -5.507  -1.337   0.801  1.00  0.00     0.165 HD
BRANCH  31  35
HETATM   35  C4  UNL     1      -7.690  -0.028   0.617  1.00  0.00     0.101 A 
HETATM   36  S1  UNL     1      -8.800   1.211   1.089  1.00  0.00    -0.080 SA
HETATM   37  C3  UNL     1      -9.838   0.031   1.762  1.00  0.00     0.076 A 
HETATM   38  C2  UNL     1      -9.295  -1.227   1.599  1.00  0.00     0.012 A 
HETATM   39  C1  UNL     1      -9.881  -2.513   2.055  1.00  0.00     0.068 C 
HETATM   40  N7  UNL     1      -8.074  -1.248   0.950  1.00  0.00    -0.352 N 
ATOM     41  H7  UNL     1      -7.540  -2.094   0.754  1.00  0.00     0.166 HD
ENDBRANCH  31  35
ENDBRANCH   1  28
TORSDOF 5
