REMARK  7 active torsions:
REMARK  status: ('A' for Active; 'I' for Inactive)
REMARK       I    between atoms: C1_2  and  N1_3 
REMARK    1  A    between atoms: C1_2  and  C15_21 
REMARK    2  A    between atoms: N1_3  and  C2_4 
REMARK    3  A    between atoms: C6_11  and  C7_12 
REMARK    4  A    between atoms: N4_24  and  C18_25 
REMARK    5  A    between atoms: C18_25  and  C19_26 
REMARK       I    between atoms: C19_26  and  N5_28 
REMARK    6  A    between atoms: N6_31  and  C22_32 
REMARK    7  A    between atoms: C25_35  and  C26_36 
ROOT
HETATM    1  C15 UNL     1      -2.321  -1.522   2.108  1.00  0.00     0.108 C 
HETATM    2  C16 UNL     1      -2.028  -1.226   3.581  1.00  0.00     0.046 C 
HETATM    3  C17 UNL     1      -1.278   0.102   3.587  1.00  0.00     0.274 C 
HETATM    4  N4  UNL     1      -0.796   0.314   2.214  1.00  0.00     0.098 N 
HETATM    5  C34 UNL     1      -1.865  -0.262   1.383  1.00  0.00     0.287 C 
ENDROOT
BRANCH   4   6
HETATM    6  C18 UNL     1       0.525  -0.325   2.008  1.00  0.00     0.374 C 
BRANCH   6   7
HETATM    7  C19 UNL     1       1.127  -0.057   0.611  1.00  0.00     0.248 C 
HETATM    8  O2  UNL     1       0.566   0.634  -0.241  1.00  0.00    -0.271 OA
HETATM    9  N5  UNL     1       2.351  -0.664   0.340  1.00  0.00    -0.348 N 
HETATM   10  C20 UNL     1       2.936  -0.477  -0.995  1.00  0.00     0.145 C 
HETATM   11  C33 UNL     1       3.157  -1.446   1.290  1.00  0.00     0.145 C 
HETATM   12  C21 UNL     1       4.113  -1.427  -1.266  1.00  0.00     0.143 C 
HETATM   13  N6  UNL     1       5.161  -1.294  -0.234  1.00  0.00    -0.378 N 
HETATM   14  C32 UNL     1       4.667  -1.155   1.159  1.00  0.00     0.143 C 
BRANCH  13  15
HETATM   15  C22 UNL     1       6.340  -0.590  -0.502  1.00  0.00     0.030 A 
HETATM   16  C23 UNL     1       6.505   0.259  -1.602  1.00  0.00     0.030 A 
HETATM   17  C24 UNL     1       7.705   0.952  -1.829  1.00  0.00     0.017 A 
HETATM   18  C25 UNL     1       8.806   0.832  -0.966  1.00  0.00     0.008 A 
HETATM   19  C30 UNL     1       8.647  -0.027   0.130  1.00  0.00     0.017 A 
HETATM   20  C31 UNL     1       7.447  -0.721   0.353  1.00  0.00     0.030 A 
BRANCH  18  21
HETATM   21  C26 UNL     1      10.062   1.573  -1.200  1.00  0.00     0.115 A 
HETATM   22  N7  UNL     1      11.031   1.487  -0.264  1.00  0.00    -0.352 N 
HETATM   23  C27 UNL     1      12.160   2.181  -0.500  1.00  0.00     0.091 A 
ATOM     24  H7  UNL     1      10.914   0.925   0.579  1.00  0.00     0.166 HD
HETATM   25  C28 UNL     1      12.361   2.947  -1.621  1.00  0.00     0.034 A 
HETATM   26  C29 UNL     1      11.318   2.971  -2.515  1.00  0.00     0.091 A 
HETATM   27  N8  UNL     1      10.166   2.300  -2.332  1.00  0.00    -0.352 N 
ATOM     28  H8  UNL     1       9.409   2.339  -3.015  1.00  0.00     0.166 HD
ENDBRANCH  18  21
ENDBRANCH  13  15
ENDBRANCH   6   7
ENDBRANCH   4   6
BRANCH   1  29
HETATM   29  C1  UNL     1      -3.750  -2.033   1.921  1.00  0.00     0.228 C 
HETATM   30  O1  UNL     1      -4.055  -3.104   2.444  1.00  0.00    -0.273 OA
HETATM   31  N1  UNL     1      -4.599  -1.253   1.166  1.00  0.00    -0.327 N 
HETATM   32  H1  UNL     1      -4.210  -0.455   0.684  1.00  0.00     0.169 HD
BRANCH  31  33
HETATM   33  C2  UNL     1      -5.973  -1.470   0.908  1.00  0.00     0.035 A 
HETATM   34  C3  UNL     1      -6.719  -2.507   1.472  1.00  0.00     0.032 A 
HETATM   35  C4  UNL     1      -8.081  -2.679   1.182  1.00  0.00     0.034 A 
HETATM   36  C5  UNL     1      -8.670  -1.763   0.310  1.00  0.00     0.060 A 
HETATM   37  N2  UNL     1      -9.943  -1.658  -0.175  1.00  0.00    -0.299 N 
HETATM   38  C13 UNL     1      -7.975  -0.705  -0.261  1.00  0.00     0.023 A 
HETATM   39  N3  UNL     1     -10.131  -0.634  -1.020  1.00  0.00    -0.299 N 
HETATM   40  H4  UNL     1     -10.730  -2.265   0.024  1.00  0.00     0.187 HD
HETATM   41  C6  UNL     1      -8.938  -0.018  -1.066  1.00  0.00     0.070 A 
ATOM     42  H3  UNL     1     -10.986  -0.380  -1.515  1.00  0.00     0.187 HD
HETATM   43  C14 UNL     1      -6.602  -0.561   0.039  1.00  0.00     0.045 A 
BRANCH  41  44
HETATM   44  C7  UNL     1      -8.748   1.183  -1.878  1.00  0.00    -0.007 A 
HETATM   45  C8  UNL     1      -8.047   2.289  -1.375  1.00  0.00     0.017 A 
HETATM   46  C9  UNL     1      -7.867   3.427  -2.165  1.00  0.00     0.043 A 
HETATM   47  C10 UNL     1      -8.387   3.459  -3.453  1.00  0.00     0.116 A 
HETATM   48  F1  UNL     1      -8.208   4.549  -4.209  1.00  0.00    -0.206 F 
HETATM   49  C11 UNL     1      -9.095   2.379  -3.965  1.00  0.00     0.043 A 
HETATM   50  C12 UNL     1      -9.280   1.243  -3.175  1.00  0.00     0.017 A 
ENDBRANCH  41  44
ENDBRANCH  31  33
ENDBRANCH   1  29
TORSDOF 7
