REMARK  5 active torsions:
REMARK  status: ('A' for Active; 'I' for Inactive)
REMARK    1  A    between atoms: C2_2  and  N1_3 
REMARK    2  A    between atoms: C2_2  and  C18_28 
REMARK       I    between atoms: N1_3  and  C3_4 
REMARK       I    between atoms: C3_4  and  N2_6 
REMARK    3  A    between atoms: N2_6  and  C4_7 
REMARK    4  A    between atoms: N5_14  and  C8_15 
REMARK    5  A    between atoms: C11_18  and  N6_19 
ROOT
HETATM    1  C4  UNL     1      -1.311  -0.610   0.964  1.00  0.00     0.111 A 
HETATM    2  C5  UNL     1      -1.228  -1.447   2.065  1.00  0.00     0.080 A 
HETATM    3  C6  UNL     1       0.064  -1.695   2.532  1.00  0.00     0.067 A 
HETATM    4  N3  UNL     1       0.511  -2.458   3.571  1.00  0.00    -0.298 N 
HETATM    5  N4  UNL     1       1.837  -2.443   3.729  1.00  0.00    -0.284 N 
ATOM      6  H4  UNL     1       2.385  -2.927   4.440  1.00  0.00     0.188 HD
HETATM    7  C7  UNL     1       2.286  -1.653   2.749  1.00  0.00     0.130 A 
HETATM    8  N5  UNL     1       3.619  -1.446   2.685  1.00  0.00    -0.370 N 
HETATM    9  C16 UNL     1       1.208  -1.149   1.956  1.00  0.00     0.052 A 
HETATM   10  C17 UNL     1       1.017  -0.312   0.854  1.00  0.00     0.107 A 
HETATM   11  N7  UNL     1      -0.231  -0.059   0.371  1.00  0.00    -0.351 N 
ATOM     12  H7  UNL     1      -0.350   0.548  -0.440  1.00  0.00     0.166 HD
HETATM   13  H8  UNL     1      -0.043  -3.011   4.216  1.00  0.00     0.187 HD
HETATM   14  H9  UNL     1       4.116  -1.993   3.386  1.00  0.00     0.161 HD
ENDROOT
BRANCH   1  15
HETATM   15  N2  UNL     1      -2.512  -0.248   0.354  1.00  0.00    -0.295 N 
HETATM   16  C3  UNL     1      -3.785  -0.619   0.692  1.00  0.00     0.322 C 
HETATM   17  N1  UNL     1      -4.713  -0.042  -0.147  1.00  0.00    -0.335 N 
HETATM   18  O1  UNL     1      -4.103  -1.368   1.608  1.00  0.00    -0.247 OA
HETATM   19  H5  UNL     1      -4.439   0.816  -0.597  1.00  0.00     0.165 HD
HETATM   20  H6  UNL     1      -2.373   0.328  -0.460  1.00  0.00     0.172 HD
BRANCH  17  21
HETATM   21  C2  UNL     1      -6.140  -0.222   0.078  1.00  0.00     0.115 C 
HETATM   22  C1  UNL     1      -6.602  -1.621  -0.339  1.00  0.00     0.037 C 
BRANCH  21  23
HETATM   23  C18 UNL     1      -6.898   0.895  -0.622  1.00  0.00    -0.036 A 
HETATM   24  C19 UNL     1      -7.230   0.842  -1.984  1.00  0.00     0.009 A 
HETATM   25  C20 UNL     1      -7.910   1.899  -2.594  1.00  0.00     0.001 A 
HETATM   26  C21 UNL     1      -8.255   3.026  -1.856  1.00  0.00     0.000 A 
HETATM   27  C22 UNL     1      -7.907   3.105  -0.510  1.00  0.00     0.001 A 
HETATM   28  C23 UNL     1      -7.234   2.049   0.103  1.00  0.00     0.009 A 
ENDBRANCH  21  23
ENDBRANCH  17  21
ENDBRANCH   1  15
BRANCH   8  29
HETATM   29  C8  UNL     1       4.467  -1.025   1.588  1.00  0.00     0.083 C 
HETATM   30  C9  UNL     1       4.501   0.497   1.451  1.00  0.00     0.027 C 
HETATM   31  C10 UNL     1       5.394   0.948   0.294  1.00  0.00     0.038 C 
HETATM   32  C11 UNL     1       5.030   0.237  -1.024  1.00  0.00     0.222 C 
HETATM   33  C14 UNL     1       5.119  -1.292  -0.842  1.00  0.00     0.038 C 
HETATM   34  C15 UNL     1       4.203  -1.777   0.285  1.00  0.00     0.027 C 
BRANCH  32  35
HETATM   35  N6  UNL     1       5.805   0.659  -2.206  1.00  0.00     0.084 N 
HETATM   36  C12 UNL     1       7.256   0.616  -2.045  1.00  0.00     0.309 C 
HETATM   37  C13 UNL     1       5.394   1.976  -2.691  1.00  0.00     0.309 C 
ENDBRANCH  32  35
ENDBRANCH   8  29
TORSDOF 5
