REMARK  4 active torsions:
REMARK  status: ('A' for Active; 'I' for Inactive)
REMARK    1  A    between atoms: C2_2  and  N1_3 
REMARK    2  A    between atoms: C2_2  and  C15_25 
REMARK       I    between atoms: N1_3  and  C3_4 
REMARK       I    between atoms: C3_4  and  N2_6 
REMARK    3  A    between atoms: N2_6  and  C4_7 
REMARK    4  A    between atoms: N5_14  and  C8_15 
ROOT
HETATM    1  C4  UNL     1       0.780  -0.617  -0.005  1.00  0.00     0.111 A 
HETATM    2  C5  UNL     1       0.396   0.672  -0.353  1.00  0.00     0.080 A 
HETATM    3  C6  UNL     1      -0.957   0.958  -0.168  1.00  0.00     0.067 A 
HETATM    4  N3  UNL     1      -1.692   2.088  -0.389  1.00  0.00    -0.298 N 
HETATM    5  N4  UNL     1      -2.992   1.966  -0.081  1.00  0.00    -0.284 N 
ATOM      6  H4  UNL     1      -3.724   2.671  -0.165  1.00  0.00     0.188 HD
HETATM    7  C7  UNL     1      -3.110   0.712   0.360  1.00  0.00     0.130 A 
HETATM    8  N5  UNL     1      -4.259   0.139   0.786  1.00  0.00    -0.368 N 
HETATM    9  C13 UNL     1      -1.861   0.030   0.330  1.00  0.00     0.052 A 
HETATM   10  C14 UNL     1      -1.385  -1.237   0.664  1.00  0.00     0.107 A 
HETATM   11  N7  UNL     1      -0.072  -1.546   0.491  1.00  0.00    -0.351 N 
ATOM     12  H7  UNL     1       0.271  -2.475   0.734  1.00  0.00     0.166 HD
HETATM   13  H8  UNL     1      -1.365   2.977  -0.750  1.00  0.00     0.187 HD
HETATM   14  H9  UNL     1      -4.316  -0.872   0.845  1.00  0.00     0.161 HD
ENDROOT
BRANCH   1  15
HETATM   15  N2  UNL     1       2.089  -1.085  -0.113  1.00  0.00    -0.295 N 
HETATM   16  C3  UNL     1       3.177  -0.456  -0.659  1.00  0.00     0.322 C 
HETATM   17  N1  UNL     1       4.310  -1.233  -0.531  1.00  0.00    -0.335 N 
HETATM   18  O1  UNL     1       3.178   0.635  -1.215  1.00  0.00    -0.247 OA
HETATM   19  H5  UNL     1       4.315  -1.849   0.267  1.00  0.00     0.165 HD
HETATM   20  H6  UNL     1       2.177  -2.051   0.158  1.00  0.00     0.172 HD
BRANCH  17  21
HETATM   21  C2  UNL     1       5.616  -0.725  -0.929  1.00  0.00     0.115 C 
HETATM   22  C1  UNL     1       6.429  -1.846  -1.579  1.00  0.00     0.037 C 
BRANCH  21  23
HETATM   23  C15 UNL     1       6.300  -0.081   0.267  1.00  0.00    -0.036 A 
HETATM   24  C16 UNL     1       7.050  -0.817   1.198  1.00  0.00     0.009 A 
HETATM   25  C17 UNL     1       7.640  -0.187   2.297  1.00  0.00     0.001 A 
HETATM   26  C18 UNL     1       7.479   1.183   2.489  1.00  0.00     0.000 A 
HETATM   27  C19 UNL     1       6.724   1.925   1.585  1.00  0.00     0.001 A 
HETATM   28  C20 UNL     1       6.136   1.297   0.486  1.00  0.00     0.009 A 
ENDBRANCH  21  23
ENDBRANCH  17  21
ENDBRANCH   1  15
BRANCH   8  29
HETATM   29  C8  UNL     1      -5.547   0.804   0.576  1.00  0.00     0.111 C 
HETATM   30  C9  UNL     1      -6.569   0.229   1.578  1.00  0.00     0.028 C 
HETATM   31  C10 UNL     1      -7.460  -0.817   0.917  1.00  0.00     0.032 C 
HETATM   32  C11 UNL     1      -8.221  -0.223  -0.273  1.00  0.00     0.270 C 
HETATM   33  N6  UNL     1      -7.472   0.760  -1.060  1.00  0.00     0.085 N 
HETATM   34  C12 UNL     1      -6.021   0.610  -0.890  1.00  0.00     0.294 C 
HETATM   35  H17 UNL     1      -7.733   1.700  -0.761  1.00  0.00     0.315 HD
ENDBRANCH   8  29
TORSDOF 4
