REMARK  7 active torsions:
REMARK  status: ('A' for Active; 'I' for Inactive)
REMARK       I    between atoms: C1_2  and  N1_3 
REMARK    1  A    between atoms: C1_2  and  C8_12 
REMARK    2  A    between atoms: N1_3  and  C2_4 
REMARK    3  A    between atoms: C5_7  and  O2_8 
REMARK    4  A    between atoms: N2_15  and  C11_16 
REMARK    5  A    between atoms: C11_16  and  C12_17 
REMARK       I    between atoms: C12_17  and  N3_19 
REMARK    6  A    between atoms: N4_22  and  C15_23 
REMARK    7  A    between atoms: C18_26  and  C19_27 
ROOT
HETATM    1  C12 UNL     1      -0.780   1.734  -0.906  1.00  0.00     0.248 C 
HETATM    2  O3  UNL     1      -0.931   2.770  -1.564  1.00  0.00    -0.271 OA
HETATM    3  N3  UNL     1       0.467   1.091  -0.867  1.00  0.00    -0.348 N 
HETATM    4  C13 UNL     1       1.607   1.908  -1.308  1.00  0.00     0.145 C 
HETATM    5  C14 UNL     1       2.887   1.112  -1.600  1.00  0.00     0.143 C 
HETATM    6  N4  UNL     1       3.190   0.193  -0.487  1.00  0.00    -0.378 N 
HETATM    7  C27 UNL     1       2.079  -0.746  -0.225  1.00  0.00     0.143 C 
HETATM    8  C28 UNL     1       0.789   0.032   0.102  1.00  0.00     0.145 C 
ENDROOT
BRANCH   1   9
HETATM    9  C11 UNL     1      -1.938   1.071  -0.122  1.00  0.00     0.374 C 
BRANCH   9  10
HETATM   10  N2  UNL     1      -3.068   1.989   0.102  1.00  0.00     0.098 N 
HETATM   11  C10 UNL     1      -3.847   2.287  -1.103  1.00  0.00     0.274 C 
HETATM   12  C9  UNL     1      -5.087   2.961  -0.533  1.00  0.00     0.046 C 
HETATM   13  C8  UNL     1      -5.268   2.340   0.856  1.00  0.00     0.108 C 
HETATM   14  C29 UNL     1      -4.036   1.463   1.067  1.00  0.00     0.287 C 
BRANCH  13  15
HETATM   15  C1  UNL     1      -6.552   1.540   1.039  1.00  0.00     0.228 C 
HETATM   16  O1  UNL     1      -7.260   1.738   2.023  1.00  0.00    -0.273 OA
HETATM   17  N1  UNL     1      -6.782   0.593   0.056  1.00  0.00    -0.327 N 
HETATM   18  H1  UNL     1      -6.140   0.583  -0.725  1.00  0.00     0.169 HD
BRANCH  17  19
HETATM   19  C2  UNL     1      -7.829  -0.350  -0.007  1.00  0.00     0.036 A 
HETATM   20  C3  UNL     1      -8.787  -0.524   0.996  1.00  0.00     0.032 A 
HETATM   21  C4  UNL     1      -9.783  -1.496   0.872  1.00  0.00     0.040 A 
HETATM   22  C5  UNL     1      -9.820  -2.303  -0.254  1.00  0.00     0.087 A 
HETATM   23  C6  UNL     1      -8.877  -2.137  -1.268  1.00  0.00     0.069 A 
HETATM   24 CL1  UNL     1      -8.921  -3.131  -2.676  1.00  0.00    -0.081 Cl
HETATM   25  C7  UNL     1      -7.885  -1.164  -1.148  1.00  0.00     0.056 A 
BRANCH  22  26
HETATM   26  O2  UNL     1     -10.803  -3.250  -0.319  1.00  0.00    -0.359 OA
HETATM   27  H4  UNL     1     -10.705  -3.711  -1.171  1.00  0.00     0.217 HD
ENDBRANCH  22  26
ENDBRANCH  17  19
ENDBRANCH  13  15
ENDBRANCH   9  10
ENDBRANCH   1   9
BRANCH   6  28
HETATM   28  C15 UNL     1       4.486  -0.301  -0.346  1.00  0.00     0.030 A 
HETATM   29  C16 UNL     1       4.881  -0.928   0.847  1.00  0.00     0.030 A 
HETATM   30  C17 UNL     1       6.207  -1.327   1.075  1.00  0.00     0.014 A 
HETATM   31  C18 UNL     1       7.206  -1.106   0.118  1.00  0.00    -0.026 A 
HETATM   32  C25 UNL     1       6.811  -0.519  -1.090  1.00  0.00     0.014 A 
HETATM   33  C26 UNL     1       5.481  -0.130  -1.315  1.00  0.00     0.030 A 
BRANCH  31  34
HETATM   34  C19 UNL     1       8.623  -1.414   0.391  1.00  0.00    -0.026 A 
HETATM   35  C20 UNL     1       9.430  -2.071  -0.558  1.00  0.00     0.015 A 
HETATM   36  C21 UNL     1      10.786  -2.303  -0.312  1.00  0.00     0.043 A 
HETATM   37  C22 UNL     1      11.347  -1.889   0.890  1.00  0.00     0.116 A 
HETATM   38  F1  UNL     1      12.647  -2.104   1.119  1.00  0.00    -0.206 F 
HETATM   39  C23 UNL     1      10.576  -1.247   1.851  1.00  0.00     0.043 A 
HETATM   40  C24 UNL     1       9.223  -1.010   1.599  1.00  0.00     0.015 A 
ENDBRANCH  31  34
ENDBRANCH   6  28
TORSDOF 7
