REMARK  5 active torsions:
REMARK  status: ('A' for Active; 'I' for Inactive)
REMARK    1  A    between atoms: C4_4  and  C5_5 
REMARK    2  A    between atoms: C8_11  and  N3_12 
REMARK       I    between atoms: N3_12  and  C9_13 
REMARK       I    between atoms: C9_13  and  N4_15 
REMARK    3  A    between atoms: N4_15  and  C10_16 
REMARK    4  A    between atoms: C14_20  and  O2_21 
REMARK    5  A    between atoms: O2_21  and  C15_22 
ROOT
HETATM    1  N3  UNL     1       0.487   0.311  -1.021  1.00  0.00    -0.295 N 
HETATM    2  C9  UNL     1      -0.213   0.098   0.145  1.00  0.00     0.322 C 
HETATM    3  O1  UNL     1       0.224   0.065   1.285  1.00  0.00    -0.247 OA
HETATM    4  N4  UNL     1      -1.566  -0.059  -0.133  1.00  0.00    -0.338 N 
HETATM    5  H7  UNL     1      -0.058   0.568  -1.825  1.00  0.00     0.172 HD
HETATM    6  H8  UNL     1      -1.758  -0.502  -1.019  1.00  0.00     0.164 HD
ENDROOT
BRANCH   1   7
HETATM    7  C8  UNL     1       1.880   0.421  -1.123  1.00  0.00     0.111 A 
HETATM    8  C7  UNL     1       2.390   0.807  -2.362  1.00  0.00     0.080 A 
HETATM    9  C6  UNL     1       3.780   0.896  -2.440  1.00  0.00     0.065 A 
HETATM   10  N2  UNL     1       4.619   1.245  -3.459  1.00  0.00    -0.299 N 
HETATM   11  C23 UNL     1       4.612   0.614  -1.363  1.00  0.00     0.036 A 
HETATM   12  N1  UNL     1       5.919   1.226  -3.132  1.00  0.00    -0.299 N 
HETATM   13  H5  UNL     1       4.371   1.512  -4.403  1.00  0.00     0.187 HD
HETATM   14  C5  UNL     1       5.941   0.821  -1.848  1.00  0.00     0.072 A 
ATOM     15  H1  UNL     1       6.714   1.465  -3.724  1.00  0.00     0.187 HD
HETATM   16  C22 UNL     1       4.015   0.244  -0.157  1.00  0.00     0.105 A 
HETATM   17  N5  UNL     1       2.665   0.139  -0.066  1.00  0.00    -0.351 N 
ATOM     18  H5  UNL     1       2.240  -0.157   0.813  1.00  0.00     0.166 HD
BRANCH  14  19
HETATM   19  C4  UNL     1       7.212   0.666  -1.138  1.00  0.00    -0.004 A 
HETATM   20  C3  UNL     1       7.415  -0.370  -0.221  1.00  0.00     0.038 A 
HETATM   21  C2  UNL     1       8.639  -0.459   0.435  1.00  0.00     0.005 A 
HETATM   22  C1  UNL     1       8.880  -1.554   1.431  1.00  0.00     0.068 C 
HETATM   23  N6  UNL     1       9.650   0.413   0.217  1.00  0.00    -0.369 N 
HETATM   24  C25 UNL     1       9.441   1.394  -0.688  1.00  0.00     0.089 A 
ATOM     25  H6  UNL     1      10.536   0.333   0.717  1.00  0.00     0.165 HD
HETATM   26  C24 UNL     1       8.258   1.559  -1.382  1.00  0.00     0.031 A 
ENDBRANCH  14  19
ENDBRANCH   1   7
BRANCH   4  27
HETATM   27  C10 UNL     1      -2.501  -0.354   0.948  1.00  0.00     0.088 C 
HETATM   28  C11 UNL     1      -2.463  -1.838   1.328  1.00  0.00     0.025 C 
HETATM   29  C12 UNL     1      -3.353  -2.134   2.536  1.00  0.00     0.004 C 
HETATM   30  C13 UNL     1      -4.523  -1.162   2.678  1.00  0.00     0.032 C 
HETATM   31  C14 UNL     1      -5.028  -0.672   1.320  1.00  0.00     0.131 C 
HETATM   32  C21 UNL     1      -3.922   0.079   0.558  1.00  0.00     0.057 C 
BRANCH  31  33
HETATM   33  O2  UNL     1      -6.137   0.198   1.574  1.00  0.00    -0.346 OA
BRANCH  33  34
HETATM   34  C15 UNL     1      -7.062   0.424   0.595  1.00  0.00     0.072 A 
HETATM   35  C16 UNL     1      -8.079   1.317   0.958  1.00  0.00     0.038 A 
HETATM   36  C17 UNL     1      -9.097   1.653   0.060  1.00  0.00     0.030 A 
HETATM   37  C18 UNL     1      -9.100   1.092  -1.214  1.00  0.00     0.072 A 
HETATM   38 CL1  UNL     1     -10.347   1.510  -2.324  1.00  0.00    -0.081 Cl
HETATM   39  C19 UNL     1      -8.090   0.201  -1.575  1.00  0.00     0.140 A 
HETATM   40  F1  UNL     1      -8.071  -0.351  -2.798  1.00  0.00    -0.204 F 
HETATM   41  C20 UNL     1      -7.074  -0.137  -0.679  1.00  0.00     0.080 A 
ENDBRANCH  33  34
ENDBRANCH  31  33
ENDBRANCH   4  27
TORSDOF 5
