REMARK  5 active torsions:
REMARK  status: ('A' for Active; 'I' for Inactive)
REMARK    1  A    between atoms: C2_2  and  C3_3 
REMARK    2  A    between atoms: C2_2  and  N2_7 
REMARK    3  A    between atoms: C3_3  and  N1_4 
REMARK       I    between atoms: N2_7  and  C6_8 
REMARK       I    between atoms: C6_8  and  N3_10 
REMARK    4  A    between atoms: N3_10  and  C7_11 
REMARK    5  A    between atoms: C10_17  and  C11_18 
ROOT
HETATM    1  C7  UNL     1       0.795   0.128  -0.160  1.00  0.00     0.111 A 
HETATM    2  C8  UNL     1       1.088  -1.109   0.398  1.00  0.00     0.080 A 
HETATM    3  C9  UNL     1       2.445  -1.418   0.479  1.00  0.00     0.065 A 
HETATM    4  N4  UNL     1       3.102  -2.518   0.951  1.00  0.00    -0.299 N 
HETATM    5  N5  UNL     1       4.438  -2.449   0.841  1.00  0.00    -0.299 N 
ATOM      6  H5  UNL     1       5.124  -3.156   1.104  1.00  0.00     0.187 HD
HETATM    7  C10 UNL     1       4.668  -1.238   0.306  1.00  0.00     0.072 A 
HETATM    8  C17 UNL     1       3.441  -0.557   0.039  1.00  0.00     0.036 A 
HETATM    9  C18 UNL     1       3.053   0.659  -0.527  1.00  0.00     0.105 A 
HETATM   10  N6  UNL     1       1.737   0.986  -0.616  1.00  0.00    -0.351 N 
ATOM     11  H6  UNL     1       1.459   1.878  -1.026  1.00  0.00     0.166 HD
HETATM   12  H16 UNL     1       2.696  -3.355   1.354  1.00  0.00     0.187 HD
ENDROOT
BRANCH   1  13
HETATM   13  N3  UNL     1      -0.504   0.609  -0.329  1.00  0.00    -0.295 N 
HETATM   14  C6  UNL     1      -1.678   0.057   0.107  1.00  0.00     0.322 C 
HETATM   15  N2  UNL     1      -2.761   0.813  -0.297  1.00  0.00    -0.337 N 
HETATM   16  O1  UNL     1      -1.798  -0.962   0.775  1.00  0.00    -0.247 OA
HETATM   17  H13 UNL     1      -2.623   1.358  -1.136  1.00  0.00     0.164 HD
HETATM   18  H14 UNL     1      -0.522   1.540  -0.713  1.00  0.00     0.172 HD
BRANCH  15  19
HETATM   19  C2  UNL     1      -4.137   0.386  -0.013  1.00  0.00     0.110 C 
HETATM   20  C1  UNL     1      -4.563  -0.671  -1.031  1.00  0.00     0.034 C 
BRANCH  19  21
HETATM   21  C3  UNL     1      -5.063   1.635   0.016  1.00  0.00     0.296 C 
BRANCH  21  22
HETATM   22  N1  UNL     1      -6.477   1.521   0.395  1.00  0.00     0.081 N 
HETATM   23  C4  UNL     1      -7.362   1.135  -0.695  1.00  0.00     0.309 C 
HETATM   24  C5  UNL     1      -6.700   0.717   1.590  1.00  0.00     0.309 C 
ENDBRANCH  21  22
ENDBRANCH  19  21
ENDBRANCH  15  19
ENDBRANCH   1  13
BRANCH   7  25
HETATM   25  C11 UNL     1       6.036  -0.781   0.054  1.00  0.00    -0.007 A 
HETATM   26  C12 UNL     1       6.419   0.540   0.330  1.00  0.00     0.017 A 
HETATM   27  C13 UNL     1       7.728   0.962   0.081  1.00  0.00     0.043 A 
HETATM   28  C14 UNL     1       8.653   0.062  -0.437  1.00  0.00     0.116 A 
HETATM   29  F1  UNL     1       9.907   0.470  -0.674  1.00  0.00    -0.206 F 
HETATM   30  C15 UNL     1       8.298  -1.253  -0.706  1.00  0.00     0.043 A 
HETATM   31  C16 UNL     1       6.990  -1.676  -0.457  1.00  0.00     0.017 A 
ENDBRANCH   7  25
TORSDOF 5
