REMARK  7 active torsions:
REMARK  status: ('A' for Active; 'I' for Inactive)
REMARK    1  A    between atoms: C5_7  and  O1_8 
REMARK    2  A    between atoms: O1_8  and  C6_9 
REMARK    3  A    between atoms: C6_9  and  C7_10 
REMARK    4  A    between atoms: C7_10  and  N2_11 
REMARK    5  A    between atoms: C7_10  and  C8_12 
REMARK    6  A    between atoms: C8_12  and  C9_13 
REMARK    7  A    between atoms: C18_23  and  C19_24 
ROOT
HETATM    1  C1  UNL     1       3.322  -2.465   2.918  1.00  0.00     0.019 C 
HETATM    2  C2  UNL     1       2.675  -2.158   1.953  1.00  0.00    -0.059 C 
HETATM    3  C3  UNL     1       1.901  -1.794   0.803  1.00  0.00     0.097 A 
HETATM    4  N1  UNL     1       0.609  -2.194   0.886  1.00  0.00    -0.356 N 
ATOM      5  H1  UNL     1       0.254  -2.689   1.704  1.00  0.00     0.166 HD
HETATM    6  C4  UNL     1      -0.189  -1.905  -0.169  1.00  0.00     0.125 A 
HETATM    7  C5  UNL     1       0.235  -1.237  -1.308  1.00  0.00     0.085 A 
HETATM    8  C17 UNL     1       1.573  -0.845  -1.357  1.00  0.00     0.053 A 
HETATM    9  C18 UNL     1       2.447  -1.113  -0.291  1.00  0.00     0.012 A 
ENDROOT
BRANCH   9  10
HETATM   10  C19 UNL     1       3.849  -0.681  -0.364  1.00  0.00    -0.022 A 
HETATM   11  C20 UNL     1       4.740  -1.292  -1.259  1.00  0.00     0.013 A 
HETATM   12  C21 UNL     1       6.073  -0.881  -1.334  1.00  0.00     0.014 A 
HETATM   13  C22 UNL     1       6.544   0.157  -0.514  1.00  0.00    -0.011 A 
HETATM   14  C23 UNL     1       7.866   0.610  -0.544  1.00  0.00     0.099 A 
HETATM   15  C26 UNL     1       5.665   0.787   0.387  1.00  0.00    -0.022 A 
HETATM   16  N4  UNL     1       8.354   1.608   0.230  1.00  0.00    -0.374 N 
HETATM   17  C24 UNL     1       7.484   2.189   1.081  1.00  0.00     0.088 A 
ATOM     18  H4  UNL     1       9.328   1.905   0.172  1.00  0.00     0.164 HD
HETATM   19  C25 UNL     1       6.152   1.821   1.195  1.00  0.00     0.029 A 
HETATM   20  C27 UNL     1       4.326   0.361   0.450  1.00  0.00     0.024 A 
ENDBRANCH   9  10
BRANCH   7  21
HETATM   21  O1  UNL     1      -0.505  -0.912  -2.405  1.00  0.00    -0.348 OA
BRANCH  21  22
HETATM   22  C6  UNL     1      -1.911  -1.182  -2.391  1.00  0.00     0.211 C 
BRANCH  22  23
HETATM   23  C7  UNL     1      -2.716  -0.096  -1.636  1.00  0.00     0.246 C 
BRANCH  23  24
HETATM   24  N2  UNL     1      -2.637   1.201  -2.340  1.00  0.00     0.085 N 
HETATM   25  H6  UNL     1      -3.130   1.145  -3.229  1.00  0.00     0.313 HD
HETATM   26  H7  UNL     1      -3.142   1.897  -1.788  1.00  0.00     0.313 HD
ENDBRANCH  23  24
BRANCH  23  27
HETATM   27  C8  UNL     1      -4.177  -0.569  -1.462  1.00  0.00     0.078 C 
BRANCH  27  28
HETATM   28  C9  UNL     1      -5.010   0.343  -0.612  1.00  0.00    -0.028 A 
HETATM   29  C10 UNL     1      -5.998   1.201  -1.055  1.00  0.00     0.096 A 
HETATM   30  N3  UNL     1      -6.520   1.853   0.029  1.00  0.00    -0.365 N 
HETATM   31  C11 UNL     1      -5.895   1.439   1.181  1.00  0.00     0.042 A 
HETATM   32  H11 UNL     1      -7.261   2.540  -0.004  1.00  0.00     0.165 HD
HETATM   33  C12 UNL     1      -6.102   1.831   2.509  1.00  0.00     0.030 A 
HETATM   34  C16 UNL     1      -4.944   0.487   0.813  1.00  0.00    -0.002 A 
HETATM   35  C13 UNL     1      -5.310   1.232   3.492  1.00  0.00     0.002 A 
HETATM   36  C14 UNL     1      -4.352   0.278   3.158  1.00  0.00     0.001 A 
HETATM   37  C15 UNL     1      -4.159  -0.103   1.825  1.00  0.00     0.014 A 
ENDBRANCH  27  28
ENDBRANCH  23  27
ENDBRANCH  22  23
ENDBRANCH  21  22
ENDBRANCH   7  21
TORSDOF 7
