REMARK  6 active torsions:
REMARK  status: ('A' for Active; 'I' for Inactive)
REMARK       I    between atoms: C1_2  and  N1_3 
REMARK    1  A    between atoms: C1_2  and  C13_19 
REMARK    2  A    between atoms: N1_3  and  C2_4 
REMARK    3  A    between atoms: C2_4  and  C3_5 
REMARK    4  A    between atoms: C2_4  and  C9_13 
REMARK    5  A    between atoms: C18_26  and  N4_27 
REMARK    6  A    between atoms: N4_27  and  C19_28 
ROOT
HETATM    1  C13 UNL     1      -0.046   1.807  -0.467  1.00  0.00     0.034 A 
HETATM    2  C14 UNL     1       0.668   2.983  -0.712  1.00  0.00     0.018 A 
HETATM    3  C15 UNL     1       2.054   2.933  -0.831  1.00  0.00     0.016 A 
HETATM    4  C16 UNL     1       2.721   1.701  -0.685  1.00  0.00     0.006 A 
HETATM    5  C17 UNL     1       4.092   1.551  -0.776  1.00  0.00     0.104 A 
HETATM    6  N3  UNL     1       4.728   0.374  -0.618  1.00  0.00    -0.342 N 
ATOM      7  H3  UNL     1       5.743   0.303  -0.690  1.00  0.00     0.167 HD
HETATM    8  C18 UNL     1       3.972  -0.692  -0.364  1.00  0.00     0.157 A 
HETATM    9  N5  UNL     1       2.635  -0.656  -0.266  1.00  0.00    -0.332 N 
ATOM     10  H5  UNL     1       2.101  -1.504  -0.077  1.00  0.00     0.168 HD
HETATM   11  C24 UNL     1       2.019   0.523  -0.423  1.00  0.00     0.047 A 
HETATM   12  C25 UNL     1       0.637   0.592  -0.318  1.00  0.00     0.047 A 
ENDROOT
BRANCH   1  13
HETATM   13  C1  UNL     1      -1.524   1.884  -0.331  1.00  0.00     0.252 C 
HETATM   14  O1  UNL     1      -2.049   2.921   0.056  1.00  0.00    -0.268 OA
HETATM   15  N1  UNL     1      -2.225   0.753  -0.703  1.00  0.00    -0.345 N 
HETATM   16  H1  UNL     1      -1.775   0.184  -1.413  1.00  0.00     0.163 HD
BRANCH  15  17
HETATM   17  C2  UNL     1      -3.693   0.781  -0.777  1.00  0.00     0.159 C 
BRANCH  17  18
HETATM   18  C3  UNL     1      -4.322   0.842   0.613  1.00  0.00    -0.030 A 
HETATM   19  C4  UNL     1      -3.823   0.085   1.689  1.00  0.00     0.012 A 
HETATM   20  C5  UNL     1      -4.423   0.150   2.950  1.00  0.00     0.044 A 
HETATM   21  C6  UNL     1      -5.522   0.978   3.150  1.00  0.00     0.138 A 
HETATM   22  F1  UNL     1      -6.091   1.014   4.365  1.00  0.00    -0.204 F 
HETATM   23  C7  UNL     1      -6.023   1.750   2.106  1.00  0.00     0.073 A 
HETATM   24 CL1  UNL     1      -7.384   2.777   2.345  1.00  0.00    -0.081 Cl
HETATM   25  C8  UNL     1      -5.423   1.688   0.844  1.00  0.00     0.036 A 
ENDBRANCH  17  18
BRANCH  17  26
HETATM   26  C9  UNL     1      -4.212  -0.371  -1.675  1.00  0.00     0.155 C 
HETATM   27  F2  UNL     1      -3.448  -0.322  -2.827  1.00  0.00    -0.238 F 
HETATM   28  C10 UNL     1      -5.673  -0.267  -2.115  1.00  0.00     0.078 C 
HETATM   29  C11 UNL     1      -6.221  -1.689  -2.020  1.00  0.00     0.273 C 
HETATM   30  N2  UNL     1      -5.052  -2.559  -1.920  1.00  0.00     0.086 N 
HETATM   31  C12 UNL     1      -4.085  -1.791  -1.122  1.00  0.00     0.315 C 
HETATM   32  H10 UNL     1      -5.286  -3.442  -1.468  1.00  0.00     0.316 HD
ENDBRANCH  17  26
ENDBRANCH  15  17
ENDBRANCH   1  13
BRANCH   8  33
HETATM   33  N4  UNL     1       4.532  -1.941  -0.206  1.00  0.00    -0.259 NA
HETATM   34  H16 UNL     1       3.764  -2.538   0.086  1.00  0.00     0.131 HD
BRANCH  33  35
HETATM   35  C19 UNL     1       5.757  -2.144   0.572  1.00  0.00     0.067 C 
HETATM   36  C20 UNL     1       7.032  -1.655  -0.123  1.00  0.00     0.046 C 
HETATM   37  C21 UNL     1       7.596  -0.352   0.427  1.00  0.00     0.169 C 
HETATM   38  O2  UNL     1       7.568  -0.331   1.852  1.00  0.00    -0.391 OA
HETATM   39  C22 UNL     1       6.230  -0.377   2.341  1.00  0.00     0.169 C 
HETATM   40  C23 UNL     1       5.616  -1.733   2.041  1.00  0.00     0.046 C 
ENDBRANCH  33  35
ENDBRANCH   8  33
TORSDOF 6
