REMARK  5 active torsions:
REMARK  status: ('A' for Active; 'I' for Inactive)
REMARK    1  A    between atoms: C2_2  and  N1_3 
REMARK    2  A    between atoms: C2_2  and  C20_31 
REMARK       I    between atoms: N1_3  and  C3_4 
REMARK       I    between atoms: C3_4  and  N2_6 
REMARK    3  A    between atoms: N2_6  and  C4_7 
REMARK    4  A    between atoms: C7_13  and  C8_14 
REMARK    5  A    between atoms: C11_17  and  N5_18 
ROOT
HETATM    1  C4  UNL     1      -2.235   0.313  -0.910  1.00  0.00     0.111 A 
HETATM    2  C5  UNL     1      -1.866   0.914  -2.113  1.00  0.00     0.080 A 
HETATM    3  C6  UNL     1      -0.497   1.112  -2.291  1.00  0.00     0.065 A 
HETATM    4  N3  UNL     1       0.225   1.679  -3.300  1.00  0.00    -0.299 N 
HETATM    5  N4  UNL     1       1.550   1.699  -3.088  1.00  0.00    -0.299 N 
ATOM      6  H4  UNL     1       2.274   2.088  -3.692  1.00  0.00     0.187 HD
HETATM    7  C7  UNL     1       1.706   1.091  -1.900  1.00  0.00     0.073 A 
HETATM    8  C18 UNL     1       0.444   0.718  -1.349  1.00  0.00     0.036 A 
HETATM    9  C19 UNL     1      -0.011   0.116  -0.176  1.00  0.00     0.105 A 
HETATM   10  N7  UNL     1      -1.340  -0.085   0.014  1.00  0.00    -0.351 N 
ATOM     11  H7  UNL     1      -1.664  -0.543   0.866  1.00  0.00     0.166 HD
HETATM   12  H8  UNL     1      -0.123   2.080  -4.163  1.00  0.00     0.187 HD
ENDROOT
BRANCH   1  13
HETATM   13  N2  UNL     1      -3.605   0.101  -0.701  1.00  0.00    -0.295 N 
HETATM   14  C3  UNL     1      -4.183  -0.226   0.501  1.00  0.00     0.322 C 
HETATM   15  N1  UNL     1      -5.533  -0.471   0.337  1.00  0.00    -0.335 N 
HETATM   16  O1  UNL     1      -3.648  -0.269   1.599  1.00  0.00    -0.247 OA
HETATM   17  H5  UNL     1      -5.812  -0.841  -0.557  1.00  0.00     0.165 HD
HETATM   18  H6  UNL     1      -4.237   0.426  -1.412  1.00  0.00     0.172 HD
BRANCH  15  19
HETATM   19  C2  UNL     1      -6.373  -0.833   1.468  1.00  0.00     0.115 C 
HETATM   20  C1  UNL     1      -6.139  -2.289   1.892  1.00  0.00     0.037 C 
BRANCH  19  21
HETATM   21  C20 UNL     1      -7.819  -0.506   1.127  1.00  0.00    -0.036 A 
HETATM   22  C21 UNL     1      -8.288   0.802   1.357  1.00  0.00     0.012 A 
HETATM   23  C22 UNL     1      -9.603   1.155   1.052  1.00  0.00     0.043 A 
HETATM   24  C23 UNL     1     -10.457   0.207   0.506  1.00  0.00     0.116 A 
HETATM   25  F1  UNL     1     -11.723   0.543   0.222  1.00  0.00    -0.206 F 
HETATM   26  C24 UNL     1     -10.016  -1.085   0.252  1.00  0.00     0.043 A 
HETATM   27  C25 UNL     1      -8.699  -1.441   0.555  1.00  0.00     0.012 A 
ENDBRANCH  19  21
ENDBRANCH  15  19
ENDBRANCH   1  13
BRANCH   7  28
HETATM   28  C8  UNL     1       3.032   0.896  -1.330  1.00  0.00     0.009 A 
HETATM   29  C9  UNL     1       3.980   1.908  -1.337  1.00  0.00     0.019 A 
HETATM   30  C10 UNL     1       5.233   1.686  -0.758  1.00  0.00     0.049 A 
HETATM   31  C11 UNL     1       5.544   0.450  -0.190  1.00  0.00     0.102 A 
HETATM   32  N6  UNL     1       4.621  -0.538  -0.186  1.00  0.00    -0.352 N 
HETATM   33  C17 UNL     1       3.409  -0.306  -0.750  1.00  0.00     0.103 A 
ATOM     34  H6  UNL     1       4.832  -1.443   0.234  1.00  0.00     0.166 HD
BRANCH  31  35
HETATM   35  N5  UNL     1       6.775   0.218   0.412  1.00  0.00    -0.367 N 
HETATM   36  C12 UNL     1       6.938  -1.063   1.102  1.00  0.00     0.124 C 
HETATM   37  C13 UNL     1       8.122  -0.974   2.061  1.00  0.00     0.020 C 
HETATM   38  C14 UNL     1       9.425  -0.620   1.346  1.00  0.00     0.003 C 
HETATM   39  C15 UNL     1       9.199  -0.001  -0.029  1.00  0.00     0.020 C 
HETATM   40  C16 UNL     1       7.973   0.909  -0.069  1.00  0.00     0.124 C 
ENDBRANCH  31  35
ENDBRANCH   7  28
TORSDOF 5
