REMARK  4 active torsions:
REMARK  status: ('A' for Active; 'I' for Inactive)
REMARK    1  A    between atoms: C4_5  and  C5_6 
REMARK    2  A    between atoms: C5_6  and  N2_7 
REMARK       I    between atoms: N2_7  and  C6_8 
REMARK       I    between atoms: C6_8  and  N3_10 
REMARK    3  A    between atoms: N3_10  and  C7_11 
REMARK    4  A    between atoms: C10_17  and  C11_18 
ROOT
HETATM    1  C7  UNL     1       1.014  -0.008   0.721  1.00  0.00     0.111 A 
HETATM    2  C8  UNL     1       1.379  -1.027  -0.152  1.00  0.00     0.080 A 
HETATM    3  C9  UNL     1       2.728  -1.050  -0.504  1.00  0.00     0.065 A 
HETATM    4  N4  UNL     1       3.437  -1.873  -1.332  1.00  0.00    -0.299 N 
HETATM    5  N5  UNL     1       4.737  -1.555  -1.438  1.00  0.00    -0.299 N 
ATOM      6  H5  UNL     1       5.445  -2.006  -2.017  1.00  0.00     0.187 HD
HETATM    7  C10 UNL     1       4.897  -0.508  -0.609  1.00  0.00     0.072 A 
HETATM    8  C17 UNL     1       3.651  -0.134  -0.017  1.00  0.00     0.036 A 
HETATM    9  C18 UNL     1       3.191   0.866   0.843  1.00  0.00     0.105 A 
HETATM   10  N6  UNL     1       1.881   0.913   1.204  1.00  0.00    -0.351 N 
ATOM     11  H6  UNL     1       1.552   1.641   1.838  1.00  0.00     0.166 HD
HETATM   12  H14 UNL     1       3.092  -2.668  -1.857  1.00  0.00     0.187 HD
ENDROOT
BRANCH   1  13
HETATM   13  N3  UNL     1      -0.289   0.180   1.184  1.00  0.00    -0.295 N 
HETATM   14  C6  UNL     1      -1.388  -0.607   0.973  1.00  0.00     0.321 C 
HETATM   15  N2  UNL     1      -2.508  -0.076   1.581  1.00  0.00    -0.342 N 
HETATM   16  O1  UNL     1      -1.419  -1.658   0.347  1.00  0.00    -0.247 OA
HETATM   17  H11 UNL     1      -2.485   0.907   1.805  1.00  0.00     0.164 HD
HETATM   18  H12 UNL     1      -0.357   0.941   1.840  1.00  0.00     0.172 HD
BRANCH  15  19
HETATM   19  C5  UNL     1      -3.812  -0.694   1.420  1.00  0.00     0.130 C 
BRANCH  19  20
HETATM   20  C4  UNL     1      -4.488  -0.291   0.111  1.00  0.00     0.033 C 
HETATM   21  C3  UNL     1      -4.901   1.188   0.053  1.00  0.00     0.038 C 
HETATM   22  C2  UNL     1      -6.321   1.187  -0.509  1.00  0.00     0.272 C 
HETATM   23  N1  UNL     1      -6.482  -0.160  -1.059  1.00  0.00     0.084 N 
HETATM   24  C1  UNL     1      -7.877  -0.524  -1.255  1.00  0.00     0.309 C 
HETATM   25  C19 UNL     1      -5.793  -1.046  -0.118  1.00  0.00     0.278 C 
ENDBRANCH  19  20
ENDBRANCH  15  19
ENDBRANCH   1  13
BRANCH   7  26
HETATM   26  C11 UNL     1       6.213   0.110  -0.431  1.00  0.00    -0.007 A 
HETATM   27  C12 UNL     1       6.645   0.543   0.831  1.00  0.00     0.017 A 
HETATM   28  C13 UNL     1       7.902   1.134   0.982  1.00  0.00     0.043 A 
HETATM   29  C14 UNL     1       8.729   1.285  -0.125  1.00  0.00     0.116 A 
HETATM   30  F1  UNL     1       9.933   1.852   0.023  1.00  0.00    -0.206 F 
HETATM   31  C15 UNL     1       8.328   0.847  -1.382  1.00  0.00     0.043 A 
HETATM   32  C16 UNL     1       7.070   0.259  -1.535  1.00  0.00     0.017 A 
ENDBRANCH   7  26
TORSDOF 4
