REMARK  4 active torsions:
REMARK  status: ('A' for Active; 'I' for Inactive)
REMARK    1  A    between atoms: C2_2  and  N1_3 
REMARK    2  A    between atoms: C2_2  and  C16_25 
REMARK       I    between atoms: N1_3  and  C3_4 
REMARK       I    between atoms: C3_4  and  N2_6 
REMARK    3  A    between atoms: N2_6  and  C4_7 
REMARK    4  A    between atoms: C7_13  and  C8_14 
ROOT
HETATM    1  C4  UNL     1       0.576  -0.140   0.035  1.00  0.00     0.111 A 
HETATM    2  C5  UNL     1       1.096  -1.410   0.245  1.00  0.00     0.080 A 
HETATM    3  C6  UNL     1       2.480  -1.467   0.402  1.00  0.00     0.065 A 
HETATM    4  N3  UNL     1       3.328  -2.511   0.636  1.00  0.00    -0.299 N 
HETATM    5  N4  UNL     1       4.618  -2.158   0.740  1.00  0.00    -0.299 N 
ATOM      6  H4  UNL     1       5.418  -2.762   0.929  1.00  0.00     0.187 HD
HETATM    7  C7  UNL     1       4.620  -0.829   0.540  1.00  0.00     0.072 A 
HETATM    8  C14 UNL     1       3.292  -0.342   0.342  1.00  0.00     0.036 A 
HETATM    9  C15 UNL     1       2.682   0.896   0.135  1.00  0.00     0.105 A 
HETATM   10  N5  UNL     1       1.335   0.980  -0.023  1.00  0.00    -0.351 N 
ATOM     11  H5  UNL     1       0.896   1.886  -0.185  1.00  0.00     0.166 HD
HETATM   12  H8  UNL     1       3.088  -3.491   0.743  1.00  0.00     0.187 HD
ENDROOT
BRANCH   1  13
HETATM   13  N2  UNL     1      -0.783   0.117  -0.150  1.00  0.00    -0.295 N 
HETATM   14  C3  UNL     1      -1.833  -0.755  -0.061  1.00  0.00     0.322 C 
HETATM   15  N1  UNL     1      -3.027  -0.131  -0.349  1.00  0.00    -0.335 N 
HETATM   16  O1  UNL     1      -1.771  -1.940   0.242  1.00  0.00    -0.247 OA
HETATM   17  H5  UNL     1      -2.979   0.714  -0.898  1.00  0.00     0.165 HD
HETATM   18  H6  UNL     1      -0.976   1.101  -0.247  1.00  0.00     0.172 HD
BRANCH  15  19
HETATM   19  C2  UNL     1      -4.277  -0.871  -0.380  1.00  0.00     0.115 C 
HETATM   20  C1  UNL     1      -4.403  -1.704  -1.660  1.00  0.00     0.037 C 
BRANCH  19  21
HETATM   21  C16 UNL     1      -5.432   0.098  -0.179  1.00  0.00    -0.034 A 
HETATM   22  C17 UNL     1      -5.997   0.238   1.101  1.00  0.00     0.012 A 
HETATM   23  C18 UNL     1      -7.043   1.136   1.328  1.00  0.00     0.044 A 
HETATM   24  C19 UNL     1      -7.526   1.910   0.279  1.00  0.00     0.138 A 
HETATM   25  F2  UNL     1      -8.528   2.768   0.519  1.00  0.00    -0.204 F 
HETATM   26  C20 UNL     1      -6.972   1.799  -0.993  1.00  0.00     0.073 A 
HETATM   27 CL1  UNL     1      -7.556   2.765  -2.293  1.00  0.00    -0.081 Cl
HETATM   28  C21 UNL     1      -5.926   0.901  -1.223  1.00  0.00     0.036 A 
ENDBRANCH  19  21
ENDBRANCH  15  19
ENDBRANCH   1  13
BRANCH   7  29
HETATM   29  C8  UNL     1       5.874  -0.074   0.557  1.00  0.00    -0.007 A 
HETATM   30  C9  UNL     1       6.118   0.943  -0.378  1.00  0.00     0.017 A 
HETATM   31  C10 UNL     1       7.319   1.657  -0.346  1.00  0.00     0.043 A 
HETATM   32  C11 UNL     1       8.276   1.351   0.615  1.00  0.00     0.116 A 
HETATM   33  F1  UNL     1       9.425   2.037   0.643  1.00  0.00    -0.206 F 
HETATM   34  C12 UNL     1       8.058   0.340   1.543  1.00  0.00     0.043 A 
HETATM   35  C13 UNL     1       6.859  -0.375   1.512  1.00  0.00     0.017 A 
ENDBRANCH   7  29
TORSDOF 4
