REMARK  8 active torsions:
REMARK  status: ('A' for Active; 'I' for Inactive)
REMARK    1  A    between atoms: C2_2  and  C3_3 
REMARK       I    between atoms: C3_3  and  N1_5 
REMARK    2  A    between atoms: N1_5  and  C4_6 
REMARK    3  A    between atoms: C10_12  and  N2_13 
REMARK    4  A    between atoms: N2_13  and  C11_14 
REMARK    5  A    between atoms: C12_17  and  N4_18 
REMARK    6  A    between atoms: N4_18  and  C13_19 
REMARK    7  A    between atoms: C15_21  and  O2_22 
REMARK    8  A    between atoms: C21_32  and  C22_33 
ROOT
HETATM    1  C11 UNL     1      -0.504  -2.436  -0.051  1.00  0.00     0.138 A 
HETATM    2  N3  UNL     1       0.602  -1.711   0.201  1.00  0.00    -0.176 N 
ATOM      3  H3  UNL     1       0.613  -0.711   0.001  1.00  0.00     0.186 HD
HETATM    4  C12 UNL     1       1.685  -2.301   0.713  1.00  0.00     0.684 A 
HETATM    5  N6  UNL     1       1.727  -3.608   0.994  1.00  0.00    -0.201 N 
ATOM      6  H6  UNL     1       2.559  -4.040   1.395  1.00  0.00     0.183 HD
HETATM    7  C20 UNL     1       0.623  -4.327   0.724  1.00  0.00     0.126 A 
HETATM    8  C21 UNL     1      -0.531  -3.792   0.197  1.00  0.00     0.108 A 
ENDROOT
BRANCH   1   9
HETATM    9  N2  UNL     1      -1.617  -1.786  -0.619  1.00  0.00    -0.339 N 
HETATM   10  H11 UNL     1      -2.520  -2.094  -0.275  1.00  0.00     0.167 HD
BRANCH   9  11
HETATM   11  C10 UNL     1      -1.644  -0.496  -1.208  1.00  0.00     0.060 A 
HETATM   12  C4  UNL     1      -2.641   0.449  -0.871  1.00  0.00     0.062 A 
HETATM   13  C5  UNL     1      -2.651   1.693  -1.517  1.00  0.00     0.038 A 
HETATM   14  C6  UNL     1      -1.672   2.031  -2.463  1.00  0.00    -0.060 A 
HETATM   15  C7  UNL     1      -1.667   3.393  -3.095  1.00  0.00     0.048 C 
HETATM   16  C8  UNL     1      -0.655   1.121  -2.744  1.00  0.00     0.009 A 
HETATM   17  C9  UNL     1      -0.644  -0.128  -2.124  1.00  0.00     0.032 A 
BRANCH  12  18
HETATM   18  N1  UNL     1      -3.548   0.137   0.174  1.00  0.00    -0.322 N 
HETATM   19  C3  UNL     1      -4.678   0.834   0.531  1.00  0.00     0.244 C 
HETATM   20  O1  UNL     1      -5.224   1.736  -0.095  1.00  0.00    -0.268 OA
HETATM   21  H4  UNL     1      -3.307  -0.662   0.738  1.00  0.00     0.169 HD
BRANCH  19  22
HETATM   22  C2  UNL     1      -5.330   0.344   1.779  1.00  0.00     0.064 C 
HETATM   23  C1  UNL     1      -4.699  -0.198   2.828  1.00  0.00     0.017 C 
ENDBRANCH  19  22
ENDBRANCH  12  18
ENDBRANCH   9  11
ENDBRANCH   1   9
BRANCH   8  24
HETATM   24  C22 UNL     1      -1.706  -4.642  -0.100  1.00  0.00     0.422 C 
HETATM   25  F1  UNL     1      -1.664  -5.856   0.516  1.00  0.00    -0.166 F 
HETATM   26  F2  UNL     1      -1.855  -4.903  -1.426  1.00  0.00    -0.166 F 
HETATM   27  F3  UNL     1      -2.879  -4.068   0.303  1.00  0.00    -0.166 F 
ENDBRANCH   8  24
BRANCH   4  28
HETATM   28  N4  UNL     1       2.854  -1.595   0.985  1.00  0.00    -0.191 N 
HETATM   29  H12 UNL     1       3.525  -2.232   1.385  1.00  0.00     0.184 HD
BRANCH  28  30
HETATM   30  C13 UNL     1       3.211  -0.240   0.910  1.00  0.00     0.060 A 
HETATM   31  C14 UNL     1       2.315   0.757   0.512  1.00  0.00     0.086 A 
HETATM   32  C15 UNL     1       2.741   2.074   0.435  1.00  0.00     0.143 A 
HETATM   33  N5  UNL     1       3.993   2.477   0.721  1.00  0.00    -0.346 N 
HETATM   34  C17 UNL     1       4.854   1.511   1.092  1.00  0.00     0.099 A 
ATOM     35  H5  UNL     1       4.273   3.456   0.660  1.00  0.00     0.167 HD
HETATM   36  C18 UNL     1       4.531   0.157   1.204  1.00  0.00    -0.019 A 
HETATM   37  C19 UNL     1       5.601  -0.817   1.609  1.00  0.00     0.052 C 
BRANCH  32  38
HETATM   38  O2  UNL     1       1.798   2.998   0.027  1.00  0.00    -0.341 OA
HETATM   39  C16 UNL     1       2.293   4.332   0.003  1.00  0.00     0.211 C 
ENDBRANCH  32  38
ENDBRANCH  28  30
ENDBRANCH   4  28
TORSDOF 8
