REMARK  4 active torsions:
REMARK  status: ('A' for Active; 'I' for Inactive)
REMARK    1  A    between atoms: C4_4  and  C5_5 
REMARK    2  A    between atoms: C8_11  and  N3_12 
REMARK       I    between atoms: N3_12  and  C9_13 
REMARK       I    between atoms: C9_13  and  N4_15 
REMARK    3  A    between atoms: N4_15  and  C10_16 
REMARK    4  A    between atoms: C10_16  and  C11_17 
ROOT
HETATM    1  C5  UNL     1      -5.155   1.496  -0.172  1.00  0.00     0.072 A 
HETATM    2  N1  UNL     1      -5.219   2.592  -0.950  1.00  0.00    -0.299 N 
ATOM      3  H1  UNL     1      -6.050   3.117  -1.222  1.00  0.00     0.187 HD
HETATM    4  N2  UNL     1      -3.945   2.840  -1.288  1.00  0.00    -0.299 N 
HETATM    5  C6  UNL     1      -3.050   1.936  -0.795  1.00  0.00     0.065 A 
HETATM    6  C7  UNL     1      -1.667   1.828  -0.935  1.00  0.00     0.080 A 
HETATM    7  C8  UNL     1      -1.091   0.738  -0.296  1.00  0.00     0.111 A 
HETATM    8  N7  UNL     1      -1.797  -0.164   0.425  1.00  0.00    -0.351 N 
ATOM      9  H7  UNL     1      -1.317  -0.940   0.882  1.00  0.00     0.166 HD
HETATM   10  C19 UNL     1      -3.145  -0.037   0.541  1.00  0.00     0.105 A 
HETATM   11  C20 UNL     1      -3.807   1.032  -0.063  1.00  0.00     0.036 A 
HETATM   12  H5  UNL     1      -3.750   3.645  -1.873  1.00  0.00     0.187 HD
ENDROOT
BRANCH   7  13
HETATM   13  N3  UNL     1       0.275   0.456  -0.335  1.00  0.00    -0.295 N 
HETATM   14  C9  UNL     1       1.252   1.080  -1.061  1.00  0.00     0.322 C 
HETATM   15  O1  UNL     1       1.101   2.021  -1.830  1.00  0.00    -0.247 OA
HETATM   16  N4  UNL     1       2.477   0.493  -0.852  1.00  0.00    -0.337 N 
HETATM   17  H8  UNL     1       2.644   0.106   0.068  1.00  0.00     0.164 HD
HETATM   18  H7  UNL     1       0.512  -0.398   0.144  1.00  0.00     0.172 HD
BRANCH  16  19
HETATM   19  C10 UNL     1       3.655   1.048  -1.479  1.00  0.00     0.182 C 
BRANCH  19  20
HETATM   20  C11 UNL     1       4.791   0.130  -1.195  1.00  0.00     0.044 A 
HETATM   21  C12 UNL     1       5.542  -0.621  -2.077  1.00  0.00     0.124 A 
HETATM   22  N5  UNL     1       6.429  -1.326  -1.302  1.00  0.00    -0.317 N 
HETATM   23  C13 UNL     1       7.400  -2.241  -1.689  1.00  0.00     0.098 A 
HETATM   24  C18 UNL     1       6.187  -0.970   0.021  1.00  0.00     0.117 A 
HETATM   25  C14 UNL     1       8.161  -2.818  -0.747  1.00  0.00     0.018 A 
HETATM   26  C15 UNL     1       7.953  -2.455   0.646  1.00  0.00     0.012 A 
HETATM   27  C16 UNL     1       7.008  -1.567   1.040  1.00  0.00    -0.017 A 
HETATM   28  C17 UNL     1       6.851  -1.230   2.498  1.00  0.00     0.052 C 
HETATM   29  N6  UNL     1       5.193  -0.107   0.111  1.00  0.00    -0.343 N 
ATOM     30  H6  UNL     1       4.803   0.300   0.961  1.00  0.00     0.167 HD
ENDBRANCH  19  20
ENDBRANCH  16  19
ENDBRANCH   7  13
BRANCH   1  31
HETATM   31  C4  UNL     1      -6.371   0.926   0.408  1.00  0.00    -0.004 A 
HETATM   32  C3  UNL     1      -6.374   0.376   1.693  1.00  0.00     0.038 A 
HETATM   33  C2  UNL     1      -7.554  -0.173   2.188  1.00  0.00     0.005 A 
HETATM   34  C1  UNL     1      -7.581  -0.806   3.548  1.00  0.00     0.068 C 
HETATM   35  N8  UNL     1      -8.706  -0.182   1.480  1.00  0.00    -0.369 N 
HETATM   36  C22 UNL     1      -8.687   0.374   0.250  1.00  0.00     0.089 A 
ATOM     37  H8  UNL     1      -9.558  -0.594   1.861  1.00  0.00     0.165 HD
HETATM   38  C21 UNL     1      -7.560   0.932  -0.322  1.00  0.00     0.031 A 
ENDBRANCH   1  31
TORSDOF 4
