REMARK  3 active torsions:
REMARK  status: ('A' for Active; 'I' for Inactive)
REMARK       I    between atoms: C1_2  and  N1_3 
REMARK       I    between atoms: C1_2  and  N6_23 
REMARK    1  A    between atoms: N1_3  and  C2_4 
REMARK    2  A    between atoms: N4_11  and  C6_12 
REMARK    3  A    between atoms: N6_23  and  C14_24 
ROOT
HETATM    1  C2  UNL     1       0.469  -0.527  -0.288  1.00  0.00     0.111 A 
HETATM    2  C3  UNL     1       1.183  -1.189  -1.286  1.00  0.00     0.080 A 
HETATM    3  C4  UNL     1       2.564  -0.994  -1.267  1.00  0.00     0.067 A 
HETATM    4  N2  UNL     1       3.569  -1.460  -2.066  1.00  0.00    -0.298 N 
HETATM    5  N3  UNL     1       4.785  -1.017  -1.730  1.00  0.00    -0.284 N 
ATOM      6  H3  UNL     1       5.670  -1.205  -2.201  1.00  0.00     0.188 HD
HETATM    7  C5  UNL     1       4.582  -0.272  -0.638  1.00  0.00     0.134 A 
HETATM    8  N4  UNL     1       5.538   0.385   0.066  1.00  0.00    -0.339 N 
HETATM    9  C12 UNL     1       3.194  -0.203  -0.317  1.00  0.00     0.053 A 
HETATM   10  C13 UNL     1       2.403   0.414   0.651  1.00  0.00     0.107 A 
HETATM   11  N5  UNL     1       1.054   0.256   0.636  1.00  0.00    -0.351 N 
ATOM     12  H5  UNL     1       0.480   0.735   1.331  1.00  0.00     0.166 HD
HETATM   13  H3  UNL     1       3.494  -2.077  -2.866  1.00  0.00     0.187 HD
HETATM   14  H4  UNL     1       5.267   1.152   0.673  1.00  0.00     0.167 HD
ENDROOT
BRANCH   1  15
HETATM   15  N1  UNL     1      -0.925  -0.654  -0.323  1.00  0.00    -0.295 N 
HETATM   16  C1  UNL     1      -1.791  -0.245   0.664  1.00  0.00     0.322 C 
HETATM   17  O1  UNL     1      -1.515   0.088   1.806  1.00  0.00    -0.247 OA
HETATM   18  N6  UNL     1      -3.092  -0.278   0.192  1.00  0.00    -0.334 N 
HETATM   19  H10 UNL     1      -3.182  -0.090  -0.798  1.00  0.00     0.165 HD
HETATM   20  H1  UNL     1      -1.320  -1.240  -1.037  1.00  0.00     0.172 HD
BRANCH  18  21
HETATM   21  C14 UNL     1      -4.201   0.177   1.026  1.00  0.00     0.122 C 
HETATM   22  C15 UNL     1      -4.859  -0.996   1.772  1.00  0.00     0.032 C 
HETATM   23  C16 UNL     1      -5.330  -2.146   0.881  1.00  0.00     0.029 C 
HETATM   24  C17 UNL     1      -5.997  -1.681  -0.403  1.00  0.00     0.175 C 
HETATM   25  O2  UNL     1      -6.923  -0.631  -0.136  1.00  0.00    -0.351 OA
HETATM   26  C18 UNL     1      -6.393   0.623  -0.288  1.00  0.00     0.077 A 
HETATM   27  C19 UNL     1      -7.229   1.522  -0.959  1.00  0.00     0.037 A 
HETATM   28  C23 UNL     1      -5.147   1.040   0.205  1.00  0.00    -0.002 A 
HETATM   29  C20 UNL     1      -6.819   2.834  -1.192  1.00  0.00     0.003 A 
HETATM   30  C21 UNL     1      -5.570   3.255  -0.753  1.00  0.00     0.001 A 
HETATM   31  C22 UNL     1      -4.745   2.368  -0.058  1.00  0.00     0.012 A 
ENDBRANCH  18  21
ENDBRANCH   1  15
BRANCH   8  32
HETATM   32  C6  UNL     1       6.943   0.244  -0.033  1.00  0.00     0.055 A 
HETATM   33  C7  UNL     1       7.705   1.408  -0.242  1.00  0.00     0.031 A 
HETATM   34  C8  UNL     1       9.090   1.346  -0.408  1.00  0.00     0.002 A 
HETATM   35  C9  UNL     1       9.741   0.117  -0.370  1.00  0.00     0.002 A 
HETATM   36  C10 UNL     1       9.009  -1.048  -0.151  1.00  0.00     0.026 A 
HETATM   37  C11 UNL     1       7.622  -0.989   0.022  1.00  0.00     0.060 A 
HETATM   38 CL1  UNL     1       6.826  -2.474   0.420  1.00  0.00    -0.082 Cl
ENDBRANCH   8  32
TORSDOF 3
