REMARK  6 active torsions:
REMARK  status: ('A' for Active; 'I' for Inactive)
REMARK    1  A    between atoms: O1_2  and  C2_3 
REMARK    2  A    between atoms: C7_9  and  C8_10 
REMARK    3  A    between atoms: C8_10  and  N1_11 
REMARK    4  A    between atoms: C12_15  and  N2_16 
REMARK       I    between atoms: N2_16  and  C13_17 
REMARK       I    between atoms: C13_17  and  N3_19 
REMARK    5  A    between atoms: N3_19  and  C14_20 
REMARK    6  A    between atoms: C17_26  and  C18_27 
ROOT
HETATM    1  C18 UNL     1       7.222   0.977   1.132  1.00  0.00    -0.007 A 
HETATM    2  C19 UNL     1       7.899   0.601  -0.037  1.00  0.00     0.015 A 
HETATM    3  C20 UNL     1       9.152   1.148  -0.337  1.00  0.00     0.023 A 
HETATM    4  C21 UNL     1       9.744   2.072   0.530  1.00  0.00     0.044 A 
HETATM    5  C22 UNL     1      11.028   2.630   0.221  1.00  0.00     0.099 C 
HETATM    6  N6  UNL     1      12.066   3.082  -0.034  1.00  0.00    -0.191 NA
HETATM    7  C23 UNL     1       9.080   2.443   1.703  1.00  0.00     0.023 A 
HETATM    8  C24 UNL     1       7.828   1.895   2.002  1.00  0.00     0.015 A 
ENDROOT
BRANCH   1   9
HETATM    9  C17 UNL     1       5.913   0.412   1.461  1.00  0.00     0.072 A 
HETATM   10  N5  UNL     1       5.620   0.057   2.724  1.00  0.00    -0.299 N 
HETATM   11  N4  UNL     1       4.374  -0.436   2.653  1.00  0.00    -0.299 N 
ATOM     12  H5  UNL     1       6.212   0.143   3.550  1.00  0.00     0.187 HD
HETATM   13  C16 UNL     1       3.826  -0.390   1.403  1.00  0.00     0.065 A 
HETATM   14  H19 UNL     1       3.946  -0.788   3.503  1.00  0.00     0.187 HD
HETATM   15  C15 UNL     1       2.576  -0.780   0.922  1.00  0.00     0.080 A 
HETATM   16  C25 UNL     1       4.804   0.170   0.593  1.00  0.00     0.036 A 
HETATM   17  C14 UNL     1       2.373  -0.567  -0.436  1.00  0.00     0.111 A 
HETATM   18  N7  UNL     1       3.296  -0.007  -1.252  1.00  0.00    -0.351 N 
HETATM   19  C26 UNL     1       4.505   0.366  -0.756  1.00  0.00     0.105 A 
ATOM     20  H7  UNL     1       3.084   0.135  -2.240  1.00  0.00     0.166 HD
BRANCH  17  21
HETATM   21  N3  UNL     1       1.186  -0.889  -1.095  1.00  0.00    -0.295 N 
HETATM   22  C13 UNL     1       0.102  -1.566  -0.606  1.00  0.00     0.322 C 
HETATM   23  N2  UNL     1      -0.902  -1.640  -1.551  1.00  0.00    -0.337 N 
HETATM   24  O2  UNL     1      -0.004  -2.065   0.506  1.00  0.00    -0.247 OA
HETATM   25  H16 UNL     1      -0.934  -0.868  -2.202  1.00  0.00     0.164 HD
HETATM   26  H17 UNL     1       1.227  -0.701  -2.083  1.00  0.00     0.172 HD
BRANCH  23  27
HETATM   27  C12 UNL     1      -2.191  -2.236  -1.212  1.00  0.00     0.114 C 
HETATM   28  C11 UNL     1      -2.968  -2.579  -2.481  1.00  0.00     0.029 C 
HETATM   29  C10 UNL     1      -4.313  -3.228  -2.146  1.00  0.00     0.032 C 
HETATM   30  C9  UNL     1      -4.842  -2.856  -0.755  1.00  0.00     0.273 C 
HETATM   31  N1  UNL     1      -4.495  -1.471  -0.441  1.00  0.00     0.094 N 
HETATM   32  C27 UNL     1      -3.034  -1.313  -0.286  1.00  0.00     0.297 C 
BRANCH  31  33
HETATM   33  C8  UNL     1      -5.229  -0.989   0.744  1.00  0.00     0.317 C 
BRANCH  33  34
HETATM   34  C7  UNL     1      -5.172   0.512   0.920  1.00  0.00     0.042 A 
HETATM   35  C2  UNL     1      -5.964   1.385   0.149  1.00  0.00     0.079 A 
HETATM   36  C3  UNL     1      -5.863   2.769   0.345  1.00  0.00     0.037 A 
HETATM   37  C4  UNL     1      -4.979   3.292   1.293  1.00  0.00     0.006 A 
HETATM   38  C5  UNL     1      -4.195   2.435   2.056  1.00  0.00     0.043 A 
HETATM   39  C6  UNL     1      -4.299   1.061   1.867  1.00  0.00     0.127 A 
HETATM   40  F1  UNL     1      -3.533   0.257   2.619  1.00  0.00    -0.205 F 
BRANCH  35  41
HETATM   41  O1  UNL     1      -6.824   0.794  -0.740  1.00  0.00    -0.355 OA
HETATM   42  C1  UNL     1      -7.450   1.633  -1.700  1.00  0.00     0.210 C 
ENDBRANCH  35  41
ENDBRANCH  33  34
ENDBRANCH  31  33
ENDBRANCH  23  27
ENDBRANCH  17  21
ENDBRANCH   1   9
TORSDOF 6
