REMARK  7 active torsions:
REMARK  status: ('A' for Active; 'I' for Inactive)
REMARK       I    between atoms: C1_2  and  N1_3 
REMARK    1  A    between atoms: C1_2  and  C8_12 
REMARK    2  A    between atoms: N1_3  and  C2_4 
REMARK    3  A    between atoms: C5_7  and  O2_8 
REMARK    4  A    between atoms: N2_15  and  C11_16 
REMARK    5  A    between atoms: C11_16  and  C12_17 
REMARK       I    between atoms: C12_17  and  N3_19 
REMARK    6  A    between atoms: N4_22  and  C15_23 
REMARK    7  A    between atoms: C18_26  and  C19_27 
ROOT
HETATM    1  C11 UNL     1      -1.091  -0.184   1.532  1.00  0.00     0.374 C 
ENDROOT
BRANCH   1   2
HETATM    2  N2  UNL     1      -2.540   0.066   1.452  1.00  0.00     0.098 N 
HETATM    3  C10 UNL     1      -3.326  -0.988   2.083  1.00  0.00     0.274 C 
HETATM    4  C9  UNL     1      -4.711  -0.745   1.515  1.00  0.00     0.046 C 
HETATM    5  C8  UNL     1      -4.418  -0.449   0.048  1.00  0.00     0.108 C 
HETATM    6  C27 UNL     1      -3.046   0.235   0.076  1.00  0.00     0.287 C 
BRANCH   5   7
HETATM    7  C1  UNL     1      -5.512   0.357  -0.644  1.00  0.00     0.228 C 
HETATM    8  O1  UNL     1      -5.286   1.426  -1.196  1.00  0.00    -0.273 OA
HETATM    9  N1  UNL     1      -6.737  -0.300  -0.617  1.00  0.00    -0.327 N 
HETATM   10  H1  UNL     1      -6.758  -1.197  -0.145  1.00  0.00     0.169 HD
BRANCH   9  11
HETATM   11  C2  UNL     1      -7.960   0.135  -1.170  1.00  0.00     0.036 A 
HETATM   12  C3  UNL     1      -8.135   1.364  -1.812  1.00  0.00     0.032 A 
HETATM   13  C4  UNL     1      -9.383   1.728  -2.331  1.00  0.00     0.040 A 
HETATM   14  C5  UNL     1     -10.459   0.861  -2.212  1.00  0.00     0.087 A 
HETATM   15  C6  UNL     1     -10.299  -0.368  -1.575  1.00  0.00     0.069 A 
HETATM   16 CL1  UNL     1     -11.634  -1.452  -1.415  1.00  0.00    -0.081 Cl
HETATM   17  C7  UNL     1      -9.057  -0.730  -1.052  1.00  0.00     0.056 A 
BRANCH  14  18
HETATM   18  O2  UNL     1     -11.656   1.260  -2.736  1.00  0.00    -0.359 OA
HETATM   19  H4  UNL     1     -12.292   0.535  -2.590  1.00  0.00     0.217 HD
ENDBRANCH  14  18
ENDBRANCH   9  11
ENDBRANCH   5   7
ENDBRANCH   1   2
BRANCH   1  20
HETATM   20  C12 UNL     1      -0.234   0.986   1.000  1.00  0.00     0.248 C 
HETATM   21  O3  UNL     1      -0.707   2.086   0.707  1.00  0.00    -0.271 OA
HETATM   22  N3  UNL     1       1.129   0.736   0.863  1.00  0.00    -0.348 N 
HETATM   23  C13 UNL     1       1.797  -0.505   1.264  1.00  0.00     0.145 C 
HETATM   24  C26 UNL     1       1.989   1.779   0.302  1.00  0.00     0.145 C 
HETATM   25  C14 UNL     1       3.310  -0.340   1.507  1.00  0.00     0.143 C 
HETATM   26  N4  UNL     1       3.981   0.260   0.345  1.00  0.00    -0.378 N 
HETATM   27  C25 UNL     1       3.201   1.219  -0.463  1.00  0.00     0.143 C 
BRANCH  26  28
HETATM   28  C15 UNL     1       5.325   0.036   0.079  1.00  0.00     0.030 A 
HETATM   29  C16 UNL     1       6.194  -0.511   1.035  1.00  0.00     0.030 A 
HETATM   30  C17 UNL     1       7.550  -0.751   0.763  1.00  0.00     0.014 A 
HETATM   31  C18 UNL     1       8.089  -0.449  -0.487  1.00  0.00    -0.025 A 
HETATM   32  C23 UNL     1       7.247   0.104  -1.452  1.00  0.00     0.014 A 
HETATM   33  C24 UNL     1       5.893   0.336  -1.169  1.00  0.00     0.030 A 
BRANCH  31  34
HETATM   34  C19 UNL     1       9.501  -0.701  -0.761  1.00  0.00    -0.019 A 
HETATM   35  C20 UNL     1      10.607  -0.483   0.122  1.00  0.00     0.020 A 
HETATM   36  C21 UNL     1      11.814  -0.838  -0.437  1.00  0.00     0.050 A 
HETATM   37  S1  UNL     1      11.628  -1.449  -2.021  1.00  0.00    -0.113 SA
HETATM   38  C22 UNL     1       9.931  -1.235  -1.961  1.00  0.00     0.061 A 
ENDBRANCH  31  34
ENDBRANCH  26  28
ENDBRANCH   1  20
TORSDOF 7
