REMARK  7 active torsions:
REMARK  status: ('A' for Active; 'I' for Inactive)
REMARK    1  A    between atoms: O1_2  and  C2_3 
REMARK    2  A    between atoms: C2_3  and  C3_4 
REMARK    3  A    between atoms: C3_4  and  O2_5 
REMARK    4  A    between atoms: O2_5  and  C4_6 
REMARK    5  A    between atoms: C7_12  and  N3_13 
REMARK       I    between atoms: N3_13  and  C8_14 
REMARK       I    between atoms: C8_14  and  N4_16 
REMARK    6  A    between atoms: N4_16  and  C9_17 
REMARK    7  A    between atoms: C9_17  and  C11_19 
ROOT
HETATM    1  C4  UNL     1       4.334  -0.679   0.161  1.00  0.00     0.171 A 
HETATM    2  N1  UNL     1       4.569   0.368   0.955  1.00  0.00    -0.279 N 
ATOM      3  H1  UNL     1       5.466   0.727   1.282  1.00  0.00     0.189 HD
HETATM    4  N2  UNL     1       3.333   0.834   1.219  1.00  0.00    -0.298 N 
HETATM    5  C5  UNL     1       2.328   0.129   0.612  1.00  0.00     0.067 A 
HETATM    6  C6  UNL     1       0.942   0.280   0.619  1.00  0.00     0.080 A 
HETATM    7  C7  UNL     1       0.241  -0.657  -0.133  1.00  0.00     0.111 A 
HETATM    8  N5  UNL     1       0.834  -1.650  -0.838  1.00  0.00    -0.351 N 
ATOM      9  H5  UNL     1       0.265  -2.304  -1.376  1.00  0.00     0.166 HD
HETATM   10  C17 UNL     1       2.188  -1.776  -0.829  1.00  0.00     0.108 A 
HETATM   11  C18 UNL     1       2.964  -0.881  -0.097  1.00  0.00     0.060 A 
HETATM   12  H8  UNL     1       3.240   1.644   1.824  1.00  0.00     0.187 HD
ENDROOT
BRANCH   7  13
HETATM   13  N3  UNL     1      -1.149  -0.664  -0.251  1.00  0.00    -0.295 N 
HETATM   14  C8  UNL     1      -2.063   0.124   0.395  1.00  0.00     0.322 C 
HETATM   15  O3  UNL     1      -1.820   0.976   1.239  1.00  0.00    -0.247 OA
HETATM   16  N4  UNL     1      -3.346  -0.167  -0.022  1.00  0.00    -0.335 N 
HETATM   17  H11 UNL     1      -3.413  -0.466  -0.984  1.00  0.00     0.165 HD
HETATM   18  H10 UNL     1      -1.485  -1.440  -0.799  1.00  0.00     0.172 HD
BRANCH  16  19
HETATM   19  C9  UNL     1      -4.482   0.592   0.483  1.00  0.00     0.115 C 
HETATM   20  C10 UNL     1      -4.813   0.228   1.934  1.00  0.00     0.037 C 
BRANCH  19  21
HETATM   21  C11 UNL     1      -5.682   0.376  -0.426  1.00  0.00    -0.036 A 
HETATM   22  C12 UNL     1      -6.264  -0.895  -0.581  1.00  0.00     0.011 A 
HETATM   23  C13 UNL     1      -7.358  -1.079  -1.429  1.00  0.00     0.024 A 
HETATM   24  C14 UNL     1      -7.878   0.004  -2.133  1.00  0.00     0.034 A 
HETATM   25 CL1  UNL     1      -9.225  -0.223  -3.179  1.00  0.00    -0.084 Cl
HETATM   26  C15 UNL     1      -7.312   1.269  -1.998  1.00  0.00     0.024 A 
HETATM   27  C16 UNL     1      -6.218   1.454  -1.149  1.00  0.00     0.011 A 
ENDBRANCH  19  21
ENDBRANCH  16  19
ENDBRANCH   7  13
BRANCH   1  28
HETATM   28  O2  UNL     1       5.344  -1.428  -0.337  1.00  0.00    -0.332 OA
BRANCH  28  29
HETATM   29  C3  UNL     1       6.648  -1.088   0.136  1.00  0.00     0.203 C 
BRANCH  29  30
HETATM   30  C2  UNL     1       7.264   0.055  -0.674  1.00  0.00     0.193 C 
BRANCH  30  31
HETATM   31  O1  UNL     1       8.606   0.338  -0.271  1.00  0.00    -0.394 OA
HETATM   32  C1  UNL     1       8.665   1.161   0.888  1.00  0.00     0.201 C 
ENDBRANCH  30  31
ENDBRANCH  29  30
ENDBRANCH  28  29
ENDBRANCH   1  28
TORSDOF 7
