REMARK  9 active torsions:
REMARK  status: ('A' for Active; 'I' for Inactive)
REMARK    1  A    between atoms: O1_2  and  C2_3 
REMARK    2  A    between atoms: C2_3  and  C3_4 
REMARK    3  A    between atoms: C3_4  and  O3_6 
REMARK    4  A    between atoms: O3_6  and  C4_7 
REMARK    5  A    between atoms: C4_7  and  C5_8 
REMARK    6  A    between atoms: C5_8  and  N1_9 
REMARK    7  A    between atoms: C5_8  and  C19_31 
REMARK       I    between atoms: N1_9  and  C6_10 
REMARK       I    between atoms: C6_10  and  N2_12 
REMARK    8  A    between atoms: C11_19  and  N4_20 
REMARK    9  A    between atoms: N4_20  and  C12_21 
ROOT
HETATM    1  N1  UNL     1      -1.570  -0.206  -1.032  1.00  0.00    -0.332 N 
HETATM    2  C6  UNL     1      -1.157   0.352  -2.214  1.00  0.00     0.319 C 
HETATM    3  O4  UNL     1      -1.871   1.104  -2.869  1.00  0.00    -0.247 OA
HETATM    4  N2  UNL     1       0.133   0.003  -2.593  1.00  0.00    -0.328 N 
HETATM    5  C7  UNL     1       0.641   0.616  -3.818  1.00  0.00     0.132 C 
HETATM    6  C8  UNL     1       1.740  -0.228  -4.463  1.00  0.00     0.062 C 
HETATM    7  C9  UNL     1       2.782  -0.619  -3.466  1.00  0.00    -0.017 A 
HETATM    8  C10 UNL     1       4.058  -0.986  -3.825  1.00  0.00     0.099 A 
HETATM    9  N3  UNL     1       5.002  -1.359  -2.941  1.00  0.00    -0.342 N 
ATOM     10  H3  UNL     1       5.943  -1.614  -3.242  1.00  0.00     0.167 HD
HETATM   11  C11 UNL     1       4.653  -1.381  -1.651  1.00  0.00     0.157 A 
HETATM   12  N5  UNL     1       3.434  -1.055  -1.205  1.00  0.00    -0.334 N 
ATOM     13  H5  UNL     1       3.213  -1.083  -0.210  1.00  0.00     0.168 HD
HETATM   14  C17 UNL     1       2.506  -0.687  -2.116  1.00  0.00     0.037 A 
HETATM   15  C18 UNL     1       1.141  -0.329  -1.579  1.00  0.00     0.185 C 
HETATM   16  H9  UNL     1      -1.273  -1.168  -0.936  1.00  0.00     0.165 HD
ENDROOT
BRANCH   1  17
HETATM   17  C5  UNL     1      -2.910   0.068  -0.515  1.00  0.00     0.143 C 
BRANCH  17  18
HETATM   18  C4  UNL     1      -3.070   1.524  -0.010  1.00  0.00     0.209 C 
BRANCH  18  19
HETATM   19  O3  UNL     1      -4.458   1.809   0.259  1.00  0.00    -0.317 OA
BRANCH  19  20
HETATM   20  C3  UNL     1      -4.828   1.863   1.569  1.00  0.00     0.282 C 
HETATM   21  O2  UNL     1      -4.077   1.716   2.524  1.00  0.00    -0.263 OA
BRANCH  20  22
HETATM   22  C2  UNL     1      -6.335   2.066   1.705  1.00  0.00     0.277 C 
BRANCH  22  23
HETATM   23  O1  UNL     1      -6.983   2.839   0.706  1.00  0.00    -0.386 OA
HETATM   24  C1  UNL     1      -6.687   4.225   0.812  1.00  0.00     0.202 C 
ENDBRANCH  22  23
ENDBRANCH  20  22
ENDBRANCH  19  20
ENDBRANCH  18  19
ENDBRANCH  17  18
BRANCH  17  25
HETATM   25  C19 UNL     1      -3.242  -0.938   0.581  1.00  0.00    -0.032 A 
HETATM   26  C20 UNL     1      -4.412  -1.711   0.494  1.00  0.00     0.012 A 
HETATM   27  C21 UNL     1      -4.735  -2.621   1.501  1.00  0.00     0.044 A 
HETATM   28  C22 UNL     1      -3.889  -2.768   2.597  1.00  0.00     0.138 A 
HETATM   29  F1  UNL     1      -4.220  -3.651   3.548  1.00  0.00    -0.204 F 
HETATM   30  C23 UNL     1      -2.724  -2.014   2.700  1.00  0.00     0.073 A 
HETATM   31 CL1  UNL     1      -1.673  -2.200   4.050  1.00  0.00    -0.081 Cl
HETATM   32  C24 UNL     1      -2.399  -1.101   1.698  1.00  0.00     0.036 A 
ENDBRANCH  17  25
ENDBRANCH   1  17
BRANCH  11  33
HETATM   33  N4  UNL     1       5.652  -1.756  -0.774  1.00  0.00    -0.259 NA
HETATM   34  H15 UNL     1       6.516  -1.712  -1.308  1.00  0.00     0.131 HD
BRANCH  33  35
HETATM   35  C12 UNL     1       5.718  -1.173   0.566  1.00  0.00     0.067 C 
HETATM   36  C13 UNL     1       4.675  -1.772   1.523  1.00  0.00     0.046 C 
HETATM   37  C14 UNL     1       4.181  -0.731   2.519  1.00  0.00     0.169 C 
HETATM   38  O5  UNL     1       5.281   0.046   2.985  1.00  0.00    -0.391 OA
HETATM   39  C15 UNL     1       5.835   0.901   1.981  1.00  0.00     0.169 C 
HETATM   40  C16 UNL     1       5.706   0.357   0.560  1.00  0.00     0.046 C 
ENDBRANCH  33  35
ENDBRANCH  11  33
TORSDOF 9
