REMARK  9 active torsions:
REMARK  status: ('A' for Active; 'I' for Inactive)
REMARK    1  A    between atoms: O1_2  and  C2_3 
REMARK    2  A    between atoms: C2_3  and  C3_4 
REMARK    3  A    between atoms: C3_4  and  O2_5 
REMARK    4  A    between atoms: O2_5  and  C4_6 
REMARK    5  A    between atoms: C7_12  and  N3_13 
REMARK       I    between atoms: N3_13  and  C8_14 
REMARK       I    between atoms: C8_14  and  N4_16 
REMARK    6  A    between atoms: N4_16  and  C9_17 
REMARK    7  A    between atoms: C9_17  and  C10_18 
REMARK    8  A    between atoms: C9_17  and  C16_25 
REMARK    9  A    between atoms: C16_25  and  O4_28 
ROOT
HETATM    1  N3  UNL     1      -0.452  -0.211   0.756  1.00  0.00    -0.295 N 
HETATM    2  C8  UNL     1      -1.474  -0.192  -0.166  1.00  0.00     0.322 C 
HETATM    3  O3  UNL     1      -1.434  -0.553  -1.332  1.00  0.00    -0.247 OA
HETATM    4  N4  UNL     1      -2.630   0.294   0.427  1.00  0.00    -0.331 N 
HETATM    5  H10 UNL     1      -0.726  -0.125   1.719  1.00  0.00     0.172 HD
HETATM    6  H11 UNL     1      -2.424   1.080   1.026  1.00  0.00     0.165 HD
ENDROOT
BRANCH   1   7
HETATM    7  C7  UNL     1       0.883  -0.546   0.490  1.00  0.00     0.111 A 
HETATM    8  C6  UNL     1       1.727  -0.676   1.594  1.00  0.00     0.080 A 
HETATM    9  C5  UNL     1       3.053  -0.996   1.303  1.00  0.00     0.067 A 
HETATM   10  N2  UNL     1       4.150  -1.207   2.095  1.00  0.00    -0.298 N 
HETATM   11  C20 UNL     1       3.504  -1.169   0.001  1.00  0.00     0.060 A 
HETATM   12  N1  UNL     1       5.275  -1.498   1.414  1.00  0.00    -0.279 N 
HETATM   13  H8  UNL     1       4.201  -1.167   3.107  1.00  0.00     0.187 HD
HETATM   14  C4  UNL     1       4.871  -1.478   0.141  1.00  0.00     0.171 A 
ATOM     15  H1  UNL     1       6.208  -1.687   1.781  1.00  0.00     0.189 HD
HETATM   16  C19 UNL     1       2.600  -1.014  -1.046  1.00  0.00     0.108 A 
HETATM   17  N5  UNL     1       1.305  -0.701  -0.780  1.00  0.00    -0.351 N 
ATOM     18  H5  UNL     1       0.646  -0.582  -1.549  1.00  0.00     0.166 HD
BRANCH  14  19
HETATM   19  O2  UNL     1       5.724  -1.732  -0.876  1.00  0.00    -0.332 OA
BRANCH  19  20
HETATM   20  C3  UNL     1       7.074  -2.021  -0.496  1.00  0.00     0.203 C 
BRANCH  20  21
HETATM   21  C2  UNL     1       7.882  -0.746  -0.246  1.00  0.00     0.193 C 
BRANCH  21  22
HETATM   22  O1  UNL     1       8.113  -0.077  -1.493  1.00  0.00    -0.394 OA
HETATM   23  C1  UNL     1       8.817   1.143  -1.310  1.00  0.00     0.201 C 
ENDBRANCH  21  22
ENDBRANCH  20  21
ENDBRANCH  19  20
ENDBRANCH  14  19
ENDBRANCH   1   7
BRANCH   4  24
HETATM   24  C9  UNL     1      -3.865   0.449  -0.357  1.00  0.00     0.153 C 
BRANCH  24  25
HETATM   25  C10 UNL     1      -4.636   1.677   0.150  1.00  0.00    -0.032 A 
HETATM   26  C11 UNL     1      -5.165   2.588  -0.780  1.00  0.00     0.011 A 
HETATM   27  C12 UNL     1      -5.868   3.719  -0.356  1.00  0.00     0.024 A 
HETATM   28  C13 UNL     1      -6.052   3.949   1.004  1.00  0.00     0.034 A 
HETATM   29 CL1  UNL     1      -6.917   5.341   1.528  1.00  0.00    -0.084 Cl
HETATM   30  C14 UNL     1      -5.543   3.057   1.943  1.00  0.00     0.024 A 
HETATM   31  C15 UNL     1      -4.840   1.926   1.520  1.00  0.00     0.011 A 
ENDBRANCH  24  25
BRANCH  24  32
HETATM   32  C16 UNL     1      -4.761  -0.850  -0.430  1.00  0.00     0.075 C 
HETATM   33  C17 UNL     1      -4.045  -2.009  -1.137  1.00  0.00     0.048 C 
HETATM   34  C18 UNL     1      -5.243  -1.333   0.945  1.00  0.00     0.048 C 
BRANCH  32  35
HETATM   35  O4  UNL     1      -5.931  -0.564  -1.224  1.00  0.00    -0.388 OA
HETATM   36  H23 UNL     1      -6.464  -1.376  -1.278  1.00  0.00     0.210 HD
ENDBRANCH  32  35
ENDBRANCH  24  32
ENDBRANCH   4  24
TORSDOF 9
