REMARK  7 active torsions:
REMARK  status: ('A' for Active; 'I' for Inactive)
REMARK    1  A    between atoms: O1_2  and  C2_3 
REMARK    2  A    between atoms: C2_3  and  C3_4 
REMARK    3  A    between atoms: C3_4  and  N1_5 
REMARK    4  A    between atoms: C3_4  and  C16_27 
REMARK       I    between atoms: N1_5  and  C4_6 
REMARK       I    between atoms: C4_6  and  N2_8 
REMARK    5  A    between atoms: N2_8  and  C5_9 
REMARK    6  A    between atoms: C8_15  and  O3_16 
REMARK    7  A    between atoms: O3_16  and  C9_17 
ROOT
HETATM    1  C5  UNL     1       0.041  -0.605   0.224  1.00  0.00     0.111 A 
HETATM    2  C6  UNL     1       0.509   0.280   1.189  1.00  0.00     0.080 A 
HETATM    3  C7  UNL     1       1.897   0.338   1.318  1.00  0.00     0.067 A 
HETATM    4  N3  UNL     1       2.715   1.065   2.144  1.00  0.00    -0.298 N 
HETATM    5  N4  UNL     1       4.029   0.835   1.957  1.00  0.00    -0.279 N 
ATOM      6  H4  UNL     1       4.824   1.250   2.443  1.00  0.00     0.189 HD
HETATM    7  C8  UNL     1       4.032  -0.069   0.979  1.00  0.00     0.171 A 
HETATM    8  C14 UNL     1       2.748  -0.438   0.541  1.00  0.00     0.060 A 
HETATM    9  C15 UNL     1       2.197  -1.310  -0.393  1.00  0.00     0.108 A 
HETATM   10  N6  UNL     1       0.848  -1.378  -0.544  1.00  0.00    -0.351 N 
ATOM     11  H6  UNL     1       0.443  -2.010  -1.235  1.00  0.00     0.166 HD
HETATM   12  H10 UNL     1       2.439   1.732   2.858  1.00  0.00     0.187 HD
ENDROOT
BRANCH   1  13
HETATM   13  N2  UNL     1      -1.313  -0.799  -0.051  1.00  0.00    -0.295 N 
HETATM   14  C4  UNL     1      -2.394  -0.136   0.468  1.00  0.00     0.322 C 
HETATM   15  N1  UNL     1      -3.573  -0.640  -0.034  1.00  0.00    -0.332 N 
HETATM   16  O2  UNL     1      -2.354   0.805   1.251  1.00  0.00    -0.247 OA
HETATM   17  H7  UNL     1      -3.537  -1.559  -0.441  1.00  0.00     0.165 HD
HETATM   18  H8  UNL     1      -1.461  -1.461  -0.796  1.00  0.00     0.172 HD
BRANCH  15  19
HETATM   19  C3  UNL     1      -4.870  -0.206   0.480  1.00  0.00     0.143 C 
BRANCH  19  20
HETATM   20  C2  UNL     1      -5.373  -1.123   1.626  1.00  0.00     0.197 C 
BRANCH  20  21
HETATM   21  O1  UNL     1      -4.488  -1.195   2.749  1.00  0.00    -0.394 OA
HETATM   22  C1  UNL     1      -4.571  -0.060   3.600  1.00  0.00     0.201 C 
ENDBRANCH  20  21
ENDBRANCH  19  20
BRANCH  19  23
HETATM   23  C16 UNL     1      -5.873  -0.144  -0.663  1.00  0.00    -0.033 A 
HETATM   24  C17 UNL     1      -6.313  -1.299  -1.330  1.00  0.00     0.009 A 
HETATM   25  C18 UNL     1      -7.241  -1.212  -2.370  1.00  0.00     0.001 A 
HETATM   26  C19 UNL     1      -7.736   0.029  -2.763  1.00  0.00     0.000 A 
HETATM   27  C20 UNL     1      -7.300   1.185  -2.121  1.00  0.00     0.001 A 
HETATM   28  C21 UNL     1      -6.372   1.101  -1.081  1.00  0.00     0.009 A 
ENDBRANCH  19  23
ENDBRANCH  15  19
ENDBRANCH   1  13
BRANCH   7  29
HETATM   29  O3  UNL     1       5.221  -0.552   0.576  1.00  0.00    -0.329 OA
BRANCH  29  30
HETATM   30  C9  UNL     1       5.752   0.198  -0.524  1.00  0.00     0.134 C 
HETATM   31  C10 UNL     1       6.499  -0.786  -1.430  1.00  0.00     0.062 C 
HETATM   32  C11 UNL     1       7.235  -0.050  -2.544  1.00  0.00     0.272 C 
HETATM   33  N5  UNL     1       8.151   0.961  -2.016  1.00  0.00     0.083 N 
HETATM   34  C12 UNL     1       7.444   1.937  -1.183  1.00  0.00     0.272 C 
HETATM   35  H16 UNL     1       8.868   0.502  -1.451  1.00  0.00     0.315 HD
HETATM   36  C13 UNL     1       6.720   1.272  -0.019  1.00  0.00     0.062 C 
ENDBRANCH  29  30
ENDBRANCH   7  29
TORSDOF 7
