REMARK  8 active torsions:
REMARK  status: ('A' for Active; 'I' for Inactive)
REMARK    1  A    between atoms: O1_2  and  C2_3 
REMARK    2  A    between atoms: C2_3  and  C3_4 
REMARK    3  A    between atoms: C3_4  and  N1_5 
REMARK    4  A    between atoms: C3_4  and  C17_29 
REMARK       I    between atoms: N1_5  and  C4_6 
REMARK       I    between atoms: C4_6  and  N2_8 
REMARK    5  A    between atoms: N2_8  and  C5_9 
REMARK    6  A    between atoms: C8_15  and  O3_16 
REMARK    7  A    between atoms: O3_16  and  C9_17 
REMARK    8  A    between atoms: C9_17  and  C10_18 
ROOT
HETATM    1  C5  UNL     1       0.322   0.524  -0.308  1.00  0.00     0.111 A 
HETATM    2  C6  UNL     1       0.991  -0.509  -0.958  1.00  0.00     0.080 A 
HETATM    3  C7  UNL     1       2.355  -0.298  -1.157  1.00  0.00     0.067 A 
HETATM    4  N3  UNL     1       3.330  -1.068  -1.737  1.00  0.00    -0.298 N 
HETATM    5  N4  UNL     1       4.549  -0.495  -1.737  1.00  0.00    -0.279 N 
ATOM      6  H4  UNL     1       5.421  -0.861  -2.120  1.00  0.00     0.189 HD
HETATM    7  C8  UNL     1       4.341   0.665  -1.115  1.00  0.00     0.171 A 
HETATM    8  C15 UNL     1       2.998   0.860  -0.741  1.00  0.00     0.060 A 
HETATM    9  C16 UNL     1       2.254   1.843  -0.095  1.00  0.00     0.108 A 
HETATM   10  N6  UNL     1       0.923   1.660   0.119  1.00  0.00    -0.351 N 
ATOM     11  H6  UNL     1       0.379   2.377   0.600  1.00  0.00     0.166 HD
HETATM   12  H10 UNL     1       3.227  -1.986  -2.160  1.00  0.00     0.187 HD
ENDROOT
BRANCH   1  13
HETATM   13  N2  UNL     1      -1.044   0.499  -0.026  1.00  0.00    -0.295 N 
HETATM   14  C4  UNL     1      -1.961  -0.470  -0.326  1.00  0.00     0.322 C 
HETATM   15  N1  UNL     1      -3.226  -0.098   0.071  1.00  0.00    -0.332 N 
HETATM   16  O2  UNL     1      -1.737  -1.541  -0.878  1.00  0.00    -0.247 OA
HETATM   17  H7  UNL     1      -3.412   0.898   0.048  1.00  0.00     0.165 HD
HETATM   18  H8  UNL     1      -1.346   1.300   0.506  1.00  0.00     0.172 HD
BRANCH  15  19
HETATM   19  C3  UNL     1      -4.382  -0.901  -0.313  1.00  0.00     0.143 C 
BRANCH  19  20
HETATM   20  C2  UNL     1      -4.692  -0.757  -1.828  1.00  0.00     0.197 C 
BRANCH  20  21
HETATM   21  O1  UNL     1      -4.685   0.621  -2.234  1.00  0.00    -0.394 OA
HETATM   22  C1  UNL     1      -3.779   0.876  -3.300  1.00  0.00     0.201 C 
ENDBRANCH  20  21
ENDBRANCH  19  20
BRANCH  19  23
HETATM   23  C17 UNL     1      -5.534  -0.577   0.627  1.00  0.00    -0.033 A 
HETATM   24  C18 UNL     1      -6.475   0.434   0.367  1.00  0.00     0.009 A 
HETATM   25  C19 UNL     1      -7.498   0.713   1.280  1.00  0.00     0.001 A 
HETATM   26  C20 UNL     1      -7.592  -0.009   2.468  1.00  0.00     0.000 A 
HETATM   27  C21 UNL     1      -6.662  -1.007   2.749  1.00  0.00     0.001 A 
HETATM   28  C22 UNL     1      -5.638  -1.284   1.838  1.00  0.00     0.009 A 
ENDBRANCH  19  23
ENDBRANCH  15  19
ENDBRANCH   1  13
BRANCH   7  29
HETATM   29  O3  UNL     1       5.348   1.546  -0.919  1.00  0.00    -0.328 OA
BRANCH  29  30
HETATM   30  C9  UNL     1       6.662   0.973  -0.927  1.00  0.00     0.234 C 
BRANCH  30  31
HETATM   31  C10 UNL     1       7.043   0.300   0.378  1.00  0.00     0.033 A 
HETATM   32  C11 UNL     1       6.528   0.746   1.596  1.00  0.00     0.027 A 
HETATM   33  C12 UNL     1       6.920   0.111   2.771  1.00  0.00     0.003 A 
HETATM   34  C13 UNL     1       7.821  -0.944   2.706  1.00  0.00     0.017 A 
HETATM   35  C14 UNL     1       8.306  -1.313   1.463  1.00  0.00     0.088 A 
HETATM   36  N5  UNL     1       7.947  -0.713   0.307  1.00  0.00    -0.367 N 
ATOM     37  H5  UNL     1       8.340  -1.009  -0.586  1.00  0.00     0.165 HD
ENDBRANCH  30  31
ENDBRANCH  29  30
ENDBRANCH   7  29
TORSDOF 8
