REMARK  5 active torsions:
REMARK  status: ('A' for Active; 'I' for Inactive)
REMARK    1  A    between atoms: C2_2  and  N1_3 
REMARK    2  A    between atoms: C2_2  and  C16_26 
REMARK       I    between atoms: N1_3  and  C3_4 
REMARK       I    between atoms: C3_4  and  N2_6 
REMARK    3  A    between atoms: N2_6  and  C4_7 
REMARK    4  A    between atoms: N5_14  and  C8_15 
REMARK    5  A    between atoms: C10_17  and  N6_18 
ROOT
HETATM    1  C4  UNL     1      -0.970   0.274   0.682  1.00  0.00     0.111 A 
HETATM    2  C5  UNL     1      -0.584   0.281   2.015  1.00  0.00     0.080 A 
HETATM    3  C6  UNL     1       0.791   0.353   2.237  1.00  0.00     0.067 A 
HETATM    4  N3  UNL     1       1.522   0.375   3.389  1.00  0.00    -0.298 N 
HETATM    5  N4  UNL     1       2.846   0.443   3.198  1.00  0.00    -0.284 N 
ATOM      6  H4  UNL     1       3.581   0.451   3.905  1.00  0.00     0.188 HD
HETATM    7  C7  UNL     1       2.984   0.498   1.870  1.00  0.00     0.130 A 
HETATM    8  N5  UNL     1       4.213   0.611   1.323  1.00  0.00    -0.370 N 
HETATM    9  C14 UNL     1       1.723   0.422   1.208  1.00  0.00     0.052 A 
HETATM   10  C15 UNL     1       1.242   0.403  -0.102  1.00  0.00     0.107 A 
HETATM   11  N7  UNL     1      -0.095   0.321  -0.348  1.00  0.00    -0.351 N 
ATOM     12  H7  UNL     1      -0.436   0.295  -1.309  1.00  0.00     0.166 HD
HETATM   13  H8  UNL     1       1.176   0.340   4.342  1.00  0.00     0.187 HD
HETATM   14  H9  UNL     1       4.975   0.535   1.990  1.00  0.00     0.161 HD
ENDROOT
BRANCH   1  15
HETATM   15  N2  UNL     1      -2.300   0.193   0.266  1.00  0.00    -0.295 N 
HETATM   16  C3  UNL     1      -3.432   0.299   1.029  1.00  0.00     0.322 C 
HETATM   17  N1  UNL     1      -4.563   0.108   0.271  1.00  0.00    -0.335 N 
HETATM   18  O1  UNL     1      -3.477   0.546   2.227  1.00  0.00    -0.247 OA
HETATM   19  H5  UNL     1      -4.462  -0.396  -0.598  1.00  0.00     0.165 HD
HETATM   20  H6  UNL     1      -2.393   0.219  -0.736  1.00  0.00     0.172 HD
BRANCH  17  21
HETATM   21  C2  UNL     1      -5.894   0.137   0.858  1.00  0.00     0.115 C 
HETATM   22  C1  UNL     1      -6.164  -1.129   1.680  1.00  0.00     0.037 C 
BRANCH  21  23
HETATM   23  C16 UNL     1      -6.908   0.394  -0.245  1.00  0.00    -0.036 A 
HETATM   24  C17 UNL     1      -7.597  -0.635  -0.905  1.00  0.00     0.009 A 
HETATM   25  C18 UNL     1      -8.501  -0.346  -1.932  1.00  0.00     0.001 A 
HETATM   26  C19 UNL     1      -8.718   0.974  -2.322  1.00  0.00     0.000 A 
HETATM   27  C20 UNL     1      -8.031   2.007  -1.690  1.00  0.00     0.001 A 
HETATM   28  C21 UNL     1      -7.131   1.719  -0.663  1.00  0.00     0.009 A 
ENDBRANCH  21  23
ENDBRANCH  17  21
ENDBRANCH   1  15
BRANCH   8  29
HETATM   29  C8  UNL     1       4.580   0.585  -0.051  1.00  0.00     0.087 C 
HETATM   30  C9  UNL     1       4.750  -0.849  -0.620  1.00  0.00     0.061 C 
HETATM   31  C10 UNL     1       5.968  -0.288  -1.394  1.00  0.00     0.226 C 
HETATM   32  C13 UNL     1       6.110   0.764  -0.270  1.00  0.00     0.061 C 
BRANCH  31  33
HETATM   33  N6  UNL     1       7.042  -1.289  -1.499  1.00  0.00     0.084 N 
HETATM   34  C11 UNL     1       7.988  -0.868  -2.533  1.00  0.00     0.309 C 
HETATM   35  C12 UNL     1       7.758  -1.616  -0.268  1.00  0.00     0.309 C 
ENDBRANCH  31  33
ENDBRANCH   8  29
TORSDOF 5
