REMARK  9 active torsions:
REMARK  status: ('A' for Active; 'I' for Inactive)
REMARK    1  A    between atoms: O1_2  and  C2_3 
REMARK    2  A    between atoms: C2_3  and  C3_4 
REMARK    3  A    between atoms: C3_4  and  N1_5 
REMARK    4  A    between atoms: C3_4  and  C19_30 
REMARK       I    between atoms: N1_5  and  C4_6 
REMARK       I    between atoms: C4_6  and  N2_8 
REMARK    5  A    between atoms: N2_8  and  C5_9 
REMARK    6  A    between atoms: N5_16  and  C9_17 
REMARK    7  A    between atoms: C9_17  and  C10_18 
REMARK    8  A    between atoms: C12_20  and  C13_21 
REMARK    9  A    between atoms: C13_21  and  O3_24 
ROOT
HETATM    1  C5  UNL     1       1.598  -0.380  -0.384  1.00  0.00     0.111 A 
HETATM    2  C6  UNL     1       1.328  -1.688  -0.000  1.00  0.00     0.080 A 
HETATM    3  C7  UNL     1      -0.025  -2.015   0.083  1.00  0.00     0.067 A 
HETATM    4  N3  UNL     1      -0.667  -3.173   0.418  1.00  0.00    -0.298 N 
HETATM    5  N4  UNL     1      -2.005  -3.089   0.380  1.00  0.00    -0.284 N 
ATOM      6  H4  UNL     1      -2.684  -3.821   0.588  1.00  0.00     0.188 HD
HETATM    7  C8  UNL     1      -2.247  -1.830   0.008  1.00  0.00     0.129 A 
HETATM    8  N5  UNL     1      -3.475  -1.286  -0.163  1.00  0.00    -0.374 N 
HETATM    9  C17 UNL     1      -1.037  -1.107  -0.190  1.00  0.00     0.052 A 
HETATM   10  C18 UNL     1      -0.676   0.189  -0.557  1.00  0.00     0.107 A 
HETATM   11  N6  UNL     1       0.636   0.536  -0.651  1.00  0.00    -0.351 N 
ATOM     12  H6  UNL     1       0.895   1.485  -0.922  1.00  0.00     0.166 HD
HETATM   13  H10 UNL     1      -0.249  -4.057   0.684  1.00  0.00     0.187 HD
HETATM   14  H11 UNL     1      -3.550  -0.445  -0.722  1.00  0.00     0.161 HD
ENDROOT
BRANCH   1  15
HETATM   15  N2  UNL     1       2.889   0.130  -0.522  1.00  0.00    -0.295 N 
HETATM   16  C4  UNL     1       4.082  -0.530  -0.414  1.00  0.00     0.322 C 
HETATM   17  N1  UNL     1       5.142   0.331  -0.595  1.00  0.00    -0.332 N 
HETATM   18  O2  UNL     1       4.238  -1.727  -0.206  1.00  0.00    -0.247 OA
HETATM   19  H7  UNL     1       4.988   1.273  -0.267  1.00  0.00     0.165 HD
HETATM   20  H8  UNL     1       2.900   1.085  -0.843  1.00  0.00     0.172 HD
BRANCH  17  21
HETATM   21  C3  UNL     1       6.508  -0.138  -0.391  1.00  0.00     0.143 C 
BRANCH  21  22
HETATM   22  C2  UNL     1       6.827  -0.326   1.114  1.00  0.00     0.197 C 
BRANCH  22  23
HETATM   23  O1  UNL     1       6.419   0.823   1.877  1.00  0.00    -0.394 OA
HETATM   24  C1  UNL     1       6.681   0.643   3.263  1.00  0.00     0.201 C 
ENDBRANCH  22  23
ENDBRANCH  21  22
BRANCH  21  25
HETATM   25  C19 UNL     1       7.471   0.778  -1.132  1.00  0.00    -0.033 A 
HETATM   26  C20 UNL     1       7.933   0.399  -2.405  1.00  0.00     0.009 A 
HETATM   27  C21 UNL     1       8.806   1.216  -3.126  1.00  0.00     0.001 A 
HETATM   28  C22 UNL     1       9.224   2.431  -2.590  1.00  0.00     0.000 A 
HETATM   29  C23 UNL     1       8.763   2.832  -1.338  1.00  0.00     0.001 A 
HETATM   30  C24 UNL     1       7.889   2.015  -0.617  1.00  0.00     0.009 A 
ENDBRANCH  21  25
ENDBRANCH  17  21
ENDBRANCH   1  15
BRANCH   8  31
HETATM   31  C9  UNL     1      -4.648  -2.149  -0.211  1.00  0.00     0.126 C 
BRANCH  31  32
HETATM   32  C10 UNL     1      -5.962  -1.377  -0.095  1.00  0.00     0.004 C 
HETATM   33  C11 UNL     1      -6.279  -0.234  -1.090  1.00  0.00     0.014 C 
HETATM   34  C12 UNL     1      -6.920   0.566   0.081  1.00  0.00     0.020 C 
HETATM   35  C16 UNL     1      -6.124  -0.353   1.053  1.00  0.00     0.014 C 
BRANCH  34  36
HETATM   36  C13 UNL     1      -8.454   0.614   0.186  1.00  0.00     0.054 C 
HETATM   37  C14 UNL     1      -9.028   1.423  -0.979  1.00  0.00     0.045 C 
HETATM   38  C15 UNL     1      -8.875   1.250   1.513  1.00  0.00     0.045 C 
BRANCH  36  39
HETATM   39  O3  UNL     1      -9.003  -0.700   0.106  1.00  0.00    -0.390 OA
HETATM   40  H24 UNL     1      -8.797  -1.168   0.932  1.00  0.00     0.210 HD
ENDBRANCH  36  39
ENDBRANCH  34  36
ENDBRANCH  31  32
ENDBRANCH   8  31
TORSDOF 9
