REMARK  9 active torsions:
REMARK  status: ('A' for Active; 'I' for Inactive)
REMARK    1  A    between atoms: O1_2  and  C2_3 
REMARK    2  A    between atoms: C2_3  and  C3_4 
REMARK    3  A    between atoms: C3_4  and  C4_5 
REMARK       I    between atoms: C4_5  and  N1_7 
REMARK    4  A    between atoms: N1_7  and  C5_8 
REMARK    5  A    between atoms: C9_15  and  C10_16 
REMARK    6  A    between atoms: N4_27  and  C20_28 
REMARK    7  A    between atoms: C20_28  and  C21_29 
REMARK       I    between atoms: C21_29  and  N5_31 
REMARK    8  A    between atoms: N6_34  and  C24_35 
REMARK    9  A    between atoms: C27_38  and  C28_39 
ROOT
HETATM    1  C3  UNL     1      -2.350   0.137  -0.820  1.00  0.00     0.090 C 
HETATM    2  C18 UNL     1      -1.786  -1.185  -1.370  1.00  0.00     0.053 C 
HETATM    3  C19 UNL     1      -1.001  -1.788  -0.213  1.00  0.00     0.274 C 
HETATM    4  N4  UNL     1      -0.504  -0.641   0.557  1.00  0.00     0.098 N 
HETATM    5  C36 UNL     1      -1.595   0.345   0.510  1.00  0.00     0.294 C 
ENDROOT
BRANCH   1   6
HETATM    6  C2  UNL     1      -2.074   1.323  -1.765  1.00  0.00     0.188 C 
BRANCH   6   7
HETATM    7  O1  UNL     1      -2.540   1.020  -3.091  1.00  0.00    -0.395 OA
HETATM    8  C1  UNL     1      -2.274   2.093  -3.990  1.00  0.00     0.201 C 
ENDBRANCH   6   7
ENDBRANCH   1   6
BRANCH   1   9
HETATM    9  C4  UNL     1      -3.872   0.012  -0.587  1.00  0.00     0.234 C 
HETATM   10  O2  UNL     1      -4.355  -0.035   0.541  1.00  0.00    -0.272 OA
HETATM   11  N1  UNL     1      -4.599  -0.086  -1.764  1.00  0.00    -0.326 N 
HETATM   12  H6  UNL     1      -4.059   0.033  -2.622  1.00  0.00     0.169 HD
BRANCH  11  13
HETATM   13  C5  UNL     1      -6.001  -0.124  -1.914  1.00  0.00     0.035 A 
HETATM   14  C6  UNL     1      -6.502  -0.072  -3.222  1.00  0.00     0.032 A 
HETATM   15  C7  UNL     1      -7.879  -0.052  -3.487  1.00  0.00     0.034 A 
HETATM   16  C8  UNL     1      -8.739  -0.083  -2.387  1.00  0.00     0.060 A 
HETATM   17  N2  UNL     1     -10.101  -0.042  -2.295  1.00  0.00    -0.299 N 
HETATM   18  C16 UNL     1      -8.286  -0.160  -1.076  1.00  0.00     0.023 A 
HETATM   19  N3  UNL     1     -10.573  -0.077  -1.037  1.00  0.00    -0.299 N 
HETATM   20  H9  UNL     1     -10.778  -0.001  -3.056  1.00  0.00     0.187 HD
HETATM   21  C9  UNL     1      -9.470  -0.181  -0.274  1.00  0.00     0.070 A 
ATOM     22  H3  UNL     1     -11.545  -0.034  -0.731  1.00  0.00     0.187 HD
HETATM   23  C17 UNL     1      -6.895  -0.186  -0.838  1.00  0.00     0.045 A 
BRANCH  21  24
HETATM   24  C10 UNL     1      -9.570  -0.294   1.182  1.00  0.00    -0.007 A 
HETATM   25  C11 UNL     1     -10.448   0.538   1.900  1.00  0.00     0.017 A 
HETATM   26  C12 UNL     1     -10.531   0.436   3.293  1.00  0.00     0.043 A 
HETATM   27  C13 UNL     1      -9.748  -0.499   3.963  1.00  0.00     0.116 A 
HETATM   28  F1  UNL     1      -9.832  -0.594   5.297  1.00  0.00    -0.206 F 
HETATM   29  C14 UNL     1      -8.885  -1.341   3.267  1.00  0.00     0.043 A 
HETATM   30  C15 UNL     1      -8.795  -1.239   1.876  1.00  0.00     0.017 A 
ENDBRANCH  21  24
ENDBRANCH  11  13
ENDBRANCH   1   9
BRANCH   4  31
HETATM   31  C20 UNL     1       0.797  -0.136   0.087  1.00  0.00     0.374 C 
BRANCH  31  32
HETATM   32  C21 UNL     1       1.948  -1.017   0.632  1.00  0.00     0.248 C 
HETATM   33  O3  UNL     1       1.875  -2.245   0.682  1.00  0.00    -0.271 OA
HETATM   34  N5  UNL     1       3.084  -0.341   1.092  1.00  0.00    -0.348 N 
HETATM   35  C22 UNL     1       3.662   0.797   0.360  1.00  0.00     0.145 C 
HETATM   36  C35 UNL     1       4.077  -1.142   1.817  1.00  0.00     0.145 C 
HETATM   37  C23 UNL     1       4.607   1.652   1.231  1.00  0.00     0.143 C 
HETATM   38  N6  UNL     1       5.579   0.835   1.981  1.00  0.00    -0.378 N 
HETATM   39  C34 UNL     1       4.944  -0.269   2.741  1.00  0.00     0.143 C 
BRANCH  38  40
HETATM   40  C24 UNL     1       6.861   0.588   1.499  1.00  0.00     0.030 A 
HETATM   41  C25 UNL     1       7.234   0.729   0.159  1.00  0.00     0.030 A 
HETATM   42  C26 UNL     1       8.543   0.446  -0.275  1.00  0.00     0.017 A 
HETATM   43  C27 UNL     1       9.548   0.032   0.616  1.00  0.00     0.008 A 
HETATM   44  C32 UNL     1       9.179  -0.080   1.964  1.00  0.00     0.017 A 
HETATM   45  C33 UNL     1       7.871   0.198   2.390  1.00  0.00     0.030 A 
BRANCH  43  46
HETATM   46  C28 UNL     1      10.922  -0.269   0.162  1.00  0.00     0.115 A 
HETATM   47  N7  UNL     1      11.843  -0.575   1.102  1.00  0.00    -0.352 N 
HETATM   48  C29 UNL     1      13.080  -0.881   0.661  1.00  0.00     0.091 A 
ATOM     49  H7  UNL     1      11.614  -0.575   2.096  1.00  0.00     0.166 HD
HETATM   50  C30 UNL     1      13.431  -0.892  -0.666  1.00  0.00     0.034 A 
HETATM   51  C31 UNL     1      12.427  -0.560  -1.543  1.00  0.00     0.091 A 
HETATM   52  N8  UNL     1      11.173  -0.248  -1.164  1.00  0.00    -0.352 N 
ATOM     53  H8  UNL     1      10.451  -0.008  -1.843  1.00  0.00     0.166 HD
ENDBRANCH  43  46
ENDBRANCH  38  40
ENDBRANCH  31  32
ENDBRANCH   4  31
TORSDOF 9
