REMARK  8 active torsions:
REMARK  status: ('A' for Active; 'I' for Inactive)
REMARK    1  A    between atoms: O1_2  and  C2_3 
REMARK    2  A    between atoms: C2_3  and  C3_4 
REMARK       I    between atoms: C3_4  and  N1_6 
REMARK    3  A    between atoms: N1_6  and  C4_7 
REMARK    4  A    between atoms: C8_14  and  C9_15 
REMARK    5  A    between atoms: N4_26  and  C19_27 
REMARK    6  A    between atoms: C19_27  and  C20_28 
REMARK       I    between atoms: C20_28  and  N5_30 
REMARK    7  A    between atoms: N6_33  and  C23_34 
REMARK    8  A    between atoms: C26_37  and  C27_38 
ROOT
HETATM    1  C2  UNL     1      -2.214  -1.199  -0.042  1.00  0.00     0.168 C 
HETATM    2  C17 UNL     1      -2.106  -0.140   1.060  1.00  0.00     0.080 C 
HETATM    3  C18 UNL     1      -0.731   0.458   0.792  1.00  0.00     0.276 C 
HETATM    4  N4  UNL     1      -0.699   0.609  -0.671  1.00  0.00     0.100 N 
HETATM    5  C35 UNL     1      -1.587  -0.437  -1.231  1.00  0.00     0.321 C 
ENDROOT
BRANCH   1   6
HETATM    6  O1  UNL     1      -1.418  -2.292   0.459  1.00  0.00    -0.373 OA
HETATM    7  C1  UNL     1      -0.891  -3.211  -0.483  1.00  0.00     0.203 C 
ENDBRANCH   1   6
BRANCH   1   8
HETATM    8  C3  UNL     1      -3.651  -1.670  -0.443  1.00  0.00     0.259 C 
HETATM    9  O2  UNL     1      -3.789  -2.658  -1.166  1.00  0.00    -0.270 OA
HETATM   10  N1  UNL     1      -4.708  -0.895   0.004  1.00  0.00    -0.325 N 
HETATM   11  H4  UNL     1      -4.505  -0.145   0.649  1.00  0.00     0.169 HD
BRANCH  10  12
HETATM   12  C4  UNL     1      -6.084  -1.051  -0.290  1.00  0.00     0.035 A 
HETATM   13  C5  UNL     1      -6.597  -2.021  -1.153  1.00  0.00     0.032 A 
HETATM   14  C6  UNL     1      -7.970  -2.123  -1.415  1.00  0.00     0.034 A 
HETATM   15  C7  UNL     1      -8.813  -1.206  -0.784  1.00  0.00     0.060 A 
HETATM   16  N2  UNL     1     -10.168  -1.040  -0.828  1.00  0.00    -0.299 N 
HETATM   17  C15 UNL     1      -8.351  -0.214   0.072  1.00  0.00     0.023 A 
HETATM   18  N3  UNL     1     -10.626  -0.038  -0.065  1.00  0.00    -0.299 N 
HETATM   19  H7  UNL     1     -10.840  -1.584  -1.358  1.00  0.00     0.187 HD
HETATM   20  C8  UNL     1      -9.523   0.497   0.485  1.00  0.00     0.070 A 
ATOM     21  H3  UNL     1     -11.594   0.253   0.068  1.00  0.00     0.187 HD
HETATM   22  C16 UNL     1      -6.965  -0.145   0.331  1.00  0.00     0.045 A 
BRANCH  20  23
HETATM   23  C9  UNL     1      -9.626   1.651   1.380  1.00  0.00    -0.007 A 
HETATM   24  C10 UNL     1      -8.709   2.712   1.302  1.00  0.00     0.017 A 
HETATM   25  C11 UNL     1      -8.830   3.811   2.155  1.00  0.00     0.043 A 
HETATM   26  C12 UNL     1      -9.872   3.856   3.076  1.00  0.00     0.116 A 
HETATM   27  F1  UNL     1      -9.994   4.921   3.879  1.00  0.00    -0.206 F 
HETATM   28  C13 UNL     1     -10.795   2.820   3.165  1.00  0.00     0.043 A 
HETATM   29  C14 UNL     1     -10.673   1.720   2.315  1.00  0.00     0.017 A 
ENDBRANCH  20  23
ENDBRANCH  10  12
ENDBRANCH   1   8
BRANCH   4  30
HETATM   30  C19 UNL     1       0.669   0.511  -1.214  1.00  0.00     0.374 C 
BRANCH  30  31
HETATM   31  C20 UNL     1       1.614   1.630  -0.721  1.00  0.00     0.248 C 
HETATM   32  O3  UNL     1       1.217   2.596  -0.068  1.00  0.00    -0.271 OA
HETATM   33  N5  UNL     1       2.964   1.502  -1.070  1.00  0.00    -0.348 N 
HETATM   34  C21 UNL     1       3.592   0.223  -1.431  1.00  0.00     0.145 C 
HETATM   35  C34 UNL     1       3.913   2.425  -0.435  1.00  0.00     0.145 C 
HETATM   36  C22 UNL     1       4.133  -0.470  -0.160  1.00  0.00     0.143 C 
HETATM   37  N6  UNL     1       5.065   0.431   0.566  1.00  0.00    -0.378 N 
HETATM   38  C33 UNL     1       4.509   1.784   0.838  1.00  0.00     0.143 C 
BRANCH  37  39
HETATM   39  C23 UNL     1       6.420   0.263   0.279  1.00  0.00     0.030 A 
HETATM   40  C24 UNL     1       7.261   1.294  -0.150  1.00  0.00     0.030 A 
HETATM   41  C25 UNL     1       8.622   1.072  -0.423  1.00  0.00     0.017 A 
HETATM   42  C26 UNL     1       9.212  -0.193  -0.263  1.00  0.00     0.008 A 
HETATM   43  C31 UNL     1       8.372  -1.223   0.185  1.00  0.00     0.017 A 
HETATM   44  C32 UNL     1       7.014  -0.996   0.452  1.00  0.00     0.030 A 
BRANCH  42  45
HETATM   45  C27 UNL     1      10.645  -0.425  -0.538  1.00  0.00     0.115 A 
HETATM   46  N7  UNL     1      11.378   0.611  -0.992  1.00  0.00    -0.352 N 
HETATM   47  C28 UNL     1      12.684   0.375  -1.220  1.00  0.00     0.091 A 
ATOM     48  H7  UNL     1      10.964   1.529  -1.155  1.00  0.00     0.166 HD
HETATM   49  C29 UNL     1      13.282  -0.844  -1.018  1.00  0.00     0.034 A 
HETATM   50  C30 UNL     1      12.454  -1.838  -0.558  1.00  0.00     0.091 A 
HETATM   51  N8  UNL     1      11.142  -1.659  -0.312  1.00  0.00    -0.352 N 
ATOM     52  H8  UNL     1      10.553  -2.419   0.028  1.00  0.00     0.166 HD
ENDBRANCH  42  45
ENDBRANCH  37  39
ENDBRANCH  30  31
ENDBRANCH   4  30
TORSDOF 8
