REMARK  3 active torsions:
REMARK  status: ('A' for Active; 'I' for Inactive)
REMARK    1  A    between atoms: C4_4  and  C5_5 
REMARK    2  A    between atoms: C8_11  and  N3_12 
REMARK       I    between atoms: N3_12  and  C9_13 
REMARK       I    between atoms: C9_13  and  N4_15 
REMARK    3  A    between atoms: N4_15  and  C10_16 
ROOT
HETATM    1  C5  UNL     1      -4.612  -1.379  -0.141  1.00  0.00     0.072 A 
HETATM    2  N1  UNL     1      -4.408  -2.552  -0.762  1.00  0.00    -0.299 N 
ATOM      3  H1  UNL     1      -5.094  -3.280  -0.965  1.00  0.00     0.187 HD
HETATM    4  N2  UNL     1      -3.098  -2.551  -1.056  1.00  0.00    -0.299 N 
HETATM    5  C6  UNL     1      -2.442  -1.417  -0.674  1.00  0.00     0.065 A 
HETATM    6  C7  UNL     1      -1.111  -1.027  -0.807  1.00  0.00     0.080 A 
HETATM    7  C8  UNL     1      -0.814   0.244  -0.330  1.00  0.00     0.111 A 
HETATM    8  N6  UNL     1      -1.729   1.057   0.250  1.00  0.00    -0.351 N 
ATOM      9  H6  UNL     1      -1.451   1.977   0.591  1.00  0.00     0.166 HD
HETATM   10  C19 UNL     1      -3.019   0.646   0.377  1.00  0.00     0.105 A 
HETATM   11  C20 UNL     1      -3.408  -0.614  -0.082  1.00  0.00     0.036 A 
HETATM   12  H5  UNL     1      -2.712  -3.355  -1.537  1.00  0.00     0.187 HD
ENDROOT
BRANCH   7  13
HETATM   13  N3  UNL     1       0.469   0.798  -0.383  1.00  0.00    -0.295 N 
HETATM   14  C9  UNL     1       1.557   0.313  -1.056  1.00  0.00     0.322 C 
HETATM   15  O1  UNL     1       1.587  -0.675  -1.783  1.00  0.00    -0.247 OA
HETATM   16  N4  UNL     1       2.680   1.091  -0.824  1.00  0.00    -0.338 N 
HETATM   17  H8  UNL     1       2.716   1.517   0.094  1.00  0.00     0.164 HD
HETATM   18  H7  UNL     1       0.496   1.747  -0.046  1.00  0.00     0.172 HD
BRANCH  16  19
HETATM   19  C10 UNL     1       3.954   0.705  -1.439  1.00  0.00     0.090 C 
HETATM   20  C11 UNL     1       4.917   1.893  -1.503  1.00  0.00     0.030 C 
HETATM   21  C12 UNL     1       5.566   2.182  -0.151  1.00  0.00     0.041 C 
HETATM   22  C13 UNL     1       6.295   0.962   0.347  1.00  0.00    -0.049 A 
HETATM   23  C14 UNL     1       7.442   1.087   1.147  1.00  0.00     0.024 A 
HETATM   24  C17 UNL     1       5.829  -0.318   0.032  1.00  0.00    -0.035 A 
HETATM   25  C15 UNL     1       8.095  -0.064   1.564  1.00  0.00     0.088 A 
HETATM   26  N5  UNL     1       7.680  -1.311   1.263  1.00  0.00    -0.375 N 
HETATM   27  C16 UNL     1       6.556  -1.409   0.512  1.00  0.00     0.095 A 
ATOM     28  H5  UNL     1       8.185  -2.137   1.584  1.00  0.00     0.164 HD
HETATM   29  C18 UNL     1       4.563  -0.548  -0.761  1.00  0.00     0.065 C 
ENDBRANCH  16  19
ENDBRANCH   7  13
BRANCH   1  30
HETATM   30  C4  UNL     1      -5.941  -1.018   0.344  1.00  0.00    -0.004 A 
HETATM   31  C3  UNL     1      -6.118  -0.445   1.604  1.00  0.00     0.038 A 
HETATM   32  C2  UNL     1      -7.405  -0.108   2.008  1.00  0.00     0.005 A 
HETATM   33  C1  UNL     1      -7.640   0.542   3.342  1.00  0.00     0.068 C 
HETATM   34  N7  UNL     1      -8.495  -0.317   1.234  1.00  0.00    -0.369 N 
HETATM   35  C22 UNL     1      -8.302  -0.886   0.029  1.00  0.00     0.089 A 
ATOM     36  H7  UNL     1      -9.428  -0.053   1.551  1.00  0.00     0.165 HD
HETATM   37  C21 UNL     1      -7.060  -1.254  -0.455  1.00  0.00     0.031 A 
ENDBRANCH   1  30
TORSDOF 3
