REMARK  5 active torsions:
REMARK  status: ('A' for Active; 'I' for Inactive)
REMARK    1  A    between atoms: C2_2  and  N1_3 
REMARK    2  A    between atoms: C2_2  and  C17_27 
REMARK       I    between atoms: N1_3  and  C3_4 
REMARK       I    between atoms: C3_4  and  N2_6 
REMARK    3  A    between atoms: N2_6  and  C4_7 
REMARK    4  A    between atoms: C7_13  and  N5_14 
REMARK       I    between atoms: N5_14  and  C8_15 
REMARK    5  A    between atoms: C8_15  and  C9_17 
ROOT
HETATM    1  C4  UNL     1       1.194   0.497   0.306  1.00  0.00     0.111 A 
HETATM    2  C5  UNL     1       0.702   1.631   0.932  1.00  0.00     0.080 A 
HETATM    3  C6  UNL     1      -0.686   1.772   0.907  1.00  0.00     0.067 A 
HETATM    4  N3  UNL     1      -1.494   2.753   1.404  1.00  0.00    -0.298 N 
HETATM    5  N4  UNL     1      -2.798   2.555   1.174  1.00  0.00    -0.284 N 
ATOM      6  H4  UNL     1      -3.578   3.158   1.436  1.00  0.00     0.188 HD
HETATM    7  C7  UNL     1      -2.846   1.386   0.521  1.00  0.00     0.136 A 
HETATM    8  C15 UNL     1      -1.541   0.847   0.311  1.00  0.00     0.053 A 
HETATM    9  C16 UNL     1      -0.951  -0.265  -0.296  1.00  0.00     0.107 A 
HETATM   10  N6  UNL     1       0.405  -0.419  -0.295  1.00  0.00    -0.351 N 
ATOM     11  H6  UNL     1       0.824  -1.230  -0.750  1.00  0.00     0.166 HD
HETATM   12  H8  UNL     1      -1.212   3.588   1.905  1.00  0.00     0.187 HD
ENDROOT
BRANCH   1  13
HETATM   13  N2  UNL     1       2.554   0.197   0.208  1.00  0.00    -0.295 N 
HETATM   14  C3  UNL     1       3.612   0.851   0.774  1.00  0.00     0.322 C 
HETATM   15  N1  UNL     1       4.808   0.282   0.408  1.00  0.00    -0.335 N 
HETATM   16  O1  UNL     1       3.547   1.806   1.538  1.00  0.00    -0.247 OA
HETATM   17  H5  UNL     1       4.819  -0.322  -0.400  1.00  0.00     0.165 HD
HETATM   18  H6  UNL     1       2.720  -0.670  -0.276  1.00  0.00     0.172 HD
BRANCH  15  19
HETATM   19  C2  UNL     1       6.087   0.823   0.836  1.00  0.00     0.115 C 
HETATM   20  C1  UNL     1       6.429   2.097   0.056  1.00  0.00     0.037 C 
BRANCH  19  21
HETATM   21  C17 UNL     1       7.139  -0.270   0.733  1.00  0.00    -0.036 A 
HETATM   22  C18 UNL     1       7.321  -1.141   1.827  1.00  0.00     0.009 A 
HETATM   23  C19 UNL     1       8.262  -2.173   1.773  1.00  0.00     0.001 A 
HETATM   24  C20 UNL     1       9.026  -2.356   0.617  1.00  0.00     0.000 A 
HETATM   25  C21 UNL     1       8.845  -1.513  -0.485  1.00  0.00     0.001 A 
HETATM   26  C22 UNL     1       7.906  -0.481  -0.430  1.00  0.00     0.009 A 
ENDBRANCH  19  21
ENDBRANCH  15  19
ENDBRANCH   1  13
BRANCH   7  27
HETATM   27  N5  UNL     1      -4.111   0.961   0.191  1.00  0.00    -0.311 N 
HETATM   28  C8  UNL     1      -4.490  -0.232  -0.369  1.00  0.00     0.227 C 
HETATM   29  O2  UNL     1      -3.742  -1.131  -0.730  1.00  0.00    -0.273 OA
HETATM   30  H9  UNL     1      -4.813   1.621   0.492  1.00  0.00     0.170 HD
BRANCH  28  31
HETATM   31  C9  UNL     1      -6.002  -0.314  -0.595  1.00  0.00     0.078 C 
HETATM   32  C10 UNL     1      -6.308   0.159  -2.022  1.00  0.00     0.014 C 
HETATM   33  C11 UNL     1      -7.806   0.162  -2.329  1.00  0.00     0.001 C 
HETATM   34  C12 UNL     1      -8.592  -0.892  -1.544  1.00  0.00     0.000 C 
HETATM   35  C13 UNL     1      -7.735  -2.108  -1.220  1.00  0.00     0.001 C 
HETATM   36  C14 UNL     1      -6.545  -1.734  -0.329  1.00  0.00     0.014 C 
ENDBRANCH  28  31
ENDBRANCH   7  27
TORSDOF 5
