REMARK  8 active torsions:
REMARK  status: ('A' for Active; 'I' for Inactive)
REMARK    1  A    between atoms: C2_2  and  C4_4 
REMARK    2  A    between atoms: C6_6  and  N1_7 
REMARK       I    between atoms: N1_7  and  C7_8 
REMARK    3  A    between atoms: C7_8  and  C8_10 
REMARK    4  A    between atoms: N2_13  and  C11_14 
REMARK    5  A    between atoms: C11_14  and  C12_15 
REMARK       I    between atoms: C12_15  and  N3_17 
REMARK    6  A    between atoms: N4_20  and  C15_21 
REMARK    7  A    between atoms: C18_24  and  C19_25 
REMARK    8  A    between atoms: C30_40  and  O3_41 
ROOT
HETATM    1  C12 UNL     1       0.695  -0.009  -2.086  1.00  0.00     0.248 C 
HETATM    2  O2  UNL     1       0.494   0.244  -3.279  1.00  0.00    -0.271 OA
HETATM    3  N3  UNL     1       1.985  -0.074  -1.562  1.00  0.00    -0.348 N 
HETATM    4  C13 UNL     1       2.272  -0.066  -0.120  1.00  0.00     0.145 C 
HETATM    5  C14 UNL     1       3.682  -0.594   0.230  1.00  0.00     0.143 C 
HETATM    6  N4  UNL     1       4.718   0.058  -0.606  1.00  0.00    -0.378 N 
HETATM    7  C25 UNL     1       4.444  -0.088  -2.052  1.00  0.00     0.143 C 
HETATM    8  C26 UNL     1       3.057   0.469  -2.401  1.00  0.00     0.145 C 
ENDROOT
BRANCH   1   9
HETATM    9  C11 UNL     1      -0.505  -0.275  -1.165  1.00  0.00     0.374 C 
BRANCH   9  10
HETATM   10  N2  UNL     1      -0.719   0.811  -0.173  1.00  0.00     0.098 N 
HETATM   11  C10 UNL     1      -0.914   2.122  -0.820  1.00  0.00     0.274 C 
HETATM   12  C9  UNL     1      -2.397   2.214  -1.106  1.00  0.00     0.046 C 
HETATM   13  C8  UNL     1      -3.007   1.583   0.134  1.00  0.00     0.108 C 
HETATM   14  C27 UNL     1      -1.968   0.554   0.583  1.00  0.00     0.287 C 
BRANCH  13  15
HETATM   15  C7  UNL     1      -4.373   0.957  -0.100  1.00  0.00     0.228 C 
HETATM   16  N1  UNL     1      -5.034   0.678   1.088  1.00  0.00    -0.327 N 
HETATM   17  H9  UNL     1      -4.587   0.982   1.943  1.00  0.00     0.169 HD
HETATM   18  O1  UNL     1      -4.807   0.760  -1.228  1.00  0.00    -0.273 OA
BRANCH  16  19
HETATM   19  C6  UNL     1      -6.335   0.143   1.239  1.00  0.00     0.035 A 
HETATM   20  C5  UNL     1      -7.107  -0.356   0.182  1.00  0.00     0.039 A 
HETATM   21  C4  UNL     1      -8.404  -0.885   0.387  1.00  0.00    -0.019 A 
HETATM   22  C30 UNL     1      -8.921  -0.847   1.689  1.00  0.00     0.072 A 
HETATM   23  C29 UNL     1      -8.155  -0.364   2.750  1.00  0.00     0.039 A 
HETATM   24  C28 UNL     1      -6.865   0.120   2.529  1.00  0.00     0.032 A 
BRANCH  21  25
HETATM   25  C2  UNL     1      -9.114  -1.470  -0.826  1.00  0.00     0.013 C 
HETATM   26  C1  UNL     1      -9.590  -2.910  -0.618  1.00  0.00     0.015 C 
HETATM   27  C3  UNL     1     -10.238  -0.565  -1.334  1.00  0.00     0.015 C 
ENDBRANCH  21  25
BRANCH  22  28
HETATM   28  O3  UNL     1     -10.177  -1.262   2.026  1.00  0.00    -0.360 OA
HETATM   29  H36 UNL     1     -10.718  -1.312   1.223  1.00  0.00     0.217 HD
ENDBRANCH  22  28
ENDBRANCH  16  19
ENDBRANCH  13  15
ENDBRANCH   9  10
ENDBRANCH   1   9
BRANCH   6  30
HETATM   30  C15 UNL     1       6.039  -0.120  -0.168  1.00  0.00     0.030 A 
HETATM   31  C16 UNL     1       7.058  -0.637  -0.978  1.00  0.00     0.030 A 
HETATM   32  C17 UNL     1       8.387  -0.721  -0.531  1.00  0.00     0.017 A 
HETATM   33  C18 UNL     1       8.765  -0.283   0.747  1.00  0.00     0.008 A 
HETATM   34  C23 UNL     1       7.741   0.213   1.568  1.00  0.00     0.017 A 
HETATM   35  C24 UNL     1       6.412   0.293   1.119  1.00  0.00     0.030 A 
BRANCH  33  36
HETATM   36  C19 UNL     1      10.176  -0.299   1.185  1.00  0.00     0.115 A 
HETATM   37  N5  UNL     1      10.458   0.109   2.440  1.00  0.00    -0.352 N 
HETATM   38  C20 UNL     1      11.762   0.151   2.781  1.00  0.00     0.091 A 
ATOM     39  H5  UNL     1       9.723   0.372   3.097  1.00  0.00     0.166 HD
HETATM   40  C21 UNL     1      12.783  -0.189   1.930  1.00  0.00     0.034 A 
HETATM   41  C22 UNL     1      12.397  -0.602   0.678  1.00  0.00     0.091 A 
HETATM   42  N6  UNL     1      11.110  -0.667   0.283  1.00  0.00    -0.352 N 
ATOM     43  H6  UNL     1      10.854  -0.980  -0.654  1.00  0.00     0.166 HD
ENDBRANCH  33  36
ENDBRANCH   6  30
TORSDOF 8
