REMARK  8 active torsions:
REMARK  status: ('A' for Active; 'I' for Inactive)
REMARK    1  A    between atoms: C1_2  and  C2_3 
REMARK       I    between atoms: C1_2  and  N5_31 
REMARK    2  A    between atoms: C2_3  and  N1_4 
REMARK    3  A    between atoms: C5_7  and  C6_8 
REMARK    4  A    between atoms: C5_7  and  C7_10 
REMARK       I    between atoms: C7_10  and  N2_12 
REMARK    5  A    between atoms: N2_12  and  C8_13 
REMARK    6  A    between atoms: C12_20  and  C13_21 
REMARK    7  A    between atoms: N6_34  and  C24_35 
REMARK    8  A    between atoms: C27_38  and  C28_39 
ROOT
HETATM    1  N1  UNL     1      -0.249   0.003   0.274  1.00  0.00     0.098 N 
HETATM    2  C3  UNL     1      -0.199  -1.389   0.739  1.00  0.00     0.274 C 
HETATM    3  C4  UNL     1      -0.871  -1.298   2.098  1.00  0.00     0.053 C 
HETATM    4  C5  UNL     1      -2.086  -0.413   1.798  1.00  0.00     0.095 C 
HETATM    5  C21 UNL     1      -1.548   0.554   0.725  1.00  0.00     0.294 C 
ENDROOT
BRANCH   4   6
HETATM    6  C6  UNL     1      -2.571   0.297   3.053  1.00  0.00     0.243 C 
HETATM    7  F1  UNL     1      -3.561   1.175   2.717  1.00  0.00    -0.254 F 
ENDBRANCH   4   6
BRANCH   4   8
HETATM    8  C7  UNL     1      -3.235  -1.249   1.202  1.00  0.00     0.235 C 
HETATM    9  O2  UNL     1      -3.114  -2.459   1.021  1.00  0.00    -0.272 OA
HETATM   10  N2  UNL     1      -4.371  -0.525   0.884  1.00  0.00    -0.326 N 
HETATM   11  H9  UNL     1      -4.504   0.360   1.373  1.00  0.00     0.169 HD
BRANCH  10  12
HETATM   12  C8  UNL     1      -5.432  -0.960   0.063  1.00  0.00     0.035 A 
HETATM   13  C9  UNL     1      -5.313  -2.036  -0.826  1.00  0.00     0.032 A 
HETATM   14  C10 UNL     1      -6.362  -2.410  -1.676  1.00  0.00     0.034 A 
HETATM   15  C11 UNL     1      -7.543  -1.672  -1.589  1.00  0.00     0.060 A 
HETATM   16  N3  UNL     1      -8.731  -1.793  -2.251  1.00  0.00    -0.299 N 
HETATM   17  C19 UNL     1      -7.713  -0.599  -0.719  1.00  0.00     0.023 A 
HETATM   18  N4  UNL     1      -9.676  -0.926  -1.850  1.00  0.00    -0.299 N 
HETATM   19  H12 UNL     1      -8.970  -2.468  -2.970  1.00  0.00     0.187 HD
HETATM   20  C12 UNL     1      -9.064  -0.165  -0.926  1.00  0.00     0.070 A 
ATOM     21  H4  UNL     1     -10.641  -0.860  -2.174  1.00  0.00     0.187 HD
HETATM   22  C20 UNL     1      -6.633  -0.232   0.117  1.00  0.00     0.045 A 
BRANCH  20  23
HETATM   23  C13 UNL     1      -9.796   0.906  -0.250  1.00  0.00    -0.007 A 
HETATM   24  C14 UNL     1      -9.185   2.132   0.056  1.00  0.00     0.017 A 
HETATM   25  C15 UNL     1      -9.896   3.122   0.741  1.00  0.00     0.043 A 
HETATM   26  C16 UNL     1     -11.220   2.892   1.106  1.00  0.00     0.116 A 
HETATM   27  F2  UNL     1     -11.891   3.826   1.797  1.00  0.00    -0.206 F 
HETATM   28  C17 UNL     1     -11.854   1.696   0.787  1.00  0.00     0.043 A 
HETATM   29  C18 UNL     1     -11.143   0.708   0.105  1.00  0.00     0.017 A 
ENDBRANCH  20  23
ENDBRANCH  10  12
ENDBRANCH   4   8
BRANCH   1  30
HETATM   30  C2  UNL     1      -0.099   0.114  -1.196  1.00  0.00     0.374 C 
BRANCH  30  31
HETATM   31  C1  UNL     1       1.103  -0.671  -1.741  1.00  0.00     0.248 C 
HETATM   32  O1  UNL     1       0.913  -1.598  -2.535  1.00  0.00    -0.271 OA
HETATM   33  N5  UNL     1       2.377  -0.317  -1.332  1.00  0.00    -0.348 N 
HETATM   34  C22 UNL     1       3.511  -1.138  -1.764  1.00  0.00     0.145 C 
HETATM   35  C35 UNL     1       2.694   0.787  -0.414  1.00  0.00     0.145 C 
HETATM   36  C23 UNL     1       4.617  -1.237  -0.698  1.00  0.00     0.143 C 
HETATM   37  N6  UNL     1       5.084   0.098  -0.262  1.00  0.00    -0.378 N 
HETATM   38  C34 UNL     1       4.169   1.229  -0.513  1.00  0.00     0.143 C 
BRANCH  37  39
HETATM   39  C24 UNL     1       6.458   0.303  -0.166  1.00  0.00     0.030 A 
HETATM   40  C25 UNL     1       7.298  -0.688   0.362  1.00  0.00     0.030 A 
HETATM   41  C26 UNL     1       8.690  -0.523   0.438  1.00  0.00     0.017 A 
HETATM   42  C27 UNL     1       9.316   0.647  -0.017  1.00  0.00     0.008 A 
HETATM   43  C32 UNL     1       8.475   1.654  -0.511  1.00  0.00     0.017 A 
HETATM   44  C33 UNL     1       7.081   1.490  -0.570  1.00  0.00     0.030 A 
BRANCH  42  45
HETATM   45  C28 UNL     1      10.782   0.806   0.007  1.00  0.00     0.115 A 
HETATM   46  N7  UNL     1      11.498  -0.036   0.784  1.00  0.00    -0.352 N 
HETATM   47  C29 UNL     1      12.836   0.108   0.753  1.00  0.00     0.091 A 
ATOM     48  H7  UNL     1      11.048  -0.744   1.364  1.00  0.00     0.166 HD
HETATM   49  C30 UNL     1      13.483   1.037  -0.023  1.00  0.00     0.034 A 
HETATM   50  C31 UNL     1      12.667   1.850  -0.774  1.00  0.00     0.091 A 
HETATM   51  N8  UNL     1      11.324   1.760  -0.781  1.00  0.00    -0.352 N 
ATOM     52  H8  UNL     1      10.747   2.379  -1.351  1.00  0.00     0.166 HD
ENDBRANCH  42  45
ENDBRANCH  37  39
ENDBRANCH  30  31
ENDBRANCH   1  30
TORSDOF 8
