REMARK  4 active torsions:
REMARK  status: ('A' for Active; 'I' for Inactive)
REMARK    1  A    between atoms: C4_5  and  C5_6 
REMARK    2  A    between atoms: C5_6  and  N2_7 
REMARK       I    between atoms: N2_7  and  C6_8 
REMARK       I    between atoms: C6_8  and  N3_10 
REMARK    3  A    between atoms: N3_10  and  C7_11 
REMARK    4  A    between atoms: C10_17  and  C11_18 
ROOT
HETATM    1  C7  UNL     1       0.906  -0.320   0.202  1.00  0.00     0.111 A 
HETATM    2  C8  UNL     1       1.496  -1.353   0.920  1.00  0.00     0.080 A 
HETATM    3  C9  UNL     1       2.888  -1.302   1.000  1.00  0.00     0.065 A 
HETATM    4  N4  UNL     1       3.794  -2.113   1.619  1.00  0.00    -0.299 N 
HETATM    5  N5  UNL     1       5.069  -1.721   1.476  1.00  0.00    -0.299 N 
ATOM      6  H5  UNL     1       5.905  -2.160   1.863  1.00  0.00     0.187 HD
HETATM    7  C10 UNL     1       4.998  -0.620   0.708  1.00  0.00     0.072 A 
HETATM    8  C17 UNL     1       3.640  -0.303   0.398  1.00  0.00     0.036 A 
HETATM    9  C18 UNL     1       2.962   0.700  -0.297  1.00  0.00     0.105 A 
HETATM   10  N6  UNL     1       1.607   0.674  -0.392  1.00  0.00    -0.351 N 
ATOM     11  H6  UNL     1       1.118   1.403  -0.911  1.00  0.00     0.166 HD
HETATM   12  H14 UNL     1       3.606  -2.947   2.164  1.00  0.00     0.187 HD
ENDROOT
BRANCH   1  13
HETATM   13  N3  UNL     1      -0.470  -0.206   0.009  1.00  0.00    -0.295 N 
HETATM   14  C6  UNL     1      -1.472  -0.966   0.550  1.00  0.00     0.321 C 
HETATM   15  N2  UNL     1      -2.707  -0.560   0.081  1.00  0.00    -0.342 N 
HETATM   16  O1  UNL     1      -1.340  -1.882   1.351  1.00  0.00    -0.247 OA
HETATM   17  H11 UNL     1      -2.687  -0.191  -0.859  1.00  0.00     0.164 HD
HETATM   18  H12 UNL     1      -0.721   0.630  -0.495  1.00  0.00     0.172 HD
BRANCH  15  19
HETATM   19  C5  UNL     1      -3.899  -1.289   0.478  1.00  0.00     0.130 C 
BRANCH  19  20
HETATM   20  C4  UNL     1      -5.207  -0.577   0.134  1.00  0.00     0.033 C 
HETATM   21  C3  UNL     1      -5.315   0.855   0.662  1.00  0.00     0.038 C 
HETATM   22  C2  UNL     1      -5.674   1.699  -0.554  1.00  0.00     0.272 C 
HETATM   23  N1  UNL     1      -6.243   0.775  -1.546  1.00  0.00     0.084 N 
HETATM   24  C1  UNL     1      -7.675   0.569  -1.326  1.00  0.00     0.309 C 
HETATM   25  C19 UNL     1      -5.479  -0.468  -1.367  1.00  0.00     0.278 C 
ENDBRANCH  19  20
ENDBRANCH  15  19
ENDBRANCH   1  13
BRANCH   7  26
HETATM   26  C11 UNL     1       6.213   0.092   0.311  1.00  0.00    -0.007 A 
HETATM   27  C12 UNL     1       7.255   0.270   1.236  1.00  0.00     0.017 A 
HETATM   28  C13 UNL     1       8.418   0.951   0.873  1.00  0.00     0.043 A 
HETATM   29  C14 UNL     1       8.544   1.449  -0.418  1.00  0.00     0.116 A 
HETATM   30  F1  UNL     1       9.659   2.101  -0.769  1.00  0.00    -0.206 F 
HETATM   31  C15 UNL     1       7.531   1.273  -1.354  1.00  0.00     0.043 A 
HETATM   32  C16 UNL     1       6.366   0.592  -0.992  1.00  0.00     0.017 A 
ENDBRANCH   7  26
TORSDOF 4
