REMARK  5 active torsions:
REMARK  status: ('A' for Active; 'I' for Inactive)
REMARK    1  A    between atoms: C4_4  and  C5_5 
REMARK    2  A    between atoms: C8_11  and  N3_12 
REMARK       I    between atoms: N3_12  and  C9_13 
REMARK       I    between atoms: C9_13  and  N4_15 
REMARK    3  A    between atoms: N4_15  and  C10_16 
REMARK    4  A    between atoms: C10_16  and  C11_17 
REMARK    5  A    between atoms: C15_23  and  C16_24 
ROOT
HETATM    1  C5  UNL     1      -4.067   1.573   0.608  1.00  0.00     0.072 A 
HETATM    2  N1  UNL     1      -3.968   2.378   1.681  1.00  0.00    -0.299 N 
ATOM      3  H1  UNL     1      -4.705   2.932   2.117  1.00  0.00     0.187 HD
HETATM    4  N2  UNL     1      -2.680   2.288   2.049  1.00  0.00    -0.299 N 
HETATM    5  C6  UNL     1      -1.923   1.487   1.243  1.00  0.00     0.065 A 
HETATM    6  C7  UNL     1      -0.570   1.151   1.273  1.00  0.00     0.080 A 
HETATM    7  C8  UNL     1      -0.150   0.297   0.262  1.00  0.00     0.111 A 
HETATM    8  N6  UNL     1      -0.970  -0.179  -0.705  1.00  0.00    -0.351 N 
ATOM      9  H6  UNL     1      -0.602  -0.798  -1.428  1.00  0.00     0.166 HD
HETATM   10  C17 UNL     1      -2.284   0.168  -0.712  1.00  0.00     0.105 A 
HETATM   11  C18 UNL     1      -2.798   1.006   0.279  1.00  0.00     0.036 A 
HETATM   12  H5  UNL     1      -2.376   2.811   2.863  1.00  0.00     0.187 HD
ENDROOT
BRANCH   7  13
HETATM   13  N3  UNL     1       1.165  -0.147   0.125  1.00  0.00    -0.295 N 
HETATM   14  C9  UNL     1       2.222   0.053   0.970  1.00  0.00     0.322 C 
HETATM   15  O1  UNL     1       2.197   0.638   2.045  1.00  0.00    -0.247 OA
HETATM   16  N4  UNL     1       3.376  -0.513   0.465  1.00  0.00    -0.339 N 
HETATM   17  H8  UNL     1       3.426  -0.504  -0.546  1.00  0.00     0.164 HD
HETATM   18  H7  UNL     1       1.279  -0.787  -0.645  1.00  0.00     0.172 HD
BRANCH  16  19
HETATM   19  C10 UNL     1       4.620  -0.320   1.175  1.00  0.00     0.165 C 
BRANCH  19  20
HETATM   20  C11 UNL     1       5.690  -1.253   0.675  1.00  0.00    -0.010 A 
HETATM   21  C12 UNL     1       6.023  -2.373   1.434  1.00  0.00     0.097 A 
HETATM   22  N5  UNL     1       6.966  -3.276   1.087  1.00  0.00    -0.375 N 
HETATM   23  C13 UNL     1       7.613  -3.070  -0.076  1.00  0.00     0.088 A 
ATOM     24  H5  UNL     1       7.179  -4.078   1.680  1.00  0.00     0.164 HD
HETATM   25  C14 UNL     1       7.355  -2.000  -0.914  1.00  0.00     0.034 A 
HETATM   26  C15 UNL     1       6.373  -1.069  -0.544  1.00  0.00     0.058 A 
BRANCH  26  27
HETATM   27  C16 UNL     1       6.065   0.092  -1.455  1.00  0.00     0.418 C 
HETATM   28  F1  UNL     1       6.310   1.296  -0.872  1.00  0.00    -0.166 F 
HETATM   29  F2  UNL     1       6.778   0.085  -2.614  1.00  0.00    -0.166 F 
HETATM   30  F3  UNL     1       4.753   0.115  -1.829  1.00  0.00    -0.166 F 
ENDBRANCH  26  27
ENDBRANCH  19  20
ENDBRANCH  16  19
ENDBRANCH   7  13
BRANCH   1  31
HETATM   31  C4  UNL     1      -5.350   1.388  -0.067  1.00  0.00    -0.004 A 
HETATM   32  C3  UNL     1      -5.751   0.132  -0.526  1.00  0.00     0.038 A 
HETATM   33  C2  UNL     1      -6.981   0.010  -1.167  1.00  0.00     0.005 A 
HETATM   34  C1  UNL     1      -7.441  -1.328  -1.665  1.00  0.00     0.068 C 
HETATM   35  N7  UNL     1      -7.808   1.062  -1.364  1.00  0.00    -0.369 N 
HETATM   36  C20 UNL     1      -7.409   2.263  -0.895  1.00  0.00     0.089 A 
ATOM     37  H7  UNL     1      -8.699   0.952  -1.848  1.00  0.00     0.165 HD
HETATM   38  C19 UNL     1      -6.207   2.475  -0.247  1.00  0.00     0.031 A 
ENDBRANCH   1  31
TORSDOF 5
