REMARK  7 active torsions:
REMARK  status: ('A' for Active; 'I' for Inactive)
REMARK    1  A    between atoms: O1_2  and  C2_3 
REMARK    2  A    between atoms: C2_3  and  C3_4 
REMARK    3  A    between atoms: C3_4  and  O2_5 
REMARK    4  A    between atoms: O2_5  and  C4_6 
REMARK    5  A    between atoms: C7_12  and  N3_13 
REMARK       I    between atoms: N3_13  and  C8_14 
REMARK       I    between atoms: C8_14  and  N4_16 
REMARK    6  A    between atoms: N4_16  and  C9_17 
REMARK    7  A    between atoms: C9_17  and  C10_18 
ROOT
HETATM    1  C4  UNL     1       3.947   0.005   0.398  1.00  0.00     0.171 A 
HETATM    2  N1  UNL     1       4.202   1.263   0.036  1.00  0.00    -0.279 N 
ATOM      3  H1  UNL     1       5.107   1.723  -0.061  1.00  0.00     0.189 HD
HETATM    4  N2  UNL     1       2.975   1.778  -0.170  1.00  0.00    -0.298 N 
HETATM    5  C5  UNL     1       1.954   0.888   0.037  1.00  0.00     0.067 A 
HETATM    6  C6  UNL     1       0.569   1.011  -0.070  1.00  0.00     0.080 A 
HETATM    7  C7  UNL     1      -0.151  -0.139   0.233  1.00  0.00     0.111 A 
HETATM    8  N5  UNL     1       0.422  -1.311   0.599  1.00  0.00    -0.351 N 
ATOM      9  H5  UNL     1      -0.161  -2.123   0.801  1.00  0.00     0.166 HD
HETATM   10  C16 UNL     1       1.775  -1.404   0.697  1.00  0.00     0.108 A 
HETATM   11  C17 UNL     1       2.571  -0.297   0.415  1.00  0.00     0.060 A 
HETATM   12  H8  UNL     1       2.901   2.749  -0.454  1.00  0.00     0.187 HD
ENDROOT
BRANCH   7  13
HETATM   13  N3  UNL     1      -1.543  -0.212   0.178  1.00  0.00    -0.295 N 
HETATM   14  C8  UNL     1      -2.439   0.794  -0.060  1.00  0.00     0.322 C 
HETATM   15  O3  UNL     1      -2.179   1.977  -0.235  1.00  0.00    -0.247 OA
HETATM   16  N4  UNL     1      -3.732   0.316  -0.069  1.00  0.00    -0.339 N 
HETATM   17  H11 UNL     1      -3.843  -0.640  -0.372  1.00  0.00     0.164 HD
HETATM   18  H10 UNL     1      -1.894  -1.110   0.471  1.00  0.00     0.172 HD
BRANCH  16  19
HETATM   19  C9  UNL     1      -4.818   1.214  -0.386  1.00  0.00     0.162 C 
BRANCH  19  20
HETATM   20  C10 UNL     1      -6.145   0.521  -0.223  1.00  0.00    -0.040 A 
HETATM   21  C11 UNL     1      -6.848   0.048  -1.342  1.00  0.00     0.012 A 
HETATM   22  C12 UNL     1      -8.067  -0.612  -1.181  1.00  0.00     0.043 A 
HETATM   23  C13 UNL     1      -8.580  -0.806   0.097  1.00  0.00     0.116 A 
HETATM   24  F1  UNL     1      -9.749  -1.442   0.249  1.00  0.00    -0.206 F 
HETATM   25  C14 UNL     1      -7.896  -0.353   1.218  1.00  0.00     0.043 A 
HETATM   26  C15 UNL     1      -6.677   0.308   1.060  1.00  0.00     0.012 A 
ENDBRANCH  19  20
ENDBRANCH  16  19
ENDBRANCH   7  13
BRANCH   1  27
HETATM   27  O2  UNL     1       4.943  -0.861   0.690  1.00  0.00    -0.332 OA
BRANCH  27  28
HETATM   28  C3  UNL     1       6.262  -0.310   0.686  1.00  0.00     0.203 C 
BRANCH  28  29
HETATM   29  C2  UNL     1       6.874  -0.316  -0.718  1.00  0.00     0.193 C 
BRANCH  29  30
HETATM   30  O1  UNL     1       8.240   0.105  -0.714  1.00  0.00    -0.394 OA
HETATM   31  C1  UNL     1       9.144  -0.942  -0.389  1.00  0.00     0.201 C 
ENDBRANCH  29  30
ENDBRANCH  28  29
ENDBRANCH  27  28
ENDBRANCH   1  27
TORSDOF 7
