REMARK  5 active torsions:
REMARK  status: ('A' for Active; 'I' for Inactive)
REMARK    1  A    between atoms: C4_4  and  C5_5 
REMARK    2  A    between atoms: C8_11  and  N3_12 
REMARK       I    between atoms: N3_12  and  C9_13 
REMARK       I    between atoms: C9_13  and  N4_15 
REMARK    3  A    between atoms: N4_15  and  C10_16 
REMARK    4  A    between atoms: C14_20  and  O2_21 
REMARK    5  A    between atoms: O2_21  and  C15_22 
ROOT
HETATM    1  C5  UNL     1       5.757  -1.097  -0.634  1.00  0.00     0.072 A 
HETATM    2  N1  UNL     1       5.475  -1.624  -1.837  1.00  0.00    -0.299 N 
ATOM      3  H1  UNL     1       6.107  -2.123  -2.463  1.00  0.00     0.187 HD
HETATM    4  N2  UNL     1       4.177  -1.347  -2.030  1.00  0.00    -0.299 N 
HETATM    5  C6  UNL     1       3.600  -0.638  -1.017  1.00  0.00     0.065 A 
HETATM    6  C7  UNL     1       2.305  -0.150  -0.844  1.00  0.00     0.080 A 
HETATM    7  C8  UNL     1       2.092   0.557   0.332  1.00  0.00     0.111 A 
HETATM    8  N5  UNL     1       3.051   0.769   1.264  1.00  0.00    -0.351 N 
ATOM      9  H5  UNL     1       2.831   1.289   2.114  1.00  0.00     0.166 HD
HETATM   10  C22 UNL     1       4.307   0.288   1.066  1.00  0.00     0.105 A 
HETATM   11  C23 UNL     1       4.610  -0.445  -0.083  1.00  0.00     0.036 A 
HETATM   12  H5  UNL     1       3.738  -1.669  -2.887  1.00  0.00     0.187 HD
ENDROOT
BRANCH   7  13
HETATM   13  N3  UNL     1       0.860   1.111   0.683  1.00  0.00    -0.295 N 
HETATM   14  C9  UNL     1      -0.273   1.208  -0.079  1.00  0.00     0.322 C 
HETATM   15  O1  UNL     1      -0.394   0.867  -1.249  1.00  0.00    -0.247 OA
HETATM   16  N4  UNL     1      -1.310   1.766   0.644  1.00  0.00    -0.338 N 
HETATM   17  H8  UNL     1      -1.268   1.609   1.640  1.00  0.00     0.164 HD
HETATM   18  H7  UNL     1       0.899   1.623   1.550  1.00  0.00     0.172 HD
BRANCH  16  19
HETATM   19  C10 UNL     1      -2.638   1.906   0.057  1.00  0.00     0.088 C 
HETATM   20  C11 UNL     1      -3.458   2.935   0.836  1.00  0.00     0.025 C 
HETATM   21  C12 UNL     1      -4.821   3.185   0.188  1.00  0.00     0.004 C 
HETATM   22  C13 UNL     1      -5.378   1.965  -0.545  1.00  0.00     0.032 C 
HETATM   23  C14 UNL     1      -4.893   0.659   0.085  1.00  0.00     0.131 C 
HETATM   24  C21 UNL     1      -3.362   0.550  -0.029  1.00  0.00     0.057 C 
BRANCH  23  25
HETATM   25  O2  UNL     1      -5.448  -0.469  -0.598  1.00  0.00    -0.346 OA
BRANCH  25  26
HETATM   26  C15 UNL     1      -6.680  -0.935  -0.234  1.00  0.00     0.072 A 
HETATM   27  C16 UNL     1      -7.088  -2.085  -0.922  1.00  0.00     0.037 A 
HETATM   28  C17 UNL     1      -8.328  -2.677  -0.663  1.00  0.00     0.006 A 
HETATM   29  C18 UNL     1      -9.173  -2.117   0.290  1.00  0.00     0.042 A 
HETATM   30  C19 UNL     1      -8.765  -0.974   0.969  1.00  0.00     0.119 A 
HETATM   31  F1  UNL     1      -9.580  -0.430   1.883  1.00  0.00    -0.206 F 
HETATM   32  C20 UNL     1      -7.531  -0.377   0.717  1.00  0.00     0.079 A 
ENDBRANCH  25  26
ENDBRANCH  23  25
ENDBRANCH  16  19
ENDBRANCH   7  13
BRANCH   1  33
HETATM   33  C4  UNL     1       7.100  -1.219  -0.066  1.00  0.00    -0.004 A 
HETATM   34  C3  UNL     1       8.220  -1.131  -0.899  1.00  0.00     0.038 A 
HETATM   35  C2  UNL     1       9.489  -1.251  -0.343  1.00  0.00     0.005 A 
HETATM   36  C1  UNL     1      10.704  -1.157  -1.217  1.00  0.00     0.068 C 
HETATM   37  N6  UNL     1       9.688  -1.443   0.981  1.00  0.00    -0.369 N 
HETATM   38  C25 UNL     1       8.594  -1.545   1.765  1.00  0.00     0.089 A 
ATOM     39  H6  UNL     1      10.628  -1.508   1.372  1.00  0.00     0.165 HD
HETATM   40  C24 UNL     1       7.295  -1.444   1.296  1.00  0.00     0.031 A 
ENDBRANCH   1  33
TORSDOF 5
