REMARK  4 active torsions:
REMARK  status: ('A' for Active; 'I' for Inactive)
REMARK    1  A    between atoms: C4_4  and  C5_5 
REMARK    2  A    between atoms: C8_11  and  N3_12 
REMARK       I    between atoms: N3_12  and  C9_13 
REMARK       I    between atoms: C9_13  and  N4_15 
REMARK    3  A    between atoms: N4_15  and  C10_16 
REMARK    4  A    between atoms: C10_16  and  C11_17 
ROOT
HETATM    1  C5  UNL     1       3.713  -0.471   0.653  1.00  0.00     0.072 A 
HETATM    2  N1  UNL     1       4.022  -1.116   1.791  1.00  0.00    -0.299 N 
ATOM      3  H1  UNL     1       4.927  -1.155   2.260  1.00  0.00     0.187 HD
HETATM    4  N2  UNL     1       2.875  -1.696   2.171  1.00  0.00    -0.299 N 
HETATM    5  C6  UNL     1       1.816  -1.436   1.349  1.00  0.00     0.065 A 
HETATM    6  C7  UNL     1       0.478  -1.827   1.392  1.00  0.00     0.080 A 
HETATM    7  C8  UNL     1      -0.323  -1.349   0.357  1.00  0.00     0.111 A 
HETATM    8  N5  UNL     1       0.142  -0.540  -0.613  1.00  0.00    -0.351 N 
ATOM      9  H5  UNL     1      -0.493  -0.203  -1.337  1.00  0.00     0.166 HD
HETATM   10  C17 UNL     1       1.447  -0.168  -0.638  1.00  0.00     0.105 A 
HETATM   11  C18 UNL     1       2.326  -0.623   0.345  1.00  0.00     0.036 A 
HETATM   12  H5  UNL     1       2.883  -2.259   3.014  1.00  0.00     0.187 HD
ENDROOT
BRANCH   7  13
HETATM   13  N3  UNL     1      -1.674  -1.720   0.382  1.00  0.00    -0.295 N 
HETATM   14  C9  UNL     1      -2.582  -1.501  -0.628  1.00  0.00     0.322 C 
HETATM   15  O1  UNL     1      -2.357  -1.072  -1.751  1.00  0.00    -0.247 OA
HETATM   16  N4  UNL     1      -3.852  -1.876  -0.220  1.00  0.00    -0.339 N 
HETATM   17  H8  UNL     1      -4.039  -1.761   0.764  1.00  0.00     0.164 HD
HETATM   18  H7  UNL     1      -1.975  -2.330   1.122  1.00  0.00     0.172 HD
BRANCH  16  19
HETATM   19  C10 UNL     1      -4.988  -1.669  -1.093  1.00  0.00     0.162 C 
BRANCH  19  20
HETATM   20  C11 UNL     1      -5.688  -0.372  -0.772  1.00  0.00    -0.039 A 
HETATM   21  C12 UNL     1      -5.186   0.844  -1.261  1.00  0.00     0.009 A 
HETATM   22  C13 UNL     1      -5.814   2.051  -0.949  1.00  0.00     0.002 A 
HETATM   23  C14 UNL     1      -6.949   2.057  -0.139  1.00  0.00     0.024 A 
HETATM   24  C15 UNL     1      -7.449   0.855   0.357  1.00  0.00     0.034 A 
HETATM   25 CL1  UNL     1      -8.844   0.861   1.365  1.00  0.00    -0.084 Cl
HETATM   26  C16 UNL     1      -6.825  -0.355   0.049  1.00  0.00     0.032 A 
ENDBRANCH  19  20
ENDBRANCH  16  19
ENDBRANCH   7  13
BRANCH   1  27
HETATM   27  C4  UNL     1       4.737   0.270  -0.084  1.00  0.00    -0.004 A 
HETATM   28  C3  UNL     1       5.712   0.993   0.609  1.00  0.00     0.038 A 
HETATM   29  C2  UNL     1       6.675   1.692  -0.110  1.00  0.00     0.005 A 
HETATM   30  C1  UNL     1       7.729   2.478   0.611  1.00  0.00     0.068 C 
HETATM   31  N6  UNL     1       6.710   1.699  -1.462  1.00  0.00    -0.369 N 
HETATM   32  C20 UNL     1       5.771   0.980  -2.112  1.00  0.00     0.089 A 
ATOM     33  H6  UNL     1       7.419   2.227  -1.971  1.00  0.00     0.165 HD
HETATM   34  C19 UNL     1       4.776   0.257  -1.478  1.00  0.00     0.031 A 
ENDBRANCH   1  27
TORSDOF 4
