REMARK  7 active torsions:
REMARK  status: ('A' for Active; 'I' for Inactive)
REMARK    1  A    between atoms: O1_2  and  C2_3 
REMARK    2  A    between atoms: C2_3  and  C3_4 
REMARK    3  A    between atoms: C3_4  and  N1_5 
REMARK    4  A    between atoms: C3_4  and  C17_28 
REMARK       I    between atoms: N1_5  and  C4_6 
REMARK       I    between atoms: C4_6  and  N2_8 
REMARK    5  A    between atoms: N2_8  and  C5_9 
REMARK    6  A    between atoms: C8_15  and  O3_16 
REMARK    7  A    between atoms: O3_16  and  C9_17 
ROOT
HETATM    1  C5  UNL     1       0.409   0.310  -0.629  1.00  0.00     0.110 A 
HETATM    2  C6  UNL     1      -0.059   0.532   0.662  1.00  0.00     0.080 A 
HETATM    3  C7  UNL     1      -1.444   0.471   0.809  1.00  0.00     0.067 A 
HETATM    4  N3  UNL     1      -2.261   0.629   1.898  1.00  0.00    -0.298 N 
HETATM    5  N4  UNL     1      -3.572   0.491   1.624  1.00  0.00    -0.279 N 
ATOM      6  H4  UNL     1      -4.364   0.561   2.263  1.00  0.00     0.189 HD
HETATM    7  C8  UNL     1      -3.585   0.240   0.313  1.00  0.00     0.171 A 
HETATM    8  C15 UNL     1      -2.296   0.211  -0.255  1.00  0.00     0.060 A 
HETATM    9  C16 UNL     1      -1.745   0.002  -1.517  1.00  0.00     0.108 A 
HETATM   10  N5  UNL     1      -0.398   0.059  -1.689  1.00  0.00    -0.351 N 
ATOM     11  H5  UNL     1       0.005  -0.087  -2.614  1.00  0.00     0.166 HD
HETATM   12  H10 UNL     1      -1.985   0.831   2.853  1.00  0.00     0.187 HD
ENDROOT
BRANCH   1  13
HETATM   13  N2  UNL     1       1.760   0.348  -0.971  1.00  0.00    -0.299 N 
HETATM   14  C4  UNL     1       2.847   0.448  -0.142  1.00  0.00     0.300 C 
HETATM   15  N1  UNL     1       4.011   0.522  -0.882  1.00  0.00    -0.233 NA
HETATM   16  O2  UNL     1       2.826   0.475   1.080  1.00  0.00    -0.254 OA
HETATM   17  H7  UNL     1       3.908   1.117  -1.694  1.00  0.00     0.133 HD
HETATM   18  H8  UNL     1       1.926   0.128  -1.940  1.00  0.00     0.171 HD
BRANCH  15  19
HETATM   19  C3  UNL     1       5.295   0.727  -0.208  1.00  0.00     0.121 C 
BRANCH  19  20
HETATM   20  C2  UNL     1       6.352   1.210  -1.226  1.00  0.00     0.191 C 
BRANCH  20  21
HETATM   21  O1  UNL     1       5.854   2.376  -1.902  1.00  0.00    -0.394 OA
HETATM   22  C1  UNL     1       6.817   2.900  -2.808  1.00  0.00     0.201 C 
ENDBRANCH  20  21
ENDBRANCH  19  20
BRANCH  19  23
HETATM   23  C17 UNL     1       5.789  -0.529   0.490  1.00  0.00    -0.038 A 
HETATM   24  C18 UNL     1       6.264  -0.456   1.808  1.00  0.00     0.009 A 
HETATM   25  C19 UNL     1       6.752  -1.594   2.452  1.00  0.00     0.001 A 
HETATM   26  C20 UNL     1       6.769  -2.819   1.788  1.00  0.00     0.000 A 
HETATM   27  C21 UNL     1       6.298  -2.908   0.480  1.00  0.00     0.001 A 
HETATM   28  C22 UNL     1       5.811  -1.770  -0.166  1.00  0.00     0.009 A 
ENDBRANCH  19  23
ENDBRANCH  15  19
ENDBRANCH   1  13
BRANCH   7  29
HETATM   29  O3  UNL     1      -4.739   0.024  -0.358  1.00  0.00    -0.328 OA
BRANCH  29  30
HETATM   30  C9  UNL     1      -5.954   0.205   0.394  1.00  0.00     0.138 C 
HETATM   31  C10 UNL     1      -6.320  -1.096   1.119  1.00  0.00     0.059 C 
HETATM   32  C11 UNL     1      -6.717  -2.181   0.128  1.00  0.00     0.170 C 
HETATM   33  O4  UNL     1      -7.781  -1.733  -0.711  1.00  0.00    -0.391 OA
HETATM   34  C12 UNL     1      -7.394  -0.613  -1.506  1.00  0.00     0.174 C 
HETATM   35  C13 UNL     1      -7.044   0.593  -0.628  1.00  0.00     0.035 C 
HETATM   36  C14 UNL     1      -8.296   1.138   0.067  1.00  0.00     0.015 C 
ENDBRANCH  29  30
ENDBRANCH   7  29
TORSDOF 7
