REMARK  6 active torsions:
REMARK  status: ('A' for Active; 'I' for Inactive)
REMARK       I    between atoms: C1_2  and  N1_3 
REMARK       I    between atoms: C1_2  and  N2_12 
REMARK    1  A    between atoms: N1_3  and  C2_4 
REMARK    2  A    between atoms: C2_4  and  C3_5 
REMARK    3  A    between atoms: N2_12  and  C9_13 
REMARK    4  A    between atoms: C12_19  and  C13_20 
REMARK    5  A    between atoms: C16_23  and  O2_24 
REMARK    6  A    between atoms: O2_24  and  C17_25 
ROOT
HETATM    1  C9  UNL     1      -0.990  -1.377   0.277  1.00  0.00     0.111 A 
HETATM    2  C10 UNL     1      -0.307  -2.274   1.096  1.00  0.00     0.080 A 
HETATM    3  C11 UNL     1       1.082  -2.145   1.105  1.00  0.00     0.065 A 
HETATM    4  N3  UNL     1       2.064  -2.839   1.753  1.00  0.00    -0.299 N 
HETATM    5  N4  UNL     1       3.307  -2.414   1.485  1.00  0.00    -0.299 N 
ATOM      6  H4  UNL     1       4.186  -2.791   1.840  1.00  0.00     0.187 HD
HETATM    7  C12 UNL     1       3.135  -1.379   0.644  1.00  0.00     0.072 A 
HETATM    8  C20 UNL     1       1.749  -1.182   0.359  1.00  0.00     0.036 A 
HETATM    9  C21 UNL     1       0.986  -0.328  -0.438  1.00  0.00     0.105 A 
HETATM   10  N5  UNL     1      -0.367  -0.435  -0.454  1.00  0.00    -0.351 N 
ATOM     11  H5  UNL     1      -0.917   0.206  -1.026  1.00  0.00     0.166 HD
HETATM   12  H10 UNL     1       1.955  -3.622   2.388  1.00  0.00     0.187 HD
ENDROOT
BRANCH   1  13
HETATM   13  N2  UNL     1      -2.387  -1.480   0.260  1.00  0.00    -0.295 N 
HETATM   14  C1  UNL     1      -3.230  -0.801  -0.590  1.00  0.00     0.322 C 
HETATM   15  O1  UNL     1      -2.921  -0.084  -1.531  1.00  0.00    -0.247 OA
HETATM   16  N1  UNL     1      -4.551  -1.059  -0.261  1.00  0.00    -0.339 N 
HETATM   17  H1  UNL     1      -4.729  -1.230   0.716  1.00  0.00     0.164 HD
HETATM   18  H8  UNL     1      -2.805  -2.211   0.807  1.00  0.00     0.172 HD
BRANCH  16  19
HETATM   19  C2  UNL     1      -5.623  -0.399  -0.976  1.00  0.00     0.162 C 
BRANCH  19  20
HETATM   20  C3  UNL     1      -6.113   0.813  -0.221  1.00  0.00    -0.040 A 
HETATM   21  C4  UNL     1      -7.280   0.749   0.557  1.00  0.00     0.012 A 
HETATM   22  C5  UNL     1      -7.715   1.868   1.269  1.00  0.00     0.043 A 
HETATM   23  C6  UNL     1      -6.982   3.047   1.209  1.00  0.00     0.116 A 
HETATM   24  F1  UNL     1      -7.400   4.118   1.896  1.00  0.00    -0.206 F 
HETATM   25  C7  UNL     1      -5.821   3.130   0.451  1.00  0.00     0.043 A 
HETATM   26  C8  UNL     1      -5.385   2.013  -0.263  1.00  0.00     0.012 A 
ENDBRANCH  19  20
ENDBRANCH  16  19
ENDBRANCH   1  13
BRANCH   7  27
HETATM   27  C13 UNL     1       4.285  -0.632   0.135  1.00  0.00    -0.007 A 
HETATM   28  C14 UNL     1       4.248   0.760   0.004  1.00  0.00     0.016 A 
HETATM   29  C15 UNL     1       5.357   1.452  -0.492  1.00  0.00     0.038 A 
HETATM   30  C16 UNL     1       6.521   0.773  -0.863  1.00  0.00     0.078 A 
HETATM   31  C18 UNL     1       6.569  -0.613  -0.721  1.00  0.00     0.038 A 
HETATM   32  C19 UNL     1       5.460  -1.308  -0.223  1.00  0.00     0.016 A 
BRANCH  30  33
HETATM   33  O2  UNL     1       7.519   1.578  -1.332  1.00  0.00    -0.255 OA
BRANCH  33  34
HETATM   34  C17 UNL     1       8.717   0.958  -1.769  1.00  0.00     0.530 C 
HETATM   35  F2  UNL     1       8.481   0.095  -2.780  1.00  0.00    -0.144 F 
HETATM   36  F3  UNL     1       9.329   0.309  -0.755  1.00  0.00    -0.144 F 
HETATM   37  F4  UNL     1       9.558   1.914  -2.223  1.00  0.00    -0.144 F 
ENDBRANCH  33  34
ENDBRANCH  30  33
ENDBRANCH   7  27
TORSDOF 6
