REMARK  9 active torsions:
REMARK  status: ('A' for Active; 'I' for Inactive)
REMARK    1  A    between atoms: C2_2  and  O1_3 
REMARK    2  A    between atoms: O1_3  and  C3_4 
REMARK    3  A    between atoms: C3_4  and  C4_5 
REMARK       I    between atoms: C4_5  and  N1_7 
REMARK    4  A    between atoms: N1_7  and  C5_8 
REMARK    5  A    between atoms: C9_15  and  C10_16 
REMARK    6  A    between atoms: N4_27  and  C20_28 
REMARK    7  A    between atoms: C20_28  and  C21_29 
REMARK       I    between atoms: C21_29  and  N5_31 
REMARK    8  A    between atoms: N6_34  and  C24_35 
REMARK    9  A    between atoms: C27_38  and  C28_39 
ROOT
HETATM    1  C3  UNL     1      -2.414  -1.228  -2.916  1.00  0.00     0.169 C 
HETATM    2  C18 UNL     1      -2.009  -2.258  -1.843  1.00  0.00     0.080 C 
HETATM    3  C19 UNL     1      -0.844  -1.605  -1.115  1.00  0.00     0.276 C 
HETATM    4  N4  UNL     1      -1.235  -0.190  -1.097  1.00  0.00     0.100 N 
HETATM    5  C36 UNL     1      -1.706   0.073  -2.471  1.00  0.00     0.321 C 
ENDROOT
BRANCH   1   6
HETATM    6  O1  UNL     1      -1.861  -1.730  -4.141  1.00  0.00    -0.369 OA
BRANCH   6   7
HETATM    7  C2  UNL     1      -1.965  -0.859  -5.268  1.00  0.00     0.165 C 
HETATM    8  C1  UNL     1      -2.133  -1.716  -6.508  1.00  0.00     0.033 C 
ENDBRANCH   6   7
ENDBRANCH   1   6
BRANCH   1   9
HETATM    9  C4  UNL     1      -3.967  -1.031  -2.925  1.00  0.00     0.259 C 
HETATM   10  O2  UNL     1      -4.627  -1.275  -3.935  1.00  0.00    -0.270 OA
HETATM   11  N1  UNL     1      -4.495  -0.569  -1.721  1.00  0.00    -0.325 N 
HETATM   12  H6  UNL     1      -3.855  -0.505  -0.931  1.00  0.00     0.169 HD
BRANCH  11  13
HETATM   13  C5  UNL     1      -5.843  -0.239  -1.454  1.00  0.00     0.035 A 
HETATM   14  C6  UNL     1      -6.824  -0.149  -2.449  1.00  0.00     0.032 A 
HETATM   15  C7  UNL     1      -8.148   0.194  -2.148  1.00  0.00     0.034 A 
HETATM   16  C8  UNL     1      -8.459   0.416  -0.806  1.00  0.00     0.060 A 
HETATM   17  N2  UNL     1      -9.634   0.755  -0.202  1.00  0.00    -0.299 N 
HETATM   18  C16 UNL     1      -7.528   0.321   0.224  1.00  0.00     0.023 A 
HETATM   19  N3  UNL     1      -9.555   0.882   1.128  1.00  0.00    -0.299 N 
HETATM   20  H9  UNL     1     -10.529   0.917  -0.648  1.00  0.00     0.187 HD
HETATM   21  C9  UNL     1      -8.274   0.590   1.420  1.00  0.00     0.070 A 
ATOM     22  H3  UNL     1     -10.299   1.142   1.775  1.00  0.00     0.187 HD
HETATM   23  C17 UNL     1      -6.188   0.019  -0.113  1.00  0.00     0.045 A 
BRANCH  21  24
HETATM   24  C10 UNL     1      -7.821   0.595   2.817  1.00  0.00    -0.007 A 
HETATM   25  C11 UNL     1      -8.403   1.488   3.736  1.00  0.00     0.017 A 
HETATM   26  C12 UNL     1      -8.007   1.503   5.074  1.00  0.00     0.043 A 
HETATM   27  C13 UNL     1      -7.022   0.625   5.499  1.00  0.00     0.116 A 
HETATM   28  F1  UNL     1      -6.641   0.633   6.784  1.00  0.00    -0.206 F 
HETATM   29  C14 UNL     1      -6.430  -0.270   4.615  1.00  0.00     0.043 A 
HETATM   30  C15 UNL     1      -6.836  -0.292   3.276  1.00  0.00     0.017 A 
ENDBRANCH  21  24
ENDBRANCH  11  13
ENDBRANCH   1   9
BRANCH   4  31
HETATM   31  C20 UNL     1      -0.102   0.700  -0.754  1.00  0.00     0.374 C 
BRANCH  31  32
HETATM   32  C21 UNL     1       0.492   0.410   0.641  1.00  0.00     0.248 C 
HETATM   33  O3  UNL     1      -0.189  -0.062   1.555  1.00  0.00    -0.271 OA
HETATM   34  N5  UNL     1       1.836   0.713   0.825  1.00  0.00    -0.348 N 
HETATM   35  C22 UNL     1       2.696   1.340  -0.187  1.00  0.00     0.145 C 
HETATM   36  C35 UNL     1       2.497   0.358   2.080  1.00  0.00     0.145 C 
HETATM   37  C23 UNL     1       4.109   1.695   0.313  1.00  0.00     0.143 C 
HETATM   38  N6  UNL     1       4.737   0.536   0.959  1.00  0.00    -0.378 N 
HETATM   39  C34 UNL     1       3.872  -0.291   1.837  1.00  0.00     0.143 C 
BRANCH  38  40
HETATM   40  C24 UNL     1       6.117   0.402   1.042  1.00  0.00     0.030 A 
HETATM   41  C25 UNL     1       6.999   1.431   0.678  1.00  0.00     0.030 A 
HETATM   42  C26 UNL     1       8.397   1.290   0.773  1.00  0.00     0.017 A 
HETATM   43  C27 UNL     1       8.991   0.103   1.231  1.00  0.00     0.008 A 
HETATM   44  C32 UNL     1       8.112  -0.935   1.581  1.00  0.00     0.017 A 
HETATM   45  C33 UNL     1       6.717  -0.789   1.483  1.00  0.00     0.030 A 
BRANCH  43  46
HETATM   46  C28 UNL     1      10.458  -0.039   1.356  1.00  0.00     0.115 A 
HETATM   47  N7  UNL     1      10.933  -1.132   2.000  1.00  0.00    -0.352 N 
HETATM   48  C29 UNL     1      12.267  -1.212   2.149  1.00  0.00     0.091 A 
ATOM     49  H7  UNL     1      10.310  -1.858   2.354  1.00  0.00     0.166 HD
HETATM   50  C30 UNL     1      13.138  -0.256   1.682  1.00  0.00     0.034 A 
HETATM   51  C31 UNL     1      12.563   0.807   1.027  1.00  0.00     0.091 A 
HETATM   52  N8  UNL     1      11.236   0.947   0.855  1.00  0.00    -0.352 N 
ATOM     53  H8  UNL     1      10.838   1.753   0.373  1.00  0.00     0.166 HD
ENDBRANCH  43  46
ENDBRANCH  38  40
ENDBRANCH  31  32
ENDBRANCH   4  31
TORSDOF 9
