REMARK  8 active torsions:
REMARK  status: ('A' for Active; 'I' for Inactive)
REMARK       I    between atoms: C2_2  and  N1_4 
REMARK    1  A    between atoms: N1_4  and  C3_5 
REMARK    2  A    between atoms: N1_4  and  C24_34 
REMARK    3  A    between atoms: C3_5  and  C4_6 
REMARK    4  A    between atoms: N2_9  and  C7_10 
REMARK    5  A    between atoms: C7_10  and  C8_11 
REMARK       I    between atoms: C8_11  and  N3_13 
REMARK    6  A    between atoms: N4_16  and  C11_17 
REMARK    7  A    between atoms: C14_20  and  C15_21 
REMARK    8  A    between atoms: C28_41  and  C29_42 
ROOT
HETATM    1  C4  UNL     1      -2.006   0.155   0.641  1.00  0.00     0.034 C 
HETATM    2  C5  UNL     1      -1.137   0.788   1.740  1.00  0.00     0.038 C 
HETATM    3  C6  UNL     1       0.075   1.336   1.009  1.00  0.00     0.273 C 
HETATM    4  N2  UNL     1       0.231   0.377  -0.083  1.00  0.00     0.097 N 
HETATM    5  C23 UNL     1      -1.132   0.223  -0.615  1.00  0.00     0.279 C 
ENDROOT
BRANCH   1   6
HETATM    6  C3  UNL     1      -3.351   0.886   0.530  1.00  0.00     0.138 C 
BRANCH   6   7
HETATM    7  N1  UNL     1      -4.286   0.337  -0.462  1.00  0.00    -0.318 N 
HETATM    8  C2  UNL     1      -4.289   0.906  -1.741  1.00  0.00     0.220 C 
HETATM    9  C1  UNL     1      -5.142   0.240  -2.795  1.00  0.00     0.117 C 
HETATM   10  O1  UNL     1      -3.598   1.882  -2.046  1.00  0.00    -0.273 OA
BRANCH   7  11
HETATM   11  C24 UNL     1      -5.398  -0.387   0.064  1.00  0.00     0.038 A 
HETATM   12  C25 UNL     1      -5.186  -1.534   0.839  1.00  0.00     0.032 A 
HETATM   13  C26 UNL     1      -6.253  -2.262   1.382  1.00  0.00     0.034 A 
HETATM   14  C27 UNL     1      -7.542  -1.776   1.142  1.00  0.00     0.060 A 
HETATM   15  N7  UNL     1      -8.773  -2.243   1.508  1.00  0.00    -0.299 N 
HETATM   16  C35 UNL     1      -7.794  -0.618   0.418  1.00  0.00     0.023 A 
HETATM   17  N8  UNL     1      -9.798  -1.480   1.097  1.00  0.00    -0.299 N 
HETATM   18  H32 UNL     1      -8.983  -3.078   2.043  1.00  0.00     0.187 HD
HETATM   19  C28 UNL     1      -9.215  -0.457   0.452  1.00  0.00     0.070 A 
ATOM     20  H8  UNL     1     -10.795  -1.641   1.242  1.00  0.00     0.187 HD
HETATM   21  C36 UNL     1      -6.706   0.084  -0.137  1.00  0.00     0.046 A 
BRANCH  19  22
HETATM   22  C29 UNL     1     -10.012   0.631  -0.116  1.00  0.00    -0.007 A 
HETATM   23  C30 UNL     1      -9.609   1.969   0.029  1.00  0.00     0.017 A 
HETATM   24  C31 UNL     1     -10.364   3.003  -0.529  1.00  0.00     0.043 A 
HETATM   25  C32 UNL     1     -11.527   2.701  -1.228  1.00  0.00     0.116 A 
HETATM   26  F1  UNL     1     -12.247   3.693  -1.768  1.00  0.00    -0.206 F 
HETATM   27  C33 UNL     1     -11.952   1.384  -1.371  1.00  0.00     0.043 A 
HETATM   28  C34 UNL     1     -11.197   0.349  -0.813  1.00  0.00     0.017 A 
ENDBRANCH  19  22
ENDBRANCH   7  11
ENDBRANCH   6   7
ENDBRANCH   1   6
BRANCH   4  29
HETATM   29  C7  UNL     1       1.166   0.865  -1.112  1.00  0.00     0.374 C 
BRANCH  29  30
HETATM   30  C8  UNL     1       1.857  -0.312  -1.822  1.00  0.00     0.248 C 
HETATM   31  O2  UNL     1       1.463  -0.689  -2.931  1.00  0.00    -0.271 OA
HETATM   32  N3  UNL     1       2.957  -0.885  -1.190  1.00  0.00    -0.348 N 
HETATM   33  C9  UNL     1       3.761  -1.893  -1.885  1.00  0.00     0.145 C 
HETATM   34  C22 UNL     1       3.515  -0.391   0.070  1.00  0.00     0.145 C 
HETATM   35  C10 UNL     1       5.262  -1.553  -1.804  1.00  0.00     0.143 C 
HETATM   36  N4  UNL     1       5.726  -1.447  -0.403  1.00  0.00    -0.378 N 
HETATM   37  C21 UNL     1       4.681  -1.234   0.620  1.00  0.00     0.143 C 
BRANCH  36  38
HETATM   38  C11 UNL     1       7.054  -1.157  -0.111  1.00  0.00     0.030 A 
HETATM   39  C12 UNL     1       7.561  -1.272   1.192  1.00  0.00     0.030 A 
HETATM   40  C13 UNL     1       8.881  -0.913   1.517  1.00  0.00     0.017 A 
HETATM   41  C14 UNL     1       9.776  -0.439   0.546  1.00  0.00     0.008 A 
HETATM   42  C19 UNL     1       9.297  -0.396  -0.772  1.00  0.00     0.017 A 
HETATM   43  C20 UNL     1       7.973  -0.750  -1.090  1.00  0.00     0.030 A 
BRANCH  41  44
HETATM   44  C15 UNL     1      11.141   0.002   0.895  1.00  0.00     0.115 A 
HETATM   45  N5  UNL     1      11.445   0.132   2.204  1.00  0.00    -0.352 N 
HETATM   46  C16 UNL     1      12.677   0.585   2.497  1.00  0.00     0.091 A 
ATOM     47  H5  UNL     1      10.773  -0.102   2.935  1.00  0.00     0.166 HD
HETATM   48  C17 UNL     1      13.614   0.907   1.546  1.00  0.00     0.034 A 
HETATM   49  C18 UNL     1      13.213   0.737   0.244  1.00  0.00     0.091 A 
HETATM   50  N6  UNL     1      11.993   0.291  -0.109  1.00  0.00    -0.352 N 
ATOM     51  H6  UNL     1      11.727   0.177  -1.087  1.00  0.00     0.166 HD
ENDBRANCH  41  44
ENDBRANCH  36  38
ENDBRANCH  29  30
ENDBRANCH   4  29
TORSDOF 8
