REMARK  5 active torsions:
REMARK  status: ('A' for Active; 'I' for Inactive)
REMARK    1  A    between atoms: C4_4  and  C5_5 
REMARK    2  A    between atoms: C8_11  and  N3_12 
REMARK       I    between atoms: N3_12  and  C9_13 
REMARK       I    between atoms: C9_13  and  N4_15 
REMARK    3  A    between atoms: N4_15  and  C10_16 
REMARK    4  A    between atoms: C10_16  and  C11_17 
REMARK    5  A    between atoms: C14_20  and  C15_21 
ROOT
HETATM    1  C5  UNL     1      -4.728  -1.050   0.927  1.00  0.00     0.072 A 
HETATM    2  N1  UNL     1      -4.486  -1.317   2.222  1.00  0.00    -0.299 N 
ATOM      3  H1  UNL     1      -5.074  -1.837   2.873  1.00  0.00     0.187 HD
HETATM    4  N2  UNL     1      -3.296  -0.745   2.465  1.00  0.00    -0.299 N 
HETATM    5  C6  UNL     1      -2.732  -0.146   1.376  1.00  0.00     0.065 A 
HETATM    6  C7  UNL     1      -1.522   0.528   1.208  1.00  0.00     0.080 A 
HETATM    7  C8  UNL     1      -1.282   1.003  -0.075  1.00  0.00     0.111 A 
HETATM    8  N7  UNL     1      -2.137   0.827  -1.110  1.00  0.00    -0.351 N 
ATOM      9  H7  UNL     1      -1.903   1.194  -2.033  1.00  0.00     0.166 HD
HETATM   10  C20 UNL     1      -3.307   0.162  -0.920  1.00  0.00     0.105 A 
HETATM   11  C21 UNL     1      -3.639  -0.333   0.342  1.00  0.00     0.036 A 
HETATM   12  H5  UNL     1      -2.917  -0.806   3.403  1.00  0.00     0.187 HD
ENDROOT
BRANCH   7  13
HETATM   13  N3  UNL     1      -0.129   1.699  -0.436  1.00  0.00    -0.295 N 
HETATM   14  C9  UNL     1       0.903   2.115   0.362  1.00  0.00     0.322 C 
HETATM   15  O1  UNL     1       0.980   1.974   1.576  1.00  0.00    -0.247 OA
HETATM   16  N4  UNL     1       1.876   2.753  -0.376  1.00  0.00    -0.339 N 
HETATM   17  H8  UNL     1       1.942   2.494  -1.348  1.00  0.00     0.164 HD
HETATM   18  H7  UNL     1      -0.141   1.990  -1.401  1.00  0.00     0.172 HD
BRANCH  16  19
HETATM   19  C10 UNL     1       3.105   3.205   0.239  1.00  0.00     0.162 C 
BRANCH  19  20
HETATM   20  C11 UNL     1       4.200   2.183   0.071  1.00  0.00    -0.040 A 
HETATM   21  C12 UNL     1       5.113   2.277  -0.984  1.00  0.00     0.010 A 
HETATM   22  C13 UNL     1       6.108   1.308  -1.147  1.00  0.00     0.016 A 
HETATM   23  C14 UNL     1       6.215   0.221  -0.268  1.00  0.00     0.008 A 
HETATM   24  C18 UNL     1       5.291   0.125   0.782  1.00  0.00     0.016 A 
HETATM   25  C19 UNL     1       4.294   1.094   0.948  1.00  0.00     0.010 A 
BRANCH  23  26
HETATM   26  C15 UNL     1       7.278  -0.769  -0.485  1.00  0.00     0.115 A 
HETATM   27  N5  UNL     1       8.114  -0.796  -1.510  1.00  0.00    -0.350 N 
HETATM   28  C16 UNL     1       8.936  -1.874  -1.316  1.00  0.00     0.106 A 
ATOM     29  H5  UNL     1       8.141  -0.142  -2.292  1.00  0.00     0.166 HD
HETATM   30  C17 UNL     1       8.611  -2.524  -0.153  1.00  0.00     0.106 A 
HETATM   31  N6  UNL     1       7.563  -1.816   0.365  1.00  0.00    -0.350 N 
HETATM   32  H15 UNL     1       7.082  -2.018   1.228  1.00  0.00     0.166 HD
ENDBRANCH  23  26
ENDBRANCH  19  20
ENDBRANCH  16  19
ENDBRANCH   7  13
BRANCH   1  33
HETATM   33  C4  UNL     1      -5.968  -1.497   0.295  1.00  0.00    -0.004 A 
HETATM   34  C3  UNL     1      -6.661  -0.677  -0.600  1.00  0.00     0.038 A 
HETATM   35  C2  UNL     1      -7.834  -1.151  -1.178  1.00  0.00     0.005 A 
HETATM   36  C1  UNL     1      -8.603  -0.291  -2.136  1.00  0.00     0.068 C 
HETATM   37  N8  UNL     1      -8.336  -2.378  -0.909  1.00  0.00    -0.369 N 
HETATM   38  C23 UNL     1      -7.661  -3.147  -0.027  1.00  0.00     0.089 A 
ATOM     39  H8  UNL     1      -9.191  -2.710  -1.355  1.00  0.00     0.165 HD
HETATM   40  C22 UNL     1      -6.490  -2.756   0.594  1.00  0.00     0.031 A 
ENDBRANCH   1  33
TORSDOF 5
