REMARK  8 active torsions:
REMARK  status: ('A' for Active; 'I' for Inactive)
REMARK    1  A    between atoms: O1_2  and  C2_3 
REMARK    2  A    between atoms: C2_3  and  C3_4 
REMARK    3  A    between atoms: C3_4  and  N1_5 
REMARK    4  A    between atoms: C3_4  and  C19_30 
REMARK       I    between atoms: N1_5  and  C4_6 
REMARK       I    between atoms: C4_6  and  N2_8 
REMARK    5  A    between atoms: N2_8  and  C5_9 
REMARK    6  A    between atoms: C8_15  and  O3_16 
REMARK    7  A    between atoms: O3_16  and  C9_17 
REMARK    8  A    between atoms: C12_20  and  O4_22 
ROOT
HETATM    1  C5  UNL     1      -1.485  -0.075  -0.547  1.00  0.00     0.111 A 
HETATM    2  C6  UNL     1      -0.971  -1.052   0.298  1.00  0.00     0.080 A 
HETATM    3  C7  UNL     1       0.413  -1.213   0.244  1.00  0.00     0.067 A 
HETATM    4  N3  UNL     1       1.268  -2.050   0.910  1.00  0.00    -0.298 N 
HETATM    5  N4  UNL     1       2.563  -1.897   0.571  1.00  0.00    -0.279 N 
ATOM      6  H4  UNL     1       3.376  -2.398   0.930  1.00  0.00     0.189 HD
HETATM    7  C8  UNL     1       2.524  -0.930  -0.349  1.00  0.00     0.171 A 
HETATM    8  C17 UNL     1       1.220  -0.459  -0.597  1.00  0.00     0.060 A 
HETATM    9  C18 UNL     1       0.624   0.494  -1.418  1.00  0.00     0.108 A 
HETATM   10  N5  UNL     1      -0.724   0.673  -1.383  1.00  0.00    -0.351 N 
ATOM     11  H5  UNL     1      -1.162   1.370  -1.986  1.00  0.00     0.166 HD
HETATM   12  H10 UNL     1       1.031  -2.746   1.608  1.00  0.00     0.187 HD
ENDROOT
BRANCH   1  13
HETATM   13  N2  UNL     1      -2.843   0.230  -0.635  1.00  0.00    -0.295 N 
HETATM   14  C4  UNL     1      -3.875  -0.244   0.131  1.00  0.00     0.322 C 
HETATM   15  N1  UNL     1      -5.079   0.283  -0.282  1.00  0.00    -0.332 N 
HETATM   16  O2  UNL     1      -3.776  -1.004   1.086  1.00  0.00    -0.247 OA
HETATM   17  H7  UNL     1      -5.118   0.660  -1.215  1.00  0.00     0.165 HD
HETATM   18  H8  UNL     1      -3.025   0.978  -1.283  1.00  0.00     0.172 HD
BRANCH  15  19
HETATM   19  C3  UNL     1      -6.345  -0.142   0.305  1.00  0.00     0.143 C 
BRANCH  19  20
HETATM   20  C2  UNL     1      -6.973  -1.330  -0.473  1.00  0.00     0.197 C 
BRANCH  20  21
HETATM   21  O1  UNL     1      -6.147  -2.498  -0.514  1.00  0.00    -0.394 OA
HETATM   22  C1  UNL     1      -6.201  -3.265   0.681  1.00  0.00     0.201 C 
ENDBRANCH  20  21
ENDBRANCH  19  20
BRANCH  19  23
HETATM   23  C19 UNL     1      -7.271   1.063   0.389  1.00  0.00    -0.033 A 
HETATM   24  C20 UNL     1      -7.399   1.744   1.611  1.00  0.00     0.009 A 
HETATM   25  C21 UNL     1      -8.216   2.871   1.720  1.00  0.00     0.001 A 
HETATM   26  C22 UNL     1      -8.911   3.339   0.608  1.00  0.00     0.000 A 
HETATM   27  C23 UNL     1      -8.784   2.685  -0.615  1.00  0.00     0.001 A 
HETATM   28  C24 UNL     1      -7.966   1.557  -0.727  1.00  0.00     0.009 A 
ENDBRANCH  19  23
ENDBRANCH  15  19
ENDBRANCH   1  13
BRANCH   7  29
HETATM   29  O3  UNL     1       3.645  -0.475  -0.953  1.00  0.00    -0.329 OA
BRANCH  29  30
HETATM   30  C9  UNL     1       4.871  -1.118  -0.578  1.00  0.00     0.131 C 
HETATM   31  C10 UNL     1       5.823  -0.957  -1.777  1.00  0.00     0.035 C 
HETATM   32  C11 UNL     1       7.283  -0.956  -1.335  1.00  0.00     0.040 C 
HETATM   33  C12 UNL     1       7.601   0.274  -0.447  1.00  0.00     0.057 C 
HETATM   34  C13 UNL     1       8.793  -0.083   0.455  1.00  0.00     0.046 C 
HETATM   35  C15 UNL     1       6.364   0.693   0.385  1.00  0.00     0.040 C 
HETATM   36  C16 UNL     1       5.447  -0.486   0.704  1.00  0.00     0.035 C 
BRANCH  33  37
HETATM   37  O4  UNL     1       7.950   1.328  -1.364  1.00  0.00    -0.385 OA
HETATM   38  C14 UNL     1       8.405   2.548  -0.794  1.00  0.00     0.202 C 
ENDBRANCH  33  37
ENDBRANCH  29  30
ENDBRANCH   7  29
TORSDOF 8
