REMARK  8 active torsions:
REMARK  status: ('A' for Active; 'I' for Inactive)
REMARK       I    between atoms: C1_2  and  N1_3 
REMARK    1  A    between atoms: C1_2  and  C11_14 
REMARK    2  A    between atoms: N1_3  and  C2_4 
REMARK    3  A    between atoms: C5_7  and  O2_8 
REMARK    4  A    between atoms: C6_9  and  C7_10 
REMARK    5  A    between atoms: N2_17  and  C14_18 
REMARK    6  A    between atoms: C14_18  and  C15_19 
REMARK       I    between atoms: C15_19  and  N3_21 
REMARK    7  A    between atoms: N4_24  and  C18_25 
REMARK    8  A    between atoms: C21_28  and  C22_29 
ROOT
HETATM    1  C15 UNL     1       0.826   2.694   0.303  1.00  0.00     0.248 C 
HETATM    2  O3  UNL     1       0.675   3.908   0.133  1.00  0.00    -0.271 OA
HETATM    3  N3  UNL     1       2.028   2.049   0.021  1.00  0.00    -0.348 N 
HETATM    4  C16 UNL     1       2.139   0.594  -0.163  1.00  0.00     0.140 C 
HETATM    5  C17 UNL     1       3.559   0.062   0.114  1.00  0.00     0.115 C 
HETATM    6  N4  UNL     1       4.586   0.849  -0.615  1.00  0.00    -0.280 NA
HETATM    7  C28 UNL     1       4.485   2.299  -0.337  1.00  0.00     0.115 C 
HETATM    8  C29 UNL     1       3.074   2.821  -0.656  1.00  0.00     0.140 C 
ENDROOT
BRANCH   1   9
HETATM    9  C14 UNL     1      -0.328   1.861   0.884  1.00  0.00     0.374 C 
BRANCH   9  10
HETATM   10  N2  UNL     1      -0.976   1.041  -0.164  1.00  0.00     0.098 N 
HETATM   11  C13 UNL     1      -1.777   1.855  -1.093  1.00  0.00     0.274 C 
HETATM   12  C12 UNL     1      -3.135   2.052  -0.425  1.00  0.00     0.046 C 
HETATM   13  C11 UNL     1      -3.232   0.941   0.624  1.00  0.00     0.108 C 
HETATM   14  C30 UNL     1      -1.967   0.113   0.410  1.00  0.00     0.287 C 
BRANCH  13  15
HETATM   15  C1  UNL     1      -4.508   0.118   0.506  1.00  0.00     0.228 C 
HETATM   16  O1  UNL     1      -4.486  -1.067   0.199  1.00  0.00    -0.273 OA
HETATM   17  N1  UNL     1      -5.635   0.867   0.809  1.00  0.00    -0.327 N 
HETATM   18  H1  UNL     1      -5.482   1.832   1.075  1.00  0.00     0.169 HD
BRANCH  17  19
HETATM   19  C2  UNL     1      -6.977   0.429   0.841  1.00  0.00     0.035 A 
HETATM   20  C3  UNL     1      -7.939   1.356   1.257  1.00  0.00     0.032 A 
HETATM   21  C4  UNL     1      -9.284   0.993   1.345  1.00  0.00     0.039 A 
HETATM   22  C5  UNL     1      -9.671  -0.302   1.005  1.00  0.00     0.072 A 
HETATM   23  C6  UNL     1      -8.745  -1.257   0.554  1.00  0.00    -0.019 A 
HETATM   24  C10 UNL     1      -7.391  -0.861   0.494  1.00  0.00     0.039 A 
BRANCH  22  25
HETATM   25  O2  UNL     1     -10.986  -0.665   1.115  1.00  0.00    -0.360 OA
HETATM   26  H4  UNL     1     -11.493   0.078   1.479  1.00  0.00     0.217 HD
ENDBRANCH  22  25
BRANCH  23  27
HETATM   27  C7  UNL     1      -9.147  -2.672   0.193  1.00  0.00     0.021 A 
HETATM   28  C8  UNL     1      -8.704  -3.279  -1.121  1.00  0.00     0.010 A 
HETATM   29  C9  UNL     1     -10.146  -2.927  -0.912  1.00  0.00     0.010 A 
ENDBRANCH  23  27
ENDBRANCH  17  19
ENDBRANCH  13  15
ENDBRANCH   9  10
ENDBRANCH   1   9
BRANCH   6  30
HETATM   30  C18 UNL     1       5.864   0.262  -0.554  1.00  0.00     0.010 A 
HETATM   31  C19 UNL     1       6.070  -1.005  -1.120  1.00  0.00     0.024 A 
HETATM   32  C20 UNL     1       7.318  -1.643  -1.074  1.00  0.00     0.017 A 
HETATM   33  C21 UNL     1       8.430  -1.039  -0.465  1.00  0.00     0.008 A 
HETATM   34  C26 UNL     1       8.227   0.239   0.080  1.00  0.00     0.017 A 
HETATM   35  C27 UNL     1       6.976   0.877   0.030  1.00  0.00     0.024 A 
BRANCH  33  36
HETATM   36  C22 UNL     1       9.743  -1.713  -0.399  1.00  0.00     0.115 A 
HETATM   37  N5  UNL     1       9.849  -2.947  -0.933  1.00  0.00    -0.352 N 
HETATM   38  C23 UNL     1      11.054  -3.541  -0.849  1.00  0.00     0.091 A 
ATOM     39  H5  UNL     1       9.055  -3.407  -1.378  1.00  0.00     0.166 HD
HETATM   40  C24 UNL     1      12.147  -2.960  -0.258  1.00  0.00     0.034 A 
HETATM   41  C25 UNL     1      11.942  -1.703   0.256  1.00  0.00     0.091 A 
HETATM   42  N6  UNL     1      10.760  -1.061   0.202  1.00  0.00    -0.352 N 
ATOM     43  H6  UNL     1      10.639  -0.128   0.596  1.00  0.00     0.166 HD
ENDBRANCH  33  36
ENDBRANCH   6  30
TORSDOF 8
