REMARK  7 active torsions:
REMARK  status: ('A' for Active; 'I' for Inactive)
REMARK       I    between atoms: C1_2  and  N1_3 
REMARK    1  A    between atoms: C1_2  and  C8_12 
REMARK    2  A    between atoms: N1_3  and  C2_4 
REMARK    3  A    between atoms: C5_7  and  O2_8 
REMARK    4  A    between atoms: N2_15  and  C11_16 
REMARK    5  A    between atoms: C11_16  and  C12_17 
REMARK       I    between atoms: C12_17  and  N3_19 
REMARK    6  A    between atoms: N4_22  and  C15_23 
REMARK    7  A    between atoms: C18_26  and  C19_27 
ROOT
HETATM    1  C12 UNL     1      -0.912  -1.143   1.650  1.00  0.00     0.248 C 
HETATM    2  O3  UNL     1      -1.329  -2.179   2.179  1.00  0.00    -0.271 OA
HETATM    3  N3  UNL     1       0.445  -0.870   1.549  1.00  0.00    -0.348 N 
HETATM    4  C13 UNL     1       1.010   0.304   0.872  1.00  0.00     0.145 C 
HETATM    5  C14 UNL     1       2.442   0.643   1.328  1.00  0.00     0.143 C 
HETATM    6  N4  UNL     1       3.350  -0.516   1.224  1.00  0.00    -0.378 N 
HETATM    7  C25 UNL     1       2.729  -1.853   1.232  1.00  0.00     0.143 C 
HETATM    8  C26 UNL     1       1.410  -1.862   2.026  1.00  0.00     0.145 C 
ENDROOT
BRANCH   1   9
HETATM    9  C11 UNL     1      -1.914  -0.113   1.101  1.00  0.00     0.374 C 
BRANCH   9  10
HETATM   10  N2  UNL     1      -1.801   0.031  -0.371  1.00  0.00     0.098 N 
HETATM   11  C10 UNL     1      -2.236  -1.182  -1.079  1.00  0.00     0.274 C 
HETATM   12  C9  UNL     1      -3.743  -1.061  -1.204  1.00  0.00     0.046 C 
HETATM   13  C8  UNL     1      -3.974   0.436  -1.381  1.00  0.00     0.108 C 
HETATM   14  C27 UNL     1      -2.701   1.100  -0.849  1.00  0.00     0.287 C 
BRANCH  13  15
HETATM   15  C1  UNL     1      -5.247   0.901  -0.681  1.00  0.00     0.228 C 
HETATM   16  O1  UNL     1      -5.223   1.654   0.284  1.00  0.00    -0.273 OA
HETATM   17  N1  UNL     1      -6.384   0.382  -1.286  1.00  0.00    -0.327 N 
HETATM   18  H1  UNL     1      -6.236  -0.186  -2.112  1.00  0.00     0.169 HD
BRANCH  17  19
HETATM   19  C2  UNL     1      -7.730   0.597  -0.922  1.00  0.00     0.036 A 
HETATM   20  C3  UNL     1      -8.128   1.328   0.202  1.00  0.00     0.032 A 
HETATM   21  C4  UNL     1      -9.486   1.505   0.493  1.00  0.00     0.040 A 
HETATM   22  C5  UNL     1     -10.449   0.945  -0.335  1.00  0.00     0.087 A 
HETATM   23  C6  UNL     1     -10.065   0.207  -1.455  1.00  0.00     0.069 A 
HETATM   24 CL1  UNL     1     -11.253  -0.506  -2.482  1.00  0.00    -0.081 Cl
HETATM   25  C7  UNL     1      -8.712   0.029  -1.746  1.00  0.00     0.056 A 
BRANCH  22  26
HETATM   26  O2  UNL     1     -11.761   1.151  -0.012  1.00  0.00    -0.359 OA
HETATM   27  H4  UNL     1     -12.302   0.691  -0.681  1.00  0.00     0.217 HD
ENDBRANCH  22  26
ENDBRANCH  17  19
ENDBRANCH  13  15
ENDBRANCH   9  10
ENDBRANCH   1   9
BRANCH   6  28
HETATM   28  C15 UNL     1       4.680  -0.338   0.872  1.00  0.00     0.030 A 
HETATM   29  C16 UNL     1       5.355   0.865   1.123  1.00  0.00     0.030 A 
HETATM   30  C17 UNL     1       6.698   1.060   0.760  1.00  0.00     0.017 A 
HETATM   31  C18 UNL     1       7.445   0.052   0.133  1.00  0.00     0.008 A 
HETATM   32  C23 UNL     1       6.780  -1.160  -0.102  1.00  0.00     0.017 A 
HETATM   33  C24 UNL     1       5.435  -1.347   0.261  1.00  0.00     0.030 A 
BRANCH  31  34
HETATM   34  C19 UNL     1       8.854   0.255  -0.257  1.00  0.00     0.115 A 
HETATM   35  N5  UNL     1       9.378   1.495  -0.117  1.00  0.00    -0.349 N 
HETATM   36  C20 UNL     1      10.668   1.653  -0.490  1.00  0.00     0.133 A 
ATOM     37  H5  UNL     1       8.828   2.271   0.251  1.00  0.00     0.167 HD
HETATM   38  C21 UNL     1      11.438   0.634  -0.989  1.00  0.00     0.147 A 
HETATM   39  F1  UNL     1      12.712   0.820  -1.349  1.00  0.00    -0.203 F 
HETATM   40  C22 UNL     1      10.825  -0.588  -1.094  1.00  0.00     0.133 A 
HETATM   41  N6  UNL     1       9.540  -0.807  -0.738  1.00  0.00    -0.349 N 
ATOM     42  H6  UNL     1       9.109  -1.727  -0.827  1.00  0.00     0.167 HD
ENDBRANCH  31  34
ENDBRANCH   6  28
TORSDOF 7
