REMARK  7 active torsions:
REMARK  status: ('A' for Active; 'I' for Inactive)
REMARK    1  A    between atoms: C2_2  and  C3_3 
REMARK    2  A    between atoms: C2_2  and  N2_10 
REMARK    3  A    between atoms: C3_3  and  C4_4 
REMARK    4  A    between atoms: N2_10  and  C9_11 
REMARK    5  A    between atoms: C12_17  and  N5_18 
REMARK       I    between atoms: N5_18  and  C13_19 
REMARK       I    between atoms: C13_19  and  N6_21 
REMARK    6  A    between atoms: N6_21  and  C14_22 
REMARK    7  A    between atoms: C14_22  and  C16_24 
ROOT
HETATM    1  C9  UNL     1      -2.482   0.690  -1.675  1.00  0.00     0.130 A 
HETATM    2  N3  UNL     1      -2.445   0.013  -2.821  1.00  0.00    -0.284 N 
ATOM      3  H3  UNL     1      -3.199  -0.115  -3.496  1.00  0.00     0.188 HD
HETATM    4  N4  UNL     1      -1.194  -0.463  -2.888  1.00  0.00    -0.298 N 
HETATM    5  C10 UNL     1      -0.415  -0.147  -1.813  1.00  0.00     0.067 A 
HETATM    6  C11 UNL     1       0.909  -0.446  -1.494  1.00  0.00     0.080 A 
HETATM    7  C12 UNL     1       1.360   0.086  -0.294  1.00  0.00     0.111 A 
HETATM    8  N7  UNL     1       0.594   0.836   0.532  1.00  0.00    -0.351 N 
ATOM      9  H7  UNL     1       0.982   1.195   1.404  1.00  0.00     0.166 HD
HETATM   10  C22 UNL     1      -0.695   1.109   0.196  1.00  0.00     0.107 A 
HETATM   11  C23 UNL     1      -1.230   0.620  -0.995  1.00  0.00     0.052 A 
HETATM   12  H18 UNL     1      -0.932  -1.005  -3.703  1.00  0.00     0.187 HD
ENDROOT
BRANCH   7  13
HETATM   13  N5  UNL     1       2.667  -0.065   0.167  1.00  0.00    -0.295 N 
HETATM   14  C13 UNL     1       3.673  -0.832  -0.358  1.00  0.00     0.322 C 
HETATM   15  O1  UNL     1       3.574  -1.623  -1.284  1.00  0.00    -0.247 OA
HETATM   16  N6  UNL     1       4.862  -0.604   0.294  1.00  0.00    -0.335 N 
HETATM   17  H21 UNL     1       4.946   0.275   0.785  1.00  0.00     0.165 HD
HETATM   18  H20 UNL     1       2.817   0.382   1.056  1.00  0.00     0.172 HD
BRANCH  16  19
HETATM   19  C14 UNL     1       6.102  -1.221  -0.157  1.00  0.00     0.115 C 
HETATM   20  C15 UNL     1       6.319  -2.564   0.541  1.00  0.00     0.037 C 
BRANCH  19  21
HETATM   21  C16 UNL     1       7.237  -0.230   0.033  1.00  0.00    -0.036 A 
HETATM   22  C17 UNL     1       7.909  -0.074   1.254  1.00  0.00     0.009 A 
HETATM   23  C18 UNL     1       8.904   0.894   1.401  1.00  0.00     0.001 A 
HETATM   24  C19 UNL     1       9.231   1.729   0.334  1.00  0.00     0.000 A 
HETATM   25  C20 UNL     1       8.567   1.594  -0.884  1.00  0.00     0.001 A 
HETATM   26  C21 UNL     1       7.574   0.626  -1.031  1.00  0.00     0.009 A 
ENDBRANCH  19  21
ENDBRANCH  16  19
ENDBRANCH   7  13
BRANCH   1  27
HETATM   27  N2  UNL     1      -3.544   1.357  -1.158  1.00  0.00    -0.370 N 
HETATM   28  H17 UNL     1      -3.544   1.427  -0.137  1.00  0.00     0.161 HD
BRANCH  27  29
HETATM   29  C2  UNL     1      -4.923   1.174  -1.618  1.00  0.00     0.081 C 
HETATM   30  C1  UNL     1      -5.099   1.481  -3.106  1.00  0.00     0.032 C 
BRANCH  29  31
HETATM   31  C3  UNL     1      -5.479  -0.213  -1.237  1.00  0.00     0.060 C 
BRANCH  31  32
HETATM   32  C4  UNL     1      -5.624  -0.507   0.277  1.00  0.00     0.222 C 
HETATM   33  C5  UNL     1      -6.710   0.357   0.948  1.00  0.00     0.036 C 
HETATM   34  C6  UNL     1      -6.643   0.327   2.479  1.00  0.00     0.004 C 
HETATM   35  C7  UNL     1      -5.840  -0.869   2.975  1.00  0.00     0.030 C 
HETATM   36  C8  UNL     1      -4.431  -0.878   2.375  1.00  0.00     0.270 C 
HETATM   37  N1  UNL     1      -4.360  -0.364   1.007  1.00  0.00     0.088 N 
HETATM   38  H16 UNL     1      -3.618  -0.854   0.503  1.00  0.00     0.316 HD
ENDBRANCH  31  32
ENDBRANCH  29  31
ENDBRANCH  27  29
ENDBRANCH   1  27
TORSDOF 7
