REMARK  7 active torsions:
REMARK  status: ('A' for Active; 'I' for Inactive)
REMARK    1  A    between atoms: C2_2  and  C3_3 
REMARK       I    between atoms: C3_3  and  N1_5 
REMARK    2  A    between atoms: N1_5  and  C4_6 
REMARK    3  A    between atoms: C8_13  and  C9_14 
REMARK    4  A    between atoms: N4_25  and  C19_26 
REMARK    5  A    between atoms: C19_26  and  C20_27 
REMARK       I    between atoms: C20_27  and  N5_29 
REMARK    6  A    between atoms: N6_32  and  C23_33 
REMARK    7  A    between atoms: C26_36  and  C27_37 
ROOT
HETATM    1  C1  UNL     1      -2.887   0.947  -3.221  1.00  0.00     0.027 C 
HETATM    2  C2  UNL     1      -2.667   0.041  -1.999  1.00  0.00     0.065 C 
HETATM    3  C17 UNL     1      -2.481  -1.420  -2.460  1.00  0.00     0.051 C 
HETATM    4  C18 UNL     1      -1.242  -1.906  -1.719  1.00  0.00     0.274 C 
HETATM    5  N4  UNL     1      -0.391  -0.716  -1.553  1.00  0.00     0.098 N 
HETATM    6  C35 UNL     1      -1.352   0.360  -1.263  1.00  0.00     0.291 C 
ENDROOT
BRANCH   2   7
HETATM    7  C3  UNL     1      -3.868   0.207  -1.041  1.00  0.00     0.232 C 
HETATM    8  O1  UNL     1      -4.652  -0.712  -0.831  1.00  0.00    -0.272 OA
HETATM    9  N1  UNL     1      -3.965   1.480  -0.494  1.00  0.00    -0.326 N 
HETATM   10  H4  UNL     1      -3.219   2.130  -0.701  1.00  0.00     0.169 HD
BRANCH   9  11
HETATM   11  C4  UNL     1      -4.966   1.973   0.373  1.00  0.00     0.035 A 
HETATM   12  C5  UNL     1      -4.769   3.256   0.900  1.00  0.00     0.032 A 
HETATM   13  C6  UNL     1      -5.694   3.849   1.768  1.00  0.00     0.034 A 
HETATM   14  C7  UNL     1      -6.830   3.105   2.087  1.00  0.00     0.060 A 
HETATM   15  N2  UNL     1      -7.905   3.389   2.880  1.00  0.00    -0.299 N 
HETATM   16  C15 UNL     1      -7.071   1.830   1.589  1.00  0.00     0.023 A 
HETATM   17  N3  UNL     1      -8.829   2.422   2.928  1.00  0.00    -0.299 N 
HETATM   18  H7  UNL     1      -8.071   4.234   3.413  1.00  0.00     0.187 HD
HETATM   19  C8  UNL     1      -8.332   1.443   2.150  1.00  0.00     0.070 A 
ATOM     20  H3  UNL     1      -9.712   2.426   3.439  1.00  0.00     0.187 HD
HETATM   21  C16 UNL     1      -6.124   1.260   0.709  1.00  0.00     0.045 A 
BRANCH  19  22
HETATM   22  C9  UNL     1      -9.076   0.195   1.961  1.00  0.00    -0.007 A 
HETATM   23  C10 UNL     1      -8.419  -1.043   1.886  1.00  0.00     0.017 A 
HETATM   24  C11 UNL     1      -9.147  -2.221   1.700  1.00  0.00     0.043 A 
HETATM   25  C12 UNL     1     -10.532  -2.164   1.595  1.00  0.00     0.116 A 
HETATM   26  F1  UNL     1     -11.228  -3.294   1.416  1.00  0.00    -0.206 F 
HETATM   27  C13 UNL     1     -11.205  -0.952   1.679  1.00  0.00     0.043 A 
HETATM   28  C14 UNL     1     -10.478   0.226   1.866  1.00  0.00     0.017 A 
ENDBRANCH  19  22
ENDBRANCH   9  11
ENDBRANCH   2   7
BRANCH   5  29
HETATM   29  C19 UNL     1       0.416  -0.432  -2.758  1.00  0.00     0.374 C 
BRANCH  29  30
HETATM   30  C20 UNL     1       1.552  -1.454  -2.925  1.00  0.00     0.248 C 
HETATM   31  O2  UNL     1       1.472  -2.316  -3.807  1.00  0.00    -0.271 OA
HETATM   32  N5  UNL     1       2.668  -1.343  -2.103  1.00  0.00    -0.348 N 
HETATM   33  C21 UNL     1       3.682  -2.401  -2.175  1.00  0.00     0.140 C 
HETATM   34  C34 UNL     1       2.689  -0.576  -0.851  1.00  0.00     0.140 C 
HETATM   35  C22 UNL     1       5.090  -1.890  -1.825  1.00  0.00     0.115 C 
HETATM   36  N6  UNL     1       5.087  -1.185  -0.523  1.00  0.00    -0.280 NA
HETATM   37  C33 UNL     1       4.100  -0.078  -0.483  1.00  0.00     0.115 C 
BRANCH  36  38
HETATM   38  C23 UNL     1       6.333  -0.822   0.020  1.00  0.00     0.010 A 
HETATM   39  C24 UNL     1       6.418  -0.465   1.374  1.00  0.00     0.024 A 
HETATM   40  C25 UNL     1       7.631  -0.079   1.964  1.00  0.00     0.017 A 
HETATM   41  C26 UNL     1       8.825  -0.040   1.228  1.00  0.00     0.008 A 
HETATM   42  C31 UNL     1       8.743  -0.422  -0.121  1.00  0.00     0.017 A 
HETATM   43  C32 UNL     1       7.527  -0.809  -0.709  1.00  0.00     0.024 A 
BRANCH  41  44
HETATM   44  C27 UNL     1      10.102   0.378   1.840  1.00  0.00     0.115 A 
HETATM   45  N7  UNL     1      11.218   0.313   1.083  1.00  0.00    -0.352 N 
HETATM   46  C28 UNL     1      12.366   0.705   1.665  1.00  0.00     0.091 A 
ATOM     47  H7  UNL     1      11.192  -0.017   0.118  1.00  0.00     0.166 HD
HETATM   48  C29 UNL     1      12.446   1.159   2.959  1.00  0.00     0.034 A 
HETATM   49  C30 UNL     1      11.258   1.190   3.647  1.00  0.00     0.091 A 
HETATM   50  N8  UNL     1      10.080   0.810   3.118  1.00  0.00    -0.352 N 
ATOM     51  H8  UNL     1       9.214   0.847   3.656  1.00  0.00     0.166 HD
ENDBRANCH  41  44
ENDBRANCH  36  38
ENDBRANCH  29  30
ENDBRANCH   5  29
TORSDOF 7
