REMARK  3 active torsions:
REMARK  status: ('A' for Active; 'I' for Inactive)
REMARK    1  A    between atoms: C4_4  and  C5_5 
REMARK    2  A    between atoms: C8_11  and  N3_12 
REMARK       I    between atoms: N3_12  and  C9_13 
REMARK       I    between atoms: C9_13  and  N4_15 
REMARK    3  A    between atoms: N4_15  and  C10_16 
ROOT
HETATM    1  C5  UNL     1      -4.761   1.300  -0.415  1.00  0.00     0.072 A 
HETATM    2  N1  UNL     1      -4.534   2.416  -1.129  1.00  0.00    -0.299 N 
ATOM      3  H1  UNL     1      -5.216   3.106  -1.444  1.00  0.00     0.187 HD
HETATM    4  N2  UNL     1      -3.207   2.418  -1.334  1.00  0.00    -0.299 N 
HETATM    5  C6  UNL     1      -2.561   1.334  -0.814  1.00  0.00     0.065 A 
HETATM    6  C7  UNL     1      -1.218   0.960  -0.828  1.00  0.00     0.080 A 
HETATM    7  C8  UNL     1      -0.934  -0.247  -0.202  1.00  0.00     0.111 A 
HETATM    8  N6  UNL     1      -1.871  -1.018   0.400  1.00  0.00    -0.351 N 
ATOM      9  H6  UNL     1      -1.599  -1.889   0.857  1.00  0.00     0.166 HD
HETATM   10  C19 UNL     1      -3.174  -0.630   0.395  1.00  0.00     0.105 A 
HETATM   11  C20 UNL     1      -3.550   0.571  -0.209  1.00  0.00     0.036 A 
HETATM   12  H5  UNL     1      -2.801   3.192  -1.849  1.00  0.00     0.187 HD
ENDROOT
BRANCH   7  13
HETATM   13  N3  UNL     1       0.350  -0.788  -0.120  1.00  0.00    -0.295 N 
HETATM   14  C9  UNL     1       1.490  -0.354  -0.742  1.00  0.00     0.322 C 
HETATM   15  O1  UNL     1       1.580   0.583  -1.524  1.00  0.00    -0.247 OA
HETATM   16  N4  UNL     1       2.577  -1.130  -0.388  1.00  0.00    -0.338 N 
HETATM   17  H8  UNL     1       2.519  -1.556   0.527  1.00  0.00     0.164 HD
HETATM   18  H7  UNL     1       0.361  -1.690   0.327  1.00  0.00     0.172 HD
BRANCH  16  19
HETATM   19  C10 UNL     1       3.920  -0.803  -0.880  1.00  0.00     0.092 C 
HETATM   20  C11 UNL     1       4.811  -2.058  -0.834  1.00  0.00     0.030 C 
HETATM   21  C12 UNL     1       5.731  -2.100   0.381  1.00  0.00     0.042 C 
HETATM   22  C13 UNL     1       6.569  -0.857   0.401  1.00  0.00    -0.035 A 
HETATM   23  C14 UNL     1       7.926  -0.876   0.721  1.00  0.00     0.010 A 
HETATM   24  C17 UNL     1       5.973   0.371   0.105  1.00  0.00     0.017 A 
HETATM   25  C15 UNL     1       8.640   0.316   0.723  1.00  0.00     0.018 A 
HETATM   26  C16 UNL     1       7.968   1.486   0.411  1.00  0.00     0.088 A 
HETATM   27  N5  UNL     1       6.653   1.540   0.111  1.00  0.00    -0.369 N 
ATOM     28  H5  UNL     1       6.192   2.425  -0.102  1.00  0.00     0.165 HD
HETATM   29  C18 UNL     1       4.489   0.429  -0.139  1.00  0.00     0.082 C 
ENDBRANCH  16  19
ENDBRANCH   7  13
BRANCH   1  30
HETATM   30  C4  UNL     1      -6.114   0.964   0.027  1.00  0.00    -0.004 A 
HETATM   31  C3  UNL     1      -6.351   0.455   1.306  1.00  0.00     0.038 A 
HETATM   32  C2  UNL     1      -7.657   0.151   1.677  1.00  0.00     0.005 A 
HETATM   33  C1  UNL     1      -7.943  -0.392   3.045  1.00  0.00     0.068 C 
HETATM   34  N7  UNL     1      -8.712   0.326   0.847  1.00  0.00    -0.369 N 
HETATM   35  C22 UNL     1      -8.461   0.837  -0.377  1.00  0.00     0.089 A 
ATOM     36  H7  UNL     1      -9.659   0.081   1.135  1.00  0.00     0.165 HD
HETATM   37  C21 UNL     1      -7.197   1.170  -0.827  1.00  0.00     0.031 A 
ENDBRANCH   1  30
TORSDOF 3
