REMARK  7 active torsions:
REMARK  status: ('A' for Active; 'I' for Inactive)
REMARK    1  A    between atoms: O1_2  and  C2_3 
REMARK    2  A    between atoms: C2_3  and  C3_4 
REMARK    3  A    between atoms: C3_4  and  N1_5 
REMARK    4  A    between atoms: C3_4  and  C15_26 
REMARK       I    between atoms: N1_5  and  C4_6 
REMARK       I    between atoms: C4_6  and  N2_8 
REMARK    5  A    between atoms: N2_8  and  C5_9 
REMARK    6  A    between atoms: C8_15  and  O3_16 
REMARK    7  A    between atoms: O3_16  and  C9_17 
ROOT
HETATM    1  C5  UNL     1       0.496  -0.620  -1.122  1.00  0.00     0.111 A 
HETATM    2  C6  UNL     1       0.987  -1.259   0.024  1.00  0.00     0.080 A 
HETATM    3  C7  UNL     1       2.380  -1.264   0.153  1.00  0.00     0.067 A 
HETATM    4  N3  UNL     1       3.224  -1.779   1.111  1.00  0.00    -0.298 N 
HETATM    5  N4  UNL     1       4.536  -1.524   0.900  1.00  0.00    -0.279 N 
ATOM      6  H4  UNL     1       5.340  -1.798   1.464  1.00  0.00     0.189 HD
HETATM    7  C8  UNL     1       4.509  -0.824  -0.233  1.00  0.00     0.171 A 
HETATM    8  C13 UNL     1       3.212  -0.664  -0.779  1.00  0.00     0.060 A 
HETATM    9  C14 UNL     1       2.641  -0.064  -1.911  1.00  0.00     0.108 A 
HETATM   10  N5  UNL     1       1.287  -0.052  -2.071  1.00  0.00    -0.351 N 
ATOM     11  H5  UNL     1       0.871   0.380  -2.896  1.00  0.00     0.166 HD
HETATM   12  H10 UNL     1       2.971  -2.310   1.926  1.00  0.00     0.187 HD
ENDROOT
BRANCH   1  13
HETATM   13  N2  UNL     1      -0.863  -0.467  -1.401  1.00  0.00    -0.295 N 
HETATM   14  C4  UNL     1      -1.949  -0.854  -0.661  1.00  0.00     0.322 C 
HETATM   15  N1  UNL     1      -3.113  -0.399  -1.226  1.00  0.00    -0.332 N 
HETATM   16  O2  UNL     1      -1.926  -1.505   0.372  1.00  0.00    -0.247 OA
HETATM   17  H7  UNL     1      -3.027   0.400  -1.822  1.00  0.00     0.165 HD
HETATM   18  H8  UNL     1      -1.023  -0.014  -2.283  1.00  0.00     0.172 HD
BRANCH  15  19
HETATM   19  C3  UNL     1      -4.407  -0.561  -0.573  1.00  0.00     0.143 C 
BRANCH  19  20
HETATM   20  C2  UNL     1      -5.561  -0.406  -1.593  1.00  0.00     0.197 C 
BRANCH  20  21
HETATM   21  O1  UNL     1      -5.519  -1.347  -2.673  1.00  0.00    -0.394 OA
HETATM   22  C1  UNL     1      -5.885  -2.672  -2.296  1.00  0.00     0.201 C 
ENDBRANCH  20  21
ENDBRANCH  19  20
BRANCH  19  23
HETATM   23  C15 UNL     1      -4.570   0.437   0.567  1.00  0.00    -0.033 A 
HETATM   24  C16 UNL     1      -4.531   1.835   0.352  1.00  0.00     0.009 A 
HETATM   25  C17 UNL     1      -4.678   2.730   1.420  1.00  0.00     0.001 A 
HETATM   26  C18 UNL     1      -4.870   2.254   2.713  1.00  0.00     0.000 A 
HETATM   27  C19 UNL     1      -4.922   0.876   2.939  1.00  0.00     0.001 A 
HETATM   28  C20 UNL     1      -4.778  -0.035   1.876  1.00  0.00     0.009 A 
ENDBRANCH  19  23
ENDBRANCH  15  19
ENDBRANCH   1  13
BRANCH   7  29
HETATM   29  O3  UNL     1       5.650  -0.353  -0.777  1.00  0.00    -0.326 OA
BRANCH  29  30
HETATM   30  C9  UNL     1       6.632   0.130   0.152  1.00  0.00     0.156 C 
HETATM   31  C10 UNL     1       6.142   0.934   1.348  1.00  0.00     0.061 C 
HETATM   32  C11 UNL     1       7.368   1.790   1.656  1.00  0.00     0.170 C 
HETATM   33  O4  UNL     1       8.053   2.047   0.407  1.00  0.00    -0.389 OA
HETATM   34  C12 UNL     1       7.486   1.190  -0.578  1.00  0.00     0.200 C 
ENDBRANCH  29  30
ENDBRANCH   7  29
TORSDOF 7
