REMARK  6 active torsions:
REMARK  status: ('A' for Active; 'I' for Inactive)
REMARK    1  A    between atoms: O1_2  and  C2_3 
REMARK    2  A    between atoms: C7_9  and  C8_10 
REMARK    3  A    between atoms: C8_10  and  N1_11 
REMARK    4  A    between atoms: C12_15  and  N2_16 
REMARK       I    between atoms: N2_16  and  C13_17 
REMARK       I    between atoms: C13_17  and  N3_19 
REMARK    5  A    between atoms: N3_19  and  C14_20 
REMARK    6  A    between atoms: C17_26  and  C18_27 
ROOT
HETATM    1  N2  UNL     1      -0.671   2.160   0.728  1.00  0.00    -0.337 N 
HETATM    2  C13 UNL     1       0.475   1.623   0.163  1.00  0.00     0.322 C 
HETATM    3  O2  UNL     1       0.622   1.519  -1.046  1.00  0.00    -0.247 OA
HETATM    4  N3  UNL     1       1.375   1.291   1.151  1.00  0.00    -0.295 N 
HETATM    5  H16 UNL     1      -0.924   1.773   1.623  1.00  0.00     0.164 HD
HETATM    6  H17 UNL     1       1.218   1.724   2.044  1.00  0.00     0.172 HD
ENDROOT
BRANCH   4   7
HETATM    7  C14 UNL     1       2.612   0.664   0.944  1.00  0.00     0.111 A 
HETATM    8  C15 UNL     1       3.497   0.646   2.021  1.00  0.00     0.080 A 
HETATM    9  C16 UNL     1       4.726   0.027   1.782  1.00  0.00     0.065 A 
HETATM   10  N4  UNL     1       5.832  -0.155   2.564  1.00  0.00    -0.299 N 
HETATM   11  C23 UNL     1       5.046  -0.554   0.562  1.00  0.00     0.036 A 
HETATM   12  N5  UNL     1       6.841  -0.795   1.953  1.00  0.00    -0.299 N 
HETATM   13  H19 UNL     1       5.968   0.135   3.525  1.00  0.00     0.187 HD
HETATM   14  C17 UNL     1       6.371  -1.063   0.724  1.00  0.00     0.072 A 
ATOM     15  H5  UNL     1       7.758  -1.026   2.336  1.00  0.00     0.187 HD
HETATM   16  C24 UNL     1       4.097  -0.498  -0.459  1.00  0.00     0.105 A 
HETATM   17  N7  UNL     1       2.895   0.097  -0.242  1.00  0.00    -0.351 N 
ATOM     18  H7  UNL     1       2.199   0.114  -0.988  1.00  0.00     0.166 HD
BRANCH  14  19
HETATM   19  C18 UNL     1       7.198  -1.779  -0.244  1.00  0.00    -0.001 A 
HETATM   20  C19 UNL     1       6.662  -2.782  -1.056  1.00  0.00     0.031 A 
HETATM   21  C20 UNL     1       7.505  -3.427  -1.945  1.00  0.00     0.091 A 
HETATM   22  N6  UNL     1       8.817  -3.146  -2.077  1.00  0.00    -0.343 N 
HETATM   23  C21 UNL     1       9.311  -2.179  -1.274  1.00  0.00     0.189 A 
ATOM     24  H6  UNL     1       9.406  -3.638  -2.749  1.00  0.00     0.167 HD
HETATM   25  F2  UNL     1      10.611  -1.886  -1.389  1.00  0.00    -0.186 F 
HETATM   26  C22 UNL     1       8.556  -1.479  -0.354  1.00  0.00     0.075 A 
ENDBRANCH  14  19
ENDBRANCH   4   7
BRANCH   1  27
HETATM   27  C12 UNL     1      -1.791   2.567  -0.124  1.00  0.00     0.114 C 
HETATM   28  C11 UNL     1      -2.663   3.573   0.633  1.00  0.00     0.029 C 
HETATM   29  C10 UNL     1      -3.904   3.931  -0.177  1.00  0.00     0.032 C 
HETATM   30  C9  UNL     1      -4.684   2.678  -0.580  1.00  0.00     0.273 C 
HETATM   31  N1  UNL     1      -3.832   1.761  -1.334  1.00  0.00     0.094 N 
HETATM   32  C25 UNL     1      -2.634   1.354  -0.591  1.00  0.00     0.297 C 
BRANCH  31  33
HETATM   33  C8  UNL     1      -4.561   0.625  -1.924  1.00  0.00     0.317 C 
BRANCH  33  34
HETATM   34  C7  UNL     1      -5.184  -0.378  -0.973  1.00  0.00     0.042 A 
HETATM   35  C2  UNL     1      -4.510  -1.545  -0.560  1.00  0.00     0.079 A 
HETATM   36  C3  UNL     1      -5.137  -2.436   0.322  1.00  0.00     0.037 A 
HETATM   37  C4  UNL     1      -6.430  -2.187   0.789  1.00  0.00     0.006 A 
HETATM   38  C5  UNL     1      -7.106  -1.047   0.374  1.00  0.00     0.043 A 
HETATM   39  C6  UNL     1      -6.485  -0.160  -0.499  1.00  0.00     0.127 A 
HETATM   40  F1  UNL     1      -7.170   0.927  -0.886  1.00  0.00    -0.205 F 
BRANCH  35  41
HETATM   41  O1  UNL     1      -3.252  -1.726  -1.072  1.00  0.00    -0.355 OA
HETATM   42  C1  UNL     1      -2.547  -2.905  -0.709  1.00  0.00     0.210 C 
ENDBRANCH  35  41
ENDBRANCH  33  34
ENDBRANCH  31  33
ENDBRANCH   1  27
TORSDOF 6
