REMARK  4 active torsions:
REMARK  status: ('A' for Active; 'I' for Inactive)
REMARK    1  A    between atoms: C5_6  and  C6_7 
REMARK    2  A    between atoms: C9_13  and  N4_14 
REMARK       I    between atoms: N4_14  and  C10_15 
REMARK       I    between atoms: C10_15  and  N5_17 
REMARK    3  A    between atoms: N5_17  and  C11_18 
REMARK    4  A    between atoms: C11_18  and  C12_19 
ROOT
HETATM    1  C6  UNL     1      -2.589  -0.380  -1.634  1.00  0.00     0.072 A 
HETATM    2  N2  UNL     1      -2.226  -0.523  -2.920  1.00  0.00    -0.299 N 
ATOM      3  H2  UNL     1      -2.815  -0.785  -3.710  1.00  0.00     0.187 HD
HETATM    4  N3  UNL     1      -0.914  -0.243  -2.931  1.00  0.00    -0.299 N 
HETATM    5  C7  UNL     1      -0.394   0.050  -1.702  1.00  0.00     0.065 A 
HETATM    6  C8  UNL     1       0.898   0.375  -1.292  1.00  0.00     0.080 A 
HETATM    7  C9  UNL     1       1.046   0.605   0.070  1.00  0.00     0.111 A 
HETATM    8  N6  UNL     1       0.030   0.515   0.960  1.00  0.00    -0.351 N 
ATOM      9  H6  UNL     1       0.202   0.689   1.950  1.00  0.00     0.166 HD
HETATM   10  C18 UNL     1      -1.220   0.192   0.533  1.00  0.00     0.105 A 
HETATM   11  C19 UNL     1      -1.464  -0.037  -0.822  1.00  0.00     0.036 A 
HETATM   12  H6  UNL     1      -0.423  -0.276  -3.818  1.00  0.00     0.187 HD
ENDROOT
BRANCH   7  13
HETATM   13  N4  UNL     1       2.261   0.938   0.669  1.00  0.00    -0.295 N 
HETATM   14  C10 UNL     1       3.464   1.195   0.070  1.00  0.00     0.322 C 
HETATM   15  O1  UNL     1       3.685   1.218  -1.134  1.00  0.00    -0.247 OA
HETATM   16  N5  UNL     1       4.442   1.453   1.007  1.00  0.00    -0.339 N 
HETATM   17  H9  UNL     1       4.296   1.064   1.926  1.00  0.00     0.164 HD
HETATM   18  H8  UNL     1       2.168   1.096   1.659  1.00  0.00     0.172 HD
BRANCH  16  19
HETATM   19  C11 UNL     1       5.814   1.678   0.612  1.00  0.00     0.162 C 
BRANCH  19  20
HETATM   20  C12 UNL     1       6.610   0.397   0.663  1.00  0.00    -0.039 A 
HETATM   21  C13 UNL     1       6.599  -0.487  -0.428  1.00  0.00     0.012 A 
HETATM   22  C14 UNL     1       7.312  -1.686  -0.377  1.00  0.00     0.044 A 
HETATM   23  C15 UNL     1       8.034  -2.010   0.767  1.00  0.00     0.138 A 
HETATM   24  F1  UNL     1       8.710  -3.168   0.796  1.00  0.00    -0.204 F 
HETATM   25  C16 UNL     1       8.049  -1.149   1.861  1.00  0.00     0.073 A 
HETATM   26 CL1  UNL     1       8.934  -1.548   3.283  1.00  0.00    -0.081 Cl
HETATM   27  C17 UNL     1       7.336   0.052   1.814  1.00  0.00     0.035 A 
ENDBRANCH  19  20
ENDBRANCH  16  19
ENDBRANCH   7  13
BRANCH   1  28
HETATM   28  C5  UNL     1      -3.980  -0.585  -1.219  1.00  0.00    -0.006 A 
HETATM   29  C4  UNL     1      -4.571   0.329  -0.311  1.00  0.00     0.029 A 
HETATM   30  C3  UNL     1      -5.885  -0.019  -0.020  1.00  0.00     0.010 A 
HETATM   31  C2  UNL     1      -6.721   0.664   0.819  1.00  0.00     0.123 A 
HETATM   32  C22 UNL     1      -6.627  -1.141  -0.536  1.00  0.00     0.059 A 
HETATM   33  N1  UNL     1      -7.890  -0.042   0.787  1.00  0.00    -0.306 N 
HETATM   34  C1  UNL     1      -9.102   0.269   1.505  1.00  0.00     0.177 C 
HETATM   35  N7  UNL     1      -7.863  -1.130  -0.012  1.00  0.00    -0.299 N 
ATOM     36  H7  UNL     1      -8.616  -1.797  -0.180  1.00  0.00     0.187 HD
HETATM   37  C21 UNL     1      -6.036  -2.034  -1.443  1.00  0.00     0.033 A 
HETATM   38  C20 UNL     1      -4.696  -1.711  -1.763  1.00  0.00     0.016 A 
ENDBRANCH   1  28
TORSDOF 4
