REMARK  6 active torsions:
REMARK  status: ('A' for Active; 'I' for Inactive)
REMARK       I    between atoms: C1_2  and  N1_3 
REMARK    1  A    between atoms: C1_2  and  C13_19 
REMARK    2  A    between atoms: N1_3  and  C2_4 
REMARK    3  A    between atoms: C2_4  and  C3_5 
REMARK    4  A    between atoms: C2_4  and  C9_13 
REMARK    5  A    between atoms: C18_26  and  N4_27 
REMARK    6  A    between atoms: N4_27  and  C19_28 
ROOT
HETATM    1  C13 UNL     1      -0.638   0.948   1.695  1.00  0.00     0.034 A 
HETATM    2  C14 UNL     1      -0.188   1.872   2.644  1.00  0.00     0.018 A 
HETATM    3  C15 UNL     1       1.166   2.193   2.711  1.00  0.00     0.016 A 
HETATM    4  C16 UNL     1       2.071   1.577   1.826  1.00  0.00     0.006 A 
HETATM    5  C17 UNL     1       3.434   1.823   1.815  1.00  0.00     0.104 A 
HETATM    6  N3  UNL     1       4.295   1.224   0.972  1.00  0.00    -0.342 N 
ATOM      7  H3  UNL     1       5.295   1.422   1.000  1.00  0.00     0.167 HD
HETATM    8  C18 UNL     1       3.777   0.356   0.096  1.00  0.00     0.157 A 
HETATM    9  N5  UNL     1       2.476   0.040   0.033  1.00  0.00    -0.332 N 
ATOM     10  H5  UNL     1       2.135  -0.643  -0.643  1.00  0.00     0.168 HD
HETATM   11  C24 UNL     1       1.638   0.645   0.881  1.00  0.00     0.047 A 
HETATM   12  C25 UNL     1       0.285   0.337   0.832  1.00  0.00     0.047 A 
ENDROOT
BRANCH   1  13
HETATM   13  C1  UNL     1      -2.090   0.618   1.660  1.00  0.00     0.252 C 
HETATM   14  O1  UNL     1      -2.789   0.814   2.649  1.00  0.00    -0.268 OA
HETATM   15  N1  UNL     1      -2.580   0.101   0.482  1.00  0.00    -0.345 N 
HETATM   16  H1  UNL     1      -2.017   0.130  -0.359  1.00  0.00     0.163 HD
BRANCH  15  17
HETATM   17  C2  UNL     1      -4.005  -0.174   0.288  1.00  0.00     0.159 C 
BRANCH  17  18
HETATM   18  C3  UNL     1      -4.607   1.012  -0.458  1.00  0.00    -0.030 A 
HETATM   19  C4  UNL     1      -5.362   1.962   0.253  1.00  0.00     0.012 A 
HETATM   20  C5  UNL     1      -5.903   3.075  -0.393  1.00  0.00     0.044 A 
HETATM   21  C6  UNL     1      -5.684   3.256  -1.755  1.00  0.00     0.138 A 
HETATM   22  F1  UNL     1      -6.210   4.335  -2.354  1.00  0.00    -0.204 F 
HETATM   23  C7  UNL     1      -4.929   2.337  -2.475  1.00  0.00     0.073 A 
HETATM   24 CL1  UNL     1      -4.644   2.562  -4.158  1.00  0.00    -0.081 Cl
HETATM   25  C8  UNL     1      -4.387   1.221  -1.831  1.00  0.00     0.036 A 
ENDBRANCH  17  18
BRANCH  17  26
HETATM   26  C9  UNL     1      -4.206  -1.559  -0.389  1.00  0.00     0.155 C 
HETATM   27  F2  UNL     1      -3.440  -1.623  -1.516  1.00  0.00    -0.238 F 
HETATM   28  C10 UNL     1      -5.648  -1.900  -0.745  1.00  0.00     0.078 C 
HETATM   29  C11 UNL     1      -6.174  -2.541   0.523  1.00  0.00     0.273 C 
HETATM   30  N2  UNL     1      -5.066  -3.383   0.971  1.00  0.00     0.086 N 
HETATM   31  C12 UNL     1      -3.820  -2.708   0.563  1.00  0.00     0.315 C 
HETATM   32  H10 UNL     1      -5.096  -3.525   1.982  1.00  0.00     0.316 HD
ENDBRANCH  17  26
ENDBRANCH  15  17
ENDBRANCH   1  13
BRANCH   8  33
HETATM   33  N4  UNL     1       4.584  -0.295  -0.823  1.00  0.00    -0.259 NA
HETATM   34  H16 UNL     1       4.033  -1.078  -1.160  1.00  0.00     0.131 HD
BRANCH  33  35
HETATM   35  C19 UNL     1       5.945  -0.605  -0.398  1.00  0.00     0.067 C 
HETATM   36  C20 UNL     1       6.896   0.540  -0.761  1.00  0.00     0.046 C 
HETATM   37  C21 UNL     1       8.335   0.138  -0.470  1.00  0.00     0.169 C 
HETATM   38  O2  UNL     1       8.680  -1.056  -1.172  1.00  0.00    -0.391 OA
HETATM   39  C22 UNL     1       7.869  -2.164  -0.787  1.00  0.00     0.169 C 
HETATM   40  C23 UNL     1       6.405  -1.891  -1.095  1.00  0.00     0.046 C 
ENDBRANCH  33  35
ENDBRANCH   8  33
TORSDOF 6
