REMARK  4 active torsions:
REMARK  status: ('A' for Active; 'I' for Inactive)
REMARK    1  A    between atoms: C4_4  and  C5_5 
REMARK    2  A    between atoms: C8_11  and  N3_12 
REMARK       I    between atoms: N3_12  and  C9_13 
REMARK       I    between atoms: C9_13  and  N4_15 
REMARK    3  A    between atoms: N4_15  and  C10_16 
REMARK    4  A    between atoms: C10_16  and  C11_17 
ROOT
HETATM    1  C5  UNL     1       4.882  -1.060   0.078  1.00  0.00     0.072 A 
HETATM    2  N1  UNL     1       4.955  -2.402   0.134  1.00  0.00    -0.299 N 
ATOM      3  H1  UNL     1       5.792  -2.981   0.201  1.00  0.00     0.187 HD
HETATM    4  N2  UNL     1       3.675  -2.805   0.082  1.00  0.00    -0.299 N 
HETATM    5  C6  UNL     1       2.772  -1.788  -0.052  1.00  0.00     0.065 A 
HETATM    6  C7  UNL     1       1.382  -1.784  -0.165  1.00  0.00     0.080 A 
HETATM    7  C8  UNL     1       0.805  -0.530  -0.325  1.00  0.00     0.111 A 
HETATM    8  N6  UNL     1       1.514   0.621  -0.374  1.00  0.00    -0.351 N 
ATOM      9  H6  UNL     1       1.034   1.511  -0.510  1.00  0.00     0.166 HD
HETATM   10  C20 UNL     1       2.866   0.591  -0.242  1.00  0.00     0.105 A 
HETATM   11  C21 UNL     1       3.530  -0.626  -0.073  1.00  0.00     0.036 A 
HETATM   12  H5  UNL     1       3.483  -3.799   0.131  1.00  0.00     0.187 HD
ENDROOT
BRANCH   7  13
HETATM   13  N3  UNL     1      -0.564  -0.343  -0.505  1.00  0.00    -0.295 N 
HETATM   14  C9  UNL     1      -1.573  -1.241  -0.292  1.00  0.00     0.322 C 
HETATM   15  O1  UNL     1      -1.465  -2.347   0.220  1.00  0.00    -0.247 OA
HETATM   16  N4  UNL     1      -2.780  -0.734  -0.714  1.00  0.00    -0.337 N 
HETATM   17  H8  UNL     1      -2.720  -0.168  -1.548  1.00  0.00     0.164 HD
HETATM   18  H7  UNL     1      -0.816   0.623  -0.638  1.00  0.00     0.172 HD
BRANCH  16  19
HETATM   19  C10 UNL     1      -3.960  -1.574  -0.660  1.00  0.00     0.182 C 
BRANCH  19  20
HETATM   20  C11 UNL     1      -5.200  -0.795  -1.031  1.00  0.00     0.038 A 
HETATM   21  N5  UNL     1      -5.543  -0.867  -2.349  1.00  0.00    -0.367 N 
HETATM   22  C12 UNL     1      -6.628  -0.177  -2.749  1.00  0.00     0.089 A 
ATOM     23  H5  UNL     1      -4.998  -1.423  -3.008  1.00  0.00     0.165 HD
HETATM   24  C13 UNL     1      -7.393   0.609  -1.908  1.00  0.00     0.029 A 
HETATM   25  C14 UNL     1      -7.031   0.708  -0.562  1.00  0.00    -0.023 A 
HETATM   26  C15 UNL     1      -7.777   1.513   0.318  1.00  0.00     0.012 A 
HETATM   27  C19 UNL     1      -5.903  -0.002  -0.090  1.00  0.00    -0.002 A 
HETATM   28  C16 UNL     1      -7.415   1.629   1.660  1.00  0.00     0.001 A 
HETATM   29  C17 UNL     1      -6.303   0.944   2.137  1.00  0.00     0.001 A 
HETATM   30  C18 UNL     1      -5.555   0.139   1.276  1.00  0.00     0.014 A 
ENDBRANCH  19  20
ENDBRANCH  16  19
ENDBRANCH   7  13
BRANCH   1  31
HETATM   31  C4  UNL     1       6.090  -0.243   0.141  1.00  0.00    -0.004 A 
HETATM   32  C3  UNL     1       6.146   0.895   0.952  1.00  0.00     0.038 A 
HETATM   33  C2  UNL     1       7.315   1.649   0.968  1.00  0.00     0.005 A 
HETATM   34  C1  UNL     1       7.399   2.885   1.814  1.00  0.00     0.068 C 
HETATM   35  N7  UNL     1       8.404   1.323   0.234  1.00  0.00    -0.369 N 
HETATM   36  C23 UNL     1       8.332   0.211  -0.528  1.00  0.00     0.089 A 
ATOM     37  H7  UNL     1       9.248   1.896   0.256  1.00  0.00     0.165 HD
HETATM   38  C22 UNL     1       7.213  -0.596  -0.608  1.00  0.00     0.031 A 
ENDBRANCH   1  31
TORSDOF 4
