REMARK  7 active torsions:
REMARK  status: ('A' for Active; 'I' for Inactive)
REMARK       I    between atoms: C1_2  and  N1_3 
REMARK    1  A    between atoms: C1_2  and  C8_12 
REMARK    2  A    between atoms: N1_3  and  C2_4 
REMARK    3  A    between atoms: C5_7  and  O2_8 
REMARK    4  A    between atoms: N2_15  and  C11_16 
REMARK    5  A    between atoms: C11_16  and  C12_17 
REMARK       I    between atoms: C12_17  and  N3_19 
REMARK    6  A    between atoms: N4_22  and  C15_23 
REMARK    7  A    between atoms: C18_26  and  C19_27 
ROOT
HETATM    1  C11 UNL     1      -0.941   0.878   1.314  1.00  0.00     0.374 C 
ENDROOT
BRANCH   1   2
HETATM    2  N2  UNL     1      -2.192   1.591   1.650  1.00  0.00     0.098 N 
HETATM    3  C10 UNL     1      -3.013   0.838   2.603  1.00  0.00     0.274 C 
HETATM    4  C9  UNL     1      -3.869  -0.111   1.774  1.00  0.00     0.046 C 
HETATM    5  C8  UNL     1      -3.865   0.471   0.359  1.00  0.00     0.108 C 
HETATM    6  C27 UNL     1      -3.085   1.777   0.489  1.00  0.00     0.287 C 
BRANCH   5   7
HETATM    7  C1  UNL     1      -5.262   0.662  -0.222  1.00  0.00     0.228 C 
HETATM    8  O1  UNL     1      -5.675   1.759  -0.579  1.00  0.00    -0.273 OA
HETATM    9  N1  UNL     1      -5.950  -0.539  -0.327  1.00  0.00    -0.327 N 
HETATM   10  H1  UNL     1      -5.456  -1.373  -0.033  1.00  0.00     0.169 HD
BRANCH   9  11
HETATM   11  C2  UNL     1      -7.255  -0.741  -0.825  1.00  0.00     0.036 A 
HETATM   12  C3  UNL     1      -8.090   0.286  -1.274  1.00  0.00     0.032 A 
HETATM   13  C4  UNL     1      -9.372   0.006  -1.759  1.00  0.00     0.040 A 
HETATM   14  C5  UNL     1      -9.829  -1.309  -1.795  1.00  0.00     0.087 A 
HETATM   15  C6  UNL     1      -9.007  -2.343  -1.346  1.00  0.00     0.069 A 
HETATM   16 CL1  UNL     1      -9.532  -3.987  -1.371  1.00  0.00    -0.081 Cl
HETATM   17  C7  UNL     1      -7.726  -2.060  -0.862  1.00  0.00     0.056 A 
BRANCH  14  18
HETATM   18  O2  UNL     1     -11.080  -1.582  -2.269  1.00  0.00    -0.359 OA
HETATM   19  H4  UNL     1     -11.508  -0.754  -2.541  1.00  0.00     0.217 HD
ENDBRANCH  14  18
ENDBRANCH   9  11
ENDBRANCH   5   7
ENDBRANCH   1   2
BRANCH   1  20
HETATM   20  C12 UNL     1       0.015   1.715   0.435  1.00  0.00     0.248 C 
HETATM   21  O3  UNL     1      -0.191   2.899   0.159  1.00  0.00    -0.271 OA
HETATM   22  N3  UNL     1       1.137   1.044  -0.066  1.00  0.00    -0.348 N 
HETATM   23  C13 UNL     1       1.755  -0.105   0.613  1.00  0.00     0.145 C 
HETATM   24  C26 UNL     1       2.112   1.835  -0.830  1.00  0.00     0.145 C 
HETATM   25  C14 UNL     1       2.879   0.371   1.564  1.00  0.00     0.143 C 
HETATM   26  N4  UNL     1       3.871   1.200   0.830  1.00  0.00    -0.378 N 
HETATM   27  C25 UNL     1       3.248   2.330   0.090  1.00  0.00     0.143 C 
BRANCH  26  28
HETATM   28  C15 UNL     1       4.987   0.540   0.316  1.00  0.00     0.030 A 
HETATM   29  C16 UNL     1       5.763  -0.282   1.149  1.00  0.00     0.030 A 
HETATM   30  C17 UNL     1       6.903  -0.955   0.685  1.00  0.00     0.014 A 
HETATM   31  C18 UNL     1       7.314  -0.823  -0.641  1.00  0.00    -0.024 A 
HETATM   32  C23 UNL     1       6.568   0.007  -1.481  1.00  0.00     0.014 A 
HETATM   33  C24 UNL     1       5.431   0.680  -1.005  1.00  0.00     0.030 A 
BRANCH  31  34
HETATM   34  C19 UNL     1       8.501  -1.516  -1.113  1.00  0.00    -0.002 A 
HETATM   35  C20 UNL     1       9.681  -1.898  -0.413  1.00  0.00     0.038 A 
HETATM   36  C21 UNL     1      10.490  -2.536  -1.323  1.00  0.00     0.142 A 
HETATM   37  O4  UNL     1       9.887  -2.586  -2.537  1.00  0.00    -0.334 OA
HETATM   38  C22 UNL     1       8.684  -1.969  -2.404  1.00  0.00     0.153 A 
ENDBRANCH  31  34
ENDBRANCH  26  28
ENDBRANCH   1  20
TORSDOF 7
