REMARK  8 active torsions:
REMARK  status: ('A' for Active; 'I' for Inactive)
REMARK    1  A    between atoms: C1_2  and  C2_3 
REMARK       I    between atoms: C1_2  and  N5_28 
REMARK    2  A    between atoms: C2_3  and  N1_4 
REMARK    3  A    between atoms: C5_7  and  C6_8 
REMARK    4  A    between atoms: C6_8  and  N2_9 
REMARK    5  A    between atoms: N2_9  and  C7_10 
REMARK    6  A    between atoms: C11_17  and  C12_18 
REMARK    7  A    between atoms: N6_31  and  C23_32 
REMARK    8  A    between atoms: C26_35  and  C27_36 
ROOT
HETATM    1  N1  UNL     1      -0.707  -1.300  -0.332  1.00  0.00     0.097 N 
HETATM    2  C3  UNL     1      -1.611  -1.999   0.591  1.00  0.00     0.273 C 
HETATM    3  C4  UNL     1      -3.026  -1.539   0.243  1.00  0.00     0.038 C 
HETATM    4  C5  UNL     1      -2.849  -0.436  -0.798  1.00  0.00     0.029 C 
HETATM    5  C20 UNL     1      -1.531  -0.838  -1.458  1.00  0.00     0.279 C 
ENDROOT
BRANCH   1   6
HETATM    6  C2  UNL     1       0.398  -2.177  -0.765  1.00  0.00     0.374 C 
BRANCH   6   7
HETATM    7  C1  UNL     1       1.373  -1.438  -1.699  1.00  0.00     0.248 C 
HETATM    8  O1  UNL     1       1.152  -1.401  -2.914  1.00  0.00    -0.271 OA
HETATM    9  N5  UNL     1       2.484  -0.828  -1.139  1.00  0.00    -0.348 N 
HETATM   10  C21 UNL     1       2.792  -0.815   0.295  1.00  0.00     0.145 C 
HETATM   11  C34 UNL     1       3.456  -0.162  -2.005  1.00  0.00     0.145 C 
HETATM   12  C22 UNL     1       4.054  -0.001   0.660  1.00  0.00     0.143 C 
HETATM   13  N6  UNL     1       5.189  -0.379  -0.199  1.00  0.00    -0.378 N 
HETATM   14  C33 UNL     1       4.903  -0.541  -1.642  1.00  0.00     0.143 C 
BRANCH  13  15
HETATM   15  C23 UNL     1       6.506  -0.172   0.196  1.00  0.00     0.030 A 
HETATM   16  C24 UNL     1       6.853   0.591   1.317  1.00  0.00     0.030 A 
HETATM   17  C25 UNL     1       8.192   0.797   1.697  1.00  0.00     0.017 A 
HETATM   18  C26 UNL     1       9.258   0.240   0.972  1.00  0.00     0.008 A 
HETATM   19  C31 UNL     1       8.913  -0.542  -0.138  1.00  0.00     0.017 A 
HETATM   20  C32 UNL     1       7.574  -0.741  -0.512  1.00  0.00     0.030 A 
BRANCH  18  21
HETATM   21  C27 UNL     1      10.667   0.476   1.347  1.00  0.00     0.115 A 
HETATM   22  N7  UNL     1      10.911   1.220   2.448  1.00  0.00    -0.352 N 
HETATM   23  C28 UNL     1      12.204   1.452   2.741  1.00  0.00     0.091 A 
ATOM     24  H7  UNL     1      10.155   1.587   3.027  1.00  0.00     0.166 HD
HETATM   25  C29 UNL     1      13.252   0.977   1.991  1.00  0.00     0.034 A 
HETATM   26  C30 UNL     1      12.902   0.223   0.897  1.00  0.00     0.091 A 
HETATM   27  N8  UNL     1      11.629  -0.043   0.553  1.00  0.00    -0.352 N 
ATOM     28  H8  UNL     1      11.402  -0.608  -0.265  1.00  0.00     0.166 HD
ENDBRANCH  18  21
ENDBRANCH  13  15
ENDBRANCH   6   7
ENDBRANCH   1   6
BRANCH   4  29
HETATM   29  C6  UNL     1      -2.767   0.974  -0.182  1.00  0.00     0.099 C 
BRANCH  29  30
HETATM   30  N2  UNL     1      -4.049   1.398   0.395  1.00  0.00    -0.293 NA
HETATM   31  H10 UNL     1      -4.294   0.850   1.216  1.00  0.00     0.127 HD
BRANCH  30  32
HETATM   32  C7  UNL     1      -5.150   1.613  -0.443  1.00  0.00     0.009 A 
HETATM   33  C8  UNL     1      -5.042   2.249  -1.686  1.00  0.00     0.026 A 
HETATM   34  C9  UNL     1      -6.153   2.473  -2.514  1.00  0.00     0.034 A 
HETATM   35  C10 UNL     1      -7.396   2.046  -2.041  1.00  0.00     0.060 A 
HETATM   36  N3  UNL     1      -8.646   2.094  -2.590  1.00  0.00    -0.299 N 
HETATM   37  C18 UNL     1      -7.567   1.447  -0.802  1.00  0.00     0.023 A 
HETATM   38  N4  UNL     1      -9.608   1.548  -1.830  1.00  0.00    -0.299 N 
HETATM   39  H13 UNL     1      -8.907   2.478  -3.490  1.00  0.00     0.187 HD
HETATM   40  C11 UNL     1      -8.967   1.167  -0.712  1.00  0.00     0.070 A 
ATOM     41  H4  UNL     1     -10.599   1.446  -2.050  1.00  0.00     0.187 HD
HETATM   42  C19 UNL     1      -6.430   1.242   0.010  1.00  0.00     0.039 A 
BRANCH  40  43
HETATM   43  C12 UNL     1      -9.685   0.527   0.387  1.00  0.00    -0.007 A 
HETATM   44  C13 UNL     1      -9.489   0.950   1.710  1.00  0.00     0.017 A 
HETATM   45  C14 UNL     1     -10.164   0.319   2.757  1.00  0.00     0.043 A 
HETATM   46  C15 UNL     1     -11.032  -0.730   2.479  1.00  0.00     0.116 A 
HETATM   47  F1  UNL     1     -11.669  -1.344   3.486  1.00  0.00    -0.206 F 
HETATM   48  C16 UNL     1     -11.246  -1.157   1.173  1.00  0.00     0.043 A 
HETATM   49  C17 UNL     1     -10.577  -0.523   0.124  1.00  0.00     0.017 A 
ENDBRANCH  40  43
ENDBRANCH  30  32
ENDBRANCH  29  30
ENDBRANCH   4  29
TORSDOF 8
