REMARK  6 active torsions:
REMARK  status: ('A' for Active; 'I' for Inactive)
REMARK    1  A    between atoms: O1_2  and  C2_3 
REMARK    2  A    between atoms: C7_9  and  C8_10 
REMARK    3  A    between atoms: C8_10  and  N1_11 
REMARK    4  A    between atoms: C12_15  and  N2_16 
REMARK       I    between atoms: N2_16  and  C13_17 
REMARK       I    between atoms: C13_17  and  N3_19 
REMARK    5  A    between atoms: N3_19  and  C14_20 
REMARK    6  A    between atoms: C17_26  and  C18_27 
ROOT
HETATM    1  N2  UNL     1       0.431   0.380   0.623  1.00  0.00    -0.337 N 
HETATM    2  C13 UNL     1      -0.752  -0.215   0.238  1.00  0.00     0.322 C 
HETATM    3  O2  UNL     1      -0.795  -1.331  -0.262  1.00  0.00    -0.247 OA
HETATM    4  N3  UNL     1      -1.818   0.609   0.474  1.00  0.00    -0.295 N 
HETATM    5  H16 UNL     1       0.356   1.080   1.346  1.00  0.00     0.164 HD
HETATM    6  H17 UNL     1      -1.647   1.546   0.801  1.00  0.00     0.172 HD
ENDROOT
BRANCH   4   7
HETATM    7  C14 UNL     1      -3.170   0.371   0.229  1.00  0.00     0.111 A 
HETATM    8  C15 UNL     1      -3.660  -0.820  -0.294  1.00  0.00     0.080 A 
HETATM    9  C16 UNL     1      -5.043  -0.868  -0.467  1.00  0.00     0.065 A 
HETATM   10  N4  UNL     1      -5.865  -1.836  -0.967  1.00  0.00    -0.299 N 
HETATM   11  C24 UNL     1      -5.880   0.184  -0.126  1.00  0.00     0.036 A 
HETATM   12  N5  UNL     1      -7.164  -1.497  -0.985  1.00  0.00    -0.299 N 
HETATM   13  H19 UNL     1      -5.600  -2.744  -1.329  1.00  0.00     0.187 HD
HETATM   14  C17 UNL     1      -7.197  -0.269  -0.442  1.00  0.00     0.072 A 
ATOM     15  H5  UNL     1      -7.949  -2.048  -1.333  1.00  0.00     0.187 HD
HETATM   16  C25 UNL     1      -5.301   1.347   0.386  1.00  0.00     0.105 A 
HETATM   17  N6  UNL     1      -3.955   1.424   0.558  1.00  0.00    -0.351 N 
ATOM     18  H6  UNL     1      -3.536   2.275   0.935  1.00  0.00     0.166 HD
BRANCH  14  19
HETATM   19  C18 UNL     1      -8.464   0.437  -0.263  1.00  0.00    -0.007 A 
HETATM   20  C19 UNL     1      -9.429   0.416  -1.282  1.00  0.00     0.017 A 
HETATM   21  C20 UNL     1     -10.642   1.092  -1.125  1.00  0.00     0.043 A 
HETATM   22  C21 UNL     1     -10.892   1.780   0.056  1.00  0.00     0.116 A 
HETATM   23  F2  UNL     1     -12.056   2.425   0.211  1.00  0.00    -0.206 F 
HETATM   24  C22 UNL     1      -9.954   1.806   1.081  1.00  0.00     0.043 A 
HETATM   25  C23 UNL     1      -8.740   1.132   0.925  1.00  0.00     0.017 A 
ENDBRANCH  14  19
ENDBRANCH   4   7
BRANCH   1  26
HETATM   26  C12 UNL     1       1.693  -0.351   0.557  1.00  0.00     0.114 C 
HETATM   27  C11 UNL     1       1.849  -1.275   1.776  1.00  0.00     0.029 C 
HETATM   28  C10 UNL     1       3.310  -1.596   2.086  1.00  0.00     0.032 C 
HETATM   29  C9  UNL     1       4.205  -1.430   0.858  1.00  0.00     0.273 C 
HETATM   30  N1  UNL     1       4.208  -0.045   0.359  1.00  0.00     0.094 N 
HETATM   31  C26 UNL     1       2.892   0.611   0.456  1.00  0.00     0.297 C 
BRANCH  30  32
HETATM   32  C8  UNL     1       4.748   0.039  -1.013  1.00  0.00     0.317 C 
BRANCH  32  33
HETATM   33  C7  UNL     1       6.222  -0.279  -1.113  1.00  0.00     0.042 A 
HETATM   34  C2  UNL     1       7.214   0.667  -0.797  1.00  0.00     0.079 A 
HETATM   35  C3  UNL     1       8.566   0.314  -0.900  1.00  0.00     0.037 A 
HETATM   36  C4  UNL     1       8.939  -0.969  -1.306  1.00  0.00     0.006 A 
HETATM   37  C5  UNL     1       7.964  -1.906  -1.621  1.00  0.00     0.043 A 
HETATM   38  C6  UNL     1       6.623  -1.556  -1.525  1.00  0.00     0.127 A 
HETATM   39  F1  UNL     1       5.702  -2.478  -1.837  1.00  0.00    -0.205 F 
BRANCH  34  40
HETATM   40  O1  UNL     1       6.769   1.909  -0.433  1.00  0.00    -0.355 OA
HETATM   41  C1  UNL     1       7.719   2.805   0.126  1.00  0.00     0.210 C 
ENDBRANCH  34  40
ENDBRANCH  32  33
ENDBRANCH  30  32
ENDBRANCH   1  26
TORSDOF 6
