REMARK  6 active torsions:
REMARK  status: ('A' for Active; 'I' for Inactive)
REMARK    1  A    between atoms: O1_2  and  C2_3 
REMARK    2  A    between atoms: C2_3  and  C3_4 
REMARK    3  A    between atoms: C3_4  and  N1_5 
REMARK    4  A    between atoms: C3_4  and  C17_27 
REMARK       I    between atoms: N1_5  and  C4_6 
REMARK       I    between atoms: C4_6  and  N2_8 
REMARK    5  A    between atoms: N2_8  and  C5_9 
REMARK    6  A    between atoms: C8_15  and  C9_16 
ROOT
HETATM    1  C5  UNL     1       0.846  -0.146  -0.004  1.00  0.00     0.111 A 
HETATM    2  C6  UNL     1       1.375  -0.607   1.194  1.00  0.00     0.080 A 
HETATM    3  C7  UNL     1       2.767  -0.590   1.275  1.00  0.00     0.065 A 
HETATM    4  N3  UNL     1       3.627  -0.965   2.267  1.00  0.00    -0.299 N 
HETATM    5  N4  UNL     1       4.923  -0.810   1.958  1.00  0.00    -0.299 N 
ATOM      6  H4  UNL     1       5.734  -1.041   2.532  1.00  0.00     0.187 HD
HETATM    7  C8  UNL     1       4.913  -0.282   0.722  1.00  0.00     0.072 A 
HETATM    8  C15 UNL     1       3.576  -0.143   0.239  1.00  0.00     0.036 A 
HETATM    9  C16 UNL     1       2.959   0.286  -0.937  1.00  0.00     0.105 A 
HETATM   10  N5  UNL     1       1.604   0.282  -1.041  1.00  0.00    -0.351 N 
ATOM     11  H5  UNL     1       1.158   0.602  -1.901  1.00  0.00     0.166 HD
HETATM   12  H10 UNL     1       3.392  -1.343   3.178  1.00  0.00     0.187 HD
ENDROOT
BRANCH   1  13
HETATM   13  N2  UNL     1      -0.522  -0.090  -0.272  1.00  0.00    -0.295 N 
HETATM   14  C4  UNL     1      -1.566  -0.351   0.572  1.00  0.00     0.322 C 
HETATM   15  N1  UNL     1      -2.773  -0.212  -0.072  1.00  0.00    -0.332 N 
HETATM   16  O2  UNL     1      -1.487  -0.648   1.757  1.00  0.00    -0.247 OA
HETATM   17  H7  UNL     1      -2.769  -0.376  -1.068  1.00  0.00     0.165 HD
HETATM   18  H8  UNL     1      -0.723   0.296  -1.181  1.00  0.00     0.172 HD
BRANCH  15  19
HETATM   19  C3  UNL     1      -4.026  -0.513   0.614  1.00  0.00     0.143 C 
BRANCH  19  20
HETATM   20  C2  UNL     1      -4.409   0.518   1.713  1.00  0.00     0.197 C 
BRANCH  20  21
HETATM   21  O1  UNL     1      -4.556   1.860   1.229  1.00  0.00    -0.394 OA
HETATM   22  C1  UNL     1      -3.418   2.671   1.489  1.00  0.00     0.201 C 
ENDBRANCH  20  21
ENDBRANCH  19  20
BRANCH  19  23
HETATM   23  C17 UNL     1      -5.128  -0.739  -0.411  1.00  0.00    -0.033 A 
HETATM   24  C18 UNL     1      -5.683  -2.019  -0.573  1.00  0.00     0.009 A 
HETATM   25  C19 UNL     1      -6.678  -2.251  -1.525  1.00  0.00     0.001 A 
HETATM   26  C20 UNL     1      -7.129  -1.209  -2.331  1.00  0.00     0.000 A 
HETATM   27  C21 UNL     1      -6.584   0.064  -2.189  1.00  0.00     0.001 A 
HETATM   28  C22 UNL     1      -5.589   0.298  -1.239  1.00  0.00     0.009 A 
ENDBRANCH  19  23
ENDBRANCH  15  19
ENDBRANCH   1  13
BRANCH   7  29
HETATM   29  C9  UNL     1       6.166   0.055   0.045  1.00  0.00    -0.007 A 
HETATM   30  C10 UNL     1       7.271  -0.807   0.147  1.00  0.00     0.017 A 
HETATM   31  C11 UNL     1       8.471  -0.500  -0.498  1.00  0.00     0.043 A 
HETATM   32  C12 UNL     1       8.570   0.672  -1.237  1.00  0.00     0.116 A 
HETATM   33  F1  UNL     1       9.720   0.968  -1.855  1.00  0.00    -0.206 F 
HETATM   34  C13 UNL     1       7.493   1.545  -1.341  1.00  0.00     0.043 A 
HETATM   35  C14 UNL     1       6.291   1.240  -0.697  1.00  0.00     0.017 A 
ENDBRANCH   7  29
TORSDOF 6
