REMARK  6 active torsions:
REMARK  status: ('A' for Active; 'I' for Inactive)
REMARK    1  A    between atoms: O1_2  and  C2_3 
REMARK    2  A    between atoms: C2_3  and  C3_4 
REMARK    3  A    between atoms: C3_4  and  N1_5 
REMARK    4  A    between atoms: C3_4  and  C14_25 
REMARK       I    between atoms: N1_5  and  C4_6 
REMARK       I    between atoms: C4_6  and  N2_8 
REMARK    5  A    between atoms: N2_8  and  C5_9 
REMARK    6  A    between atoms: C8_15  and  C9_16 
ROOT
HETATM    1  C5  UNL     1       1.787   0.024   0.602  1.00  0.00     0.111 A 
HETATM    2  C6  UNL     1       2.635   0.655   1.512  1.00  0.00     0.080 A 
HETATM    3  C7  UNL     1       3.992   0.359   1.376  1.00  0.00     0.065 A 
HETATM    4  N3  UNL     1       5.100   0.770   2.068  1.00  0.00    -0.300 N 
HETATM    5  N4  UNL     1       6.252   0.241   1.624  1.00  0.00    -0.303 N 
ATOM      6  H4  UNL     1       7.193   0.378   1.992  1.00  0.00     0.186 HD
HETATM    7  C8  UNL     1       5.871  -0.506   0.586  1.00  0.00     0.050 A 
HETATM    8  C12 UNL     1       4.471  -0.500   0.395  1.00  0.00     0.032 A 
HETATM    9  C13 UNL     1       3.553  -1.097  -0.465  1.00  0.00     0.105 A 
HETATM   10  N5  UNL     1       2.229  -0.827  -0.340  1.00  0.00    -0.351 N 
ATOM     11  H5  UNL     1       1.562  -1.275  -0.968  1.00  0.00     0.166 HD
HETATM   12  H10 UNL     1       5.141   1.405   2.857  1.00  0.00     0.187 HD
ENDROOT
BRANCH   1  13
HETATM   13  N2  UNL     1       0.419   0.301   0.720  1.00  0.00    -0.295 N 
HETATM   14  C4  UNL     1      -0.565  -0.136  -0.138  1.00  0.00     0.322 C 
HETATM   15  N1  UNL     1      -1.810   0.257   0.327  1.00  0.00    -0.332 N 
HETATM   16  O2  UNL     1      -0.428  -0.766  -1.177  1.00  0.00    -0.247 OA
HETATM   17  H7  UNL     1      -1.888   0.207   1.333  1.00  0.00     0.165 HD
HETATM   18  H8  UNL     1       0.140   0.974   1.413  1.00  0.00     0.172 HD
BRANCH  15  19
HETATM   19  C3  UNL     1      -3.017  -0.158  -0.392  1.00  0.00     0.143 C 
BRANCH  19  20
HETATM   20  C2  UNL     1      -3.195   0.568  -1.750  1.00  0.00     0.197 C 
BRANCH  20  21
HETATM   21  O1  UNL     1      -4.193  -0.074  -2.557  1.00  0.00    -0.394 OA
HETATM   22  C1  UNL     1      -5.372   0.706  -2.705  1.00  0.00     0.201 C 
ENDBRANCH  20  21
ENDBRANCH  19  20
BRANCH  19  23
HETATM   23  C14 UNL     1      -4.223   0.056   0.518  1.00  0.00    -0.033 A 
HETATM   24  C15 UNL     1      -4.514   1.321   1.060  1.00  0.00     0.012 A 
HETATM   25  C16 UNL     1      -5.617   1.495   1.896  1.00  0.00     0.043 A 
HETATM   26  C17 UNL     1      -6.432   0.409   2.192  1.00  0.00     0.116 A 
HETATM   27  F3  UNL     1      -7.489   0.578   2.997  1.00  0.00    -0.206 F 
HETATM   28  C18 UNL     1      -6.166  -0.849   1.668  1.00  0.00     0.043 A 
HETATM   29  C19 UNL     1      -5.064  -1.026   0.831  1.00  0.00     0.012 A 
ENDBRANCH  19  23
ENDBRANCH  15  19
ENDBRANCH   1  13
BRANCH   7  30
HETATM   30  C9  UNL     1       6.884  -1.318  -0.257  1.00  0.00     0.116 A 
HETATM   31  C10 UNL     1       6.849  -1.243  -1.770  1.00  0.00     0.096 A 
HETATM   32  C11 UNL     1       7.945  -0.600  -1.006  1.00  0.00     0.253 A 
HETATM   33  F1  UNL     1       8.054   0.772  -1.025  1.00  0.00    -0.206 F 
HETATM   34  F2  UNL     1       9.218  -1.115  -1.103  1.00  0.00    -0.206 F 
ENDBRANCH   7  30
TORSDOF 6
