REMARK  7 active torsions:
REMARK  status: ('A' for Active; 'I' for Inactive)
REMARK    1  A    between atoms: O1_2  and  C2_3 
REMARK    2  A    between atoms: C2_3  and  C3_4 
REMARK    3  A    between atoms: C3_4  and  N1_5 
REMARK    4  A    between atoms: C3_4  and  C17_29 
REMARK       I    between atoms: N1_5  and  C4_6 
REMARK       I    between atoms: C4_6  and  N2_8 
REMARK    5  A    between atoms: N2_8  and  C5_9 
REMARK    6  A    between atoms: C8_15  and  C9_16 
REMARK    7  A    between atoms: C12_21  and  O3_22 
ROOT
HETATM    1  C5  UNL     1       0.358  -0.466  -0.140  1.00  0.00     0.111 A 
HETATM    2  C6  UNL     1       0.774   0.230   0.987  1.00  0.00     0.080 A 
HETATM    3  C7  UNL     1       2.143   0.488   1.054  1.00  0.00     0.065 A 
HETATM    4  N3  UNL     1       2.902   1.138   1.985  1.00  0.00    -0.299 N 
HETATM    5  N4  UNL     1       4.208   1.194   1.686  1.00  0.00    -0.299 N 
ATOM      6  H4  UNL     1       4.953   1.640   2.222  1.00  0.00     0.187 HD
HETATM    7  C8  UNL     1       4.316   0.530   0.522  1.00  0.00     0.073 A 
HETATM    8  C15 UNL     1       3.036   0.081   0.072  1.00  0.00     0.036 A 
HETATM    9  C16 UNL     1       2.526  -0.596  -1.037  1.00  0.00     0.105 A 
HETATM   10  N6  UNL     1       1.197  -0.864  -1.126  1.00  0.00    -0.351 N 
ATOM     11  H6  UNL     1       0.831  -1.365  -1.936  1.00  0.00     0.166 HD
HETATM   12  H10 UNL     1       2.586   1.573   2.846  1.00  0.00     0.187 HD
ENDROOT
BRANCH   1  13
HETATM   13  N2  UNL     1      -0.970  -0.815  -0.386  1.00  0.00    -0.295 N 
HETATM   14  C4  UNL     1      -2.059  -0.647   0.427  1.00  0.00     0.322 C 
HETATM   15  N1  UNL     1      -3.208  -1.095  -0.186  1.00  0.00    -0.332 N 
HETATM   16  O2  UNL     1      -2.050  -0.184   1.560  1.00  0.00    -0.247 OA
HETATM   17  H7  UNL     1      -3.205  -1.075  -1.195  1.00  0.00     0.165 HD
HETATM   18  H8  UNL     1      -1.077  -1.337  -1.240  1.00  0.00     0.172 HD
BRANCH  15  19
HETATM   19  C3  UNL     1      -4.521  -0.935   0.443  1.00  0.00     0.143 C 
BRANCH  19  20
HETATM   20  C2  UNL     1      -5.246  -2.301   0.478  1.00  0.00     0.197 C 
BRANCH  20  21
HETATM   21  O1  UNL     1      -6.485  -2.203   1.184  1.00  0.00    -0.394 OA
HETATM   22  C1  UNL     1      -7.143  -3.459   1.273  1.00  0.00     0.201 C 
ENDBRANCH  20  21
ENDBRANCH  19  20
BRANCH  19  23
HETATM   23  C17 UNL     1      -5.257   0.201  -0.264  1.00  0.00    -0.033 A 
HETATM   24  C18 UNL     1      -6.220  -0.011  -1.265  1.00  0.00     0.012 A 
HETATM   25  C19 UNL     1      -6.838   1.071  -1.898  1.00  0.00     0.043 A 
HETATM   26  C20 UNL     1      -6.492   2.368  -1.542  1.00  0.00     0.116 A 
HETATM   27  F1  UNL     1      -7.085   3.402  -2.153  1.00  0.00    -0.206 F 
HETATM   28  C21 UNL     1      -5.538   2.607  -0.563  1.00  0.00     0.043 A 
HETATM   29  C22 UNL     1      -4.921   1.528   0.072  1.00  0.00     0.012 A 
ENDBRANCH  19  23
ENDBRANCH  15  19
ENDBRANCH   1  13
BRANCH   7  30
HETATM   30  C9  UNL     1       5.615   0.361  -0.118  1.00  0.00     0.011 A 
HETATM   31  C10 UNL     1       5.981  -0.836  -0.723  1.00  0.00     0.101 A 
HETATM   32  N5  UNL     1       7.165  -1.043  -1.350  1.00  0.00    -0.372 N 
HETATM   33  C11 UNL     1       8.037  -0.005  -1.352  1.00  0.00     0.124 A 
ATOM     34  H5  UNL     1       7.388  -1.933  -1.797  1.00  0.00     0.164 HD
HETATM   35  C12 UNL     1       7.785   1.228  -0.763  1.00  0.00     0.084 A 
HETATM   36  C14 UNL     1       6.551   1.400  -0.137  1.00  0.00     0.053 A 
BRANCH  35  37
HETATM   37  O3  UNL     1       8.618   2.309  -0.729  1.00  0.00    -0.355 OA
HETATM   38  C13 UNL     1       9.897   2.147  -1.332  1.00  0.00     0.210 C 
ENDBRANCH  35  37
ENDBRANCH   7  30
TORSDOF 7
