REMARK  7 active torsions:
REMARK  status: ('A' for Active; 'I' for Inactive)
REMARK       I    between atoms: C1_2  and  N1_3 
REMARK    1  A    between atoms: C1_2  and  C8_12 
REMARK    2  A    between atoms: N1_3  and  C2_4 
REMARK    3  A    between atoms: C5_7  and  O2_8 
REMARK    4  A    between atoms: N2_15  and  C11_16 
REMARK    5  A    between atoms: C11_16  and  C12_17 
REMARK       I    between atoms: C12_17  and  N3_19 
REMARK    6  A    between atoms: N4_22  and  C15_23 
REMARK    7  A    between atoms: C18_26  and  C19_27 
ROOT
HETATM    1  C12 UNL     1       0.303   0.979  -1.684  1.00  0.00     0.248 C 
HETATM    2  O3  UNL     1       0.123   1.908  -2.476  1.00  0.00    -0.271 OA
HETATM    3  N3  UNL     1       1.550   0.779  -1.080  1.00  0.00    -0.348 N 
HETATM    4  C13 UNL     1       1.750  -0.058   0.113  1.00  0.00     0.140 C 
HETATM    5  C14 UNL     1       3.204  -0.541   0.285  1.00  0.00     0.115 C 
HETATM    6  N4  UNL     1       4.148   0.595   0.178  1.00  0.00    -0.280 NA
HETATM    7  C24 UNL     1       4.000   1.322  -1.100  1.00  0.00     0.115 C 
HETATM    8  C25 UNL     1       2.558   1.831  -1.264  1.00  0.00     0.140 C 
ENDROOT
BRANCH   1   9
HETATM    9  C11 UNL     1      -0.812  -0.016  -1.291  1.00  0.00     0.374 C 
BRANCH   9  10
HETATM   10  N2  UNL     1      -2.089   0.206  -2.001  1.00  0.00     0.098 N 
HETATM   11  C10 UNL     1      -2.672   1.531  -1.726  1.00  0.00     0.274 C 
HETATM   12  C9  UNL     1      -4.152   1.293  -1.483  1.00  0.00     0.046 C 
HETATM   13  C8  UNL     1      -4.160  -0.081  -0.838  1.00  0.00     0.108 C 
HETATM   14  C26 UNL     1      -3.096  -0.811  -1.646  1.00  0.00     0.287 C 
BRANCH  13  15
HETATM   15  C1  UNL     1      -5.510  -0.782  -0.863  1.00  0.00     0.228 C 
HETATM   16  O1  UNL     1      -5.655  -1.888  -1.374  1.00  0.00    -0.273 OA
HETATM   17  N1  UNL     1      -6.489  -0.059  -0.198  1.00  0.00    -0.327 N 
HETATM   18  H1  UNL     1      -6.215   0.841   0.173  1.00  0.00     0.169 HD
BRANCH  17  19
HETATM   19  C2  UNL     1      -7.832  -0.433   0.033  1.00  0.00     0.036 A 
HETATM   20  C3  UNL     1      -8.628   0.477   0.745  1.00  0.00     0.032 A 
HETATM   21  C4  UNL     1      -9.961   0.187   1.038  1.00  0.00     0.040 A 
HETATM   22  C5  UNL     1     -10.502  -1.022   0.625  1.00  0.00     0.087 A 
HETATM   23  C6  UNL     1      -9.723  -1.938  -0.080  1.00  0.00     0.069 A 
HETATM   24 CL1  UNL     1     -10.401  -3.447  -0.576  1.00  0.00    -0.081 Cl
HETATM   25  C7  UNL     1      -8.392  -1.645  -0.381  1.00  0.00     0.056 A 
BRANCH  22  26
HETATM   26  O2  UNL     1     -11.810  -1.265   0.939  1.00  0.00    -0.359 OA
HETATM   27  H4  UNL     1     -12.028  -2.152   0.592  1.00  0.00     0.217 HD
ENDBRANCH  22  26
ENDBRANCH  17  19
ENDBRANCH  13  15
ENDBRANCH   9  10
ENDBRANCH   1   9
BRANCH   6  28
HETATM   28  C15 UNL     1       5.447   0.284   0.609  1.00  0.00     0.010 A 
HETATM   29  C16 UNL     1       5.662  -0.047   1.956  1.00  0.00     0.024 A 
HETATM   30  C17 UNL     1       6.937  -0.354   2.448  1.00  0.00     0.016 A 
HETATM   31  C18 UNL     1       8.053  -0.333   1.606  1.00  0.00    -0.001 A 
HETATM   32  C22 UNL     1       7.853   0.008   0.263  1.00  0.00     0.016 A 
HETATM   33  C23 UNL     1       6.571   0.312  -0.224  1.00  0.00     0.024 A 
BRANCH  31  34
HETATM   34  C19 UNL     1       9.387  -0.635   2.106  1.00  0.00     0.102 A 
HETATM   35  C20 UNL     1      10.674  -0.528   1.619  1.00  0.00     0.127 A 
HETATM   36  N5  UNL     1      11.577  -0.974   2.553  1.00  0.00    -0.354 N 
HETATM   37  C21 UNL     1      10.817  -1.336   3.560  1.00  0.00     0.233 A 
ATOM     38  H5  UNL     1      12.594  -1.014   2.481  1.00  0.00     0.166 HD
HETATM   39  O4  UNL     1       9.482  -1.161   3.372  1.00  0.00    -0.304 OA
ENDBRANCH  31  34
ENDBRANCH   6  28
TORSDOF 7
