REMARK  7 active torsions:
REMARK  status: ('A' for Active; 'I' for Inactive)
REMARK    1  A    between atoms: O1_2  and  C2_3 
REMARK    2  A    between atoms: C2_3  and  C3_4 
REMARK    3  A    between atoms: C3_4  and  N1_5 
REMARK    4  A    between atoms: C3_4  and  C19_32 
REMARK       I    between atoms: N1_5  and  C4_6 
REMARK       I    between atoms: C4_6  and  N2_8 
REMARK    5  A    between atoms: N2_8  and  C5_9 
REMARK    6  A    between atoms: C8_15  and  C9_16 
REMARK    7  A    between atoms: C12_19  and  N5_20 
ROOT
HETATM    1  C5  UNL     1      -0.190  -0.149   0.312  1.00  0.00     0.111 A 
HETATM    2  C6  UNL     1       0.204  -1.305   0.972  1.00  0.00     0.080 A 
HETATM    3  C7  UNL     1       1.582  -1.485   1.084  1.00  0.00     0.065 A 
HETATM    4  N3  UNL     1       2.327  -2.469   1.669  1.00  0.00    -0.299 N 
HETATM    5  N4  UNL     1       3.653  -2.283   1.574  1.00  0.00    -0.299 N 
ATOM      6  H4  UNL     1       4.395  -2.878   1.942  1.00  0.00     0.187 HD
HETATM    7  C8  UNL     1       3.784  -1.136   0.885  1.00  0.00     0.072 A 
HETATM    8  C17 UNL     1       2.504  -0.585   0.569  1.00  0.00     0.036 A 
HETATM    9  C18 UNL     1       2.018   0.557  -0.068  1.00  0.00     0.105 A 
HETATM   10  N8  UNL     1       0.679   0.756  -0.195  1.00  0.00    -0.351 N 
ATOM     11  H8  UNL     1       0.330   1.587  -0.672  1.00  0.00     0.166 HD
HETATM   12  H10 UNL     1       1.991  -3.290   2.159  1.00  0.00     0.187 HD
ENDROOT
BRANCH   1  13
HETATM   13  N2  UNL     1      -1.523   0.204   0.101  1.00  0.00    -0.295 N 
HETATM   14  C4  UNL     1      -2.653  -0.449   0.510  1.00  0.00     0.322 C 
HETATM   15  N1  UNL     1      -3.790   0.211   0.110  1.00  0.00    -0.332 N 
HETATM   16  O2  UNL     1      -2.697  -1.486   1.159  1.00  0.00    -0.247 OA
HETATM   17  H7  UNL     1      -3.715   0.900  -0.622  1.00  0.00     0.165 HD
HETATM   18  H8  UNL     1      -1.614   1.095  -0.359  1.00  0.00     0.172 HD
BRANCH  15  19
HETATM   19  C3  UNL     1      -5.128  -0.302   0.408  1.00  0.00     0.143 C 
BRANCH  19  20
HETATM   20  C2  UNL     1      -5.455  -1.528  -0.483  1.00  0.00     0.197 C 
BRANCH  20  21
HETATM   21  O1  UNL     1      -6.707  -2.113  -0.110  1.00  0.00    -0.394 OA
HETATM   22  C1  UNL     1      -6.982  -3.288  -0.859  1.00  0.00     0.201 C 
ENDBRANCH  20  21
ENDBRANCH  19  20
BRANCH  19  23
HETATM   23  C19 UNL     1      -6.104   0.872   0.336  1.00  0.00    -0.033 A 
HETATM   24  C20 UNL     1      -5.988   1.896   1.300  1.00  0.00     0.012 A 
HETATM   25  C21 UNL     1      -6.833   3.006   1.278  1.00  0.00     0.043 A 
HETATM   26  C22 UNL     1      -7.805   3.102   0.293  1.00  0.00     0.116 A 
HETATM   27  F1  UNL     1      -8.620   4.165   0.269  1.00  0.00    -0.206 F 
HETATM   28  C23 UNL     1      -7.947   2.109  -0.667  1.00  0.00     0.043 A 
HETATM   29  C24 UNL     1      -7.098   0.998  -0.648  1.00  0.00     0.012 A 
ENDBRANCH  19  23
ENDBRANCH  15  19
ENDBRANCH   1  13
BRANCH   7  30
HETATM   30  C9  UNL     1       5.110  -0.605   0.567  1.00  0.00    -0.007 A 
HETATM   31  C10 UNL     1       5.381  -0.036  -0.684  1.00  0.00     0.016 A 
HETATM   32  C11 UNL     1       6.651   0.477  -0.978  1.00  0.00     0.032 A 
HETATM   33  C12 UNL     1       7.672   0.416  -0.019  1.00  0.00     0.054 A 
HETATM   34  C15 UNL     1       7.410  -0.168   1.228  1.00  0.00     0.032 A 
HETATM   35  C16 UNL     1       6.139  -0.676   1.515  1.00  0.00     0.016 A 
BRANCH  33  36
HETATM   36  N5  UNL     1       8.966   0.930  -0.294  1.00  0.00    -0.250 N 
HETATM   37  C13 UNL     1       9.432   1.536  -1.438  1.00  0.00     0.132 A 
HETATM   38  C14 UNL     1      10.740   1.849  -1.162  1.00  0.00     0.123 A 
HETATM   39  N6  UNL     1      11.047   1.442   0.099  1.00  0.00    -0.294 N 
HETATM   40  N7  UNL     1       9.965   0.881   0.622  1.00  0.00    -0.016 NA
ATOM     41  H6  UNL     1      11.950   1.549   0.561  1.00  0.00     0.183 HD
ENDBRANCH  33  36
ENDBRANCH   7  30
TORSDOF 7
