REMARK  7 active torsions:
REMARK  status: ('A' for Active; 'I' for Inactive)
REMARK       I    between atoms: C1_2  and  N1_3 
REMARK    1  A    between atoms: C1_2  and  C8_12 
REMARK    2  A    between atoms: N1_3  and  C2_4 
REMARK    3  A    between atoms: C5_7  and  O2_8 
REMARK    4  A    between atoms: N2_15  and  C11_16 
REMARK    5  A    between atoms: C11_16  and  C12_17 
REMARK       I    between atoms: C12_17  and  N3_19 
REMARK    6  A    between atoms: N4_22  and  C15_23 
REMARK    7  A    between atoms: C18_26  and  C19_27 
ROOT
HETATM    1  C12 UNL     1       1.062   1.553   0.362  1.00  0.00     0.248 C 
HETATM    2  O3  UNL     1       1.188   2.714   0.757  1.00  0.00    -0.271 OA
HETATM    3  N3  UNL     1      -0.185   1.071  -0.025  1.00  0.00    -0.348 N 
HETATM    4  C13 UNL     1      -0.492  -0.322  -0.377  1.00  0.00     0.145 C 
HETATM    5  C14 UNL     1      -1.900  -0.743   0.089  1.00  0.00     0.143 C 
HETATM    6  N4  UNL     1      -2.937   0.132  -0.477  1.00  0.00    -0.378 N 
HETATM    7  C27 UNL     1      -2.545   1.522  -0.788  1.00  0.00     0.143 C 
HETATM    8  C28 UNL     1      -1.332   1.981   0.043  1.00  0.00     0.145 C 
ENDROOT
BRANCH   1   9
HETATM    9  C11 UNL     1       2.239   0.559   0.274  1.00  0.00     0.374 C 
BRANCH   9  10
HETATM   10  N2  UNL     1       3.587   1.097   0.533  1.00  0.00     0.098 N 
HETATM   11  C10 UNL     1       3.801   1.600   1.890  1.00  0.00     0.274 C 
HETATM   12  C9  UNL     1       5.066   2.453   1.779  1.00  0.00     0.046 C 
HETATM   13  C8  UNL     1       5.307   2.641   0.279  1.00  0.00     0.108 C 
HETATM   14  C29 UNL     1       4.015   2.164  -0.379  1.00  0.00     0.287 C 
BRANCH  13  15
HETATM   15  C1  UNL     1       6.524   1.840  -0.200  1.00  0.00     0.228 C 
HETATM   16  O1  UNL     1       7.514   2.418  -0.641  1.00  0.00    -0.273 OA
HETATM   17  N1  UNL     1       6.374   0.473  -0.048  1.00  0.00    -0.327 N 
HETATM   18  H1  UNL     1       5.447   0.180   0.258  1.00  0.00     0.169 HD
BRANCH  17  19
HETATM   19  C2  UNL     1       7.308  -0.547  -0.297  1.00  0.00     0.036 A 
HETATM   20  C3  UNL     1       6.869  -1.864  -0.102  1.00  0.00     0.032 A 
HETATM   21  C4  UNL     1       7.735  -2.939  -0.300  1.00  0.00     0.040 A 
HETATM   22  C5  UNL     1       9.045  -2.700  -0.690  1.00  0.00     0.087 A 
HETATM   23  C6  UNL     1       9.494  -1.394  -0.890  1.00  0.00     0.069 A 
HETATM   24 CL1  UNL     1      11.134  -1.097  -1.343  1.00  0.00    -0.081 Cl
HETATM   25  C7  UNL     1       8.628  -0.317  -0.695  1.00  0.00     0.056 A 
BRANCH  22  26
HETATM   26  O2  UNL     1       9.861  -3.785  -0.850  1.00  0.00    -0.359 OA
HETATM   27  H4  UNL     1      10.747  -3.445  -1.077  1.00  0.00     0.217 HD
ENDBRANCH  22  26
ENDBRANCH  17  19
ENDBRANCH  13  15
ENDBRANCH   9  10
ENDBRANCH   1   9
BRANCH   6  28
HETATM   28  C15 UNL     1      -4.284  -0.195  -0.369  1.00  0.00     0.030 A 
HETATM   29  C16 UNL     1      -5.265   0.474  -1.116  1.00  0.00     0.030 A 
HETATM   30  C17 UNL     1      -6.633   0.170  -1.003  1.00  0.00     0.014 A 
HETATM   31  C18 UNL     1      -7.087  -0.836  -0.142  1.00  0.00    -0.023 A 
HETATM   32  C25 UNL     1      -6.112  -1.531   0.585  1.00  0.00     0.014 A 
HETATM   33  C26 UNL     1      -4.747  -1.219   0.471  1.00  0.00     0.030 A 
BRANCH  31  34
HETATM   34  C19 UNL     1      -8.523  -1.146   0.003  1.00  0.00     0.013 A 
HETATM   35  C20 UNL     1      -9.096  -1.332   1.276  1.00  0.00     0.015 A 
HETATM   36  C21 UNL     1     -10.457  -1.621   1.430  1.00  0.00     0.001 A 
HETATM   37  C22 UNL     1     -11.280  -1.727   0.311  1.00  0.00     0.003 A 
HETATM   38  C23 UNL     1     -10.738  -1.546  -0.959  1.00  0.00     0.043 A 
HETATM   39  C24 UNL     1      -9.380  -1.261  -1.105  1.00  0.00     0.127 A 
HETATM   40  F1  UNL     1      -8.905  -1.103  -2.351  1.00  0.00    -0.205 F 
ENDBRANCH  31  34
ENDBRANCH   6  28
TORSDOF 7
