REMARK  6 active torsions:
REMARK  status: ('A' for Active; 'I' for Inactive)
REMARK    1  A    between atoms: O1_2  and  C2_3 
REMARK    2  A    between atoms: C2_3  and  C3_4 
REMARK    3  A    between atoms: C3_4  and  N1_5 
REMARK    4  A    between atoms: C3_4  and  C15_25 
REMARK       I    between atoms: N1_5  and  C4_6 
REMARK       I    between atoms: C4_6  and  N2_8 
REMARK    5  A    between atoms: N2_8  and  C5_9 
REMARK    6  A    between atoms: N5_16  and  C9_17 
ROOT
HETATM    1  C5  UNL     1      -0.789  -0.465   0.133  1.00  0.00     0.111 A 
HETATM    2  C6  UNL     1      -1.004  -0.869  -1.177  1.00  0.00     0.080 A 
HETATM    3  C7  UNL     1      -2.342  -0.944  -1.563  1.00  0.00     0.067 A 
HETATM    4  N3  UNL     1      -2.926  -1.297  -2.746  1.00  0.00    -0.298 N 
HETATM    5  N4  UNL     1      -4.266  -1.247  -2.732  1.00  0.00    -0.284 N 
ATOM      6  H4  UNL     1      -4.908  -1.457  -3.496  1.00  0.00     0.188 HD
HETATM    7  C8  UNL     1      -4.569  -0.860  -1.491  1.00  0.00     0.130 A 
HETATM    8  N5  UNL     1      -5.859  -0.722  -1.117  1.00  0.00    -0.370 N 
HETATM    9  C13 UNL     1      -3.397  -0.643  -0.709  1.00  0.00     0.052 A 
HETATM   10  C14 UNL     1      -3.082  -0.237   0.589  1.00  0.00     0.107 A 
HETATM   11  N6  UNL     1      -1.785  -0.149   0.991  1.00  0.00    -0.351 N 
ATOM     12  H6  UNL     1      -1.564   0.155   1.939  1.00  0.00     0.166 HD
HETATM   13  H10 UNL     1      -2.465  -1.583  -3.602  1.00  0.00     0.187 HD
HETATM   14  H11 UNL     1      -6.531  -0.834  -1.871  1.00  0.00     0.161 HD
ENDROOT
BRANCH   1  15
HETATM   15  N2  UNL     1       0.479  -0.329   0.700  1.00  0.00    -0.295 N 
HETATM   16  C4  UNL     1       1.689  -0.696   0.174  1.00  0.00     0.322 C 
HETATM   17  N1  UNL     1       2.719  -0.365   1.028  1.00  0.00    -0.332 N 
HETATM   18  O2  UNL     1       1.872  -1.265  -0.894  1.00  0.00    -0.247 OA
HETATM   19  H7  UNL     1       2.547   0.426   1.631  1.00  0.00     0.165 HD
HETATM   20  H8  UNL     1       0.438  -0.050   1.667  1.00  0.00     0.172 HD
BRANCH  17  21
HETATM   21  C3  UNL     1       4.119  -0.573   0.654  1.00  0.00     0.143 C 
BRANCH  21  22
HETATM   22  C2  UNL     1       4.839  -1.354   1.783  1.00  0.00     0.197 C 
BRANCH  22  23
HETATM   23  O1  UNL     1       6.230  -1.602   1.555  1.00  0.00    -0.394 OA
HETATM   24  C1  UNL     1       6.475  -2.533   0.510  1.00  0.00     0.201 C 
ENDBRANCH  22  23
ENDBRANCH  21  22
BRANCH  21  25
HETATM   25  C15 UNL     1       4.724   0.775   0.277  1.00  0.00    -0.033 A 
HETATM   26  C16 UNL     1       5.508   1.538   1.155  1.00  0.00     0.009 A 
HETATM   27  C17 UNL     1       6.012   2.782   0.765  1.00  0.00     0.001 A 
HETATM   28  C18 UNL     1       5.732   3.287  -0.502  1.00  0.00     0.000 A 
HETATM   29  C19 UNL     1       4.948   2.548  -1.386  1.00  0.00     0.001 A 
HETATM   30  C20 UNL     1       4.448   1.304  -0.998  1.00  0.00     0.009 A 
ENDBRANCH  21  25
ENDBRANCH  17  21
ENDBRANCH   1  15
BRANCH   8  31
HETATM   31  C9  UNL     1      -6.379  -0.230   0.119  1.00  0.00     0.083 C 
HETATM   32  C10 UNL     1      -7.926  -0.178   0.132  1.00  0.00     0.025 C 
HETATM   33  C11 UNL     1      -7.835   1.283  -0.353  1.00  0.00     0.004 C 
HETATM   34  C12 UNL     1      -6.396   1.315   0.199  1.00  0.00     0.025 C 
ENDBRANCH   8  31
TORSDOF 6
