REMARK  9 active torsions:
REMARK  status: ('A' for Active; 'I' for Inactive)
REMARK    1  A    between atoms: O1_2  and  C2_3 
REMARK    2  A    between atoms: C2_3  and  C3_4 
REMARK    3  A    between atoms: C3_4  and  O2_5 
REMARK    4  A    between atoms: O2_5  and  C4_6 
REMARK    5  A    between atoms: C7_12  and  N3_13 
REMARK       I    between atoms: N3_13  and  C8_14 
REMARK       I    between atoms: C8_14  and  N4_16 
REMARK    6  A    between atoms: N4_16  and  C9_17 
REMARK    7  A    between atoms: C9_17  and  C10_18 
REMARK    8  A    between atoms: C9_17  and  C16_25 
REMARK    9  A    between atoms: C16_25  and  O4_28 
ROOT
HETATM    1  N3  UNL     1      -0.495  -0.375  -0.673  1.00  0.00    -0.295 N 
HETATM    2  C8  UNL     1      -1.469  -0.280   0.283  1.00  0.00     0.322 C 
HETATM    3  O3  UNL     1      -1.326  -0.452   1.488  1.00  0.00    -0.247 OA
HETATM    4  N4  UNL     1      -2.676   0.067  -0.273  1.00  0.00    -0.331 N 
HETATM    5  H10 UNL     1      -0.722  -0.104  -1.616  1.00  0.00     0.172 HD
HETATM    6  H11 UNL     1      -2.831  -0.167  -1.242  1.00  0.00     0.165 HD
ENDROOT
BRANCH   1   7
HETATM    7  C7  UNL     1       0.863  -0.646  -0.509  1.00  0.00     0.111 A 
HETATM    8  C6  UNL     1       1.441  -0.963   0.715  1.00  0.00     0.080 A 
HETATM    9  C5  UNL     1       2.822  -1.158   0.685  1.00  0.00     0.067 A 
HETATM   10  N2  UNL     1       3.730  -1.449   1.666  1.00  0.00    -0.298 N 
HETATM   11  C20 UNL     1       3.564  -1.064  -0.486  1.00  0.00     0.060 A 
HETATM   12  N1  UNL     1       5.003  -1.538   1.231  1.00  0.00    -0.279 N 
HETATM   13  H8  UNL     1       3.546  -1.591   2.654  1.00  0.00     0.187 HD
HETATM   14  C4  UNL     1       4.888  -1.325  -0.083  1.00  0.00     0.171 A 
ATOM     15  H1  UNL     1       5.847  -1.723   1.773  1.00  0.00     0.189 HD
HETATM   16  C19 UNL     1       2.904  -0.760  -1.674  1.00  0.00     0.108 A 
HETATM   17  N5  UNL     1       1.559  -0.555  -1.669  1.00  0.00    -0.351 N 
ATOM     18  H5  UNL     1       1.074  -0.333  -2.538  1.00  0.00     0.166 HD
BRANCH  14  19
HETATM   19  O2  UNL     1       5.966  -1.336  -0.900  1.00  0.00    -0.332 OA
BRANCH  19  20
HETATM   20  C3  UNL     1       7.203  -1.704  -0.280  1.00  0.00     0.203 C 
BRANCH  20  21
HETATM   21  C2  UNL     1       7.907  -0.487   0.324  1.00  0.00     0.193 C 
BRANCH  21  22
HETATM   22  O1  UNL     1       8.479   0.296  -0.733  1.00  0.00    -0.394 OA
HETATM   23  C1  UNL     1       9.128   1.455  -0.233  1.00  0.00     0.201 C 
ENDBRANCH  21  22
ENDBRANCH  20  21
ENDBRANCH  19  20
ENDBRANCH  14  19
ENDBRANCH   1   7
BRANCH   4  24
HETATM   24  C9  UNL     1      -3.896   0.199   0.519  1.00  0.00     0.153 C 
BRANCH  24  25
HETATM   25  C10 UNL     1      -4.550   1.529   0.146  1.00  0.00    -0.032 A 
HETATM   26  C11 UNL     1      -5.096   1.762  -1.127  1.00  0.00     0.011 A 
HETATM   27  C12 UNL     1      -5.668   2.996  -1.445  1.00  0.00     0.024 A 
HETATM   28  C13 UNL     1      -5.689   4.014  -0.497  1.00  0.00     0.034 A 
HETATM   29 CL1  UNL     1      -6.388   5.536  -0.895  1.00  0.00    -0.084 Cl
HETATM   30  C14 UNL     1      -5.141   3.810   0.765  1.00  0.00     0.024 A 
HETATM   31  C15 UNL     1      -4.572   2.575   1.085  1.00  0.00     0.011 A 
ENDBRANCH  24  25
BRANCH  24  32
HETATM   32  C16 UNL     1      -4.814  -1.068   0.357  1.00  0.00     0.075 C 
HETATM   33  C17 UNL     1      -4.147  -2.311   0.963  1.00  0.00     0.048 C 
HETATM   34  C18 UNL     1      -6.185  -0.871   1.021  1.00  0.00     0.048 C 
BRANCH  32  35
HETATM   35  O4  UNL     1      -5.010  -1.352  -1.042  1.00  0.00    -0.388 OA
HETATM   36  H23 UNL     1      -5.729  -1.998  -1.118  1.00  0.00     0.210 HD
ENDBRANCH  32  35
ENDBRANCH  24  32
ENDBRANCH   4  24
TORSDOF 9
