REMARK  6 active torsions:
REMARK  status: ('A' for Active; 'I' for Inactive)
REMARK    1  A    between atoms: O1_2  and  C2_3 
REMARK    2  A    between atoms: C2_3  and  C3_4 
REMARK    3  A    between atoms: C3_4  and  N1_5 
REMARK    4  A    between atoms: C3_4  and  C17_28 
REMARK       I    between atoms: N1_5  and  C4_6 
REMARK       I    between atoms: C4_6  and  N2_8 
REMARK    5  A    between atoms: N2_8  and  C5_9 
REMARK    6  A    between atoms: N5_16  and  C9_17 
ROOT
HETATM    1  C5  UNL     1       0.485   0.367  -0.060  1.00  0.00     0.111 A 
HETATM    2  C6  UNL     1       1.057  -0.897   0.004  1.00  0.00     0.080 A 
HETATM    3  C7  UNL     1       2.450  -0.922  -0.060  1.00  0.00     0.067 A 
HETATM    4  N3  UNL     1       3.346  -1.950  -0.022  1.00  0.00    -0.298 N 
HETATM    5  N4  UNL     1       4.626  -1.564  -0.115  1.00  0.00    -0.284 N 
ATOM      6  H4  UNL     1       5.456  -2.157  -0.112  1.00  0.00     0.188 HD
HETATM    7  C8  UNL     1       4.577  -0.232  -0.212  1.00  0.00     0.134 A 
HETATM    8  N5  UNL     1       5.623   0.630  -0.322  1.00  0.00    -0.341 N 
HETATM    9  C15 UNL     1       3.221   0.224  -0.182  1.00  0.00     0.053 A 
HETATM   10  C16 UNL     1       2.561   1.452  -0.244  1.00  0.00     0.107 A 
HETATM   11  N6  UNL     1       1.204   1.508  -0.184  1.00  0.00    -0.351 N 
ATOM     12  H6  UNL     1       0.728   2.409  -0.232  1.00  0.00     0.166 HD
HETATM   13  H10 UNL     1       3.149  -2.940   0.067  1.00  0.00     0.187 HD
HETATM   14  H11 UNL     1       5.404   1.617  -0.373  1.00  0.00     0.167 HD
ENDROOT
BRANCH   1  15
HETATM   15  N2  UNL     1      -0.890   0.595  -0.014  1.00  0.00    -0.295 N 
HETATM   16  C4  UNL     1      -1.898  -0.310   0.179  1.00  0.00     0.322 C 
HETATM   17  N1  UNL     1      -3.130   0.296   0.138  1.00  0.00    -0.332 N 
HETATM   18  O2  UNL     1      -1.767  -1.511   0.371  1.00  0.00    -0.247 OA
HETATM   19  H7  UNL     1      -3.203   1.211  -0.279  1.00  0.00     0.165 HD
HETATM   20  H8  UNL     1      -1.117   1.577  -0.032  1.00  0.00     0.172 HD
BRANCH  17  21
HETATM   21  C3  UNL     1      -4.373  -0.459   0.293  1.00  0.00     0.143 C 
BRANCH  21  22
HETATM   22  C2  UNL     1      -4.663  -1.331  -0.956  1.00  0.00     0.197 C 
BRANCH  22  23
HETATM   23  O1  UNL     1      -5.838  -2.125  -0.761  1.00  0.00    -0.394 OA
HETATM   24  C1  UNL     1      -6.088  -2.974  -1.872  1.00  0.00     0.201 C 
ENDBRANCH  22  23
ENDBRANCH  21  22
BRANCH  21  25
HETATM   25  C17 UNL     1      -5.466   0.530   0.685  1.00  0.00    -0.033 A 
HETATM   26  C18 UNL     1      -6.400   1.047  -0.226  1.00  0.00     0.009 A 
HETATM   27  C19 UNL     1      -7.356   1.981   0.184  1.00  0.00     0.001 A 
HETATM   28  C20 UNL     1      -7.388   2.419   1.506  1.00  0.00     0.000 A 
HETATM   29  C21 UNL     1      -6.464   1.924   2.422  1.00  0.00     0.001 A 
HETATM   30  C22 UNL     1      -5.510   0.990   2.014  1.00  0.00     0.009 A 
ENDBRANCH  21  25
ENDBRANCH  17  21
ENDBRANCH   1  15
BRANCH   8  31
HETATM   31  C9  UNL     1       7.019   0.413  -0.379  1.00  0.00     0.033 A 
HETATM   32  C10 UNL     1       7.868   1.533  -0.470  1.00  0.00     0.032 A 
HETATM   33  C11 UNL     1       9.257   1.389  -0.527  1.00  0.00     0.044 A 
HETATM   34  C12 UNL     1       9.812   0.118  -0.492  1.00  0.00     0.116 A 
HETATM   35  F1  UNL     1      11.143  -0.024  -0.546  1.00  0.00    -0.206 F 
HETATM   36  C13 UNL     1       9.004  -1.005  -0.402  1.00  0.00     0.044 A 
HETATM   37  C14 UNL     1       7.614  -0.855  -0.345  1.00  0.00     0.032 A 
ENDBRANCH   8  31
TORSDOF 6
