REMARK  3 active torsions:
REMARK  status: ('A' for Active; 'I' for Inactive)
REMARK    1  A    between atoms: C4_4  and  C5_5 
REMARK    2  A    between atoms: C8_11  and  N3_12 
REMARK       I    between atoms: N3_12  and  C9_13 
REMARK       I    between atoms: C9_13  and  N4_15 
REMARK    3  A    between atoms: N4_15  and  C10_16 
ROOT
HETATM    1  C5  UNL     1       4.262   1.928   0.362  1.00  0.00     0.072 A 
HETATM    2  N1  UNL     1       3.857   3.153   0.740  1.00  0.00    -0.299 N 
ATOM      3  H1  UNL     1       4.427   3.990   0.859  1.00  0.00     0.187 HD
HETATM    4  N2  UNL     1       2.534   3.027   0.926  1.00  0.00    -0.299 N 
HETATM    5  C6  UNL     1       2.049   1.781   0.652  1.00  0.00     0.065 A 
HETATM    6  C7  UNL     1       0.758   1.255   0.701  1.00  0.00     0.080 A 
HETATM    7  C8  UNL     1       0.650  -0.081   0.336  1.00  0.00     0.111 A 
HETATM    8  N6  UNL     1       1.700  -0.837  -0.059  1.00  0.00    -0.351 N 
ATOM      9  H6  UNL     1       1.556  -1.811  -0.325  1.00  0.00     0.166 HD
HETATM   10  C19 UNL     1       2.947  -0.298  -0.101  1.00  0.00     0.105 A 
HETATM   11  C20 UNL     1       3.153   1.032   0.270  1.00  0.00     0.036 A 
HETATM   12  H5  UNL     1       2.013   3.839   1.238  1.00  0.00     0.187 HD
ENDROOT
BRANCH   7  13
HETATM   13  N3  UNL     1      -0.558  -0.780   0.317  1.00  0.00    -0.295 N 
HETATM   14  C9  UNL     1      -1.790  -0.360   0.741  1.00  0.00     0.322 C 
HETATM   15  O1  UNL     1      -2.047   0.716   1.264  1.00  0.00    -0.247 OA
HETATM   16  N4  UNL     1      -2.749  -1.323   0.511  1.00  0.00    -0.334 N 
HETATM   17  H8  UNL     1      -2.551  -1.991  -0.219  1.00  0.00     0.165 HD
HETATM   18  H7  UNL     1      -0.437  -1.747   0.062  1.00  0.00     0.172 HD
BRANCH  16  19
HETATM   19  C10 UNL     1      -4.157  -1.085   0.803  1.00  0.00     0.121 C 
HETATM   20  C11 UNL     1      -4.772  -2.393   1.334  1.00  0.00     0.030 C 
HETATM   21  C12 UNL     1      -6.297  -2.365   1.506  1.00  0.00     0.008 C 
HETATM   22  C13 UNL     1      -6.973  -1.102   0.977  1.00  0.00     0.057 C 
HETATM   23  C14 UNL     1      -6.344  -0.640  -0.310  1.00  0.00     0.017 A 
HETATM   24  N5  UNL     1      -7.170  -0.232  -1.301  1.00  0.00    -0.369 N 
HETATM   25  C18 UNL     1      -4.946  -0.604  -0.397  1.00  0.00    -0.013 A 
HETATM   26  C15 UNL     1      -6.590   0.246  -2.422  1.00  0.00     0.088 A 
ATOM     27  H5  UNL     1      -8.184  -0.283  -1.205  1.00  0.00     0.165 HD
HETATM   28  C16 UNL     1      -5.221   0.345  -2.597  1.00  0.00     0.018 A 
HETATM   29  C17 UNL     1      -4.388  -0.081  -1.566  1.00  0.00     0.012 A 
ENDBRANCH  16  19
ENDBRANCH   7  13
BRANCH   1  30
HETATM   30  C4  UNL     1       5.673   1.662   0.090  1.00  0.00    -0.004 A 
HETATM   31  C3  UNL     1       6.279   0.474   0.507  1.00  0.00     0.038 A 
HETATM   32  C2  UNL     1       7.624   0.266   0.218  1.00  0.00     0.005 A 
HETATM   33  C1  UNL     1       8.302  -0.997   0.658  1.00  0.00     0.068 C 
HETATM   34  N7  UNL     1       8.374   1.171  -0.451  1.00  0.00    -0.369 N 
HETATM   35  C22 UNL     1       7.775   2.321  -0.827  1.00  0.00     0.089 A 
ATOM     36  H7  UNL     1       9.355   0.991  -0.663  1.00  0.00     0.165 HD
HETATM   37  C21 UNL     1       6.445   2.610  -0.581  1.00  0.00     0.031 A 
ENDBRANCH   1  30
TORSDOF 3
