REMARK  9 active torsions:
REMARK  status: ('A' for Active; 'I' for Inactive)
REMARK    1  A    between atoms: O1_2  and  C2_3 
REMARK    2  A    between atoms: C2_3  and  C3_4 
REMARK    3  A    between atoms: C3_4  and  O2_5 
REMARK    4  A    between atoms: O2_5  and  C4_6 
REMARK    5  A    between atoms: C7_12  and  N3_13 
REMARK       I    between atoms: N3_13  and  C8_14 
REMARK       I    between atoms: C8_14  and  N4_16 
REMARK    6  A    between atoms: N4_16  and  C9_17 
REMARK    7  A    between atoms: C9_17  and  C10_18 
REMARK    8  A    between atoms: C9_17  and  C16_25 
REMARK    9  A    between atoms: C16_25  and  O4_28 
ROOT
HETATM    1  N3  UNL     1      -0.506   0.614   0.666  1.00  0.00    -0.295 N 
HETATM    2  C8  UNL     1      -1.574  -0.236   0.498  1.00  0.00     0.322 C 
HETATM    3  O3  UNL     1      -1.570  -1.457   0.533  1.00  0.00    -0.247 OA
HETATM    4  N4  UNL     1      -2.737   0.487   0.305  1.00  0.00    -0.331 N 
HETATM    5  H10 UNL     1      -0.724   1.579   0.837  1.00  0.00     0.172 HD
HETATM    6  H11 UNL     1      -2.639   1.411  -0.083  1.00  0.00     0.165 HD
ENDROOT
BRANCH   1   7
HETATM    7  C7  UNL     1       0.835   0.225   0.789  1.00  0.00     0.111 A 
HETATM    8  C6  UNL     1       1.751   1.231   1.102  1.00  0.00     0.080 A 
HETATM    9  C5  UNL     1       3.081   0.822   1.206  1.00  0.00     0.067 A 
HETATM   10  N2  UNL     1       4.237   1.497   1.495  1.00  0.00    -0.298 N 
HETATM   11  C20 UNL     1       3.468  -0.496   1.007  1.00  0.00     0.060 A 
HETATM   12  N1  UNL     1       5.341   0.726   1.495  1.00  0.00    -0.279 N 
HETATM   13  H8  UNL     1       4.344   2.484   1.701  1.00  0.00     0.187 HD
HETATM   14  C4  UNL     1       4.863  -0.486   1.203  1.00  0.00     0.171 A 
ATOM     15  H1  UNL     1       6.307   1.001   1.674  1.00  0.00     0.189 HD
HETATM   16  C19 UNL     1       2.494  -1.438   0.690  1.00  0.00     0.108 A 
HETATM   17  N5  UNL     1       1.194  -1.056   0.583  1.00  0.00    -0.351 N 
ATOM     18  H5  UNL     1       0.483  -1.747   0.344  1.00  0.00     0.166 HD
BRANCH  14  19
HETATM   19  O2  UNL     1       5.674  -1.564   1.111  1.00  0.00    -0.332 OA
BRANCH  19  20
HETATM   20  C3  UNL     1       7.064  -1.316   1.346  1.00  0.00     0.203 C 
BRANCH  20  21
HETATM   21  C2  UNL     1       7.769  -0.783   0.097  1.00  0.00     0.193 C 
BRANCH  21  22
HETATM   22  O1  UNL     1       7.865  -1.830  -0.877  1.00  0.00    -0.394 OA
HETATM   23  C1  UNL     1       8.467  -1.372  -2.080  1.00  0.00     0.201 C 
ENDBRANCH  21  22
ENDBRANCH  20  21
ENDBRANCH  19  20
ENDBRANCH  14  19
ENDBRANCH   1   7
BRANCH   4  24
HETATM   24  C9  UNL     1      -4.021  -0.180   0.040  1.00  0.00     0.153 C 
BRANCH  24  25
HETATM   25  C10 UNL     1      -4.601   0.428  -1.246  1.00  0.00    -0.032 A 
HETATM   26  C11 UNL     1      -5.815   1.124  -1.322  1.00  0.00     0.011 A 
HETATM   27  C12 UNL     1      -6.265   1.659  -2.535  1.00  0.00     0.024 A 
HETATM   28  C13 UNL     1      -5.508   1.500  -3.692  1.00  0.00     0.034 A 
HETATM   29 CL1  UNL     1      -6.064   2.163  -5.178  1.00  0.00    -0.084 Cl
HETATM   30  C14 UNL     1      -4.307   0.803  -3.650  1.00  0.00     0.024 A 
HETATM   31  C15 UNL     1      -3.861   0.269  -2.438  1.00  0.00     0.011 A 
ENDBRANCH  24  25
BRANCH  24  32
HETATM   32  C16 UNL     1      -4.904  -0.233   1.348  1.00  0.00     0.075 C 
HETATM   33  C17 UNL     1      -4.306  -1.241   2.350  1.00  0.00     0.048 C 
HETATM   34  C18 UNL     1      -5.031   1.128   2.051  1.00  0.00     0.048 C 
BRANCH  32  35
HETATM   35  O4  UNL     1      -6.226  -0.705   1.041  1.00  0.00    -0.388 OA
HETATM   36  H23 UNL     1      -6.688  -0.884   1.879  1.00  0.00     0.210 HD
ENDBRANCH  32  35
ENDBRANCH  24  32
ENDBRANCH   4  24
TORSDOF 9
