REMARK  4 active torsions:
REMARK  status: ('A' for Active; 'I' for Inactive)
REMARK    1  A    between atoms: C2_2  and  N1_3 
REMARK    2  A    between atoms: C2_2  and  C16_25 
REMARK       I    between atoms: N1_3  and  C3_4 
REMARK       I    between atoms: C3_4  and  N2_6 
REMARK    3  A    between atoms: N2_6  and  C4_7 
REMARK    4  A    between atoms: C7_13  and  C8_14 
ROOT
HETATM    1  C4  UNL     1       1.234  -1.293  -0.439  1.00  0.00     0.111 A 
HETATM    2  C5  UNL     1       2.154  -2.035  -1.178  1.00  0.00     0.080 A 
HETATM    3  C6  UNL     1       3.467  -1.562  -1.155  1.00  0.00     0.065 A 
HETATM    4  N3  UNL     1       4.617  -2.022  -1.730  1.00  0.00    -0.299 N 
HETATM    5  N4  UNL     1       5.701  -1.283  -1.460  1.00  0.00    -0.299 N 
ATOM      6  H4  UNL     1       6.660  -1.446  -1.768  1.00  0.00     0.187 HD
HETATM    7  C7  UNL     1       5.242  -0.278  -0.692  1.00  0.00     0.072 A 
HETATM    8  C14 UNL     1       3.840  -0.422  -0.456  1.00  0.00     0.036 A 
HETATM    9  C15 UNL     1       2.855   0.254   0.265  1.00  0.00     0.105 A 
HETATM   10  N5  UNL     1       1.572  -0.186   0.247  1.00  0.00    -0.351 N 
ATOM     11  H5  UNL     1       0.855   0.328   0.759  1.00  0.00     0.166 HD
HETATM   12  H8  UNL     1       4.734  -2.842  -2.315  1.00  0.00     0.187 HD
ENDROOT
BRANCH   1  13
HETATM   13  N2  UNL     1      -0.096  -1.734  -0.465  1.00  0.00    -0.295 N 
HETATM   14  C3  UNL     1      -1.111  -1.259   0.334  1.00  0.00     0.322 C 
HETATM   15  N1  UNL     1      -2.321  -1.814  -0.053  1.00  0.00    -0.338 N 
HETATM   16  O1  UNL     1      -1.016  -0.487   1.277  1.00  0.00    -0.247 OA
HETATM   17  H5  UNL     1      -2.387  -2.103  -1.017  1.00  0.00     0.164 HD
HETATM   18  H6  UNL     1      -0.297  -2.572  -0.981  1.00  0.00     0.172 HD
BRANCH  15  19
HETATM   19  C2  UNL     1      -3.582  -1.460   0.604  1.00  0.00     0.086 C 
HETATM   20  C1  UNL     1      -4.368  -2.755   0.819  1.00  0.00     0.032 C 
BRANCH  19  21
HETATM   21  C16 UNL     1      -4.365  -0.409  -0.238  1.00  0.00     0.008 C 
HETATM   22  C17 UNL     1      -3.555   0.900  -0.400  1.00  0.00     0.007 C 
HETATM   23  C18 UNL     1      -4.399   2.126  -0.760  1.00  0.00     0.000 C 
HETATM   24  C19 UNL     1      -5.689   1.745  -1.465  1.00  0.00     0.000 C 
HETATM   25  C20 UNL     1      -6.557   0.847  -0.587  1.00  0.00     0.000 C 
HETATM   26  C21 UNL     1      -5.756  -0.087   0.328  1.00  0.00     0.007 C 
ENDBRANCH  19  21
ENDBRANCH  15  19
ENDBRANCH   1  13
BRANCH   7  27
HETATM   27  C8  UNL     1       6.147   0.765  -0.209  1.00  0.00    -0.007 A 
HETATM   28  C9  UNL     1       5.747   2.110  -0.168  1.00  0.00     0.017 A 
HETATM   29  C10 UNL     1       6.623   3.094   0.297  1.00  0.00     0.043 A 
HETATM   30  C11 UNL     1       7.900   2.736   0.714  1.00  0.00     0.116 A 
HETATM   31  F1  UNL     1       8.738   3.682   1.157  1.00  0.00    -0.206 F 
HETATM   32  C12 UNL     1       8.321   1.413   0.671  1.00  0.00     0.043 A 
HETATM   33  C13 UNL     1       7.446   0.429   0.206  1.00  0.00     0.017 A 
ENDBRANCH   7  27
TORSDOF 4
