REMARK  7 active torsions:
REMARK  status: ('A' for Active; 'I' for Inactive)
REMARK    1  A    between atoms: C1_2  and  O2_3 
REMARK    2  A    between atoms: C1_2  and  C9_12 
REMARK    3  A    between atoms: O2_3  and  C2_4 
REMARK    4  A    between atoms: C2_4  and  C3_5 
REMARK    5  A    between atoms: C3_5  and  N1_6 
REMARK    6  A    between atoms: N2_20  and  C17_21 
REMARK    7  A    between atoms: C17_21  and  C18_22 
ROOT
HETATM    1  C9  UNL     1      -1.068  -0.657  -1.606  1.00  0.00     0.112 A 
HETATM    2  C10 UNL     1      -0.482  -1.897  -1.396  1.00  0.00     0.050 A 
HETATM    3  C11 UNL     1      -1.496  -2.849  -1.129  1.00  0.00    -0.007 A 
HETATM    4  C12 UNL     1      -1.482  -4.234  -0.871  1.00  0.00     0.014 A 
HETATM    5  C13 UNL     1      -2.688  -4.906  -0.651  1.00  0.00     0.001 A 
HETATM    6  C14 UNL     1      -3.895  -4.217  -0.686  1.00  0.00     0.002 A 
HETATM    7  C15 UNL     1      -3.931  -2.842  -0.938  1.00  0.00     0.030 A 
HETATM    8  C16 UNL     1      -2.714  -2.171  -1.158  1.00  0.00     0.045 A 
HETATM    9  N2  UNL     1      -2.431  -0.834  -1.406  1.00  0.00    -0.337 N 
ENDROOT
BRANCH   1  10
HETATM   10  C1  UNL     1      -0.416   0.589  -1.957  1.00  0.00     0.310 C 
HETATM   11  O1  UNL     1      -0.969   1.607  -2.351  1.00  0.00    -0.258 OA
BRANCH  10  12
HETATM   12  O2  UNL     1       0.931   0.459  -1.802  1.00  0.00    -0.315 OA
BRANCH  12  13
HETATM   13  C2  UNL     1       1.678   1.654  -2.070  1.00  0.00     0.209 C 
BRANCH  13  14
HETATM   14  C3  UNL     1       3.159   1.433  -1.712  1.00  0.00     0.299 C 
BRANCH  14  15
HETATM   15  N1  UNL     1       3.478   1.592  -0.278  1.00  0.00     0.090 N 
HETATM   16  C4  UNL     1       2.725   0.655   0.573  1.00  0.00     0.272 C 
HETATM   17  C5  UNL     1       3.346   0.508   1.961  1.00  0.00     0.030 C 
HETATM   18  C6  UNL     1       4.762  -0.061   1.881  1.00  0.00     0.003 C 
HETATM   19  C7  UNL     1       5.435   0.248   0.545  1.00  0.00     0.030 C 
HETATM   20  C8  UNL     1       4.930   1.565  -0.039  1.00  0.00     0.272 C 
ENDBRANCH  14  15
ENDBRANCH  13  14
ENDBRANCH  12  13
ENDBRANCH  10  12
ENDBRANCH   1  10
BRANCH   9  21
HETATM   21  C17 UNL     1      -3.440   0.227  -1.439  1.00  0.00     0.168 C 
BRANCH  21  22
HETATM   22  C18 UNL     1      -3.460   1.039  -0.165  1.00  0.00    -0.040 A 
HETATM   23  C19 UNL     1      -3.758   0.446   1.072  1.00  0.00     0.009 A 
HETATM   24  C20 UNL     1      -3.786   1.210   2.241  1.00  0.00     0.001 A 
HETATM   25  C21 UNL     1      -3.523   2.576   2.188  1.00  0.00     0.000 A 
HETATM   26  C22 UNL     1      -3.233   3.181   0.968  1.00  0.00     0.001 A 
HETATM   27  C23 UNL     1      -3.206   2.418  -0.202  1.00  0.00     0.009 A 
ENDBRANCH  21  22
ENDBRANCH   9  21
TORSDOF 7
