REMARK  8 active torsions:
REMARK  status: ('A' for Active; 'I' for Inactive)
REMARK    1  A    between atoms: O1_2  and  C2_3 
REMARK    2  A    between atoms: C5_6  and  N1_7 
REMARK    3  A    between atoms: N1_7  and  C6_8 
REMARK    4  A    between atoms: C16_24  and  O4_25 
REMARK    5  A    between atoms: O4_25  and  C17_26 
REMARK    6  A    between atoms: C17_26  and  C18_27 
REMARK    7  A    between atoms: C18_27  and  C19_28 
REMARK    8  A    between atoms: C19_28  and  N4_29 
ROOT
HETATM    1  C2  UNL     1      -0.096  -0.557  -1.508  1.00  0.00     0.102 A 
HETATM    2  C3  UNL     1       1.274  -0.780  -1.377  1.00  0.00     0.057 A 
HETATM    3  C4  UNL     1       2.205   0.277  -1.546  1.00  0.00     0.038 A 
HETATM    4  C5  UNL     1       3.596   0.155  -1.380  1.00  0.00     0.119 A 
HETATM    5  N2  UNL     1       4.438   1.188  -1.562  1.00  0.00    -0.338 N 
ATOM      6  H2  UNL     1       5.448   1.080  -1.470  1.00  0.00     0.168 HD
HETATM    7  C13 UNL     1       3.882   2.360  -1.869  1.00  0.00     0.182 A 
HETATM    8  N3  UNL     1       2.575   2.598  -2.036  1.00  0.00    -0.351 N 
ATOM      9  H3  UNL     1       2.227   3.525  -2.280  1.00  0.00     0.166 HD
HETATM   10  C14 UNL     1       1.749   1.561  -1.868  1.00  0.00     0.050 A 
HETATM   11  C15 UNL     1       0.383   1.767  -2.008  1.00  0.00     0.070 A 
HETATM   12  C16 UNL     1      -0.543   0.736  -1.811  1.00  0.00     0.104 A 
ENDROOT
BRANCH   4  13
HETATM   13  N1  UNL     1       4.137  -1.123  -1.091  1.00  0.00    -0.339 N 
HETATM   14  H5  UNL     1       4.117  -1.675  -1.942  1.00  0.00     0.167 HD
BRANCH  13  15
HETATM   15  C6  UNL     1       5.260  -1.391  -0.286  1.00  0.00     0.070 A 
HETATM   16  C7  UNL     1       6.026  -2.544  -0.527  1.00  0.00     0.032 A 
HETATM   17  C8  UNL     1       7.090  -2.912   0.318  1.00  0.00     0.005 A 
HETATM   18  C9  UNL     1       7.390  -2.151   1.447  1.00  0.00     0.040 A 
HETATM   19  C10 UNL     1       6.619  -1.036   1.688  1.00  0.00     0.107 A 
HETATM   20  C11 UNL     1       5.586  -0.664   0.854  1.00  0.00     0.131 A 
HETATM   21  O3  UNL     1       6.751  -0.217   2.764  1.00  0.00    -0.323 OA
HETATM   22  O2  UNL     1       4.934   0.436   1.332  1.00  0.00    -0.321 OA
HETATM   23  C12 UNL     1       5.696   0.727   2.512  1.00  0.00     0.352 A 
ENDBRANCH  13  15
ENDBRANCH   4  13
BRANCH   1  24
HETATM   24  O1  UNL     1      -1.064  -1.516  -1.354  1.00  0.00    -0.353 OA
HETATM   25  C1  UNL     1      -0.669  -2.776  -0.827  1.00  0.00     0.210 C 
ENDBRANCH   1  24
BRANCH  12  26
HETATM   26  O4  UNL     1      -1.902   0.906  -1.914  1.00  0.00    -0.348 OA
BRANCH  26  27
HETATM   27  C17 UNL     1      -2.412   2.206  -1.625  1.00  0.00     0.177 C 
BRANCH  27  28
HETATM   28  C18 UNL     1      -3.861   2.060  -1.165  1.00  0.00     0.057 C 
BRANCH  28  29
HETATM   29  C19 UNL     1      -3.944   1.308   0.172  1.00  0.00     0.274 C 
BRANCH  29  30
HETATM   30  N4  UNL     1      -5.312   1.250   0.717  1.00  0.00     0.092 N 
HETATM   31  C20 UNL     1      -6.230   0.499  -0.171  1.00  0.00     0.298 C 
HETATM   32  C21 UNL     1      -7.439  -0.064   0.592  1.00  0.00     0.198 C 
HETATM   33  O5  UNL     1      -7.069  -1.023   1.595  1.00  0.00    -0.388 OA
HETATM   34  C22 UNL     1      -5.749  -0.807   2.114  1.00  0.00     0.198 C 
HETATM   35  C23 UNL     1      -5.324   0.668   2.079  1.00  0.00     0.298 C 
ENDBRANCH  29  30
ENDBRANCH  28  29
ENDBRANCH  27  28
ENDBRANCH  26  27
ENDBRANCH  12  26
TORSDOF 8
