REMARK  5 active torsions:
REMARK  status: ('A' for Active; 'I' for Inactive)
REMARK    1  A    between atoms: O1_2  and  C2_3 
REMARK    2  A    between atoms: C6_11  and  N3_12 
REMARK    3  A    between atoms: N3_12  and  C7_13 
REMARK    4  A    between atoms: C15_23  and  O2_24 
REMARK    5  A    between atoms: O2_24  and  C16_25 
REMARK       I    between atoms: C16_25  and  N4_27 
ROOT
HETATM    1  C2  UNL     1       0.001  -2.089   1.772  1.00  0.00     0.104 A 
HETATM    2  C3  UNL     1       1.229  -2.662   2.111  1.00  0.00     0.070 A 
HETATM    3  C4  UNL     1       2.440  -2.116   1.691  1.00  0.00     0.050 A 
HETATM    4  N1  UNL     1       3.570  -2.724   2.061  1.00  0.00    -0.351 N 
ATOM      5  H1  UNL     1       3.560  -3.568   2.633  1.00  0.00     0.166 HD
HETATM    6  C5  UNL     1       4.716  -2.173   1.645  1.00  0.00     0.182 A 
HETATM    7  N2  UNL     1       4.838  -1.085   0.881  1.00  0.00    -0.338 N 
ATOM      8  H2  UNL     1       5.750  -0.736   0.587  1.00  0.00     0.168 HD
HETATM    9  C6  UNL     1       3.698  -0.472   0.518  1.00  0.00     0.119 A 
HETATM   10  C13 UNL     1       2.433  -0.954   0.905  1.00  0.00     0.038 A 
HETATM   11  C14 UNL     1       1.201  -0.351   0.568  1.00  0.00     0.058 A 
HETATM   12  C15 UNL     1       0.010  -0.936   0.987  1.00  0.00     0.115 A 
ENDROOT
BRANCH  12  13
HETATM   13  O2  UNL     1      -1.196  -0.311   0.656  1.00  0.00    -0.259 OA
BRANCH  13  14
HETATM   14  C16 UNL     1      -1.741  -0.769  -0.534  1.00  0.00     0.368 C 
HETATM   15  O3  UNL     1      -1.151  -1.517  -1.313  1.00  0.00    -0.238 OA
HETATM   16  N4  UNL     1      -3.017  -0.248  -0.800  1.00  0.00    -0.320 N 
HETATM   17  C17 UNL     1      -3.369  -0.280  -2.223  1.00  0.00     0.158 C 
HETATM   18  C21 UNL     1      -3.631   0.826   0.023  1.00  0.00     0.113 C 
HETATM   19  C18 UNL     1      -4.818   0.093  -2.543  1.00  0.00     0.291 C 
HETATM   20  N5  UNL     1      -5.174   1.380  -1.923  1.00  0.00     0.087 N 
HETATM   21  C19 UNL     1      -6.535   1.768  -2.294  1.00  0.00     0.310 C 
HETATM   22  C20 UNL     1      -5.058   1.228  -0.463  1.00  0.00     0.296 C 
HETATM   23  C22 UNL     1      -3.775   0.453   1.510  1.00  0.00     0.034 C 
ENDBRANCH  13  14
ENDBRANCH  12  13
BRANCH   1  24
HETATM   24  O1  UNL     1      -1.228  -2.553   2.153  1.00  0.00    -0.353 OA
HETATM   25  C1  UNL     1      -1.264  -3.780   2.871  1.00  0.00     0.210 C 
ENDBRANCH   1  24
BRANCH   9  26
HETATM   26  N3  UNL     1       3.772   0.673  -0.324  1.00  0.00    -0.339 N 
HETATM   27  H6  UNL     1       3.262   0.468  -1.177  1.00  0.00     0.167 HD
BRANCH  26  28
HETATM   28  C7  UNL     1       4.936   1.446  -0.561  1.00  0.00     0.074 A 
HETATM   29  C8  UNL     1       5.200   1.900  -1.864  1.00  0.00     0.033 A 
HETATM   30  C9  UNL     1       6.329   2.678  -2.141  1.00  0.00     0.004 A 
HETATM   31  C10 UNL     1       7.202   3.031  -1.114  1.00  0.00     0.027 A 
HETATM   32  C11 UNL     1       6.938   2.615   0.191  1.00  0.00     0.074 A 
HETATM   33 CL1  UNL     1       8.008   3.093   1.455  1.00  0.00    -0.081 Cl
HETATM   34  C12 UNL     1       5.811   1.838   0.467  1.00  0.00     0.164 A 
HETATM   35  F1  UNL     1       5.543   1.506   1.742  1.00  0.00    -0.202 F 
ENDBRANCH  26  28
ENDBRANCH   9  26
TORSDOF 5
