REMARK  10 active torsions:
REMARK  status: ('A' for Active; 'I' for Inactive)
REMARK    1  A    between atoms: C2_2  and  C3_3 
REMARK       I    between atoms: C3_3  and  N1_5 
REMARK    2  A    between atoms: C6_8  and  N2_9 
REMARK    3  A    between atoms: C7_12  and  C8_13 
REMARK    4  A    between atoms: C9_14  and  C10_15 
REMARK    5  A    between atoms: C12_17  and  C13_18 
REMARK       I    between atoms: C13_18  and  N4_20 
REMARK    6  A    between atoms: N4_20  and  C14_21 
REMARK    7  A    between atoms: C17_24  and  C18_25 
REMARK    8  A    between atoms: C18_25  and  N5_26 
REMARK    9  A    between atoms: C24_33  and  C25_34 
REMARK   10  A    between atoms: C32_44  and  N7_45 
ROOT
HETATM    1  C10 UNL     1       1.220   1.163   2.749  1.00  0.00     0.025 A 
HETATM    2  C11 UNL     1      -0.111   0.787   2.526  1.00  0.00     0.038 A 
HETATM    3  C12 UNL     1      -1.079   1.048   3.500  1.00  0.00     0.033 A 
HETATM    4  C27 UNL     1      -0.724   1.674   4.697  1.00  0.00     0.017 A 
HETATM    5  C28 UNL     1       0.597   2.066   4.912  1.00  0.00     0.009 A 
HETATM    6  C29 UNL     1       1.582   1.815   3.944  1.00  0.00    -0.043 A 
HETATM    7  C30 UNL     1       3.001   2.234   4.219  1.00  0.00     0.049 C 
ENDROOT
BRANCH   1   8
HETATM    8  C9  UNL     1       2.205   0.853   1.754  1.00  0.00    -0.059 C 
HETATM    9  C8  UNL     1       3.081   0.596   0.973  1.00  0.00    -0.041 C 
BRANCH   9  10
HETATM   10  C7  UNL     1       4.170   0.331   0.093  1.00  0.00     0.119 A 
HETATM   11  N3  UNL     1       4.903  -0.762   0.316  1.00  0.00    -0.287 N 
HETATM   12  N2  UNL     1       5.871  -0.697  -0.634  1.00  0.00    -0.270 N 
ATOM     13  H3  UNL     1       4.768  -1.477   1.031  1.00  0.00     0.188 HD
HETATM   14  C34 UNL     1       5.752   0.410  -1.440  1.00  0.00     0.140 A 
HETATM   15  C31 UNL     1       4.640   1.103  -0.985  1.00  0.00     0.084 A 
HETATM   16  N9  UNL     1       6.544   0.774  -2.464  1.00  0.00    -0.337 N 
HETATM   17  C32 UNL     1       4.310   2.289  -1.645  1.00  0.00     0.095 A 
HETATM   18  N8  UNL     1       5.078   2.685  -2.680  1.00  0.00    -0.342 N 
HETATM   19  C33 UNL     1       6.129   1.919  -3.029  1.00  0.00     0.183 A 
ATOM     20  H8  UNL     1       4.868   3.545  -3.187  1.00  0.00     0.167 HD
ATOM     21  H9  UNL     1       7.360   0.245  -2.773  1.00  0.00     0.168 HD
BRANCH  12  22
HETATM   22  C6  UNL     1       6.904  -1.732  -0.621  1.00  0.00     0.113 C 
HETATM   23  C5  UNL     1       7.868  -1.498   0.556  1.00  0.00     0.047 C 
HETATM   24  C4  UNL     1       9.208  -2.178   0.319  1.00  0.00     0.128 C 
HETATM   25  N1  UNL     1       9.861  -1.636  -0.872  1.00  0.00    -0.349 N 
HETATM   26  C3  UNL     1      11.245  -1.501  -0.849  1.00  0.00     0.242 C 
HETATM   27  C36 UNL     1       9.000  -1.284  -2.003  1.00  0.00     0.128 C 
HETATM   28  O1  UNL     1      11.939  -1.941   0.069  1.00  0.00    -0.268 OA
HETATM   29  C35 UNL     1       7.644  -1.983  -1.948  1.00  0.00     0.047 C 
BRANCH  26  30
HETATM   30  C2  UNL     1      11.879  -0.769  -1.982  1.00  0.00     0.064 C 
HETATM   31  C1  UNL     1      13.215  -0.721  -2.090  1.00  0.00     0.017 C 
ENDBRANCH  26  30
ENDBRANCH  12  22
BRANCH  17  32
HETATM   32  N7  UNL     1       3.243   3.107  -1.311  1.00  0.00    -0.288 NA
HETATM   33  H32 UNL     1       2.953   3.090  -0.341  1.00  0.00     0.125 HD
HETATM   34  H33 UNL     1       3.336   4.023  -1.739  1.00  0.00     0.125 HD
ENDBRANCH  17  32
ENDBRANCH   9  10
ENDBRANCH   1   8
BRANCH   3  35
HETATM   35  C13 UNL     1      -2.494   0.642   3.319  1.00  0.00     0.256 C 
HETATM   36  O2  UNL     1      -3.035   0.044   4.240  1.00  0.00    -0.267 OA
HETATM   37  N4  UNL     1      -3.059   1.034   2.121  1.00  0.00    -0.323 N 
HETATM   38  H10 UNL     1      -2.474   1.565   1.491  1.00  0.00     0.169 HD
BRANCH  37  39
HETATM   39  C14 UNL     1      -4.405   0.872   1.726  1.00  0.00     0.035 A 
HETATM   40  C15 UNL     1      -5.365   0.221   2.493  1.00  0.00     0.030 A 
HETATM   41  C16 UNL     1      -6.690   0.130   2.053  1.00  0.00     0.012 A 
HETATM   42  C17 UNL     1      -7.090   0.689   0.828  1.00  0.00    -0.015 A 
HETATM   43  C24 UNL     1      -6.127   1.350   0.035  1.00  0.00     0.058 A 
HETATM   44  C26 UNL     1      -4.791   1.420   0.496  1.00  0.00     0.046 A 
BRANCH  42  45
HETATM   45  C18 UNL     1      -8.546   0.574   0.415  1.00  0.00     0.311 C 
BRANCH  45  46
HETATM   46  N5  UNL     1      -8.711  -0.164  -0.839  1.00  0.00     0.096 N 
HETATM   47  C19 UNL     1      -8.551  -1.625  -0.671  1.00  0.00     0.303 C 
HETATM   48  C20 UNL     1      -9.882  -2.410  -0.602  1.00  0.00     0.302 C 
HETATM   49  N6  UNL     1     -10.784  -2.202  -1.753  1.00  0.00     0.087 N 
HETATM   50  C21 UNL     1     -10.730  -3.313  -2.699  1.00  0.00     0.310 C 
HETATM   51  C22 UNL     1     -10.492  -0.927  -2.443  1.00  0.00     0.302 C 
HETATM   52  C23 UNL     1     -10.014   0.162  -1.461  1.00  0.00     0.303 C 
ENDBRANCH  45  46
ENDBRANCH  42  45
BRANCH  43  53
HETATM   53  C25 UNL     1      -6.461   1.977  -1.306  1.00  0.00     0.418 C 
HETATM   54  F1  UNL     1      -7.659   2.627  -1.339  1.00  0.00    -0.166 F 
HETATM   55  F2  UNL     1      -5.543   2.935  -1.664  1.00  0.00    -0.166 F 
HETATM   56  F3  UNL     1      -6.460   1.088  -2.336  1.00  0.00    -0.166 F 
ENDBRANCH  43  53
ENDBRANCH  37  39
ENDBRANCH   3  35
TORSDOF 10
