REMARK  6 active torsions:
REMARK  status: ('A' for Active; 'I' for Inactive)
REMARK    1  A    between atoms: N2_5  and  C4_6 
REMARK    2  A    between atoms: C7_9  and  N3_10 
REMARK    3  A    between atoms: N3_10  and  C8_11 
REMARK    4  A    between atoms: C11_18  and  N6_19 
REMARK    5  A    between atoms: N6_19  and  C12_20 
REMARK    6  A    between atoms: N7_26  and  C18_27 
ROOT
HETATM    1  C8  UNL     1      -0.348  -0.069   0.283  1.00  0.00     0.684 A 
HETATM    2  N4  UNL     1      -0.244   1.273   0.190  1.00  0.00    -0.199 N 
ATOM      3  H4  UNL     1       0.674   1.717   0.186  1.00  0.00     0.183 HD
HETATM    4  C9  UNL     1      -1.367   2.029   0.102  1.00  0.00     0.140 A 
HETATM    5  C10 UNL     1      -2.605   1.410   0.112  1.00  0.00     0.110 A 
HETATM    6  N5  UNL     1      -3.881   1.884   0.015  1.00  0.00    -0.186 N 
ATOM      7  H5  UNL     1      -4.168   2.860  -0.060  1.00  0.00     0.184 HD
HETATM    8  C11 UNL     1      -4.669   0.826   0.038  1.00  0.00     0.687 A 
HETATM    9  N7  UNL     1      -3.919  -0.330   0.241  1.00  0.00    -0.160 N 
HETATM   10  C23 UNL     1      -2.595   0.036   0.227  1.00  0.00     0.168 A 
HETATM   11  N8  UNL     1      -1.511  -0.751   0.306  1.00  0.00    -0.173 N 
ATOM     12  H8  UNL     1      -1.562  -1.767   0.377  1.00  0.00     0.186 HD
ENDROOT
BRANCH   1  13
HETATM   13  N3  UNL     1       0.783  -0.880   0.365  1.00  0.00    -0.192 N 
HETATM   14  H10 UNL     1       0.489  -1.844   0.419  1.00  0.00     0.184 HD
BRANCH  13  15
HETATM   15  C7  UNL     1       2.159  -0.639   0.365  1.00  0.00     0.049 A 
HETATM   16  C6  UNL     1       3.032  -1.730   0.439  1.00  0.00     0.032 A 
HETATM   17  C5  UNL     1       4.424  -1.554   0.437  1.00  0.00     0.031 A 
HETATM   18  C4  UNL     1       5.009  -0.283   0.353  1.00  0.00     0.030 A 
HETATM   19  C25 UNL     1       4.129   0.804   0.301  1.00  0.00     0.031 A 
HETATM   20  C24 UNL     1       2.734   0.629   0.301  1.00  0.00     0.032 A 
BRANCH  18  21
HETATM   21  N2  UNL     1       6.407  -0.154   0.363  1.00  0.00    -0.378 N 
HETATM   22  C3  UNL     1       6.977   1.185   0.618  1.00  0.00     0.153 C 
HETATM   23  C2  UNL     1       8.510   1.105   0.808  1.00  0.00     0.291 C 
HETATM   24  N1  UNL     1       9.249   0.433  -0.283  1.00  0.00     0.087 N 
HETATM   25  C1  UNL     1       9.280   1.247  -1.496  1.00  0.00     0.310 C 
HETATM   26  C27 UNL     1       8.626  -0.887  -0.527  1.00  0.00     0.291 C 
HETATM   27  C26 UNL     1       7.090  -0.883  -0.732  1.00  0.00     0.153 C 
ENDBRANCH  18  21
ENDBRANCH  13  15
ENDBRANCH   1  13
BRANCH   9  28
HETATM   28  C18 UNL     1      -4.437  -1.672   0.395  1.00  0.00     0.109 C 
HETATM   29  C19 UNL     1      -4.437  -2.480  -0.904  1.00  0.00     0.026 C 
HETATM   30  C20 UNL     1      -4.514  -3.946  -0.470  1.00  0.00     0.002 C 
HETATM   31  C21 UNL     1      -4.341  -3.961   1.049  1.00  0.00     0.002 C 
HETATM   32  C22 UNL     1      -3.738  -2.605   1.391  1.00  0.00     0.026 C 
ENDBRANCH   9  28
BRANCH   8  33
HETATM   33  N6  UNL     1      -6.014   0.771  -0.134  1.00  0.00    -0.191 N 
HETATM   34  H12 UNL     1      -6.471  -0.123  -0.266  1.00  0.00     0.184 HD
BRANCH  33  35
HETATM   35  C12 UNL     1      -6.911   1.843  -0.343  1.00  0.00     0.049 A 
HETATM   36  C13 UNL     1      -6.579   3.191  -0.168  1.00  0.00     0.030 A 
HETATM   37  C14 UNL     1      -7.515   4.206  -0.399  1.00  0.00     0.002 A 
HETATM   38  C15 UNL     1      -8.805   3.889  -0.814  1.00  0.00     0.000 A 
HETATM   39  C16 UNL     1      -9.161   2.556  -0.992  1.00  0.00     0.002 A 
HETATM   40  C17 UNL     1      -8.223   1.546  -0.756  1.00  0.00     0.030 A 
ENDBRANCH  33  35
ENDBRANCH   8  33
TORSDOF 6
