REMARK  4 active torsions:
REMARK  status: ('A' for Active; 'I' for Inactive)
REMARK    1  A    between atoms: C8_8  and  N1_9 
REMARK    2  A    between atoms: C12_16  and  N3_17 
REMARK    3  A    between atoms: N3_17  and  C13_18 
REMARK    4  A    between atoms: C16_21  and  N4_22 
ROOT
HETATM    1  N1  UNL     1      -4.718   1.134   0.423  1.00  0.00    -0.108 N 
HETATM    2  C9  UNL     1      -4.183   2.076   1.294  1.00  0.00     0.282 A 
HETATM    3  O1  UNL     1      -4.788   3.029   1.781  1.00  0.00    -0.266 OA
HETATM    4  C10 UNL     1      -2.753   1.941   1.622  1.00  0.00     0.095 A 
HETATM    5  C11 UNL     1      -2.110   2.830   2.446  1.00  0.00     0.127 A 
HETATM    6  N2  UNL     1      -0.791   2.746   2.739  1.00  0.00    -0.201 N 
ATOM      7  H2  UNL     1      -0.350   3.406   3.379  1.00  0.00     0.183 HD
HETATM    8  C12 UNL     1      -0.082   1.764   2.158  1.00  0.00     0.684 A 
HETATM    9  N6  UNL     1      -0.638   0.835   1.365  1.00  0.00    -0.174 N 
ATOM     10  H6  UNL     1      -0.081   0.081   0.963  1.00  0.00     0.186 HD
HETATM   11  C24 UNL     1      -1.965   0.935   1.119  1.00  0.00     0.162 A 
HETATM   12  N7  UNL     1      -2.604  -0.020   0.307  1.00  0.00    -0.128 N 
HETATM   13  C25 UNL     1      -2.102  -1.172  -0.264  1.00  0.00     0.086 A 
HETATM   14  C26 UNL     1      -0.854  -1.813  -0.233  1.00  0.00     0.033 A 
HETATM   15  C27 UNL     1      -0.721  -3.002  -0.957  1.00  0.00     0.002 A 
HETATM   16  C28 UNL     1      -1.790  -3.534  -1.678  1.00  0.00     0.002 A 
HETATM   17  C29 UNL     1      -3.032  -2.892  -1.688  1.00  0.00     0.032 A 
HETATM   18  C30 UNL     1      -3.185  -1.699  -0.964  1.00  0.00     0.077 A 
HETATM   19  N8  UNL     1      -4.301  -0.919  -0.815  1.00  0.00    -0.188 N 
ATOM     20  H8  UNL     1      -5.223  -1.081  -1.219  1.00  0.00     0.184 HD
HETATM   21  C31 UNL     1      -3.937   0.082  -0.042  1.00  0.00     0.701 A 
ENDROOT
BRANCH   8  22
HETATM   22  N3  UNL     1       1.277   1.758   2.450  1.00  0.00    -0.192 N 
HETATM   23  H11 UNL     1       1.481   2.508   3.095  1.00  0.00     0.184 HD
BRANCH  22  24
HETATM   24  C13 UNL     1       2.384   1.226   1.777  1.00  0.00     0.049 A 
HETATM   25  C14 UNL     1       2.316   0.605   0.532  1.00  0.00     0.032 A 
HETATM   26  C15 UNL     1       3.457   0.046  -0.066  1.00  0.00     0.031 A 
HETATM   27  C16 UNL     1       4.715   0.075   0.550  1.00  0.00     0.030 A 
HETATM   28  C22 UNL     1       4.768   0.681   1.810  1.00  0.00     0.031 A 
HETATM   29  C23 UNL     1       3.629   1.240   2.414  1.00  0.00     0.032 A 
BRANCH  27  30
HETATM   30  N4  UNL     1       5.829  -0.484  -0.050  1.00  0.00    -0.378 N 
HETATM   31  C17 UNL     1       7.056  -0.778   0.708  1.00  0.00     0.153 C 
HETATM   32  C18 UNL     1       7.932  -1.797  -0.058  1.00  0.00     0.291 C 
HETATM   33  N5  UNL     1       8.380  -1.330  -1.390  1.00  0.00     0.087 N 
HETATM   34  C19 UNL     1       8.643  -2.468  -2.268  1.00  0.00     0.310 C 
HETATM   35  C20 UNL     1       7.403  -0.394  -1.985  1.00  0.00     0.291 C 
HETATM   36  C21 UNL     1       5.936  -0.567  -1.519  1.00  0.00     0.153 C 
ENDBRANCH  27  30
ENDBRANCH  22  24
ENDBRANCH   8  22
BRANCH   1  37
HETATM   37  C8  UNL     1      -6.084   1.159   0.033  1.00  0.00     0.072 A 
HETATM   38  C2  UNL     1      -6.436   1.449  -1.309  1.00  0.00    -0.034 A 
HETATM   39  C1  UNL     1      -5.412   1.729  -2.376  1.00  0.00     0.050 C 
HETATM   40  C3  UNL     1      -7.792   1.481  -1.672  1.00  0.00     0.009 A 
HETATM   41  C4  UNL     1      -8.790   1.270  -0.724  1.00  0.00     0.001 A 
HETATM   42  C5  UNL     1      -8.445   1.006   0.598  1.00  0.00     0.009 A 
HETATM   43  C6  UNL     1      -7.099   0.933   0.992  1.00  0.00    -0.034 A 
HETATM   44  C7  UNL     1      -6.805   0.626   2.437  1.00  0.00     0.050 C 
ENDBRANCH   1  37
TORSDOF 4
