REMARK  8 active torsions:
REMARK  status: ('A' for Active; 'I' for Inactive)
REMARK    1  A    between atoms: O1_2  and  C2_3 
REMARK    2  A    between atoms: C6_11  and  N3_12 
REMARK    3  A    between atoms: N3_12  and  C7_13 
REMARK    4  A    between atoms: C15_23  and  O2_24 
REMARK    5  A    between atoms: O2_24  and  C16_25 
REMARK    6  A    between atoms: C16_25  and  C17_26 
REMARK    7  A    between atoms: C17_26  and  C18_27 
REMARK    8  A    between atoms: C18_27  and  N4_28 
ROOT
HETATM    1  C2  UNL     1      -0.682  -3.445  -2.148  1.00  0.00     0.103 A 
HETATM    2  C3  UNL     1      -2.069  -3.541  -2.297  1.00  0.00     0.070 A 
HETATM    3  C4  UNL     1      -2.927  -2.514  -1.918  1.00  0.00     0.050 A 
HETATM    4  N1  UNL     1      -4.240  -2.689  -2.088  1.00  0.00    -0.351 N 
ATOM      5  H1  UNL     1      -4.617  -3.550  -2.485  1.00  0.00     0.166 HD
HETATM    6  C5  UNL     1      -5.037  -1.683  -1.713  1.00  0.00     0.182 A 
HETATM    7  N2  UNL     1      -4.643  -0.518  -1.194  1.00  0.00    -0.338 N 
ATOM      8  H2  UNL     1      -5.315   0.203  -0.931  1.00  0.00     0.168 HD
HETATM    9  C6  UNL     1      -3.320  -0.339  -1.034  1.00  0.00     0.119 A 
HETATM   10  C13 UNL     1      -2.387  -1.339  -1.378  1.00  0.00     0.038 A 
HETATM   11  C14 UNL     1      -0.985  -1.236  -1.211  1.00  0.00     0.057 A 
HETATM   12  C15 UNL     1      -0.144  -2.287  -1.578  1.00  0.00     0.103 A 
ENDROOT
BRANCH   9  13
HETATM   13  N3  UNL     1      -2.843   0.893  -0.509  1.00  0.00    -0.342 N 
HETATM   14  H6  UNL     1      -2.152   1.273  -1.149  1.00  0.00     0.167 HD
BRANCH  13  15
HETATM   15  C7  UNL     1      -3.572   1.916   0.138  1.00  0.00     0.035 A 
HETATM   16  C8  UNL     1      -3.037   3.217   0.162  1.00  0.00     0.032 A 
HETATM   17  C9  UNL     1      -3.685   4.251   0.842  1.00  0.00     0.046 A 
HETATM   18  C10 UNL     1      -4.864   3.987   1.528  1.00  0.00     0.138 A 
HETATM   19  F1  UNL     1      -5.471   4.991   2.176  1.00  0.00    -0.204 F 
HETATM   20  C11 UNL     1      -5.393   2.700   1.548  1.00  0.00     0.074 A 
HETATM   21 CL1  UNL     1      -6.843   2.361   2.417  1.00  0.00    -0.081 Cl
HETATM   22  C12 UNL     1      -4.742   1.668   0.869  1.00  0.00     0.056 A 
ENDBRANCH  13  15
ENDBRANCH   9  13
BRANCH  12  23
HETATM   23  O2  UNL     1       1.219  -2.181  -1.479  1.00  0.00    -0.348 OA
BRANCH  23  24
HETATM   24  C16 UNL     1       1.696  -1.831  -0.174  1.00  0.00     0.177 C 
BRANCH  24  25
HETATM   25  C17 UNL     1       2.401  -0.480  -0.250  1.00  0.00     0.057 C 
BRANCH  25  26
HETATM   26  C18 UNL     1       2.991  -0.081   1.106  1.00  0.00     0.274 C 
BRANCH  26  27
HETATM   27  N4  UNL     1       3.563   1.270   1.065  1.00  0.00     0.092 N 
HETATM   28  C19 UNL     1       4.837   1.353   0.315  1.00  0.00     0.298 C 
HETATM   29  C20 UNL     1       6.074   1.573   1.204  1.00  0.00     0.198 C 
HETATM   30  O3  UNL     1       5.984   2.750   2.014  1.00  0.00    -0.388 OA
HETATM   31  C21 UNL     1       4.644   3.052   2.424  1.00  0.00     0.198 C 
HETATM   32  C22 UNL     1       3.724   1.822   2.427  1.00  0.00     0.298 C 
ENDBRANCH  26  27
ENDBRANCH  25  26
ENDBRANCH  24  25
ENDBRANCH  23  24
ENDBRANCH  12  23
BRANCH   1  33
HETATM   33  O1  UNL     1       0.215  -4.419  -2.501  1.00  0.00    -0.353 OA
HETATM   34  C1  UNL     1      -0.293  -5.570  -3.163  1.00  0.00     0.210 C 
ENDBRANCH   1  33
TORSDOF 8
