REMARK  3 active torsions:
REMARK  status: ('A' for Active; 'I' for Inactive)
REMARK    1  A    between atoms: C3_4  and  C4_5 
REMARK    2  A    between atoms: C13_17  and  N2_18 
REMARK    3  A    between atoms: N2_18  and  C14_19 
ROOT
HETATM    1  F1  UNL     1       0.642  -1.487  -2.059  1.00  0.00    -0.204 F 
HETATM    2  C1  UNL     1       0.095  -0.823  -1.028  1.00  0.00     0.143 A 
HETATM    3  C2  UNL     1      -1.293  -0.756  -0.932  1.00  0.00     0.059 A 
HETATM    4  C3  UNL     1      -1.904  -0.080   0.135  1.00  0.00     0.001 A 
HETATM    5  C11 UNL     1      -1.066   0.508   1.097  1.00  0.00     0.017 A 
HETATM    6  C12 UNL     1       0.332   0.434   0.990  1.00  0.00     0.034 A 
HETATM    7  C13 UNL     1       0.937  -0.211  -0.090  1.00  0.00     0.072 A 
ENDROOT
BRANCH   7   8
HETATM    8  N2  UNL     1       2.337  -0.369  -0.214  1.00  0.00    -0.339 N 
HETATM    9  H8  UNL     1       2.564  -0.730  -1.139  1.00  0.00     0.167 HD
BRANCH   8  10
HETATM   10  C14 UNL     1       3.364   0.508   0.222  1.00  0.00     0.119 A 
HETATM   11  N3  UNL     1       3.038   1.744   0.641  1.00  0.00    -0.338 N 
HETATM   12  C15 UNL     1       4.044   2.540   1.013  1.00  0.00     0.182 A 
ATOM     13  H3  UNL     1       2.068   2.059   0.673  1.00  0.00     0.168 HD
HETATM   14  N4  UNL     1       5.343   2.224   1.014  1.00  0.00    -0.351 N 
HETATM   15  C16 UNL     1       5.662   0.990   0.614  1.00  0.00     0.048 A 
ATOM     16  H4  UNL     1       6.056   2.893   1.306  1.00  0.00     0.166 HD
HETATM   17  C17 UNL     1       7.001   0.625   0.614  1.00  0.00     0.054 A 
HETATM   18  C21 UNL     1       4.700   0.056   0.200  1.00  0.00     0.035 A 
HETATM   19  C18 UNL     1       7.405  -0.649   0.219  1.00  0.00     0.036 A 
HETATM   20 CL1  UNL     1       9.075  -1.061   0.236  1.00  0.00    -0.084 Cl
HETATM   21  C19 UNL     1       6.467  -1.590  -0.183  1.00  0.00     0.025 A 
HETATM   22  C20 UNL     1       5.118  -1.242  -0.192  1.00  0.00     0.019 A 
ENDBRANCH   8  10
ENDBRANCH   7   8
BRANCH   4  23
HETATM   23  C4  UNL     1      -3.381  -0.036   0.194  1.00  0.00     0.085 A 
HETATM   24  N1  UNL     1      -4.160  -0.671  -0.661  1.00  0.00    -0.349 N 
HETATM   25  C5  UNL     1      -5.494  -0.447  -0.368  1.00  0.00     0.050 A 
ATOM     26  H1  UNL     1      -3.825  -1.248  -1.432  1.00  0.00     0.166 HD
HETATM   27  C6  UNL     1      -6.595  -0.972  -1.074  1.00  0.00     0.031 A 
HETATM   28  C10 UNL     1      -5.732   0.379   0.729  1.00  0.00     0.033 A 
HETATM   29  C7  UNL     1      -7.896  -0.661  -0.665  1.00  0.00     0.002 A 
HETATM   30  C8  UNL     1      -8.110   0.166   0.433  1.00  0.00     0.002 A 
HETATM   31  C9  UNL     1      -7.034   0.700   1.149  1.00  0.00     0.021 A 
HETATM   32  S1  UNL     1      -4.225   0.871   1.390  1.00  0.00    -0.070 SA
ENDBRANCH   4  23
TORSDOF 3
