REMARK  5 active torsions:
REMARK  status: ('A' for Active; 'I' for Inactive)
REMARK    1  A    between atoms: O1_2  and  C2_3 
REMARK    2  A    between atoms: C4_5  and  N1_6 
REMARK    3  A    between atoms: N1_6  and  C5_7 
REMARK    4  A    between atoms: N3_14  and  C9_15 
REMARK    5  A    between atoms: C27_38  and  N7_39 
ROOT
HETATM    1  C5  UNL     1      -0.581   2.784  -0.281  1.00  0.00     0.684 A 
HETATM    2  N2  UNL     1      -1.463   3.730  -0.642  1.00  0.00    -0.201 N 
ATOM      3  H2  UNL     1      -1.156   4.671  -0.888  1.00  0.00     0.183 HD
HETATM    4  C6  UNL     1      -2.773   3.393  -0.669  1.00  0.00     0.127 A 
HETATM    5  C7  UNL     1      -3.236   2.147  -0.324  1.00  0.00     0.095 A 
HETATM    6  C8  UNL     1      -4.666   1.802  -0.383  1.00  0.00     0.282 A 
HETATM    7  O2  UNL     1      -5.444   2.678  -0.753  1.00  0.00    -0.266 OA
HETATM    8  N3  UNL     1      -5.012   0.497  -0.045  1.00  0.00    -0.108 N 
HETATM    9  C17 UNL     1      -4.040  -0.397   0.392  1.00  0.00     0.701 A 
HETATM   10  N4  UNL     1      -4.203  -1.640   0.793  1.00  0.00    -0.188 N 
ATOM     11  H4  UNL     1      -5.076  -2.166   0.830  1.00  0.00     0.184 HD
HETATM   12  C18 UNL     1      -2.957  -2.081   1.150  1.00  0.00     0.077 A 
HETATM   13  C19 UNL     1      -2.574  -3.336   1.649  1.00  0.00     0.032 A 
HETATM   14  C20 UNL     1      -1.230  -3.556   1.970  1.00  0.00     0.002 A 
HETATM   15  C21 UNL     1      -0.286  -2.543   1.806  1.00  0.00     0.002 A 
HETATM   16  C22 UNL     1      -0.650  -1.287   1.309  1.00  0.00     0.033 A 
HETATM   17  C23 UNL     1      -1.997  -1.087   0.973  1.00  0.00     0.086 A 
HETATM   18  N5  UNL     1      -2.713  -0.022   0.464  1.00  0.00    -0.128 N 
HETATM   19  C24 UNL     1      -2.269   1.255   0.069  1.00  0.00     0.162 A 
HETATM   20  N6  UNL     1      -0.949   1.547   0.089  1.00  0.00    -0.174 N 
ATOM     21  H6  UNL     1      -0.258   0.853   0.375  1.00  0.00     0.186 HD
ENDROOT
BRANCH   1  22
HETATM   22  N1  UNL     1       0.752   3.178  -0.281  1.00  0.00    -0.192 N 
HETATM   23  H5  UNL     1       0.814   4.160  -0.511  1.00  0.00     0.184 HD
BRANCH  22  24
HETATM   24  C4  UNL     1       1.956   2.464  -0.304  1.00  0.00     0.052 A 
HETATM   25  C3  UNL     1       2.037   1.084  -0.520  1.00  0.00     0.068 A 
HETATM   26  C2  UNL     1       3.263   0.393  -0.489  1.00  0.00     0.091 A 
HETATM   27  C27 UNL     1       4.458   1.082  -0.197  1.00  0.00     0.044 A 
HETATM   28  C26 UNL     1       4.363   2.465   0.039  1.00  0.00     0.029 A 
HETATM   29  C25 UNL     1       3.142   3.143  -0.015  1.00  0.00     0.032 A 
BRANCH  26  30
HETATM   30  O1  UNL     1       3.321  -0.970  -0.650  1.00  0.00    -0.354 OA
HETATM   31  C1  UNL     1       2.382  -1.528  -1.563  1.00  0.00     0.210 C 
ENDBRANCH  26  30
BRANCH  27  32
HETATM   32  N7  UNL     1       5.746   0.525  -0.118  1.00  0.00    -0.278 NA
HETATM   33  C28 UNL     1       6.086  -0.591  -1.022  1.00  0.00     0.126 C 
HETATM   34  C29 UNL     1       7.612  -0.847  -0.968  1.00  0.00     0.286 C 
HETATM   35  N8  UNL     1       8.079  -1.165   0.404  1.00  0.00     0.086 N 
HETATM   36  C30 UNL     1       9.528  -1.343   0.426  1.00  0.00     0.310 C 
HETATM   37  C31 UNL     1       7.669  -0.079   1.325  1.00  0.00     0.286 C 
HETATM   38  C32 UNL     1       6.150   0.230   1.275  1.00  0.00     0.126 C 
ENDBRANCH  27  32
ENDBRANCH  22  24
ENDBRANCH   1  22
BRANCH   8  39
HETATM   39  C9  UNL     1      -6.360   0.048  -0.054  1.00  0.00     0.072 A 
HETATM   40  C10 UNL     1      -6.779  -0.932  -0.988  1.00  0.00    -0.034 A 
HETATM   41  C11 UNL     1      -5.849  -1.545  -2.001  1.00  0.00     0.050 C 
HETATM   42  C12 UNL     1      -8.116  -1.364  -0.978  1.00  0.00     0.009 A 
HETATM   43  C13 UNL     1      -9.036  -0.812  -0.093  1.00  0.00     0.001 A 
HETATM   44  C14 UNL     1      -8.633   0.168   0.809  1.00  0.00     0.009 A 
HETATM   45  C15 UNL     1      -7.297   0.599   0.854  1.00  0.00    -0.034 A 
HETATM   46  C16 UNL     1      -6.927   1.640   1.876  1.00  0.00     0.050 C 
ENDBRANCH   8  39
TORSDOF 5
