REMARK  6 active torsions:
REMARK  status: ('A' for Active; 'I' for Inactive)
REMARK    1  A    between atoms: C6_11  and  N4_12 
REMARK    2  A    between atoms: N4_12  and  C7_13 
REMARK    3  A    between atoms: C7_13  and  C8_14 
REMARK    4  A    between atoms: C8_14  and  N5_15 
REMARK    5  A    between atoms: C15_23  and  N6_24 
REMARK    6  A    between atoms: N6_24  and  C16_25 
ROOT
HETATM    1  N1  UNL     1      -6.558  -3.116   1.114  1.00  0.00    -0.191 NA
HETATM    2  C1  UNL     1      -5.413  -2.954   1.207  1.00  0.00     0.103 C 
HETATM    3  C2  UNL     1      -4.001  -2.754   1.286  1.00  0.00     0.087 A 
HETATM    4  C3  UNL     1      -3.267  -3.475   2.209  1.00  0.00     0.113 A 
HETATM    5  N2  UNL     1      -1.932  -3.351   2.373  1.00  0.00    -0.363 N 
ATOM      6  H2  UNL     1      -1.436  -3.904   3.072  1.00  0.00     0.165 HD
HETATM    7  C4  UNL     1      -1.273  -2.475   1.586  1.00  0.00     0.060 A 
HETATM    8  C5  UNL     1       0.096  -2.305   1.700  1.00  0.00     0.119 A 
HETATM    9  N3  UNL     1       0.863  -1.460   0.963  1.00  0.00    -0.355 N 
ATOM     10  H3  UNL     1       1.870  -1.394   1.111  1.00  0.00     0.166 HD
HETATM   11  C6  UNL     1       0.246  -0.715   0.033  1.00  0.00     0.080 A 
HETATM   12  C13 UNL     1      -1.125  -0.818  -0.173  1.00  0.00     0.058 A 
HETATM   13  C14 UNL     1      -1.913  -1.692   0.613  1.00  0.00     0.023 A 
HETATM   14  C15 UNL     1      -3.322  -1.842   0.462  1.00  0.00     0.067 A 
ENDROOT
BRANCH  14  15
HETATM   15  N6  UNL     1      -4.039  -1.016  -0.454  1.00  0.00    -0.354 N 
HETATM   16  H17 UNL     1      -4.804  -1.516  -0.910  1.00  0.00     0.166 HD
BRANCH  15  17
HETATM   17  C16 UNL     1      -4.419   0.335  -0.236  1.00  0.00     0.034 A 
HETATM   18  C17 UNL     1      -5.219   0.966  -1.202  1.00  0.00     0.032 A 
HETATM   19  C18 UNL     1      -5.573   2.312  -1.076  1.00  0.00     0.046 A 
HETATM   20  C19 UNL     1      -5.111   3.044   0.011  1.00  0.00     0.138 A 
HETATM   21  F1  UNL     1      -5.456   4.336   0.113  1.00  0.00    -0.204 F 
HETATM   22  C20 UNL     1      -4.295   2.445   0.966  1.00  0.00     0.074 A 
HETATM   23 CL1  UNL     1      -3.702   3.351   2.305  1.00  0.00    -0.081 Cl
HETATM   24  C21 UNL     1      -3.943   1.098   0.840  1.00  0.00     0.056 A 
ENDBRANCH  15  17
ENDBRANCH  14  15
BRANCH  11  25
HETATM   25  N4  UNL     1       0.979   0.151  -0.793  1.00  0.00    -0.277 NA
HETATM   26  H3  UNL     1       0.537   1.067  -0.790  1.00  0.00     0.129 HD
BRANCH  25  27
HETATM   27  C7  UNL     1       2.409   0.231  -0.469  1.00  0.00     0.124 C 
BRANCH  27  28
HETATM   28  C8  UNL     1       3.117   1.181  -1.456  1.00  0.00     0.287 C 
BRANCH  28  29
HETATM   29  N5  UNL     1       4.560   1.407  -1.330  1.00  0.00     0.093 N 
HETATM   30  C9  UNL     1       5.410   0.257  -1.675  1.00  0.00     0.298 C 
HETATM   31  C10 UNL     1       5.808  -0.648  -0.498  1.00  0.00     0.198 C 
HETATM   32  O1  UNL     1       6.360   0.112   0.582  1.00  0.00    -0.388 OA
HETATM   33  C11 UNL     1       5.410   1.077   1.044  1.00  0.00     0.198 C 
HETATM   34  C12 UNL     1       4.998   2.043  -0.079  1.00  0.00     0.298 C 
ENDBRANCH  28  29
ENDBRANCH  27  28
ENDBRANCH  25  27
ENDBRANCH  11  25
TORSDOF 6
