REMARK  7 active torsions:
REMARK  status: ('A' for Active; 'I' for Inactive)
REMARK    1  A    between atoms: O1_2  and  C2_3 
REMARK    2  A    between atoms: C6_11  and  N3_12 
REMARK    3  A    between atoms: N3_12  and  C7_13 
REMARK    4  A    between atoms: C15_23  and  N4_24 
REMARK       I    between atoms: N4_24  and  C16_25 
REMARK    5  A    between atoms: C16_25  and  C17_27 
REMARK    6  A    between atoms: C18_29  and  C19_30 
REMARK    7  A    between atoms: C19_30  and  N5_31 
ROOT
HETATM    1  C2  UNL     1       0.560  -2.212   0.337  1.00  0.00     0.097 A 
HETATM    2  C3  UNL     1      -0.448  -3.166   0.176  1.00  0.00     0.069 A 
HETATM    3  C4  UNL     1      -1.770  -2.805  -0.053  1.00  0.00     0.049 A 
HETATM    4  N1  UNL     1      -2.672  -3.778  -0.196  1.00  0.00    -0.351 N 
ATOM      5  H1  UNL     1      -2.409  -4.762  -0.149  1.00  0.00     0.166 HD
HETATM    6  C5  UNL     1      -3.937  -3.400  -0.404  1.00  0.00     0.182 A 
HETATM    7  N2  UNL     1      -4.379  -2.144  -0.490  1.00  0.00    -0.338 N 
ATOM      8  H2  UNL     1      -5.365  -1.936  -0.650  1.00  0.00     0.168 HD
HETATM    9  C6  UNL     1      -3.467  -1.164  -0.356  1.00  0.00     0.119 A 
HETATM   10  C13 UNL     1      -2.104  -1.446  -0.122  1.00  0.00     0.037 A 
HETATM   11  C14 UNL     1      -1.086  -0.473   0.049  1.00  0.00     0.050 A 
HETATM   12  C15 UNL     1       0.239  -0.847   0.266  1.00  0.00     0.069 A 
ENDROOT
BRANCH  12  13
HETATM   13  N4  UNL     1       1.299   0.073   0.421  1.00  0.00    -0.319 N 
HETATM   14  C16 UNL     1       1.253   1.449   0.349  1.00  0.00     0.284 C 
HETATM   15  O2  UNL     1       0.255   2.136   0.159  1.00  0.00    -0.265 OA
HETATM   16  H11 UNL     1       2.190  -0.370   0.632  1.00  0.00     0.169 HD
BRANCH  14  17
HETATM   17  C17 UNL     1       2.578   2.108   0.554  1.00  0.00     0.182 C 
HETATM   18  F2  UNL     1       2.518   3.297   1.191  1.00  0.00    -0.201 F 
HETATM   19  C18 UNL     1       3.747   1.643   0.091  1.00  0.00     0.051 C 
BRANCH  19  20
HETATM   20  C19 UNL     1       5.056   2.342   0.300  1.00  0.00     0.302 C 
BRANCH  20  21
HETATM   21  N5  UNL     1       6.044   1.443   0.917  1.00  0.00     0.083 N 
HETATM   22  C20 UNL     1       6.651   0.540  -0.066  1.00  0.00     0.309 C 
HETATM   23  C21 UNL     1       7.099   2.226   1.569  1.00  0.00     0.309 C 
ENDBRANCH  20  21
ENDBRANCH  19  20
ENDBRANCH  14  17
ENDBRANCH  12  13
BRANCH   1  24
HETATM   24  O1  UNL     1       1.888  -2.495   0.559  1.00  0.00    -0.354 OA
HETATM   25  C1  UNL     1       2.241  -3.866   0.714  1.00  0.00     0.210 C 
ENDBRANCH   1  24
BRANCH   9  26
HETATM   26  N3  UNL     1      -3.884   0.191  -0.444  1.00  0.00    -0.342 N 
HETATM   27  H6  UNL     1      -3.269   0.696  -1.075  1.00  0.00     0.167 HD
BRANCH  26  28
HETATM   28  C7  UNL     1      -5.192   0.724  -0.441  1.00  0.00     0.035 A 
HETATM   29  C8  UNL     1      -5.400   2.004  -0.987  1.00  0.00     0.032 A 
HETATM   30  C9  UNL     1      -6.662   2.603  -0.962  1.00  0.00     0.046 A 
HETATM   31  C10 UNL     1      -7.726   1.936  -0.368  1.00  0.00     0.138 A 
HETATM   32  F1  UNL     1      -8.930   2.527  -0.353  1.00  0.00    -0.204 F 
HETATM   33  C11 UNL     1      -7.537   0.685   0.210  1.00  0.00     0.074 A 
HETATM   34 CL1  UNL     1      -8.847  -0.134   0.972  1.00  0.00    -0.081 Cl
HETATM   35  C12 UNL     1      -6.273   0.089   0.185  1.00  0.00     0.056 A 
ENDBRANCH  26  28
ENDBRANCH   9  26
TORSDOF 7
