REMARK  4 active torsions:
REMARK  status: ('A' for Active; 'I' for Inactive)
REMARK    1  A    between atoms: C5_5  and  N1_6 
REMARK    2  A    between atoms: C9_13  and  N3_14 
REMARK    3  A    between atoms: N3_14  and  C10_15 
REMARK    4  A    between atoms: C13_18  and  N4_19 
ROOT
HETATM    1  N1  UNL     1      -4.992  -0.592  -0.071  1.00  0.00    -0.110 N 
HETATM    2  C6  UNL     1      -3.903  -1.445  -0.308  1.00  0.00     0.282 A 
HETATM    3  O1  UNL     1      -3.959  -2.652  -0.540  1.00  0.00    -0.266 OA
HETATM    4  C7  UNL     1      -2.550  -0.870  -0.219  1.00  0.00     0.095 A 
HETATM    5  C8  UNL     1      -1.418  -1.626  -0.406  1.00  0.00     0.127 A 
HETATM    6  N2  UNL     1      -0.165  -1.127  -0.304  1.00  0.00    -0.201 N 
ATOM      7  H2  UNL     1       0.651  -1.720  -0.455  1.00  0.00     0.183 HD
HETATM    8  C9  UNL     1      -0.029   0.171   0.001  1.00  0.00     0.684 A 
HETATM    9  N6  UNL     1      -1.082   0.986   0.187  1.00  0.00    -0.174 N 
ATOM     10  H6  UNL     1      -0.953   1.974   0.405  1.00  0.00     0.186 HD
HETATM   11  C21 UNL     1      -2.320   0.448   0.075  1.00  0.00     0.162 A 
HETATM   12  N7  UNL     1      -3.453   1.257   0.267  1.00  0.00    -0.128 N 
HETATM   13  C22 UNL     1      -3.521   2.610   0.538  1.00  0.00     0.086 A 
HETATM   14  C23 UNL     1      -2.563   3.617   0.738  1.00  0.00     0.033 A 
HETATM   15  C24 UNL     1      -3.031   4.912   0.992  1.00  0.00     0.002 A 
HETATM   16  C25 UNL     1      -4.397   5.191   1.037  1.00  0.00     0.002 A 
HETATM   17  C26 UNL     1      -5.337   4.177   0.831  1.00  0.00     0.032 A 
HETATM   18  C27 UNL     1      -4.886   2.874   0.580  1.00  0.00     0.077 A 
HETATM   19  N8  UNL     1      -5.615   1.739   0.354  1.00  0.00    -0.188 N 
ATOM     20  H8  UNL     1      -6.631   1.663   0.317  1.00  0.00     0.184 HD
HETATM   21  C28 UNL     1      -4.743   0.762   0.193  1.00  0.00     0.701 A 
ENDROOT
BRANCH   8  22
HETATM   22  N3  UNL     1       1.211   0.772   0.182  1.00  0.00    -0.192 N 
HETATM   23  H7  UNL     1       1.080   1.739   0.442  1.00  0.00     0.184 HD
BRANCH  22  24
HETATM   24  C10 UNL     1       2.532   0.316   0.125  1.00  0.00     0.049 A 
HETATM   25  C11 UNL     1       3.550   1.164   0.586  1.00  0.00     0.032 A 
HETATM   26  C12 UNL     1       4.894   0.762   0.593  1.00  0.00     0.026 A 
HETATM   27  C13 UNL     1       5.274  -0.503   0.128  1.00  0.00     0.010 A 
HETATM   28  C19 UNL     1       4.255  -1.345  -0.339  1.00  0.00     0.026 A 
HETATM   29  C20 UNL     1       2.908  -0.948  -0.335  1.00  0.00     0.032 A 
BRANCH  27  30
HETATM   30  N4  UNL     1       6.598  -0.964   0.115  1.00  0.00    -0.280 NA
HETATM   31  C14 UNL     1       7.525  -0.409   1.121  1.00  0.00     0.126 C 
HETATM   32  C15 UNL     1       8.889  -1.137   1.069  1.00  0.00     0.286 C 
HETATM   33  N5  UNL     1       9.533  -1.168  -0.265  1.00  0.00     0.086 N 
HETATM   34  C16 UNL     1      10.030   0.149  -0.658  1.00  0.00     0.310 C 
HETATM   35  C17 UNL     1       8.561  -1.702  -1.245  1.00  0.00     0.286 C 
HETATM   36  C18 UNL     1       7.167  -1.027  -1.250  1.00  0.00     0.126 C 
ENDBRANCH  27  30
ENDBRANCH  22  24
ENDBRANCH   8  22
BRANCH   1  37
HETATM   37  C5  UNL     1      -6.354  -1.051  -0.116  1.00  0.00     0.060 A 
HETATM   38  C4  UNL     1      -7.362  -0.486   0.684  1.00  0.00     0.031 A 
HETATM   39  C3  UNL     1      -8.685  -0.944   0.636  1.00  0.00     0.009 A 
HETATM   40  C2  UNL     1      -9.041  -1.996  -0.206  1.00  0.00    -0.062 A 
HETATM   41  C1  UNL     1     -10.464  -2.461  -0.297  1.00  0.00     0.048 C 
HETATM   42  C30 UNL     1      -8.054  -2.570  -1.009  1.00  0.00     0.009 A 
HETATM   43  C29 UNL     1      -6.731  -2.111  -0.956  1.00  0.00     0.031 A 
ENDBRANCH   1  37
TORSDOF 4
