REMARK  8 active torsions:
REMARK  status: ('A' for Active; 'I' for Inactive)
REMARK    1  A    between atoms: N2_5  and  C4_6 
REMARK    2  A    between atoms: C4_6  and  C5_7 
REMARK    3  A    between atoms: C8_10  and  N3_11 
REMARK       I    between atoms: N3_11  and  C9_12 
REMARK    4  A    between atoms: C9_12  and  C10_14 
REMARK    5  A    between atoms: C14_19  and  C15_20 
REMARK    6  A    between atoms: C16_21  and  C17_22 
REMARK    7  A    between atoms: C20_27  and  N5_28 
REMARK    8  A    between atoms: C28_37  and  C29_38 
ROOT
HETATM    1  C10 UNL     1       0.835  -3.418  -0.626  1.00  0.00     0.033 A 
HETATM    2  C11 UNL     1       1.469  -4.623  -0.948  1.00  0.00     0.019 A 
HETATM    3  C12 UNL     1       2.836  -4.640  -1.231  1.00  0.00     0.026 A 
HETATM    4  C13 UNL     1       3.575  -3.454  -1.178  1.00  0.00     0.052 A 
HETATM    5 CL1  UNL     1       5.267  -3.545  -1.524  1.00  0.00    -0.083 Cl
HETATM    6  C14 UNL     1       2.949  -2.245  -0.838  1.00  0.00     0.040 A 
HETATM    7  C26 UNL     1       1.575  -2.229  -0.563  1.00  0.00     0.039 A 
ENDROOT
BRANCH   1   8
HETATM    8  C9  UNL     1      -0.617  -3.449  -0.303  1.00  0.00     0.256 C 
HETATM    9  N3  UNL     1      -1.352  -2.401  -0.828  1.00  0.00    -0.323 N 
HETATM   10  H12 UNL     1      -0.869  -1.764  -1.449  1.00  0.00     0.169 HD
HETATM   11  O1  UNL     1      -1.033  -4.390   0.360  1.00  0.00    -0.267 OA
BRANCH   9  12
HETATM   12  C8  UNL     1      -2.735  -2.172  -0.668  1.00  0.00     0.035 A 
HETATM   13  C7  UNL     1      -3.556  -2.925   0.164  1.00  0.00     0.030 A 
HETATM   14  C6  UNL     1      -4.919  -2.631   0.272  1.00  0.00     0.012 A 
HETATM   15  C5  UNL     1      -5.497  -1.577  -0.454  1.00  0.00    -0.015 A 
HETATM   16  C28 UNL     1      -4.679  -0.809  -1.311  1.00  0.00     0.058 A 
HETATM   17  C27 UNL     1      -3.301  -1.116  -1.392  1.00  0.00     0.046 A 
BRANCH  15  18
HETATM   18  C4  UNL     1      -6.979  -1.303  -0.281  1.00  0.00     0.311 C 
BRANCH  18  19
HETATM   19  N2  UNL     1      -7.243   0.026   0.275  1.00  0.00     0.096 N 
HETATM   20  C3  UNL     1      -8.667   0.377   0.176  1.00  0.00     0.303 C 
HETATM   21  C2  UNL     1      -8.982   1.812   0.680  1.00  0.00     0.302 C 
HETATM   22  N1  UNL     1      -8.001   2.369   1.628  1.00  0.00     0.087 N 
HETATM   23  C1  UNL     1      -8.567   3.467   2.402  1.00  0.00     0.310 C 
HETATM   24  C31 UNL     1      -7.442   1.316   2.481  1.00  0.00     0.302 C 
HETATM   25  C30 UNL     1      -6.784   0.161   1.675  1.00  0.00     0.303 C 
ENDBRANCH  18  19
ENDBRANCH  15  18
BRANCH  16  26
HETATM   26  C29 UNL     1      -5.206   0.354  -2.128  1.00  0.00     0.418 C 
HETATM   27  F1  UNL     1      -4.412   0.607  -3.216  1.00  0.00    -0.166 F 
HETATM   28  F2  UNL     1      -6.448   0.157  -2.655  1.00  0.00    -0.166 F 
HETATM   29  F3  UNL     1      -5.243   1.527  -1.442  1.00  0.00    -0.166 F 
ENDBRANCH  16  26
ENDBRANCH   9  12
ENDBRANCH   1   8
BRANCH   6  30
HETATM   30  C15 UNL     1       3.686  -1.020  -0.733  1.00  0.00    -0.060 C 
HETATM   31  C16 UNL     1       4.357  -0.029  -0.623  1.00  0.00    -0.060 C 
BRANCH  31  32
HETATM   32  C17 UNL     1       5.216   1.102  -0.472  1.00  0.00     0.035 A 
HETATM   33  C18 UNL     1       4.736   2.396  -0.582  1.00  0.00     0.108 A 
HETATM   34  N4  UNL     1       5.511   3.490  -0.437  1.00  0.00    -0.372 N 
HETATM   35  C19 UNL     1       6.827   3.266  -0.171  1.00  0.00     0.116 A 
ATOM     36  H4  UNL     1       5.132   4.433  -0.522  1.00  0.00     0.164 HD
HETATM   37  C20 UNL     1       7.446   2.013  -0.049  1.00  0.00     0.047 A 
HETATM   38  C25 UNL     1       6.579   0.922  -0.207  1.00  0.00     0.052 A 
BRANCH  37  39
HETATM   39  N5  UNL     1       8.796   1.853   0.205  1.00  0.00    -0.376 N 
HETATM   40  C21 UNL     1       9.375   0.561   0.615  1.00  0.00     0.149 C 
HETATM   41  C22 UNL     1      10.693   0.788   1.376  1.00  0.00     0.187 C 
HETATM   42  O2  UNL     1      11.691   1.485   0.618  1.00  0.00    -0.388 OA
HETATM   43  C23 UNL     1      11.142   2.379  -0.360  1.00  0.00     0.187 C 
HETATM   44  C24 UNL     1       9.762   2.949   0.012  1.00  0.00     0.149 C 
ENDBRANCH  37  39
ENDBRANCH  31  32
ENDBRANCH   6  30
TORSDOF 8
