REMARK  5 active torsions:
REMARK  status: ('A' for Active; 'I' for Inactive)
REMARK    1  A    between atoms: N1_1  and  C1_2 
REMARK    2  A    between atoms: C4_8  and  C5_9 
REMARK    3  A    between atoms: C16_25  and  C17_26 
REMARK       I    between atoms: C17_26  and  N6_28 
REMARK    4  A    between atoms: N6_28  and  C18_29 
REMARK    5  A    between atoms: C20_31  and  C21_32 
ROOT
HETATM    1  C1  UNL     1      -1.110  -0.120  -3.005  1.00  0.00     0.107 A 
HETATM    2  N2  UNL     1      -1.967  -0.337  -3.975  1.00  0.00    -0.354 N 
ATOM      3  H2  UNL     1      -1.648  -0.410  -4.941  1.00  0.00     0.166 HD
HETATM    4  C2  UNL     1      -3.305  -0.465  -3.669  1.00  0.00     0.107 A 
HETATM    5  C3  UNL     1      -3.801  -0.372  -2.427  1.00  0.00     0.116 A 
HETATM    6  N3  UNL     1      -2.922  -0.152  -1.381  1.00  0.00    -0.305 N 
HETATM    7  C4  UNL     1      -3.098   0.000  -0.016  1.00  0.00     0.094 A 
HETATM    8  N5  UNL     1      -1.931   0.154   0.585  1.00  0.00    -0.343 N 
ATOM      9  H5  UNL     1      -1.769   0.276   1.585  1.00  0.00     0.167 HD
HETATM   10  C12 UNL     1      -0.983   0.117  -0.404  1.00  0.00     0.074 A 
HETATM   11  C13 UNL     1       0.427   0.249  -0.124  1.00  0.00    -0.007 A 
HETATM   12  C14 UNL     1       1.267  -0.870  -0.172  1.00  0.00     0.015 A 
HETATM   13  C15 UNL     1       2.632  -0.736   0.098  1.00  0.00     0.018 A 
HETATM   14  C16 UNL     1       3.161   0.520   0.424  1.00  0.00     0.032 A 
HETATM   15  C24 UNL     1       2.313   1.632   0.506  1.00  0.00     0.018 A 
HETATM   16  C25 UNL     1       0.950   1.496   0.231  1.00  0.00     0.015 A 
HETATM   17  C26 UNL     1      -1.570  -0.049  -1.637  1.00  0.00     0.106 A 
ENDROOT
BRANCH   7  18
HETATM   18  C5  UNL     1      -4.412   0.000   0.715  1.00  0.00     0.072 C 
HETATM   19  C6  UNL     1      -5.144  -1.362   0.653  1.00  0.00     0.016 C 
HETATM   20  C7  UNL     1      -6.605  -1.271   0.189  1.00  0.00     0.028 C 
HETATM   21  C8  UNL     1      -7.376  -0.121   0.832  1.00  0.00     0.114 C 
HETATM   22  C9  UNL     1      -7.871  -0.367   2.241  1.00  0.00     0.206 C 
HETATM   23  N4  UNL     1      -6.588   1.064   0.993  1.00  0.00    -0.320 N 
HETATM   24  O1  UNL     1      -7.824   0.925   2.859  1.00  0.00    -0.302 OA
HETATM   25  C10 UNL     1      -6.864   1.652   2.208  1.00  0.00     0.363 C 
HETATM   26  O2  UNL     1      -6.326   2.641   2.677  1.00  0.00    -0.238 OA
HETATM   27  C11 UNL     1      -5.304   1.191   0.333  1.00  0.00     0.141 C 
ENDBRANCH   7  18
BRANCH   1  28
HETATM   28  N1  UNL     1       0.192   0.025  -3.386  1.00  0.00    -0.287 NA
HETATM   29  H1  UNL     1       0.900  -0.256  -2.724  1.00  0.00     0.125 HD
HETATM   30  H2  UNL     1       0.354  -0.301  -4.332  1.00  0.00     0.125 HD
ENDBRANCH   1  28
BRANCH  14  31
HETATM   31  C17 UNL     1       4.610   0.708   0.722  1.00  0.00     0.257 C 
HETATM   32  O3  UNL     1       4.934   1.534   1.565  1.00  0.00    -0.267 OA
HETATM   33  N6  UNL     1       5.459  -0.064  -0.034  1.00  0.00    -0.309 N 
HETATM   34  H17 UNL     1       5.095  -0.625  -0.790  1.00  0.00     0.170 HD
BRANCH  33  35
HETATM   35  C18 UNL     1       6.852  -0.111   0.014  1.00  0.00     0.108 A 
HETATM   36  C19 UNL     1       7.629   0.571   0.938  1.00  0.00     0.064 A 
HETATM   37  C20 UNL     1       9.024   0.447   0.880  1.00  0.00     0.052 A 
HETATM   38  C22 UNL     1       9.583  -0.379  -0.099  1.00  0.00     0.033 A 
HETATM   39  C23 UNL     1       8.732  -1.023  -0.977  1.00  0.00     0.090 A 
HETATM   40  N7  UNL     1       7.387  -0.907  -0.938  1.00  0.00    -0.352 N 
ATOM     41  H7  UNL     1       6.795  -1.403  -1.604  1.00  0.00     0.166 HD
BRANCH  37  42
HETATM   42  C21 UNL     1       9.902   1.156   1.875  1.00  0.00     0.417 C 
HETATM   43  F1  UNL     1      11.106   1.519   1.347  1.00  0.00    -0.166 F 
HETATM   44  F2  UNL     1      10.190   0.377   2.953  1.00  0.00    -0.166 F 
HETATM   45  F3  UNL     1       9.354   2.298   2.369  1.00  0.00    -0.166 F 
ENDBRANCH  37  42
ENDBRANCH  33  35
ENDBRANCH  14  31
TORSDOF 5
