REMARK  7 active torsions:
REMARK  status: ('A' for Active; 'I' for Inactive)
REMARK    1  A    between atoms: C2_2  and  C3_3 
REMARK       I    between atoms: C3_3  and  N1_5 
REMARK    2  A    between atoms: N1_5  and  C4_6 
REMARK    3  A    between atoms: C8_10  and  O2_11 
REMARK    4  A    between atoms: O2_11  and  C9_12 
REMARK    5  A    between atoms: C10_15  and  N3_16 
REMARK    6  A    between atoms: N3_16  and  C11_17 
REMARK    7  A    between atoms: C19_28  and  N6_29 
ROOT
HETATM    1  C9  UNL     1       0.492   0.183  -0.869  1.00  0.00     0.232 A 
HETATM    2  N2  UNL     1      -0.022  -1.051  -0.849  1.00  0.00    -0.308 N 
ATOM      3  H2  UNL     1       0.483  -1.852  -1.228  1.00  0.00     0.171 HD
HETATM    4  C10 UNL     1      -1.239  -1.173  -0.302  1.00  0.00     0.113 A 
HETATM    5  C18 UNL     1      -1.922  -0.077   0.189  1.00  0.00     0.097 A 
HETATM    6  C19 UNL     1      -1.339   1.175   0.078  1.00  0.00     0.109 A 
HETATM    7  N8  UNL     1      -0.116   1.303  -0.456  1.00  0.00    -0.308 N 
ATOM      8  H8  UNL     1       0.333   2.215  -0.544  1.00  0.00     0.171 HD
ENDROOT
BRANCH   1   9
HETATM    9  O2  UNL     1       1.750   0.309  -1.426  1.00  0.00    -0.279 OA
BRANCH   9  10
HETATM   10  C8  UNL     1       2.813   0.453  -0.560  1.00  0.00     0.081 A 
HETATM   11  C7  UNL     1       2.720   0.820   0.785  1.00  0.00     0.037 A 
HETATM   12  C6  UNL     1       3.877   0.958   1.553  1.00  0.00     0.005 A 
HETATM   13  C5  UNL     1       5.127   0.717   0.983  1.00  0.00     0.029 A 
HETATM   14  C4  UNL     1       5.237   0.340  -0.363  1.00  0.00     0.037 A 
HETATM   15  C25 UNL     1       4.074   0.217  -1.127  1.00  0.00     0.066 A 
BRANCH  14  16
HETATM   16  N1  UNL     1       6.537   0.097  -0.856  1.00  0.00    -0.324 N 
HETATM   17  C3  UNL     1       6.899  -0.249  -2.139  1.00  0.00     0.244 C 
HETATM   18  O1  UNL     1       6.178  -0.340  -3.124  1.00  0.00    -0.268 OA
HETATM   19  H4  UNL     1       7.287   0.219  -0.190  1.00  0.00     0.169 HD
BRANCH  17  20
HETATM   20  C2  UNL     1       8.362  -0.473  -2.312  1.00  0.00     0.064 C 
HETATM   21  C1  UNL     1       9.169  -1.020  -1.391  1.00  0.00     0.017 C 
ENDBRANCH  17  20
ENDBRANCH  14  16
ENDBRANCH   9  10
ENDBRANCH   1   9
BRANCH   4  22
HETATM   22  N3  UNL     1      -1.731  -2.478  -0.281  1.00  0.00    -0.327 N 
HETATM   23  H8  UNL     1      -1.027  -3.070  -0.721  1.00  0.00     0.169 HD
BRANCH  22  24
HETATM   24  C11 UNL     1      -2.832  -3.044   0.253  1.00  0.00     0.134 A 
HETATM   25  N4  UNL     1      -3.798  -2.438   0.948  1.00  0.00    -0.284 N 
HETATM   26  N5  UNL     1      -4.644  -3.426   1.274  1.00  0.00    -0.298 N 
ATOM     27  H4  UNL     1      -3.875  -1.447   1.179  1.00  0.00     0.188 HD
HETATM   28  C12 UNL     1      -4.275  -4.662   0.818  1.00  0.00     0.062 A 
HETATM   29  H9  UNL     1      -5.466  -3.192   1.824  1.00  0.00     0.187 HD
HETATM   30  C13 UNL     1      -4.876  -5.920   0.946  1.00  0.00     0.032 A 
HETATM   31  C17 UNL     1      -3.088  -4.451   0.128  1.00  0.00     0.037 A 
HETATM   32  C14 UNL     1      -4.226  -7.004   0.337  1.00  0.00     0.002 A 
HETATM   33  C15 UNL     1      -3.033  -6.828  -0.364  1.00  0.00     0.001 A 
HETATM   34  C16 UNL     1      -2.451  -5.556  -0.479  1.00  0.00     0.017 A 
ENDBRANCH  22  24
ENDBRANCH   4  22
BRANCH   6  35
HETATM   35  N6  UNL     1      -1.973   2.317   0.552  1.00  0.00    -0.364 N 
HETATM   36  C20 UNL     1      -1.212   3.575   0.501  1.00  0.00     0.154 C 
HETATM   37  C21 UNL     1      -1.983   4.694   1.238  1.00  0.00     0.291 C 
HETATM   38  N7  UNL     1      -3.351   4.964   0.733  1.00  0.00     0.087 N 
HETATM   39  C22 UNL     1      -3.410   6.205  -0.036  1.00  0.00     0.310 C 
HETATM   40  C23 UNL     1      -3.864   3.833  -0.070  1.00  0.00     0.291 C 
HETATM   41  C24 UNL     1      -3.440   2.437   0.457  1.00  0.00     0.154 C 
ENDBRANCH   6  35
TORSDOF 7
