REMARK  10 active torsions:
REMARK  status: ('A' for Active; 'I' for Inactive)
REMARK    1  A    between atoms: C3_5  and  C4_6 
REMARK    2  A    between atoms: C13_19  and  N3_20 
REMARK    3  A    between atoms: N3_20  and  C14_21 
REMARK    4  A    between atoms: C18_25  and  C19_26 
REMARK    5  A    between atoms: C19_26  and  O2_27 
REMARK    6  A    between atoms: O2_27  and  C20_28 
REMARK    7  A    between atoms: C20_28  and  C21_29 
REMARK    8  A    between atoms: C21_29  and  O3_30 
REMARK    9  A    between atoms: C21_29  and  C22_31 
REMARK   10  A    between atoms: C22_31  and  O4_32 
ROOT
HETATM    1  C1  UNL     1      -2.872  -0.727   2.291  1.00  0.00     0.161 C 
HETATM    2  N1  UNL     1      -3.489  -0.406   1.016  1.00  0.00    -0.303 N 
HETATM    3  C2  UNL     1      -4.856  -0.192   0.944  1.00  0.00     0.260 A 
HETATM    4  O1  UNL     1      -5.610  -0.258   1.914  1.00  0.00    -0.267 OA
HETATM    5  C3  UNL     1      -5.425   0.139  -0.407  1.00  0.00     0.047 A 
HETATM    6  C10 UNL     1      -4.631   0.218  -1.486  1.00  0.00     0.034 A 
HETATM    7  C11 UNL     1      -3.204  -0.018  -1.342  1.00  0.00     0.026 A 
HETATM    8  C12 UNL     1      -2.319   0.044  -2.391  1.00  0.00     0.121 A 
HETATM    9  N2  UNL     1      -0.995  -0.173  -2.265  1.00  0.00    -0.201 N 
ATOM     10  H2  UNL     1      -0.370  -0.119  -3.069  1.00  0.00     0.183 HD
HETATM   11  C13 UNL     1      -0.532  -0.463  -1.039  1.00  0.00     0.684 A 
HETATM   12  N4  UNL     1      -1.321  -0.545   0.040  1.00  0.00    -0.175 N 
ATOM     13  H4  UNL     1      -0.934  -0.769   0.957  1.00  0.00     0.186 HD
HETATM   14  C24 UNL     1      -2.642  -0.323  -0.119  1.00  0.00     0.137 A 
ENDROOT
BRANCH  11  15
HETATM   15  N3  UNL     1       0.841  -0.676  -0.971  1.00  0.00    -0.192 N 
HETATM   16  H9  UNL     1       1.238  -0.547  -1.891  1.00  0.00     0.184 HD
BRANCH  15  17
HETATM   17  C14 UNL     1       1.737  -0.954   0.066  1.00  0.00     0.049 A 
HETATM   18  C15 UNL     1       1.364  -1.099   1.404  1.00  0.00     0.030 A 
HETATM   19  C16 UNL     1       2.310  -1.387   2.393  1.00  0.00     0.003 A 
HETATM   20  C17 UNL     1       3.654  -1.536   2.060  1.00  0.00     0.009 A 
HETATM   21  C18 UNL     1       4.065  -1.393   0.732  1.00  0.00    -0.032 A 
HETATM   22  C23 UNL     1       3.098  -1.114  -0.250  1.00  0.00     0.039 A 
BRANCH  21  23
HETATM   23  C19 UNL     1       5.513  -1.577   0.353  1.00  0.00     0.206 C 
BRANCH  23  24
HETATM   24  O2  UNL     1       5.947  -0.582  -0.577  1.00  0.00    -0.384 OA
BRANCH  24  25
HETATM   25  C20 UNL     1       6.313   0.653   0.045  1.00  0.00     0.201 C 
BRANCH  25  26
HETATM   26  C21 UNL     1       7.792   0.664   0.457  1.00  0.00     0.165 C 
BRANCH  26  27
HETATM   27  O3  UNL     1       8.074   1.863   1.190  1.00  0.00    -0.391 OA
HETATM   28  H18 UNL     1       8.192   2.553   0.504  1.00  0.00     0.210 HD
ENDBRANCH  26  27
BRANCH  26  29
HETATM   29  C22 UNL     1       8.730   0.601  -0.754  1.00  0.00     0.198 C 
BRANCH  29  30
HETATM   30  O4  UNL     1       8.637   1.828  -1.485  1.00  0.00    -0.398 OA
HETATM   31  H21 UNL     1       9.199   1.724  -2.274  1.00  0.00     0.209 HD
ENDBRANCH  29  30
ENDBRANCH  26  29
ENDBRANCH  25  26
ENDBRANCH  24  25
ENDBRANCH  23  24
ENDBRANCH  21  23
ENDBRANCH  15  17
ENDBRANCH  11  15
BRANCH   5  32
HETATM   32  C4  UNL     1      -6.875   0.379  -0.546  1.00  0.00     0.023 A 
HETATM   33  C5  UNL     1      -7.760  -0.678  -0.825  1.00  0.00     0.046 A 
HETATM   34 CL1  UNL     1      -7.202  -2.302  -1.055  1.00  0.00    -0.083 Cl
HETATM   35  C6  UNL     1      -9.137  -0.450  -0.939  1.00  0.00     0.025 A 
HETATM   36  C7  UNL     1      -9.651   0.834  -0.774  1.00  0.00     0.003 A 
HETATM   37  C8  UNL     1      -8.789   1.893  -0.498  1.00  0.00     0.025 A 
HETATM   38  C9  UNL     1      -7.412   1.669  -0.383  1.00  0.00     0.046 A 
HETATM   39 CL2  UNL     1      -6.410   3.042  -0.051  1.00  0.00    -0.083 Cl
ENDBRANCH   5  32
TORSDOF 10
