REMARK  14 active torsions:
REMARK  status: ('A' for Active; 'I' for Inactive)
REMARK    1  A    between atoms: O1_2  and  C2_3 
REMARK    2  A    between atoms: C6_7  and  C7_8 
REMARK    3  A    between atoms: N1_10  and  C9_11 
REMARK    4  A    between atoms: C13_15  and  C14_16 
REMARK       I    between atoms: C14_16  and  N2_18 
REMARK    5  A    between atoms: N2_18  and  C15_19 
REMARK    6  A    between atoms: C15_19  and  C16_20 
REMARK    7  A    between atoms: C16_20  and  C17_21 
REMARK    8  A    between atoms: C17_21  and  P1_22 
REMARK    9  A    between atoms: P1_22  and  O4_24 
REMARK   10  A    between atoms: P1_22  and  C18_25 
REMARK   11  A    between atoms: C18_25  and  P2_26 
REMARK   12  A    between atoms: P2_26  and  O6_28 
REMARK   13  A    between atoms: P2_26  and  O7_29 
REMARK   14  A    between atoms: C22_37  and  N5_38 
ROOT
HETATM    1  C9  UNL     1      -1.398   0.363  -0.504  1.00  0.00     0.041 A 
HETATM    2  C10 UNL     1      -1.157   1.252  -1.566  1.00  0.00     0.030 A 
HETATM    3  C11 UNL     1       0.142   1.669  -1.878  1.00  0.00     0.003 A 
HETATM    4  C12 UNL     1       1.226   1.199  -1.140  1.00  0.00     0.017 A 
HETATM    5  C13 UNL     1       1.011   0.301  -0.091  1.00  0.00     0.034 A 
HETATM    6  C19 UNL     1      -0.298  -0.099   0.234  1.00  0.00     0.047 A 
ENDROOT
BRANCH   1   7
HETATM    7  N1  UNL     1      -2.741  -0.048  -0.191  1.00  0.00    -0.307 N 
HETATM    8  C8  UNL     1      -3.888   0.514  -0.740  1.00  0.00     0.112 A 
HETATM    9  C7  UNL     1      -5.002  -0.102  -0.211  1.00  0.00     0.007 A 
HETATM   10  C23 UNL     1      -4.551  -1.095   0.698  1.00  0.00     0.059 A 
HETATM   11  C20 UNL     1      -3.158  -1.056   0.686  1.00  0.00     0.127 A 
HETATM   12  C22 UNL     1      -5.159  -2.045   1.538  1.00  0.00     0.093 A 
HETATM   13  N3  UNL     1      -2.366  -1.881   1.400  1.00  0.00    -0.337 N 
HETATM   14  C21 UNL     1      -3.053  -2.746   2.159  1.00  0.00     0.183 A 
ATOM     15  H3  UNL     1      -1.347  -1.850   1.366  1.00  0.00     0.168 HD
HETATM   16  N4  UNL     1      -4.384  -2.875   2.261  1.00  0.00    -0.343 N 
ATOM     17  H4  UNL     1      -4.797  -3.582   2.869  1.00  0.00     0.167 HD
BRANCH   9  18
HETATM   18  C6  UNL     1      -6.346   0.279  -0.589  1.00  0.00    -0.021 A 
HETATM   19  C5  UNL     1      -6.869  -0.123  -1.823  1.00  0.00     0.012 A 
HETATM   20  C4  UNL     1      -8.170   0.236  -2.177  1.00  0.00     0.004 A 
HETATM   21  C3  UNL     1      -8.948   1.005  -1.307  1.00  0.00     0.037 A 
HETATM   22  C2  UNL     1      -8.428   1.417  -0.077  1.00  0.00     0.069 A 
HETATM   23  C24 UNL     1      -7.131   1.038   0.284  1.00  0.00     0.049 A 
BRANCH  22  24
HETATM   24  O1  UNL     1      -9.092   2.164   0.858  1.00  0.00    -0.356 OA
HETATM   25  C1  UNL     1     -10.276   2.821   0.426  1.00  0.00     0.210 C 
ENDBRANCH  22  24
ENDBRANCH   9  18
BRANCH  12  26
HETATM   26  N5  UNL     1      -6.532  -2.202   1.664  1.00  0.00    -0.288 NA
HETATM   27  H25 UNL     1      -6.756  -3.092   2.092  1.00  0.00     0.125 HD
HETATM   28  H26 UNL     1      -7.068  -1.950   0.846  1.00  0.00     0.125 HD
ENDBRANCH  12  26
ENDBRANCH   1   7
BRANCH   5  29
HETATM   29  C14 UNL     1       2.141  -0.247   0.712  1.00  0.00     0.251 C 
HETATM   30  O2  UNL     1       1.962  -0.607   1.871  1.00  0.00    -0.268 OA
HETATM   31  N2  UNL     1       3.354  -0.366   0.057  1.00  0.00    -0.357 N 
HETATM   32  H11 UNL     1       3.333  -0.337  -0.955  1.00  0.00     0.162 HD
BRANCH  31  33
HETATM   33  C15 UNL     1       4.429  -1.122   0.664  1.00  0.00     0.123 C 
BRANCH  33  34
HETATM   34  C16 UNL     1       5.782  -0.724   0.089  1.00  0.00     0.029 C 
BRANCH  34  35
HETATM   35  C17 UNL     1       6.894  -1.595   0.658  1.00  0.00     0.096 C 
BRANCH  35  36
HETATM   36  P1  UNL     1       8.537  -1.262   0.031  1.00  0.00     0.109 P 
HETATM   37  O3  UNL     1       9.525  -2.323   0.391  1.00  0.00    -0.673 OA
BRANCH  36  38
HETATM   38  O4  UNL     1       8.337  -1.191  -1.567  1.00  0.00    -0.349 OA
HETATM   39  H18 UNL     1       9.179  -1.344  -2.063  1.00  0.00     0.217 HD
ENDBRANCH  36  38
BRANCH  36  40
HETATM   40  C18 UNL     1       8.984   0.400   0.503  1.00  0.00     0.218 C 
BRANCH  40  41
HETATM   41  P2  UNL     1      10.596   1.022   0.091  1.00  0.00     0.244 P 
HETATM   42  O5  UNL     1      11.087   0.730  -1.285  1.00  0.00    -0.653 OA
BRANCH  41  43
HETATM   43  O6  UNL     1      11.586   0.522   1.244  1.00  0.00    -0.329 OA
HETATM   44  H21 UNL     1      12.514   0.742   1.048  1.00  0.00     0.220 HD
ENDBRANCH  41  43
BRANCH  41  45
HETATM   45  O7  UNL     1      10.552   2.589   0.447  1.00  0.00    -0.329 OA
HETATM   46  H22 UNL     1       9.976   2.845   1.189  1.00  0.00     0.220 HD
ENDBRANCH  41  45
ENDBRANCH  40  41
ENDBRANCH  36  40
ENDBRANCH  35  36
ENDBRANCH  34  35
ENDBRANCH  33  34
ENDBRANCH  31  33
ENDBRANCH   5  29
TORSDOF 14
