REMARK  6 active torsions:
REMARK  status: ('A' for Active; 'I' for Inactive)
REMARK    1  A    between atoms: O1_2  and  C2_3 
REMARK    2  A    between atoms: C5_6  and  N1_7 
REMARK    3  A    between atoms: N1_7  and  C6_8 
REMARK    4  A    between atoms: C16_25  and  O4_26 
REMARK    5  A    between atoms: O4_26  and  C17_27 
REMARK    6  A    between atoms: C17_27  and  C18_28 
ROOT
HETATM    1  C2  UNL     1      -0.598  -0.211  -1.580  1.00  0.00     0.102 A 
HETATM    2  C3  UNL     1      -1.735   0.145  -0.855  1.00  0.00     0.056 A 
HETATM    3  C4  UNL     1      -1.941  -0.331   0.469  1.00  0.00     0.032 A 
HETATM    4  C5  UNL     1      -3.058  -0.025   1.271  1.00  0.00     0.098 A 
HETATM    5  N2  UNL     1      -3.194  -0.497   2.523  1.00  0.00    -0.342 N 
ATOM      6  H2  UNL     1      -4.010  -0.274   3.094  1.00  0.00     0.167 HD
HETATM    7  C13 UNL     1      -2.209  -1.272   2.982  1.00  0.00     0.182 A 
HETATM    8  N3  UNL     1      -1.111  -1.635   2.311  1.00  0.00    -0.351 N 
ATOM      9  H3  UNL     1      -0.405  -2.241   2.728  1.00  0.00     0.166 HD
HETATM   10  C14 UNL     1      -0.985  -1.164   1.067  1.00  0.00     0.049 A 
HETATM   11  C15 UNL     1       0.139  -1.515   0.337  1.00  0.00     0.070 A 
HETATM   12  C16 UNL     1       0.344  -1.034  -0.959  1.00  0.00     0.104 A 
ENDROOT
BRANCH   4  13
HETATM   13  N1  UNL     1      -4.105   0.762   0.716  1.00  0.00    -0.241 NA
HETATM   14  H5  UNL     1      -4.493   0.251  -0.076  1.00  0.00     0.135 HD
BRANCH  13  15
HETATM   15  C6  UNL     1      -5.146   1.370   1.460  1.00  0.00     0.072 A 
HETATM   16  C7  UNL     1      -6.493   1.263   1.055  1.00  0.00     0.058 A 
HETATM   17 CL1  UNL     1      -6.908   0.355  -0.361  1.00  0.00    -0.082 Cl
HETATM   18  C8  UNL     1      -7.535   1.873   1.779  1.00  0.00     0.028 A 
HETATM   19  C9  UNL     1      -7.253   2.623   2.922  1.00  0.00     0.041 A 
HETATM   20  C10 UNL     1      -5.932   2.744   3.296  1.00  0.00     0.106 A 
HETATM   21  C11 UNL     1      -4.909   2.146   2.589  1.00  0.00     0.128 A 
HETATM   22  O3  UNL     1      -5.485   3.462   4.361  1.00  0.00    -0.323 OA
HETATM   23  O2  UNL     1      -3.688   2.456   3.118  1.00  0.00    -0.321 OA
HETATM   24  C12 UNL     1      -4.066   3.234   4.267  1.00  0.00     0.352 A 
ENDBRANCH  13  15
ENDBRANCH   4  13
BRANCH   1  25
HETATM   25  O1  UNL     1      -0.320   0.182  -2.860  1.00  0.00    -0.353 OA
HETATM   26  C1  UNL     1      -1.287   0.981  -3.528  1.00  0.00     0.210 C 
ENDBRANCH   1  25
BRANCH  12  27
HETATM   27  O4  UNL     1       1.469  -1.461  -1.618  1.00  0.00    -0.348 OA
BRANCH  27  28
HETATM   28  C17 UNL     1       2.497  -0.463  -1.555  1.00  0.00     0.180 C 
BRANCH  28  29
HETATM   29  C18 UNL     1       3.760  -1.010  -2.237  1.00  0.00     0.013 C 
HETATM   30  C19 UNL     1       4.221  -2.320  -1.570  1.00  0.00     0.037 C 
HETATM   31  C20 UNL     1       5.707  -2.570  -1.813  1.00  0.00     0.272 C 
HETATM   32  N4  UNL     1       6.575  -1.503  -1.295  1.00  0.00     0.084 N 
HETATM   33  C21 UNL     1       7.233  -1.889  -0.049  1.00  0.00     0.309 C 
HETATM   34  C22 UNL     1       5.901  -0.206  -1.146  1.00  0.00     0.272 C 
HETATM   35  C23 UNL     1       4.885   0.038  -2.260  1.00  0.00     0.037 C 
ENDBRANCH  28  29
ENDBRANCH  27  28
ENDBRANCH  12  27
TORSDOF 6
