REMARK  10 active torsions:
REMARK  status: ('A' for Active; 'I' for Inactive)
REMARK    1  A    between atoms: C2_2  and  N1_3 
REMARK    2  A    between atoms: N1_3  and  C3_4 
REMARK    3  A    between atoms: N1_3  and  C5_6 
REMARK    4  A    between atoms: C5_6  and  C6_7 
REMARK    5  A    between atoms: C6_7  and  C7_8 
REMARK    6  A    between atoms: C7_8  and  C8_9 
REMARK    7  A    between atoms: C8_9  and  N2_10 
REMARK    8  A    between atoms: N2_10  and  C9_11 
REMARK    9  A    between atoms: C12_16  and  O1_17 
REMARK   10  A    between atoms: C13_18  and  C14_19 
ROOT
HETATM    1  C9  UNL     1       0.688   0.210  -1.057  1.00  0.00     0.082 A 
HETATM    2  C10 UNL     1       1.838   0.525  -1.776  1.00  0.00     0.072 A 
HETATM    3  C11 UNL     1       3.092   0.303  -1.235  1.00  0.00     0.049 A 
HETATM    4  N3  UNL     1       4.192   0.606  -1.951  1.00  0.00    -0.336 N 
ATOM      5  H3  UNL     1       4.124   0.997  -2.891  1.00  0.00     0.168 HD
HETATM    6  C12 UNL     1       5.385   0.371  -1.373  1.00  0.00     0.151 A 
HETATM    7  C13 UNL     1       5.592  -0.157  -0.105  1.00  0.00     0.029 A 
HETATM    8  C20 UNL     1       4.439  -0.466   0.621  1.00  0.00     0.032 A 
HETATM    9  C21 UNL     1       3.172  -0.236   0.056  1.00  0.00     0.007 A 
HETATM   10  C22 UNL     1       1.979  -0.514   0.715  1.00  0.00     0.103 A 
HETATM   11  N4  UNL     1       0.755  -0.300   0.186  1.00  0.00    -0.356 N 
ATOM     12  H4  UNL     1      -0.091  -0.518   0.712  1.00  0.00     0.166 HD
ENDROOT
BRANCH   1  13
HETATM   13  N2  UNL     1      -0.557   0.490  -1.647  1.00  0.00    -0.279 NA
HETATM   14  H19 UNL     1      -0.577   0.087  -2.580  1.00  0.00     0.129 HD
BRANCH  13  15
HETATM   15  C8  UNL     1      -1.713   0.086  -0.848  1.00  0.00     0.094 C 
BRANCH  15  16
HETATM   16  C7  UNL     1      -2.992   0.490  -1.586  1.00  0.00     0.016 C 
BRANCH  16  17
HETATM   17  C6  UNL     1      -4.273   0.010  -0.895  1.00  0.00     0.021 C 
BRANCH  17  18
HETATM   18  C5  UNL     1      -4.483   0.637   0.489  1.00  0.00     0.117 C 
BRANCH  18  19
HETATM   19  N1  UNL     1      -5.762   0.355   1.128  1.00  0.00    -0.413 N 
BRANCH  19  20
HETATM   20  C2  UNL     1      -6.149  -1.038   1.297  1.00  0.00     0.112 C 
HETATM   21  C1  UNL     1      -7.062  -1.620   0.225  1.00  0.00     0.026 C 
ENDBRANCH  19  20
BRANCH  19  22
HETATM   22  C3  UNL     1      -6.821   1.344   0.991  1.00  0.00     0.112 C 
HETATM   23  C4  UNL     1      -7.197   1.737  -0.432  1.00  0.00     0.026 C 
ENDBRANCH  19  22
ENDBRANCH  18  19
ENDBRANCH  17  18
ENDBRANCH  16  17
ENDBRANCH  15  16
ENDBRANCH  13  15
ENDBRANCH   1  13
BRANCH   6  24
HETATM   24  O1  UNL     1       6.430   0.709  -2.173  1.00  0.00    -0.345 OA
HETATM   25  H21 UNL     1       5.945   1.041  -2.950  1.00  0.00     0.219 HD
ENDBRANCH   6  24
BRANCH   7  26
HETATM   26  C14 UNL     1       6.934  -0.382   0.450  1.00  0.00     0.022 A 
HETATM   27  C15 UNL     1       7.599  -1.615   0.285  1.00  0.00     0.046 A 
HETATM   28 CL1  UNL     1       6.863  -2.942  -0.554  1.00  0.00    -0.083 Cl
HETATM   29  C16 UNL     1       8.883  -1.824   0.803  1.00  0.00     0.025 A 
HETATM   30  C17 UNL     1       9.534  -0.807   1.495  1.00  0.00     0.003 A 
HETATM   31  C18 UNL     1       8.900   0.419   1.673  1.00  0.00     0.025 A 
HETATM   32  C19 UNL     1       7.615   0.630   1.157  1.00  0.00     0.046 A 
HETATM   33 CL2  UNL     1       6.897   2.182   1.442  1.00  0.00    -0.083 Cl
ENDBRANCH   7  26
TORSDOF 10
