REMARK  8 active torsions:
REMARK  status: ('A' for Active; 'I' for Inactive)
REMARK    1  A    between atoms: C6_9  and  C7_10 
REMARK    2  A    between atoms: C9_12  and  N3_13 
REMARK    3  A    between atoms: N3_13  and  C10_14 
REMARK    4  A    between atoms: C10_14  and  C11_15 
REMARK    5  A    between atoms: C10_14  and  C12_17 
REMARK    6  A    between atoms: C11_15  and  O1_16 
REMARK    7  A    between atoms: C19_26  and  C20_27 
REMARK    8  A    between atoms: C25_33  and  O2_34 
ROOT
HETATM    1  C7  UNL     1      -0.785  -0.449   0.172  1.00  0.00     0.004 A 
HETATM    2  C8  UNL     1       0.419   0.237  -0.083  1.00  0.00     0.045 A 
HETATM    3  C9  UNL     1       1.445  -0.321  -0.852  1.00  0.00     0.045 A 
HETATM    4  C18 UNL     1       1.169  -1.571  -1.395  1.00  0.00     0.117 A 
HETATM    5  N4  UNL     1       0.038  -2.286  -1.179  1.00  0.00    -0.362 N 
ATOM      6  H4  UNL     1      -0.079  -3.220  -1.573  1.00  0.00     0.165 HD
HETATM    7  C19 UNL     1      -0.935  -1.715  -0.419  1.00  0.00     0.056 A 
ENDROOT
BRANCH   1   8
HETATM    8  C6  UNL     1      -1.794   0.169   1.048  1.00  0.00    -0.023 A 
HETATM    9  C5  UNL     1      -2.072  -0.370   2.316  1.00  0.00     0.014 A 
HETATM   10  C4  UNL     1      -3.026   0.195   3.172  1.00  0.00     0.033 A 
HETATM   11  C3  UNL     1      -3.696   1.330   2.712  1.00  0.00     0.060 A 
HETATM   12  N2  UNL     1      -4.667   2.108   3.282  1.00  0.00    -0.300 N 
HETATM   13  C27 UNL     1      -3.452   1.904   1.471  1.00  0.00     0.016 A 
HETATM   14  N1  UNL     1      -5.076   3.133   2.514  1.00  0.00    -0.304 N 
HETATM   15  H4  UNL     1      -5.096   1.992   4.192  1.00  0.00     0.187 HD
HETATM   16  C2  UNL     1      -4.334   3.015   1.405  1.00  0.00     0.034 A 
ATOM     17  H1  UNL     1      -5.785   3.835   2.726  1.00  0.00     0.186 HD
HETATM   18  C1  UNL     1      -4.488   3.983   0.292  1.00  0.00     0.070 C 
HETATM   19  C26 UNL     1      -2.486   1.323   0.629  1.00  0.00     0.028 A 
ENDBRANCH   1   8
BRANCH   7  20
HETATM   20  C20 UNL     1      -2.130  -2.561  -0.259  1.00  0.00     0.028 A 
HETATM   21  C21 UNL     1      -2.016  -3.794   0.407  1.00  0.00     0.058 A 
HETATM   22  C22 UNL     1      -3.131  -4.606   0.587  1.00  0.00     0.117 A 
HETATM   23  F1  UNL     1      -3.001  -5.771   1.235  1.00  0.00    -0.206 F 
HETATM   24  C23 UNL     1      -4.378  -4.227   0.109  1.00  0.00     0.045 A 
HETATM   25  C24 UNL     1      -4.515  -3.019  -0.571  1.00  0.00     0.040 A 
HETATM   26  C25 UNL     1      -3.396  -2.199  -0.756  1.00  0.00     0.078 A 
BRANCH  26  27
HETATM   27  O2  UNL     1      -3.536  -1.028  -1.453  1.00  0.00    -0.360 OA
HETATM   28  H22 UNL     1      -4.469  -0.911  -1.696  1.00  0.00     0.217 HD
ENDBRANCH  26  27
ENDBRANCH   7  20
BRANCH   3  29
HETATM   29  N3  UNL     1       2.577   0.450  -1.120  1.00  0.00    -0.378 N 
HETATM   30  H8  UNL     1       2.755   1.133  -0.382  1.00  0.00     0.160 HD
BRANCH  29  31
HETATM   31  C10 UNL     1       3.828  -0.172  -1.600  1.00  0.00     0.138 C 
BRANCH  31  32
HETATM   32  C11 UNL     1       3.886  -0.071  -3.147  1.00  0.00     0.194 C 
BRANCH  32  33
HETATM   33  O1  UNL     1       3.385   1.189  -3.610  1.00  0.00    -0.399 OA
HETATM   34  H12 UNL     1       2.636   1.383  -3.008  1.00  0.00     0.209 HD
ENDBRANCH  32  33
ENDBRANCH  31  32
BRANCH  31  35
HETATM   35  C12 UNL     1       4.991   0.504  -0.880  1.00  0.00    -0.034 A 
HETATM   36  C13 UNL     1       5.446  -0.039   0.336  1.00  0.00     0.009 A 
HETATM   37  C14 UNL     1       6.488   0.562   1.045  1.00  0.00     0.001 A 
HETATM   38  C15 UNL     1       7.084   1.722   0.557  1.00  0.00     0.000 A 
HETATM   39  C16 UNL     1       6.635   2.283  -0.636  1.00  0.00     0.001 A 
HETATM   40  C17 UNL     1       5.592   1.683  -1.347  1.00  0.00     0.009 A 
ENDBRANCH  31  35
ENDBRANCH  29  31
ENDBRANCH   3  29
TORSDOF 8
