REMARK  4 active torsions:
REMARK  status: ('A' for Active; 'I' for Inactive)
REMARK    1  A    between atoms: N2_5  and  C4_6 
REMARK    2  A    between atoms: C4_6  and  C5_7 
REMARK    3  A    between atoms: C8_10  and  C9_11 
REMARK    4  A    between atoms: C13_18  and  C14_19 
ROOT
HETATM    1  C9  UNL     1       0.460   1.251   0.769  1.00  0.00    -0.009 A 
HETATM    2  C10 UNL     1       0.195   2.193   1.770  1.00  0.00     0.102 A 
HETATM    3  N3  UNL     1       1.093   2.754   2.621  1.00  0.00    -0.351 N 
ATOM      4  H3  UNL     1       0.846   3.441   3.334  1.00  0.00     0.166 HD
HETATM    5  C11 UNL     1       2.344   2.304   2.420  1.00  0.00     0.116 A 
HETATM    6  N4  UNL     1       3.433   2.715   3.136  1.00  0.00    -0.351 N 
HETATM    7  C12 UNL     1       4.557   2.072   2.686  1.00  0.00     0.103 A 
HETATM    8  C13 UNL     1       4.183   1.224   1.658  1.00  0.00     0.004 A 
HETATM    9  C22 UNL     1       2.772   1.371   1.483  1.00  0.00     0.021 A 
HETATM   10  C23 UNL     1       1.793   0.832   0.626  1.00  0.00     0.029 A 
HETATM   11  H13 UNL     1       3.386   3.393   3.882  1.00  0.00     0.166 HD
ENDROOT
BRANCH   1  12
HETATM   12  C8  UNL     1      -0.606   0.726  -0.096  1.00  0.00    -0.025 A 
HETATM   13  C7  UNL     1      -1.460   1.588  -0.800  1.00  0.00     0.013 A 
HETATM   14  C6  UNL     1      -2.476   1.087  -1.621  1.00  0.00     0.010 A 
HETATM   15  C5  UNL     1      -2.674  -0.293  -1.757  1.00  0.00    -0.030 A 
HETATM   16  C25 UNL     1      -1.816  -1.158  -1.068  1.00  0.00     0.010 A 
HETATM   17  C24 UNL     1      -0.799  -0.656  -0.249  1.00  0.00     0.013 A 
BRANCH  15  18
HETATM   18  C4  UNL     1      -3.780  -0.831  -2.644  1.00  0.00     0.311 C 
BRANCH  18  19
HETATM   19  N2  UNL     1      -5.074  -1.084  -2.009  1.00  0.00     0.096 N 
HETATM   20  C3  UNL     1      -5.775   0.119  -1.539  1.00  0.00     0.303 C 
HETATM   21  C2  UNL     1      -6.980  -0.222  -0.631  1.00  0.00     0.302 C 
HETATM   22  N1  UNL     1      -6.628  -0.982   0.586  1.00  0.00     0.087 N 
HETATM   23  C1  UNL     1      -6.588  -0.127   1.770  1.00  0.00     0.310 C 
HETATM   24  C27 UNL     1      -5.346  -1.701   0.425  1.00  0.00     0.302 C 
HETATM   25  C26 UNL     1      -5.098  -2.175  -1.024  1.00  0.00     0.303 C 
ENDBRANCH  18  19
ENDBRANCH  15  18
ENDBRANCH   1  12
BRANCH   8  26
HETATM   26  C14 UNL     1       5.125   0.366   0.957  1.00  0.00    -0.023 A 
HETATM   27  C15 UNL     1       4.846  -0.997   0.801  1.00  0.00     0.014 A 
HETATM   28  C16 UNL     1       5.728  -1.851   0.129  1.00  0.00     0.031 A 
HETATM   29  C17 UNL     1       6.904  -1.293  -0.383  1.00  0.00     0.042 A 
HETATM   30  N5  UNL     1       7.938  -1.879  -1.078  1.00  0.00    -0.365 N 
HETATM   31  C20 UNL     1       7.217   0.059  -0.247  1.00  0.00    -0.007 A 
HETATM   32  C18 UNL     1       8.891  -0.945  -1.386  1.00  0.00     0.089 A 
HETATM   33  H17 UNL     1       7.981  -2.859  -1.322  1.00  0.00     0.165 HD
HETATM   34  C19 UNL     1       8.471   0.266  -0.884  1.00  0.00     0.030 A 
HETATM   35  C21 UNL     1       6.314   0.901   0.434  1.00  0.00     0.026 A 
ENDBRANCH   8  26
TORSDOF 4
