REMARK  6 active torsions:
REMARK  status: ('A' for Active; 'I' for Inactive)
REMARK    1  A    between atoms: O1_2  and  C2_3 
REMARK    2  A    between atoms: C5_6  and  N1_7 
REMARK    3  A    between atoms: N1_7  and  C6_8 
REMARK    4  A    between atoms: C16_25  and  O4_26 
REMARK    5  A    between atoms: O4_26  and  C17_27 
REMARK    6  A    between atoms: C17_27  and  C18_28 
ROOT
HETATM    1  C18 UNL     1       5.495  -0.459   0.843  1.00  0.00    -0.030 A 
HETATM    2  C19 UNL     1       6.486  -1.440   0.938  1.00  0.00     0.026 A 
HETATM    3  C20 UNL     1       7.810  -1.072   0.756  1.00  0.00     0.089 A 
HETATM    4  N4  UNL     1       8.210   0.191   0.499  1.00  0.00    -0.357 N 
ATOM      5  H4  UNL     1       9.195   0.425   0.375  1.00  0.00     0.166 HD
HETATM    6  C21 UNL     1       7.240   1.135   0.414  1.00  0.00     0.114 A 
HETATM    7  C22 UNL     1       7.685   2.475   0.144  1.00  0.00     0.117 C 
HETATM    8  N5  UNL     1       8.010   3.572  -0.064  1.00  0.00    -0.190 NA
HETATM    9  C23 UNL     1       5.889   0.860   0.584  1.00  0.00     0.050 A 
ENDROOT
BRANCH   1  10
HETATM   10  C17 UNL     1       4.042  -0.807   1.070  1.00  0.00     0.214 C 
BRANCH  10  11
HETATM   11  O4  UNL     1       3.246  -0.109   0.115  1.00  0.00    -0.344 OA
BRANCH  11  12
HETATM   12  C16 UNL     1       1.886  -0.287   0.154  1.00  0.00     0.104 A 
HETATM   13  C2  UNL     1       1.149   0.404  -0.820  1.00  0.00     0.102 A 
HETATM   14  C3  UNL     1      -0.239   0.261  -0.849  1.00  0.00     0.056 A 
HETATM   15  C4  UNL     1      -0.907  -0.568   0.088  1.00  0.00     0.032 A 
HETATM   16  C5  UNL     1      -2.298  -0.781   0.133  1.00  0.00     0.098 A 
HETATM   17  C14 UNL     1      -0.165  -1.237   1.069  1.00  0.00     0.049 A 
HETATM   18  N2  UNL     1      -2.873  -1.571   1.059  1.00  0.00    -0.342 N 
HETATM   19  C13 UNL     1      -2.059  -2.141   1.950  1.00  0.00     0.182 A 
ATOM     20  H2  UNL     1      -3.881  -1.726   1.079  1.00  0.00     0.167 HD
HETATM   21  N3  UNL     1      -0.727  -2.018   1.995  1.00  0.00    -0.351 N 
ATOM     22  H3  UNL     1      -0.169  -2.497   2.702  1.00  0.00     0.166 HD
HETATM   23  C15 UNL     1       1.216  -1.089   1.084  1.00  0.00     0.070 A 
BRANCH  13  24
HETATM   24  O1  UNL     1       1.871   1.182  -1.687  1.00  0.00    -0.353 OA
HETATM   25  C1  UNL     1       1.156   1.939  -2.654  1.00  0.00     0.210 C 
ENDBRANCH  13  24
BRANCH  16  26
HETATM   26  N1  UNL     1      -3.117  -0.186  -0.867  1.00  0.00    -0.241 NA
HETATM   27  H5  UNL     1      -2.825  -0.555  -1.771  1.00  0.00     0.135 HD
BRANCH  26  28
HETATM   28  C6  UNL     1      -4.530  -0.098  -0.813  1.00  0.00     0.072 A 
HETATM   29  C7  UNL     1      -5.328  -0.468  -1.916  1.00  0.00     0.058 A 
HETATM   30 CL1  UNL     1      -4.590  -1.061  -3.368  1.00  0.00    -0.082 Cl
HETATM   31  C8  UNL     1      -6.733  -0.377  -1.877  1.00  0.00     0.028 A 
HETATM   32  C9  UNL     1      -7.376   0.102  -0.734  1.00  0.00     0.041 A 
HETATM   33  C10 UNL     1      -6.587   0.485   0.330  1.00  0.00     0.106 A 
HETATM   34  C11 UNL     1      -5.211   0.396   0.295  1.00  0.00     0.128 A 
HETATM   35  O3  UNL     1      -7.052   0.999   1.502  1.00  0.00    -0.323 OA
HETATM   36  O2  UNL     1      -4.649   0.885   1.441  1.00  0.00    -0.321 OA
HETATM   37  C12 UNL     1      -5.817   1.220   2.210  1.00  0.00     0.352 A 
ENDBRANCH  26  28
ENDBRANCH  16  26
ENDBRANCH  11  12
ENDBRANCH  10  11
ENDBRANCH   1  10
TORSDOF 6
