REMARK  4 active torsions:
REMARK  status: ('A' for Active; 'I' for Inactive)
REMARK    1  A    between atoms: O1_2  and  C2_3 
REMARK    2  A    between atoms: C6_7  and  N1_8 
REMARK    3  A    between atoms: C10_19  and  N6_20 
REMARK    4  A    between atoms: N6_20  and  C11_21 
ROOT
HETATM    1  N1  UNL     1      -1.012  -0.567   0.070  1.00  0.00    -0.340 N 
HETATM    2  C7  UNL     1      -0.398  -1.785   0.103  1.00  0.00     0.138 A 
HETATM    3  N2  UNL     1      -1.097  -2.966   0.232  1.00  0.00    -0.283 N 
HETATM    4  N3  UNL     1      -0.343  -4.078   0.131  1.00  0.00    -0.283 N 
ATOM      5  H3  UNL     1      -0.648  -5.051   0.140  1.00  0.00     0.188 HD
HETATM    6  C8  UNL     1       0.899  -3.602   0.017  1.00  0.00     0.139 A 
HETATM    7  N4  UNL     1       2.031  -4.330  -0.109  1.00  0.00    -0.337 N 
ATOM      8  H4  UNL     1       2.066  -5.349  -0.134  1.00  0.00     0.168 HD
HETATM    9  C9  UNL     1       3.114  -3.519  -0.197  1.00  0.00     0.183 A 
HETATM   10  N5  UNL     1       3.203  -2.152  -0.156  1.00  0.00    -0.338 N 
ATOM     11  H5  UNL     1       4.113  -1.698  -0.238  1.00  0.00     0.168 HD
HETATM   12  C10 UNL     1       2.075  -1.396  -0.006  1.00  0.00     0.124 A 
HETATM   13  C17 UNL     1       0.917  -2.182   0.052  1.00  0.00     0.099 A 
HETATM   14  H7  UNL     1      -0.465   0.200  -0.330  1.00  0.00     0.167 HD
HETATM   15  H8  UNL     1      -2.099  -3.070   0.347  1.00  0.00     0.188 HD
ENDROOT
BRANCH   1  16
HETATM   16  C6  UNL     1      -2.364  -0.374  -0.323  1.00  0.00     0.036 A 
HETATM   17  C5  UNL     1      -2.893  -0.969  -1.475  1.00  0.00     0.029 A 
HETATM   18  C4  UNL     1      -4.199  -0.692  -1.875  1.00  0.00     0.005 A 
HETATM   19  C3  UNL     1      -4.974   0.205  -1.140  1.00  0.00     0.037 A 
HETATM   20  C2  UNL     1      -4.449   0.840  -0.013  1.00  0.00     0.070 A 
HETATM   21  C18 UNL     1      -3.139   0.560   0.381  1.00  0.00     0.066 A 
BRANCH  20  22
HETATM   22  O1  UNL     1      -5.308   1.708   0.603  1.00  0.00    -0.356 OA
HETATM   23  C1  UNL     1      -4.834   2.365   1.772  1.00  0.00     0.210 C 
ENDBRANCH  20  22
ENDBRANCH   1  16
BRANCH  12  24
HETATM   24  N6  UNL     1       2.089  -0.002   0.151  1.00  0.00    -0.342 N 
HETATM   25  H10 UNL     1       1.321   0.297   0.740  1.00  0.00     0.167 HD
BRANCH  24  26
HETATM   26  C11 UNL     1       3.154   0.916   0.093  1.00  0.00     0.035 A 
HETATM   27  C12 UNL     1       4.369   0.644  -0.548  1.00  0.00     0.029 A 
HETATM   28  C13 UNL     1       5.385   1.605  -0.618  1.00  0.00     0.004 A 
HETATM   29  C14 UNL     1       5.193   2.866  -0.061  1.00  0.00     0.024 A 
HETATM   30  C15 UNL     1       3.982   3.159   0.557  1.00  0.00     0.036 A 
HETATM   31 CL1  UNL     1       3.725   4.720   1.236  1.00  0.00    -0.084 Cl
HETATM   32  C16 UNL     1       2.968   2.200   0.628  1.00  0.00     0.053 A 
ENDBRANCH  24  26
ENDBRANCH  12  24
TORSDOF 4
