REMARK  15 active torsions:
REMARK  status: ('A' for Active; 'I' for Inactive)
REMARK    1  A    between atoms: C2_2  and  N1_3 
REMARK    2  A    between atoms: C2_2  and  C22_32 
REMARK       I    between atoms: N1_3  and  C3_4 
REMARK    3  A    between atoms: C3_4  and  C4_6 
REMARK    4  A    between atoms: C4_6  and  C5_7 
REMARK    5  A    between atoms: C4_6  and  N2_19 
REMARK    6  A    between atoms: C5_7  and  C6_8 
REMARK    7  A    between atoms: C9_11  and  O2_12 
REMARK    8  A    between atoms: O2_12  and  P1_13 
REMARK    9  A    between atoms: P1_13  and  O4_15 
REMARK   10  A    between atoms: P1_13  and  O5_16 
REMARK       I    between atoms: N2_19  and  C12_20 
REMARK   11  A    between atoms: C12_20  and  C13_22 
REMARK   12  A    between atoms: C13_22  and  C14_23 
REMARK   13  A    between atoms: C23_35  and  C24_36 
REMARK   14  A    between atoms: C24_36  and  C25_37 
REMARK   15  A    between atoms: C28_40  and  C29_41 
ROOT
HETATM    1  C4  UNL     1      -1.312  -0.272   0.207  1.00  0.00     0.180 C 
ENDROOT
BRANCH   1   2
HETATM    2  C3  UNL     1      -0.147  -1.278   0.204  1.00  0.00     0.241 C 
HETATM    3  N1  UNL     1       0.807  -1.060  -0.765  1.00  0.00    -0.348 N 
HETATM    4  H5  UNL     1       0.730  -0.242  -1.356  1.00  0.00     0.163 HD
HETATM    5  O1  UNL     1      -0.054  -2.170   1.046  1.00  0.00    -0.271 OA
BRANCH   3   6
HETATM    6  C2  UNL     1       2.114  -1.707  -0.699  1.00  0.00     0.158 C 
HETATM    7  C1  UNL     1       2.524  -2.199  -2.082  1.00  0.00     0.041 C 
BRANCH   6   8
HETATM    8  C22 UNL     1       3.084  -0.703  -0.162  1.00  0.00     0.170 A 
HETATM    9  N4  UNL     1       3.790   0.208  -0.796  1.00  0.00    -0.325 N 
HETATM   10  C23 UNL     1       4.400   0.875   0.242  1.00  0.00     0.108 A 
ATOM     11  H4  UNL     1       3.866   0.377  -1.799  1.00  0.00     0.169 HD
HETATM   12  N5  UNL     1       4.051   0.447   1.466  1.00  0.00    -0.247 N 
HETATM   13  O7  UNL     1       3.189  -0.619   1.199  1.00  0.00    -0.221 OA
ATOM     14  H5  UNL     1       4.345   0.812   2.372  1.00  0.00     0.196 HD
BRANCH  10  15
HETATM   15  C24 UNL     1       5.285   2.047   0.024  1.00  0.00     0.117 C 
BRANCH  15  16
HETATM   16  C25 UNL     1       6.700   1.521  -0.012  1.00  0.00    -0.051 A 
HETATM   17  C26 UNL     1       7.482   1.506   1.152  1.00  0.00     0.008 A 
HETATM   18  C27 UNL     1       8.797   1.032   1.119  1.00  0.00     0.017 A 
HETATM   19  C28 UNL     1       9.359   0.566  -0.078  1.00  0.00     0.047 A 
HETATM   20  C30 UNL     1       8.571   0.563  -1.238  1.00  0.00     0.017 A 
HETATM   21  C31 UNL     1       7.257   1.040  -1.207  1.00  0.00     0.008 A 
BRANCH  19  22
HETATM   22  C29 UNL     1      10.774   0.043  -0.106  1.00  0.00     0.417 C 
HETATM   23  F1  UNL     1      10.843  -1.288   0.177  1.00  0.00    -0.166 F 
HETATM   24  F2  UNL     1      11.590   0.659   0.795  1.00  0.00    -0.166 F 
HETATM   25  F3  UNL     1      11.379   0.200  -1.318  1.00  0.00    -0.166 F 
ENDBRANCH  19  22
ENDBRANCH  15  16
ENDBRANCH  10  15
ENDBRANCH   6   8
ENDBRANCH   3   6
ENDBRANCH   1   2
BRANCH   1  26
HETATM   26  C5  UNL     1      -0.835   1.007   0.920  1.00  0.00     0.073 C 
BRANCH  26  27
HETATM   27  C6  UNL     1      -1.870   2.092   1.127  1.00  0.00    -0.056 A 
HETATM   28  C7  UNL     1      -1.924   2.771   2.354  1.00  0.00     0.010 A 
HETATM   29  C8  UNL     1      -2.872   3.773   2.576  1.00  0.00     0.038 A 
HETATM   30  C9  UNL     1      -3.759   4.121   1.563  1.00  0.00     0.081 A 
HETATM   31  C10 UNL     1      -3.717   3.463   0.338  1.00  0.00     0.038 A 
HETATM   32  C11 UNL     1      -2.764   2.466   0.115  1.00  0.00     0.010 A 
BRANCH  30  33
HETATM   33  O2  UNL     1      -4.679   5.096   1.835  1.00  0.00    -0.255 OA
BRANCH  33  34
HETATM   34  P1  UNL     1      -4.806   6.433   0.959  1.00  0.00     0.396 P 
HETATM   35  O3  UNL     1      -5.702   7.494   1.507  1.00  0.00    -0.631 OA
BRANCH  34  36
HETATM   36  O4  UNL     1      -5.316   5.992  -0.491  1.00  0.00    -0.307 OA
HETATM   37  H11 UNL     1      -6.147   6.468  -0.681  1.00  0.00     0.222 HD
ENDBRANCH  34  36
BRANCH  34  38
HETATM   38  O5  UNL     1      -3.322   6.937   0.635  1.00  0.00    -0.307 OA
HETATM   39  H12 UNL     1      -2.822   6.264   0.144  1.00  0.00     0.222 HD
ENDBRANCH  34  38
ENDBRANCH  33  34
ENDBRANCH  30  33
ENDBRANCH  26  27
ENDBRANCH   1  26
BRANCH   1  40
HETATM   40  N2  UNL     1      -2.429  -0.905   0.901  1.00  0.00    -0.347 N 
HETATM   41  C12 UNL     1      -3.684  -0.997   0.336  1.00  0.00     0.222 C 
HETATM   42  O6  UNL     1      -3.957  -0.475  -0.740  1.00  0.00    -0.273 OA
HETATM   43  H15 UNL     1      -2.189  -1.505   1.686  1.00  0.00     0.163 HD
BRANCH  41  44
HETATM   44  C13 UNL     1      -4.691  -1.747   1.198  1.00  0.00     0.143 C 
BRANCH  44  45
HETATM   45  C14 UNL     1      -5.530  -2.696   0.406  1.00  0.00    -0.022 A 
HETATM   46  C15 UNL     1      -6.888  -2.585   0.167  1.00  0.00     0.097 A 
HETATM   47  N3  UNL     1      -7.282  -3.655  -0.587  1.00  0.00    -0.365 N 
HETATM   48  C16 UNL     1      -6.212  -4.480  -0.839  1.00  0.00     0.042 A 
HETATM   49  H19 UNL     1      -8.224  -3.824  -0.909  1.00  0.00     0.165 HD
HETATM   50  C17 UNL     1      -6.151  -5.681  -1.558  1.00  0.00     0.030 A 
HETATM   51  C21 UNL     1      -5.094  -3.903  -0.234  1.00  0.00    -0.001 A 
HETATM   52  C18 UNL     1      -4.908  -6.313  -1.659  1.00  0.00     0.002 A 
HETATM   53  C19 UNL     1      -3.772  -5.762  -1.068  1.00  0.00     0.001 A 
HETATM   54  C20 UNL     1      -3.850  -4.559  -0.354  1.00  0.00     0.014 A 
ENDBRANCH  44  45
ENDBRANCH  41  44
ENDBRANCH   1  40
TORSDOF 15
