REMARK  8 active torsions:
REMARK  status: ('A' for Active; 'I' for Inactive)
REMARK    1  A    between atoms: O1_2  and  C2_3 
REMARK    2  A    between atoms: C5_6  and  N1_7 
REMARK    3  A    between atoms: N1_7  and  C6_8 
REMARK    4  A    between atoms: C17_25  and  O4_26 
REMARK    5  A    between atoms: O4_26  and  C18_27 
REMARK    6  A    between atoms: C18_27  and  C19_28 
REMARK    7  A    between atoms: C19_28  and  C20_29 
REMARK    8  A    between atoms: C20_29  and  N4_30 
ROOT
HETATM    1  C2  UNL     1       0.130  -1.796   0.216  1.00  0.00     0.102 A 
HETATM    2  C3  UNL     1       1.381  -1.176   0.230  1.00  0.00     0.057 A 
HETATM    3  C4  UNL     1       1.526   0.169   0.656  1.00  0.00     0.038 A 
HETATM    4  C5  UNL     1       2.746   0.877   0.708  1.00  0.00     0.119 A 
HETATM    5  N2  UNL     1       2.804   2.167   1.084  1.00  0.00    -0.338 N 
ATOM      6  H2  UNL     1       3.686   2.679   1.102  1.00  0.00     0.168 HD
HETATM    7  C14 UNL     1       1.653   2.746   1.432  1.00  0.00     0.182 A 
HETATM    8  N3  UNL     1       0.449   2.165   1.441  1.00  0.00    -0.351 N 
ATOM      9  H3  UNL     1      -0.387   2.672   1.733  1.00  0.00     0.166 HD
HETATM   10  C15 UNL     1       0.393   0.890   1.050  1.00  0.00     0.050 A 
HETATM   11  C16 UNL     1      -0.845   0.259   1.037  1.00  0.00     0.070 A 
HETATM   12  C17 UNL     1      -0.997  -1.073   0.637  1.00  0.00     0.104 A 
ENDROOT
BRANCH   4  13
HETATM   13  N1  UNL     1       3.943   0.201   0.359  1.00  0.00    -0.339 N 
HETATM   14  H5  UNL     1       4.034  -0.651   0.911  1.00  0.00     0.167 HD
BRANCH  13  15
HETATM   15  C6  UNL     1       5.236   0.747   0.157  1.00  0.00     0.070 A 
HETATM   16  C7  UNL     1       5.440   2.010  -0.412  1.00  0.00     0.032 A 
HETATM   17  C8  UNL     1       6.732   2.485  -0.661  1.00  0.00     0.005 A 
HETATM   18  C9  UNL     1       7.840   1.697  -0.353  1.00  0.00     0.040 A 
HETATM   19  C10 UNL     1       7.657   0.432   0.198  1.00  0.00     0.104 A 
HETATM   20  C11 UNL     1       6.363  -0.055   0.424  1.00  0.00     0.128 A 
HETATM   21  O3  UNL     1       8.794  -0.281   0.482  1.00  0.00    -0.346 OA
HETATM   22  O2  UNL     1       6.121  -1.316   0.933  1.00  0.00    -0.344 OA
HETATM   23  C12 UNL     1       7.287  -2.143   0.848  1.00  0.00     0.202 C 
HETATM   24  C13 UNL     1       8.512  -1.392   1.339  1.00  0.00     0.202 C 
ENDBRANCH  13  15
ENDBRANCH   4  13
BRANCH   1  25
HETATM   25  O1  UNL     1      -0.091  -3.092  -0.176  1.00  0.00    -0.353 OA
HETATM   26  C1  UNL     1       0.993  -3.801  -0.760  1.00  0.00     0.210 C 
ENDBRANCH   1  25
BRANCH  12  27
HETATM   27  O4  UNL     1      -2.190  -1.747   0.596  1.00  0.00    -0.348 OA
BRANCH  27  28
HETATM   28  C18 UNL     1      -3.359  -1.150   1.155  1.00  0.00     0.177 C 
BRANCH  28  29
HETATM   29  C19 UNL     1      -4.108  -0.342   0.097  1.00  0.00     0.057 C 
BRANCH  29  30
HETATM   30  C20 UNL     1      -5.414   0.224   0.662  1.00  0.00     0.274 C 
BRANCH  30  31
HETATM   31  N4  UNL     1      -6.111   1.110  -0.282  1.00  0.00     0.092 N 
HETATM   32  C21 UNL     1      -6.507   0.410  -1.525  1.00  0.00     0.298 C 
HETATM   33  C22 UNL     1      -7.696   1.092  -2.219  1.00  0.00     0.198 C 
HETATM   34  O5  UNL     1      -8.887   1.071  -1.421  1.00  0.00    -0.388 OA
HETATM   35  C23 UNL     1      -8.619   1.089  -0.012  1.00  0.00     0.198 C 
HETATM   36  C24 UNL     1      -7.284   1.763   0.342  1.00  0.00     0.298 C 
ENDBRANCH  30  31
ENDBRANCH  29  30
ENDBRANCH  28  29
ENDBRANCH  27  28
ENDBRANCH  12  27
TORSDOF 8
