REMARK  13 active torsions:
REMARK  status: ('A' for Active; 'I' for Inactive)
REMARK    1  A    between atoms: O1_2  and  C2_3 
REMARK    2  A    between atoms: C6_7  and  C7_8 
REMARK    3  A    between atoms: N1_10  and  C9_11 
REMARK    4  A    between atoms: C12_14  and  C13_15 
REMARK    5  A    between atoms: C13_15  and  C14_16 
REMARK    6  A    between atoms: C14_16  and  O2_17 
REMARK    7  A    between atoms: O2_17  and  P1_18 
REMARK    8  A    between atoms: P1_18  and  O4_20 
REMARK    9  A    between atoms: P1_18  and  C15_21 
REMARK   10  A    between atoms: C15_21  and  P2_22 
REMARK   11  A    between atoms: P2_22  and  O6_24 
REMARK   12  A    between atoms: P2_22  and  O7_25 
REMARK   13  A    between atoms: C20_34  and  N4_35 
ROOT
HETATM    1  C7  UNL     1       3.805  -0.584   0.315  1.00  0.00     0.007 A 
HETATM    2  C8  UNL     1       2.567  -0.109   0.691  1.00  0.00     0.112 A 
HETATM    3  N1  UNL     1       1.575  -0.883   0.105  1.00  0.00    -0.307 N 
HETATM    4  C18 UNL     1       2.216  -1.853  -0.673  1.00  0.00     0.127 A 
HETATM    5  N2  UNL     1       1.623  -2.784  -1.450  1.00  0.00    -0.337 N 
ATOM      6  H2  UNL     1       0.612  -2.878  -1.545  1.00  0.00     0.168 HD
HETATM    7  C19 UNL     1       2.503  -3.571  -2.083  1.00  0.00     0.183 A 
HETATM    8  N3  UNL     1       3.843  -3.529  -2.026  1.00  0.00    -0.343 N 
ATOM      9  H3  UNL     1       4.412  -4.187  -2.559  1.00  0.00     0.167 HD
HETATM   10  C20 UNL     1       4.415  -2.595  -1.246  1.00  0.00     0.093 A 
HETATM   11  C21 UNL     1       3.596  -1.693  -0.544  1.00  0.00     0.059 A 
ENDROOT
BRANCH   3  12
HETATM   12  C9  UNL     1       0.163  -0.686   0.296  1.00  0.00     0.040 A 
HETATM   13  C10 UNL     1      -0.317   0.489   0.900  1.00  0.00     0.030 A 
HETATM   14  C11 UNL     1      -1.690   0.688   1.094  1.00  0.00     0.009 A 
HETATM   15  C12 UNL     1      -2.614  -0.281   0.697  1.00  0.00    -0.056 A 
HETATM   16  C16 UNL     1      -2.143  -1.451   0.094  1.00  0.00     0.009 A 
HETATM   17  C17 UNL     1      -0.770  -1.651  -0.103  1.00  0.00     0.030 A 
BRANCH  15  18
HETATM   18  C13 UNL     1      -4.092  -0.061   0.882  1.00  0.00     0.065 C 
BRANCH  18  19
HETATM   19  C14 UNL     1      -4.694   0.764  -0.250  1.00  0.00     0.182 C 
BRANCH  19  20
HETATM   20  O2  UNL     1      -6.107   0.799  -0.099  1.00  0.00    -0.318 OA
BRANCH  20  21
HETATM   21  P1  UNL     1      -6.960   1.539  -1.244  1.00  0.00     0.249 P 
HETATM   22  O3  UNL     1      -6.454   2.904  -1.589  1.00  0.00    -0.653 OA
BRANCH  21  23
HETATM   23  O4  UNL     1      -6.851   0.533  -2.484  1.00  0.00    -0.329 OA
HETATM   24  H14 UNL     1      -6.015   0.608  -2.981  1.00  0.00     0.220 HD
ENDBRANCH  21  23
BRANCH  21  25
HETATM   25  C15 UNL     1      -8.635   1.448  -0.674  1.00  0.00     0.249 C 
BRANCH  25  26
HETATM   26  P2  UNL     1      -9.335  -0.076  -0.108  1.00  0.00     0.247 P 
HETATM   27  O5  UNL     1      -9.418  -1.211  -1.071  1.00  0.00    -0.653 OA
BRANCH  26  28
HETATM   28  O6  UNL     1      -8.614  -0.448   1.274  1.00  0.00    -0.329 OA
HETATM   29  H17 UNL     1      -8.081   0.252   1.692  1.00  0.00     0.220 HD
ENDBRANCH  26  28
BRANCH  26  30
HETATM   30  O7  UNL     1     -10.779   0.345   0.457  1.00  0.00    -0.329 OA
HETATM   31  H18 UNL     1     -11.301  -0.452   0.680  1.00  0.00     0.220 HD
ENDBRANCH  26  30
ENDBRANCH  25  26
ENDBRANCH  21  25
ENDBRANCH  20  21
ENDBRANCH  19  20
ENDBRANCH  18  19
ENDBRANCH  15  18
ENDBRANCH   3  12
BRANCH   1  32
HETATM   32  C6  UNL     1       5.035   0.031   0.766  1.00  0.00    -0.021 A 
HETATM   33  C5  UNL     1       5.552  -0.272   2.027  1.00  0.00     0.012 A 
HETATM   34  C4  UNL     1       6.746   0.314   2.446  1.00  0.00     0.004 A 
HETATM   35  C3  UNL     1       7.427   1.201   1.608  1.00  0.00     0.037 A 
HETATM   36  C2  UNL     1       6.917   1.507   0.345  1.00  0.00     0.069 A 
HETATM   37  C22 UNL     1       5.719   0.920  -0.070  1.00  0.00     0.049 A 
BRANCH  36  38
HETATM   38  O1  UNL     1       7.485   2.349  -0.571  1.00  0.00    -0.356 OA
HETATM   39  C1  UNL     1       8.716   2.964  -0.205  1.00  0.00     0.210 C 
ENDBRANCH  36  38
ENDBRANCH   1  32
BRANCH  10  40
HETATM   40  N4  UNL     1       5.802  -2.585  -1.201  1.00  0.00    -0.288 NA
HETATM   41  H22 UNL     1       6.226  -1.701  -0.956  1.00  0.00     0.125 HD
HETATM   42  H23 UNL     1       6.197  -3.071  -1.997  1.00  0.00     0.125 HD
ENDBRANCH  10  40
TORSDOF 13
