REMARK  3 active torsions:
REMARK  status: ('A' for Active; 'I' for Inactive)
REMARK    1  A    between atoms: N2_11  and  C8_12 
REMARK    2  A    between atoms: C11_15  and  O2_16 
REMARK    3  A    between atoms: C14_19  and  C15_20 
ROOT
HETATM    1  C1  UNL     1      -5.238  -0.990   0.260  1.00  0.00     0.015 C 
HETATM    2  C2  UNL     1      -3.787  -0.548   0.523  1.00  0.00    -0.036 C 
HETATM    3  C3  UNL     1      -3.532  -0.629   2.043  1.00  0.00     0.015 C 
HETATM    4  C4  UNL     1      -3.614   0.918   0.033  1.00  0.00     0.093 C 
HETATM    5  C5  UNL     1      -2.169   1.422   0.047  1.00  0.00     0.164 C 
HETATM    6  O1  UNL     1      -1.916   2.615   0.184  1.00  0.00    -0.292 OA
HETATM    7  C6  UNL     1      -1.151   0.415  -0.186  1.00  0.00     0.063 A 
HETATM    8  C7  UNL     1      -1.450  -0.947  -0.310  1.00  0.00     0.043 A 
HETATM    9  N1  UNL     1      -0.366  -1.696  -0.462  1.00  0.00    -0.296 N 
ATOM     10  H1  UNL     1      -0.318  -2.713  -0.526  1.00  0.00     0.187 HD
HETATM   11  N2  UNL     1       0.675  -0.808  -0.515  1.00  0.00    -0.255 N 
HETATM   12  C14 UNL     1       0.232   0.501  -0.258  1.00  0.00     0.083 A 
HETATM   13  C21 UNL     1      -2.827  -1.510  -0.238  1.00  0.00     0.069 C 
ENDROOT
BRANCH  11  14
HETATM   14  C8  UNL     1       1.982  -1.310  -0.817  1.00  0.00     0.057 A 
HETATM   15  C9  UNL     1       3.037  -0.480  -1.213  1.00  0.00     0.034 A 
HETATM   16  C10 UNL     1       4.295  -1.023  -1.497  1.00  0.00     0.039 A 
HETATM   17  C11 UNL     1       4.501  -2.392  -1.400  1.00  0.00     0.065 A 
HETATM   18  C12 UNL     1       3.464  -3.239  -1.030  1.00  0.00     0.039 A 
HETATM   19  C13 UNL     1       2.206  -2.699  -0.746  1.00  0.00     0.034 A 
BRANCH  17  20
HETATM   20  O2  UNL     1       5.743  -2.871  -1.688  1.00  0.00    -0.361 OA
HETATM   21  H11 UNL     1       5.738  -3.836  -1.575  1.00  0.00     0.217 HD
ENDBRANCH  17  20
ENDBRANCH  11  14
BRANCH  12  22
HETATM   22  C15 UNL     1       1.073   1.670  -0.012  1.00  0.00    -0.005 A 
HETATM   23  C16 UNL     1       1.054   2.757  -0.895  1.00  0.00     0.015 A 
HETATM   24  C17 UNL     1       1.845   3.882  -0.648  1.00  0.00     0.026 A 
HETATM   25  C18 UNL     1       2.657   3.934   0.488  1.00  0.00     0.055 A 
HETATM   26 CL1  UNL     1       3.613   5.353   0.728  1.00  0.00    -0.083 Cl
HETATM   27  C19 UNL     1       2.673   2.857   1.381  1.00  0.00     0.056 A 
HETATM   28 CL2  UNL     1       3.649   2.851   2.807  1.00  0.00    -0.083 Cl
HETATM   29  C20 UNL     1       1.879   1.732   1.133  1.00  0.00     0.039 A 
ENDBRANCH  12  22
TORSDOF 3
