REMARK  9 active torsions:
REMARK  status: ('A' for Active; 'I' for Inactive)
REMARK    1  A    between atoms: N1_2  and  C3_4 
REMARK    2  A    between atoms: C3_4  and  C4_5 
REMARK    3  A    between atoms: C4_5  and  N2_6 
REMARK    4  A    between atoms: N2_6  and  C5_7 
REMARK    5  A    between atoms: C7_9  and  C8_10 
REMARK    6  A    between atoms: C15_17  and  N3_18 
REMARK    7  A    between atoms: C16_19  and  C17_20 
REMARK       I    between atoms: C17_20  and  N4_22 
REMARK    8  A    between atoms: N4_22  and  N5_23 
REMARK    9  A    between atoms: C18_25  and  C19_26 
ROOT
HETATM    1  C5  UNL     1       3.175  -0.541  -1.033  1.00  0.00     0.081 A 
HETATM    2  C6  UNL     1       3.084   0.611  -1.799  1.00  0.00     0.055 A 
HETATM    3  C7  UNL     1       1.854   1.272  -1.937  1.00  0.00    -0.007 A 
HETATM    4  C14 UNL     1       0.721   0.722  -1.279  1.00  0.00     0.037 A 
HETATM    5  C15 UNL     1      -0.672   1.087  -1.164  1.00  0.00     0.062 A 
HETATM    6  C16 UNL     1      -1.416   0.204  -0.396  1.00  0.00     0.103 A 
HETATM    7  S1  UNL     1      -0.433  -1.072   0.188  1.00  0.00    -0.064 SA
HETATM    8  C24 UNL     1       0.956  -0.448  -0.565  1.00  0.00     0.089 A 
HETATM    9  N7  UNL     1       2.126  -1.098  -0.422  1.00  0.00    -0.341 N 
ATOM     10  H7  UNL     1       2.206  -1.960   0.118  1.00  0.00     0.167 HD
ENDROOT
BRANCH   6  11
HETATM   11  C17 UNL     1      -2.839   0.277  -0.064  1.00  0.00     0.279 C 
HETATM   12  O1  UNL     1      -3.540   1.248  -0.357  1.00  0.00    -0.265 OA
HETATM   13  N4  UNL     1      -3.344  -0.836   0.605  1.00  0.00    -0.266 N 
HETATM   14  H20 UNL     1      -2.722  -1.611   0.807  1.00  0.00     0.190 HD
BRANCH  13  15
HETATM   15  N5  UNL     1      -4.655  -0.894   0.979  1.00  0.00    -0.307 N 
HETATM   16  C18 UNL     1      -5.023  -1.985   1.567  1.00  0.00     0.136 C 
ATOM     17  H5  UNL     1      -5.303  -0.126   0.806  1.00  0.00     0.186 HD
BRANCH  16  18
HETATM   18  C19 UNL     1      -6.378  -2.187   2.023  1.00  0.00     0.050 A 
HETATM   19  C20 UNL     1      -6.870  -3.319   2.660  1.00  0.00     0.032 A 
HETATM   20  C21 UNL     1      -8.238  -3.111   2.945  1.00  0.00     0.019 A 
HETATM   21  C22 UNL     1      -8.562  -1.859   2.478  1.00  0.00     0.091 A 
HETATM   22  N6  UNL     1      -7.437  -1.306   1.917  1.00  0.00    -0.360 N 
HETATM   23  C23 UNL     1      -7.400   0.012   1.315  1.00  0.00     0.155 C 
ENDBRANCH  16  18
ENDBRANCH  13  15
ENDBRANCH   6  11
BRANCH   5  24
HETATM   24  N3  UNL     1      -1.225   2.176  -1.744  1.00  0.00    -0.397 N 
HETATM   25  H18 UNL     1      -2.192   2.443  -1.539  1.00  0.00     0.156 HD
HETATM   26  H19 UNL     1      -0.681   2.917  -2.177  1.00  0.00     0.156 HD
ENDBRANCH   5  24
BRANCH   3  27
HETATM   27  C8  UNL     1       1.755   2.489  -2.740  1.00  0.00    -0.025 A 
HETATM   28  C9  UNL     1       1.326   2.435  -4.075  1.00  0.00     0.012 A 
HETATM   29  C10 UNL     1       1.231   3.598  -4.842  1.00  0.00     0.001 A 
HETATM   30  C11 UNL     1       1.568   4.830  -4.284  1.00  0.00     0.000 A 
HETATM   31  C12 UNL     1       2.002   4.899  -2.961  1.00  0.00     0.001 A 
HETATM   32  C13 UNL     1       2.097   3.736  -2.195  1.00  0.00     0.012 A 
ENDBRANCH   3  27
BRANCH   1  33
HETATM   33  N2  UNL     1       4.391  -1.220  -0.891  1.00  0.00    -0.277 NA
HETATM   34  H11 UNL     1       4.153  -2.022  -0.295  1.00  0.00     0.129 HD
BRANCH  33  35
HETATM   35  C4  UNL     1       5.445  -0.458  -0.206  1.00  0.00     0.124 C 
BRANCH  35  36
HETATM   36  C3  UNL     1       5.267  -0.508   1.331  1.00  0.00     0.286 C 
BRANCH  36  37
HETATM   37  N1  UNL     1       5.061  -1.873   1.864  1.00  0.00     0.081 N 
HETATM   38  C1  UNL     1       6.272  -2.688   1.763  1.00  0.00     0.309 C 
HETATM   39  C2  UNL     1       4.617  -1.805   3.259  1.00  0.00     0.309 C 
ENDBRANCH  36  37
ENDBRANCH  35  36
ENDBRANCH  33  35
ENDBRANCH   1  33
TORSDOF 9
