REMARK  8 active torsions:
REMARK  status: ('A' for Active; 'I' for Inactive)
REMARK    1  A    between atoms: O1_2  and  C2_3 
REMARK    2  A    between atoms: C5_6  and  N1_7 
REMARK    3  A    between atoms: N1_7  and  C6_8 
REMARK    4  A    between atoms: C16_26  and  O4_27 
REMARK    5  A    between atoms: O4_27  and  C17_28 
REMARK    6  A    between atoms: C17_28  and  C18_29 
REMARK    7  A    between atoms: C18_29  and  C19_30 
REMARK    8  A    between atoms: C19_30  and  N4_31 
ROOT
HETATM    1  C2  UNL     1      -0.469  -1.023   1.307  1.00  0.00     0.102 A 
HETATM    2  C3  UNL     1      -1.761  -0.566   1.039  1.00  0.00     0.057 A 
HETATM    3  C4  UNL     1      -1.981   0.556   0.198  1.00  0.00     0.038 A 
HETATM    4  C5  UNL     1      -3.244   1.093  -0.128  1.00  0.00     0.119 A 
HETATM    5  N2  UNL     1      -3.380   2.136  -0.966  1.00  0.00    -0.338 N 
ATOM      6  H2  UNL     1      -4.297   2.507  -1.212  1.00  0.00     0.168 HD
HETATM    7  C13 UNL     1      -2.257   2.662  -1.460  1.00  0.00     0.182 A 
HETATM    8  N3  UNL     1      -1.013   2.247  -1.204  1.00  0.00    -0.351 N 
ATOM      9  H3  UNL     1      -0.201   2.707  -1.615  1.00  0.00     0.166 HD
HETATM   10  C14 UNL     1      -0.884   1.201  -0.384  1.00  0.00     0.050 A 
HETATM   11  C15 UNL     1       0.396   0.739  -0.105  1.00  0.00     0.070 A 
HETATM   12  C16 UNL     1       0.625  -0.356   0.735  1.00  0.00     0.104 A 
ENDROOT
BRANCH   4  13
HETATM   13  N1  UNL     1      -4.405   0.517   0.453  1.00  0.00    -0.339 N 
HETATM   14  H5  UNL     1      -4.302   0.495   1.466  1.00  0.00     0.167 HD
BRANCH  13  15
HETATM   15  C6  UNL     1      -5.753   0.730   0.105  1.00  0.00     0.070 A 
HETATM   16  C7  UNL     1      -6.187   1.014  -1.197  1.00  0.00     0.032 A 
HETATM   17  C8  UNL     1      -7.557   1.149  -1.501  1.00  0.00     0.005 A 
HETATM   18  C9  UNL     1      -8.527   0.979  -0.512  1.00  0.00     0.040 A 
HETATM   19  C10 UNL     1      -8.091   0.668   0.757  1.00  0.00     0.114 A 
HETATM   20  C11 UNL     1      -6.750   0.540   1.052  1.00  0.00     0.138 A 
HETATM   21  O3  UNL     1      -8.888   0.450   1.835  1.00  0.00    -0.256 OA
HETATM   22  O2  UNL     1      -6.538   0.220   2.363  1.00  0.00    -0.253 OA
HETATM   23  C12 UNL     1      -7.894   0.165   2.826  1.00  0.00     0.498 A 
HETATM   24  F1  UNL     1      -8.033   1.047   3.846  1.00  0.00    -0.147 F 
HETATM   25  F2  UNL     1      -8.124  -1.074   3.325  1.00  0.00    -0.147 F 
ENDBRANCH  13  15
ENDBRANCH   4  13
BRANCH   1  26
HETATM   26  O1  UNL     1      -0.175  -2.095   2.111  1.00  0.00    -0.353 OA
HETATM   27  C1  UNL     1      -1.256  -2.871   2.608  1.00  0.00     0.210 C 
ENDBRANCH   1  26
BRANCH  12  28
HETATM   28  O4  UNL     1       1.862  -0.864   1.039  1.00  0.00    -0.348 OA
BRANCH  28  29
HETATM   29  C17 UNL     1       3.037  -0.176   0.604  1.00  0.00     0.177 C 
BRANCH  29  30
HETATM   30  C18 UNL     1       3.461  -0.672  -0.778  1.00  0.00     0.057 C 
BRANCH  30  31
HETATM   31  C19 UNL     1       4.667   0.086  -1.339  1.00  0.00     0.274 C 
BRANCH  31  32
HETATM   32  N4  UNL     1       5.869   0.017  -0.498  1.00  0.00     0.092 N 
HETATM   33  C20 UNL     1       6.369  -1.371  -0.356  1.00  0.00     0.298 C 
HETATM   34  C21 UNL     1       7.868  -1.413  -0.018  1.00  0.00     0.198 C 
HETATM   35  O5  UNL     1       8.684  -0.862  -1.061  1.00  0.00    -0.388 OA
HETATM   36  C22 UNL     1       8.020   0.163  -1.811  1.00  0.00     0.198 C 
HETATM   37  C23 UNL     1       6.944   0.903  -1.003  1.00  0.00     0.298 C 
ENDBRANCH  31  32
ENDBRANCH  30  31
ENDBRANCH  29  30
ENDBRANCH  28  29
ENDBRANCH  12  28
TORSDOF 8
