REMARK  10 active torsions:
REMARK  status: ('A' for Active; 'I' for Inactive)
REMARK    1  A    between atoms: N1_2  and  C3_4 
REMARK    2  A    between atoms: C3_4  and  C4_5 
REMARK    3  A    between atoms: C4_5  and  N2_6 
REMARK    4  A    between atoms: N2_6  and  C5_7 
REMARK    5  A    between atoms: C7_9  and  C8_10 
REMARK    6  A    between atoms: C8_10  and  C9_11 
REMARK    7  A    between atoms: C16_18  and  N3_19 
REMARK    8  A    between atoms: C17_20  and  C18_21 
REMARK       I    between atoms: C18_21  and  N4_23 
REMARK    9  A    between atoms: N4_23  and  N5_24 
REMARK   10  A    between atoms: C19_26  and  C20_27 
ROOT
HETATM    1  C5  UNL     1      -2.821  -1.051  -0.796  1.00  0.00     0.081 A 
HETATM    2  C6  UNL     1      -2.712   0.162  -1.466  1.00  0.00     0.050 A 
HETATM    3  C7  UNL     1      -1.471   0.818  -1.604  1.00  0.00    -0.035 A 
HETATM    4  C15 UNL     1      -0.343   0.185  -1.012  1.00  0.00     0.032 A 
HETATM    5  C16 UNL     1       1.056   0.522  -0.881  1.00  0.00     0.062 A 
HETATM    6  C17 UNL     1       1.804  -0.452  -0.238  1.00  0.00     0.103 A 
HETATM    7  S1  UNL     1       0.814  -1.764   0.238  1.00  0.00    -0.064 SA
HETATM    8  C25 UNL     1      -0.583  -1.042  -0.402  1.00  0.00     0.089 A 
HETATM    9  N7  UNL     1      -1.760  -1.682  -0.279  1.00  0.00    -0.341 N 
ATOM     10  H7  UNL     1      -1.839  -2.590   0.179  1.00  0.00     0.167 HD
ENDROOT
BRANCH   6  11
HETATM   11  C18 UNL     1       3.238  -0.435   0.062  1.00  0.00     0.279 C 
HETATM   12  O1  UNL     1       3.953   0.533  -0.213  1.00  0.00    -0.265 OA
HETATM   13  N4  UNL     1       3.722  -1.583   0.696  1.00  0.00    -0.266 N 
HETATM   14  H22 UNL     1       3.026  -2.219   1.081  1.00  0.00     0.190 HD
BRANCH  13  15
HETATM   15  N5  UNL     1       4.970  -1.740   1.245  1.00  0.00    -0.307 N 
HETATM   16  C19 UNL     1       5.984  -1.207   0.638  1.00  0.00     0.136 C 
ATOM     17  H5  UNL     1       5.097  -2.264   2.111  1.00  0.00     0.186 HD
BRANCH  16  18
HETATM   18  C20 UNL     1       7.310  -1.326   1.202  1.00  0.00     0.050 A 
HETATM   19  C21 UNL     1       7.691  -1.976   2.367  1.00  0.00     0.032 A 
HETATM   20  C22 UNL     1       9.089  -1.843   2.517  1.00  0.00     0.019 A 
HETATM   21  C23 UNL     1       9.541  -1.111   1.446  1.00  0.00     0.091 A 
HETATM   22  N6  UNL     1       8.462  -0.798   0.657  1.00  0.00    -0.360 N 
HETATM   23  C24 UNL     1       8.541  -0.022  -0.561  1.00  0.00     0.155 C 
ENDBRANCH  16  18
ENDBRANCH  13  15
ENDBRANCH   6  11
BRANCH   5  24
HETATM   24  N3  UNL     1       1.610   1.677  -1.328  1.00  0.00    -0.397 N 
HETATM   25  H20 UNL     1       1.061   2.525  -1.432  1.00  0.00     0.156 HD
HETATM   26  H21 UNL     1       2.575   1.894  -1.061  1.00  0.00     0.156 HD
ENDBRANCH   5  24
BRANCH   3  27
HETATM   27  C8  UNL     1      -1.444   2.126  -2.366  1.00  0.00     0.078 C 
BRANCH  27  28
HETATM   28  C9  UNL     1      -1.818   3.356  -1.565  1.00  0.00    -0.054 A 
HETATM   29  C10 UNL     1      -1.406   3.543  -0.236  1.00  0.00     0.007 A 
HETATM   30  C11 UNL     1      -1.735   4.711   0.457  1.00  0.00     0.001 A 
HETATM   31  C12 UNL     1      -2.472   5.713  -0.170  1.00  0.00     0.000 A 
HETATM   32  C13 UNL     1      -2.878   5.548  -1.492  1.00  0.00     0.001 A 
HETATM   33  C14 UNL     1      -2.549   4.381  -2.185  1.00  0.00     0.007 A 
ENDBRANCH  27  28
ENDBRANCH   3  27
BRANCH   1  34
HETATM   34  N2  UNL     1      -4.088  -1.652  -0.749  1.00  0.00    -0.277 NA
HETATM   35  H11 UNL     1      -4.801  -0.982  -0.458  1.00  0.00     0.129 HD
BRANCH  34  36
HETATM   36  C4  UNL     1      -4.179  -2.850   0.089  1.00  0.00     0.124 C 
BRANCH  36  37
HETATM   37  C3  UNL     1      -5.668  -3.224   0.281  1.00  0.00     0.286 C 
BRANCH  37  38
HETATM   38  N1  UNL     1      -6.509  -2.096   0.760  1.00  0.00     0.081 N 
HETATM   39  C1  UNL     1      -6.193  -1.737   2.144  1.00  0.00     0.309 C 
HETATM   40  C2  UNL     1      -7.926  -2.456   0.654  1.00  0.00     0.309 C 
ENDBRANCH  37  38
ENDBRANCH  36  37
ENDBRANCH  34  36
ENDBRANCH   1  34
TORSDOF 10
