REMARK  10 active torsions:
REMARK  status: ('A' for Active; 'I' for Inactive)
REMARK    1  A    between atoms: C2_2  and  O1_3 
REMARK    2  A    between atoms: O1_3  and  C3_4 
REMARK    3  A    between atoms: C7_9  and  N1_10 
REMARK    4  A    between atoms: N1_10  and  C8_11 
REMARK    5  A    between atoms: C12_19  and  O2_20 
REMARK    6  A    between atoms: O2_20  and  C13_21 
REMARK    7  A    between atoms: C13_21  and  C14_22 
REMARK    8  A    between atoms: C14_22  and  C15_23 
REMARK    9  A    between atoms: C15_23  and  N4_24 
REMARK   10  A    between atoms: C20_30  and  O4_31 
ROOT
HETATM    1  C8  UNL     1       2.353   0.821   0.557  1.00  0.00     0.098 A 
HETATM    2  N2  UNL     1       2.957   0.881   1.758  1.00  0.00    -0.342 N 
ATOM      3  H2  UNL     1       3.973   0.868   1.849  1.00  0.00     0.167 HD
HETATM    4  C9  UNL     1       2.159   0.959   2.824  1.00  0.00     0.182 A 
HETATM    5  N3  UNL     1       0.821   0.964   2.811  1.00  0.00    -0.351 N 
ATOM      6  H3  UNL     1       0.278   1.006   3.674  1.00  0.00     0.166 HD
HETATM    7  C10 UNL     1       0.230   0.911   1.614  1.00  0.00     0.049 A 
HETATM    8  C11 UNL     1      -1.158   0.924   1.563  1.00  0.00     0.070 A 
HETATM    9  C12 UNL     1      -1.857   0.879   0.352  1.00  0.00     0.104 A 
HETATM   10  C20 UNL     1      -1.140   0.833  -0.854  1.00  0.00     0.102 A 
HETATM   11  C22 UNL     1       0.255   0.813  -0.817  1.00  0.00     0.056 A 
HETATM   12  C23 UNL     1       0.952   0.843   0.418  1.00  0.00     0.032 A 
ENDROOT
BRANCH   1  13
HETATM   13  N1  UNL     1       3.163   0.703  -0.610  1.00  0.00    -0.243 NA
HETATM   14  H8  UNL     1       2.910  -0.168  -1.068  1.00  0.00     0.135 HD
BRANCH  13  15
HETATM   15  C7  UNL     1       4.569   0.898  -0.619  1.00  0.00     0.038 A 
HETATM   16  C6  UNL     1       5.174   2.124  -0.286  1.00  0.00     0.055 A 
HETATM   17  C5  UNL     1       6.567   2.244  -0.272  1.00  0.00     0.028 A 
HETATM   18 CL1  UNL     1       4.250   3.551   0.039  1.00  0.00    -0.082 Cl
HETATM   19  C4  UNL     1       7.378   1.151  -0.591  1.00  0.00     0.038 A 
HETATM   20  C3  UNL     1       6.799  -0.069  -0.931  1.00  0.00     0.070 A 
HETATM   21  C24 UNL     1       5.403  -0.187  -0.939  1.00  0.00     0.062 A 
BRANCH  20  22
HETATM   22  O1  UNL     1       7.461  -1.218  -1.261  1.00  0.00    -0.351 OA
BRANCH  22  23
HETATM   23  C2  UNL     1       8.884  -1.192  -1.368  1.00  0.00     0.171 C 
HETATM   24  C1  UNL     1       9.533  -1.468  -0.023  1.00  0.00     0.034 C 
ENDBRANCH  22  23
ENDBRANCH  20  22
ENDBRANCH  13  15
ENDBRANCH   1  13
BRANCH  10  25
HETATM   25  O4  UNL     1      -1.887   0.795  -2.004  1.00  0.00    -0.353 OA
HETATM   26  C21 UNL     1      -1.206   0.960  -3.240  1.00  0.00     0.210 C 
ENDBRANCH  10  25
BRANCH   9  27
HETATM   27  O2  UNL     1      -3.221   0.887   0.232  1.00  0.00    -0.348 OA
BRANCH  27  28
HETATM   28  C13 UNL     1      -4.046   0.858   1.392  1.00  0.00     0.177 C 
BRANCH  28  29
HETATM   29  C14 UNL     1      -4.235  -0.554   1.941  1.00  0.00     0.046 C 
BRANCH  29  30
HETATM   30  C15 UNL     1      -4.579  -1.645   0.913  1.00  0.00     0.119 C 
BRANCH  30  31
HETATM   31  N4  UNL     1      -5.889  -1.641   0.270  1.00  0.00    -0.408 N 
HETATM   32  C16 UNL     1      -7.062  -1.594   1.146  1.00  0.00     0.143 C 
HETATM   33  C17 UNL     1      -7.904  -0.323   0.954  1.00  0.00     0.187 C 
HETATM   34  O3  UNL     1      -8.353  -0.128  -0.394  1.00  0.00    -0.388 OA
HETATM   35  C18 UNL     1      -7.475  -0.701  -1.376  1.00  0.00     0.187 C 
HETATM   36  C19 UNL     1      -6.013  -0.778  -0.909  1.00  0.00     0.143 C 
ENDBRANCH  30  31
ENDBRANCH  29  30
ENDBRANCH  28  29
ENDBRANCH  27  28
ENDBRANCH   9  27
TORSDOF 10
