REMARK  10 active torsions:
REMARK  status: ('A' for Active; 'I' for Inactive)
REMARK    1  A    between atoms: O1_2  and  C2_3 
REMARK    2  A    between atoms: C5_9  and  N2_10 
REMARK    3  A    between atoms: N2_10  and  C6_11 
REMARK    4  A    between atoms: C10_19  and  O2_20 
REMARK    5  A    between atoms: O2_20  and  C11_21 
REMARK    6  A    between atoms: C11_21  and  C12_22 
REMARK    7  A    between atoms: C12_22  and  C13_23 
REMARK    8  A    between atoms: C13_23  and  N5_24 
REMARK    9  A    between atoms: C19_31  and  O4_32 
REMARK   10  A    between atoms: O4_32  and  C20_33 
ROOT
HETATM    1  C6  UNL     1       2.338   1.011   0.699  1.00  0.00     0.122 A 
HETATM    2  N3  UNL     1       2.762   2.218   1.123  1.00  0.00    -0.338 N 
ATOM      3  H3  UNL     1       3.677   2.341   1.556  1.00  0.00     0.168 HD
HETATM    4  C7  UNL     1       1.930   3.243   0.950  1.00  0.00     0.182 A 
HETATM    5  N4  UNL     1       0.719   3.184   0.393  1.00  0.00    -0.351 N 
ATOM      6  H4  UNL     1       0.134   4.014   0.301  1.00  0.00     0.166 HD
HETATM    7  C8  UNL     1       0.308   1.989  -0.039  1.00  0.00     0.052 A 
HETATM    8  C9  UNL     1      -0.964   1.910  -0.589  1.00  0.00     0.067 A 
HETATM    9  C10 UNL     1      -1.511   0.710  -1.044  1.00  0.00     0.073 A 
HETATM   10  C18 UNL     1      -0.742  -0.442  -0.995  1.00  0.00     0.074 A 
HETATM   11  C19 UNL     1       0.559  -0.382  -0.482  1.00  0.00     0.088 A 
HETATM   12  C25 UNL     1       1.090   0.829   0.053  1.00  0.00     0.068 A 
ENDROOT
BRANCH   1  13
HETATM   13  N2  UNL     1       3.180  -0.112   0.912  1.00  0.00    -0.339 N 
HETATM   14  H5  UNL     1       2.597  -0.910   1.170  1.00  0.00     0.167 HD
BRANCH  13  15
HETATM   15  C5  UNL     1       4.422  -0.141   1.590  1.00  0.00     0.075 A 
HETATM   16  C4  UNL     1       4.747  -1.162   2.496  1.00  0.00     0.130 A 
HETATM   17  N1  UNL     1       5.914  -1.273   3.165  1.00  0.00    -0.352 N 
HETATM   18 CL1  UNL     1       3.624  -2.416   2.871  1.00  0.00    -0.062 Cl
HETATM   19  C3  UNL     1       6.825  -0.306   2.918  1.00  0.00     0.126 A 
ATOM     20  H1  UNL     1       6.096  -2.038   3.815  1.00  0.00     0.166 HD
HETATM   21  C2  UNL     1       6.634   0.753   2.035  1.00  0.00     0.085 A 
HETATM   22  C26 UNL     1       5.413   0.824   1.365  1.00  0.00     0.071 A 
BRANCH  21  23
HETATM   23  O1  UNL     1       7.676   1.625   1.916  1.00  0.00    -0.355 OA
HETATM   24  C1  UNL     1       7.516   2.693   0.990  1.00  0.00     0.210 C 
ENDBRANCH  21  23
ENDBRANCH  13  15
ENDBRANCH   1  13
BRANCH  11  25
HETATM   25  O4  UNL     1       1.321  -1.530  -0.428  1.00  0.00    -0.345 OA
BRANCH  25  26
HETATM   26  C20 UNL     1       1.518  -2.151  -1.718  1.00  0.00     0.133 C 
HETATM   27  C21 UNL     1       0.991  -3.586  -1.652  1.00  0.00     0.058 C 
HETATM   28  C22 UNL     1       1.893  -4.459  -0.792  1.00  0.00     0.170 C 
HETATM   29  O5  UNL     1       3.227  -4.429  -1.293  1.00  0.00    -0.391 OA
HETATM   30  C23 UNL     1       3.794  -3.123  -1.204  1.00  0.00     0.170 C 
HETATM   31  C24 UNL     1       3.011  -2.136  -2.057  1.00  0.00     0.058 C 
ENDBRANCH  25  26
ENDBRANCH  11  25
BRANCH   9  32
HETATM   32  O2  UNL     1      -2.788   0.805  -1.518  1.00  0.00    -0.351 OA
BRANCH  32  33
HETATM   33  C11 UNL     1      -3.492  -0.414  -1.763  1.00  0.00     0.177 C 
BRANCH  33  34
HETATM   34  C12 UNL     1      -4.972  -0.096  -1.990  1.00  0.00     0.057 C 
BRANCH  34  35
HETATM   35  C13 UNL     1      -5.809  -0.108  -0.698  1.00  0.00     0.274 C 
BRANCH  35  36
HETATM   36  N5  UNL     1      -5.302   0.744   0.382  1.00  0.00     0.092 N 
HETATM   37  C14 UNL     1      -6.005   0.490   1.660  1.00  0.00     0.298 C 
HETATM   38  C15 UNL     1      -7.424   1.080   1.721  1.00  0.00     0.198 C 
HETATM   39  O3  UNL     1      -7.418   2.487   1.453  1.00  0.00    -0.388 OA
HETATM   40  C16 UNL     1      -6.823   2.758   0.177  1.00  0.00     0.198 C 
HETATM   41  C17 UNL     1      -5.395   2.191   0.088  1.00  0.00     0.298 C 
ENDBRANCH  35  36
ENDBRANCH  34  35
ENDBRANCH  33  34
ENDBRANCH  32  33
ENDBRANCH   9  32
TORSDOF 10
