REMARK  7 active torsions:
REMARK  status: ('A' for Active; 'I' for Inactive)
REMARK    1  A    between atoms: C2_2  and  S1_3 
REMARK    2  A    between atoms: S1_3  and  N1_6 
REMARK    3  A    between atoms: N1_6  and  C3_7 
REMARK    4  A    between atoms: C7_11  and  N2_12 
REMARK    5  A    between atoms: N2_12  and  C8_13 
REMARK    6  A    between atoms: C12_21  and  O3_22 
REMARK    7  A    between atoms: C14_24  and  O4_25 
ROOT
HETATM    1  C8  UNL     1      -0.053  -1.241  -2.013  1.00  0.00     0.098 A 
HETATM    2  N3  UNL     1      -0.704  -1.112  -3.183  1.00  0.00    -0.342 N 
ATOM      3  H3  UNL     1      -1.477  -1.725  -3.441  1.00  0.00     0.167 HD
HETATM    4  C9  UNL     1      -0.279  -0.134  -3.986  1.00  0.00     0.182 A 
HETATM    5  N4  UNL     1       0.725   0.714  -3.737  1.00  0.00    -0.351 N 
ATOM      6  H4  UNL     1       0.975   1.453  -4.395  1.00  0.00     0.166 HD
HETATM    7  C10 UNL     1       1.386   0.549  -2.587  1.00  0.00     0.049 A 
HETATM    8  C11 UNL     1       2.455   1.392  -2.312  1.00  0.00     0.070 A 
HETATM    9  C12 UNL     1       3.210   1.278  -1.139  1.00  0.00     0.103 A 
HETATM   10  C14 UNL     1       2.888   0.280  -0.207  1.00  0.00     0.102 A 
HETATM   11  C16 UNL     1       1.823  -0.580  -0.477  1.00  0.00     0.056 A 
HETATM   12  C17 UNL     1       1.050  -0.441  -1.658  1.00  0.00     0.032 A 
ENDROOT
BRANCH   1  13
HETATM   13  N2  UNL     1      -0.555  -2.262  -1.176  1.00  0.00    -0.245 NA
HETATM   14  H8  UNL     1      -1.272  -2.714  -1.748  1.00  0.00     0.135 HD
BRANCH  13  15
HETATM   15  C7  UNL     1      -1.093  -2.094   0.127  1.00  0.00     0.015 A 
HETATM   16  C6  UNL     1      -1.348  -3.243   0.889  1.00  0.00     0.024 A 
HETATM   17  C5  UNL     1      -1.914  -3.147   2.162  1.00  0.00     0.004 A 
HETATM   18  C4  UNL     1      -2.247  -1.899   2.684  1.00  0.00     0.024 A 
HETATM   19  C3  UNL     1      -2.006  -0.751   1.932  1.00  0.00     0.024 A 
HETATM   20  C18 UNL     1      -1.447  -0.847   0.656  1.00  0.00     0.048 A 
BRANCH  19  21
HETATM   21  N1  UNL     1      -2.402   0.532   2.425  1.00  0.00    -0.182 NA
HETATM   22  H4  UNL     1      -2.254   0.646   3.429  1.00  0.00     0.146 HD
BRANCH  21  23
HETATM   23  S1  UNL     1      -4.019   0.989   2.113  1.00  0.00     0.235 S 
HETATM   24  O1  UNL     1      -4.173   2.273   2.766  1.00  0.00    -0.206 OA
HETATM   25  O2  UNL     1      -4.862  -0.120   2.513  1.00  0.00    -0.206 OA
BRANCH  23  26
HETATM   26  C2  UNL     1      -4.152   1.199   0.396  1.00  0.00     0.116 C 
HETATM   27  C1  UNL     1      -3.534   2.220  -0.214  1.00  0.00     0.024 C 
ENDBRANCH  23  26
ENDBRANCH  21  23
ENDBRANCH  19  21
ENDBRANCH  13  15
ENDBRANCH   1  13
BRANCH  10  28
HETATM   28  O4  UNL     1       3.670   0.220   0.918  1.00  0.00    -0.353 OA
HETATM   29  C15 UNL     1       3.282  -0.684   1.943  1.00  0.00     0.210 C 
ENDBRANCH  10  28
BRANCH   9  30
HETATM   30  O3  UNL     1       4.274   2.085  -0.817  1.00  0.00    -0.353 OA
HETATM   31  C13 UNL     1       4.656   3.082  -1.754  1.00  0.00     0.210 C 
ENDBRANCH   9  30
TORSDOF 7
