REMARK  10 active torsions:
REMARK  status: ('A' for Active; 'I' for Inactive)
REMARK    1  A    between atoms: N1_2  and  C3_4 
REMARK    2  A    between atoms: C3_4  and  C4_5 
REMARK    3  A    between atoms: C4_5  and  N2_6 
REMARK    4  A    between atoms: N2_6  and  C5_7 
REMARK    5  A    between atoms: C7_12  and  C8_13 
REMARK       I    between atoms: C8_13  and  N4_15 
REMARK    6  A    between atoms: N4_15  and  N5_16 
REMARK    7  A    between atoms: C9_18  and  C10_19 
REMARK    8  A    between atoms: C15_25  and  N7_26 
REMARK    9  A    between atoms: C18_29  and  C19_30 
REMARK   10  A    between atoms: C19_30  and  C20_31 
ROOT
HETATM    1  C5  UNL     1      -2.654  -0.260  -0.164  1.00  0.00     0.087 A 
HETATM    2  N3  UNL     1      -1.596   0.009   0.624  1.00  0.00    -0.340 N 
ATOM      3  H3  UNL     1      -1.686   0.084   1.637  1.00  0.00     0.167 HD
HETATM    4  C6  UNL     1      -0.417   0.173   0.004  1.00  0.00     0.088 A 
HETATM    5  S1  UNL     1       0.987   0.469   0.912  1.00  0.00    -0.064 SA
HETATM    6  C7  UNL     1       1.976   0.525  -0.494  1.00  0.00     0.103 A 
HETATM    7  C15 UNL     1       1.217   0.324  -1.636  1.00  0.00     0.061 A 
HETATM    8  C16 UNL     1      -0.176   0.115  -1.359  1.00  0.00     0.026 A 
HETATM    9  C17 UNL     1      -1.300  -0.129  -2.170  1.00  0.00     0.027 A 
HETATM   10  C18 UNL     1      -2.562  -0.310  -1.565  1.00  0.00    -0.015 A 
ENDROOT
BRANCH   6  11
HETATM   11  C8  UNL     1       3.414   0.772  -0.398  1.00  0.00     0.279 C 
HETATM   12  O1  UNL     1       4.130   0.910  -1.393  1.00  0.00    -0.265 OA
HETATM   13  N4  UNL     1       3.911   0.832   0.902  1.00  0.00    -0.266 N 
HETATM   14  H12 UNL     1       3.271   0.686   1.677  1.00  0.00     0.190 HD
BRANCH  13  15
HETATM   15  N5  UNL     1       5.248   0.969   1.141  1.00  0.00    -0.307 N 
HETATM   16  C9  UNL     1       5.591   0.993   2.388  1.00  0.00     0.136 C 
ATOM     17  H5  UNL     1       5.931   1.047   0.387  1.00  0.00     0.186 HD
BRANCH  16  18
HETATM   18  C10 UNL     1       6.969   1.095   2.803  1.00  0.00     0.050 A 
HETATM   19  C11 UNL     1       7.431   1.087   4.112  1.00  0.00     0.032 A 
HETATM   20  C12 UNL     1       8.838   1.214   4.087  1.00  0.00     0.019 A 
HETATM   21  C13 UNL     1       9.216   1.272   2.767  1.00  0.00     0.091 A 
HETATM   22  N6  UNL     1       8.083   1.219   1.993  1.00  0.00    -0.360 N 
HETATM   23  C14 UNL     1       8.090   1.325   0.548  1.00  0.00     0.155 C 
ENDBRANCH  16  18
ENDBRANCH  13  15
ENDBRANCH   6  11
BRANCH   7  24
HETATM   24  N7  UNL     1       1.733   0.323  -2.894  1.00  0.00    -0.397 N 
HETATM   25  H20 UNL     1       1.141   0.611  -3.666  1.00  0.00     0.156 HD
HETATM   26  H21 UNL     1       2.689   0.674  -3.010  1.00  0.00     0.156 HD
ENDBRANCH   7  24
BRANCH   1  27
HETATM   27  N2  UNL     1      -3.903  -0.479   0.454  1.00  0.00    -0.277 NA
HETATM   28  H11 UNL     1      -4.271  -1.378   0.129  1.00  0.00     0.129 HD
BRANCH  27  29
HETATM   29  C4  UNL     1      -3.871  -0.551   1.928  1.00  0.00     0.124 C 
BRANCH  29  30
HETATM   30  C3  UNL     1      -3.334  -1.929   2.398  1.00  0.00     0.286 C 
BRANCH  30  31
HETATM   31  N1  UNL     1      -4.117  -3.046   1.806  1.00  0.00     0.081 N 
HETATM   32  C1  UNL     1      -5.271  -3.373   2.657  1.00  0.00     0.309 C 
HETATM   33  C2  UNL     1      -3.265  -4.232   1.651  1.00  0.00     0.309 C 
ENDBRANCH  30  31
ENDBRANCH  29  30
ENDBRANCH  27  29
ENDBRANCH   1  27
BRANCH  10  34
HETATM   34  C19 UNL     1      -3.761  -0.523  -2.465  1.00  0.00     0.080 C 
BRANCH  34  35
HETATM   35  C20 UNL     1      -4.145   0.711  -3.255  1.00  0.00    -0.054 A 
HETATM   36  C21 UNL     1      -4.711   1.817  -2.607  1.00  0.00     0.007 A 
HETATM   37  C22 UNL     1      -5.062   2.958  -3.331  1.00  0.00     0.001 A 
HETATM   38  C23 UNL     1      -4.841   3.009  -4.706  1.00  0.00     0.000 A 
HETATM   39  C24 UNL     1      -4.269   1.917  -5.361  1.00  0.00     0.001 A 
HETATM   40  C25 UNL     1      -3.925   0.771  -4.640  1.00  0.00     0.007 A 
ENDBRANCH  34  35
ENDBRANCH  10  34
TORSDOF 10
