REMARK  8 active torsions:
REMARK  status: ('A' for Active; 'I' for Inactive)
REMARK    1  A    between atoms: C4_4  and  C5_5 
REMARK    2  A    between atoms: C7_7  and  O1_8 
REMARK    3  A    between atoms: C13_19  and  N3_20 
REMARK    4  A    between atoms: N3_20  and  C14_21 
REMARK    5  A    between atoms: C14_21  and  C15_22 
REMARK    6  A    between atoms: C15_22  and  C16_23 
REMARK    7  A    between atoms: C16_23  and  C17_24 
REMARK    8  A    between atoms: C17_24  and  N4_25 
ROOT
HETATM    1  C1  UNL     1      -0.839   0.559   1.662  1.00  0.00     0.050 C 
HETATM    2  C2  UNL     1      -1.866   0.637   0.564  1.00  0.00    -0.032 A 
HETATM    3  C3  UNL     1      -3.149   0.105   0.777  1.00  0.00     0.021 A 
HETATM    4  C4  UNL     1      -4.126   0.171  -0.220  1.00  0.00    -0.021 A 
HETATM    5  C11 UNL     1      -3.789   0.779  -1.433  1.00  0.00     0.045 A 
HETATM    6  C12 UNL     1      -2.523   1.313  -1.654  1.00  0.00     0.076 A 
HETATM    7  N1  UNL     1      -2.222   1.886  -2.824  1.00  0.00    -0.296 N 
ATOM      8  H1  UNL     1      -2.919   1.936  -3.567  1.00  0.00     0.187 HD
HETATM    9  N2  UNL     1      -0.974   2.403  -3.016  1.00  0.00    -0.275 N 
ATOM     10  H2  UNL     1      -0.737   2.846  -3.903  1.00  0.00     0.189 HD
HETATM   11  C13 UNL     1      -0.057   2.328  -2.035  1.00  0.00     0.172 A 
HETATM   12  N5  UNL     1      -0.312   1.755  -0.852  1.00  0.00    -0.329 N 
ATOM     13  H5  UNL     1       0.403   1.704  -0.126  1.00  0.00     0.168 HD
HETATM   14  C22 UNL     1      -1.542   1.249  -0.653  1.00  0.00     0.069 A 
ENDROOT
BRANCH  11  15
HETATM   15  N3  UNL     1       1.199   2.858  -2.298  1.00  0.00    -0.263 NA
HETATM   16  H10 UNL     1       1.290   2.970  -3.302  1.00  0.00     0.130 HD
BRANCH  15  17
HETATM   17  C14 UNL     1       2.326   2.246  -1.614  1.00  0.00     0.095 C 
BRANCH  17  18
HETATM   18  C15 UNL     1       2.655   0.869  -2.197  1.00  0.00     0.016 C 
BRANCH  18  19
HETATM   19  C16 UNL     1       3.866   0.207  -1.534  1.00  0.00     0.031 C 
BRANCH  19  20
HETATM   20  C17 UNL     1       3.613  -0.172  -0.069  1.00  0.00     0.272 C 
BRANCH  20  21
HETATM   21  N4  UNL     1       4.701  -0.984   0.479  1.00  0.00     0.088 N 
HETATM   22  C18 UNL     1       5.968  -0.263   0.620  1.00  0.00     0.272 C 
HETATM   23  C19 UNL     1       6.774  -1.142   1.567  1.00  0.00     0.032 C 
HETATM   24  C20 UNL     1       5.742  -1.977   2.317  1.00  0.00     0.032 C 
HETATM   25  C21 UNL     1       4.396  -1.471   1.827  1.00  0.00     0.272 C 
ENDBRANCH  20  21
ENDBRANCH  19  20
ENDBRANCH  18  19
ENDBRANCH  17  18
ENDBRANCH  15  17
ENDBRANCH  11  15
BRANCH   4  26
HETATM   26  C5  UNL     1      -5.465  -0.391  -0.005  1.00  0.00    -0.001 A 
HETATM   27  C6  UNL     1      -5.738  -1.697  -0.455  1.00  0.00     0.050 A 
HETATM   28  C7  UNL     1      -6.998  -2.259  -0.264  1.00  0.00     0.066 A 
HETATM   29  C8  UNL     1      -8.008  -1.548   0.370  1.00  0.00     0.038 A 
HETATM   30  C9  UNL     1      -7.758  -0.253   0.822  1.00  0.00     0.027 A 
HETATM   31  C10 UNL     1      -6.497   0.323   0.637  1.00  0.00     0.045 A 
HETATM   32 CL1  UNL     1      -6.260   1.935   1.220  1.00  0.00    -0.083 Cl
BRANCH  28  33
HETATM   33  O1  UNL     1      -7.285  -3.522  -0.689  1.00  0.00    -0.361 OA
HETATM   34  H6  UNL     1      -6.500  -3.899  -1.121  1.00  0.00     0.217 HD
ENDBRANCH  28  33
ENDBRANCH   4  26
TORSDOF 8
