REMARK  8 active torsions:
REMARK  status: ('A' for Active; 'I' for Inactive)
REMARK    1  A    between atoms: O1_2  and  C2_3 
REMARK    2  A    between atoms: C5_6  and  N1_7 
REMARK    3  A    between atoms: N1_7  and  C6_8 
REMARK    4  A    between atoms: C17_24  and  O3_25 
REMARK    5  A    between atoms: O3_25  and  C18_26 
REMARK    6  A    between atoms: C18_26  and  C19_27 
REMARK    7  A    between atoms: C19_27  and  C20_28 
REMARK    8  A    between atoms: C20_28  and  N4_29 
ROOT
HETATM    1  C2  UNL     1       0.251  -1.281   1.000  1.00  0.00     0.102 A 
HETATM    2  C3  UNL     1       1.496  -0.828   0.557  1.00  0.00     0.057 A 
HETATM    3  C4  UNL     1       1.639  -0.195  -0.705  1.00  0.00     0.038 A 
HETATM    4  C5  UNL     1       2.850   0.301  -1.233  1.00  0.00     0.119 A 
HETATM    5  N2  UNL     1       2.904   0.923  -2.425  1.00  0.00    -0.338 N 
ATOM      6  H2  UNL     1       3.779   1.296  -2.794  1.00  0.00     0.168 HD
HETATM    7  C14 UNL     1       1.759   1.028  -3.102  1.00  0.00     0.182 A 
HETATM    8  N3  UNL     1       0.563   0.583  -2.705  1.00  0.00    -0.351 N 
ATOM      9  H3  UNL     1      -0.269   0.695  -3.284  1.00  0.00     0.166 HD
HETATM   10  C15 UNL     1       0.511  -0.016  -1.513  1.00  0.00     0.050 A 
HETATM   11  C16 UNL     1      -0.720  -0.472  -1.063  1.00  0.00     0.070 A 
HETATM   12  C17 UNL     1      -0.874  -1.093   0.182  1.00  0.00     0.104 A 
ENDROOT
BRANCH   4  13
HETATM   13  N1  UNL     1       4.040   0.138  -0.481  1.00  0.00    -0.339 N 
HETATM   14  H5  UNL     1       4.172  -0.841  -0.239  1.00  0.00     0.167 HD
BRANCH  13  15
HETATM   15  C6  UNL     1       5.300   0.737  -0.680  1.00  0.00     0.068 A 
HETATM   16  C7  UNL     1       5.484   2.011  -1.227  1.00  0.00     0.032 A 
HETATM   17  C8  UNL     1       6.767   2.582  -1.334  1.00  0.00     0.003 A 
HETATM   18  C9  UNL     1       7.895   1.899  -0.876  1.00  0.00     0.010 A 
HETATM   19  C10 UNL     1       7.710   0.660  -0.297  1.00  0.00    -0.020 A 
HETATM   20  C11 UNL     1       6.441   0.105  -0.198  1.00  0.00     0.101 A 
HETATM   21  C13 UNL     1       8.706  -0.294   0.235  1.00  0.00     0.068 C 
HETATM   22  O2  UNL     1       6.435  -1.137   0.396  1.00  0.00    -0.348 OA
HETATM   23  C12 UNL     1       7.760  -1.244   0.969  1.00  0.00     0.180 C 
ENDBRANCH  13  15
ENDBRANCH   4  13
BRANCH   1  24
HETATM   24  O1  UNL     1       0.028  -1.894   2.206  1.00  0.00    -0.353 OA
HETATM   25  C1  UNL     1       1.150  -2.143   3.041  1.00  0.00     0.210 C 
ENDBRANCH   1  24
BRANCH  12  26
HETATM   26  O3  UNL     1      -2.065  -1.554   0.682  1.00  0.00    -0.348 OA
BRANCH  26  27
HETATM   27  C18 UNL     1      -3.292  -1.155   0.064  1.00  0.00     0.177 C 
BRANCH  27  28
HETATM   28  C19 UNL     1      -3.678   0.263   0.488  1.00  0.00     0.057 C 
BRANCH  28  29
HETATM   29  C20 UNL     1      -4.931   0.780  -0.225  1.00  0.00     0.274 C 
BRANCH  29  30
HETATM   30  N4  UNL     1      -6.120  -0.060  -0.030  1.00  0.00     0.092 N 
HETATM   31  C21 UNL     1      -7.162   0.281  -1.026  1.00  0.00     0.298 C 
HETATM   32  C22 UNL     1      -8.558  -0.169  -0.573  1.00  0.00     0.198 C 
HETATM   33  O4  UNL     1      -8.996   0.504   0.614  1.00  0.00    -0.388 OA
HETATM   34  C23 UNL     1      -7.913   0.917   1.457  1.00  0.00     0.198 C 
HETATM   35  C24 UNL     1      -6.675   0.013   1.340  1.00  0.00     0.298 C 
ENDBRANCH  29  30
ENDBRANCH  28  29
ENDBRANCH  27  28
ENDBRANCH  26  27
ENDBRANCH  12  26
TORSDOF 8
