REMARK  8 active torsions:
REMARK  status: ('A' for Active; 'I' for Inactive)
REMARK    1  A    between atoms: O1_2  and  C2_3 
REMARK    2  A    between atoms: C5_6  and  N1_7 
REMARK    3  A    between atoms: N1_7  and  C6_8 
REMARK    4  A    between atoms: C16_25  and  O4_26 
REMARK    5  A    between atoms: O4_26  and  C17_27 
REMARK    6  A    between atoms: C17_27  and  C18_28 
REMARK    7  A    between atoms: C18_28  and  C19_29 
REMARK    8  A    between atoms: C19_29  and  N4_30 
ROOT
HETATM    1  C2  UNL     1       0.227   0.469  -0.932  1.00  0.00     0.102 A 
HETATM    2  C3  UNL     1       1.565   0.678  -0.594  1.00  0.00     0.056 A 
HETATM    3  C4  UNL     1       2.237  -0.193   0.300  1.00  0.00     0.032 A 
HETATM    4  C5  UNL     1       3.582  -0.062   0.700  1.00  0.00     0.098 A 
HETATM    5  N2  UNL     1       4.168  -0.934   1.542  1.00  0.00    -0.342 N 
ATOM      6  H2  UNL     1       5.140  -0.827   1.833  1.00  0.00     0.167 HD
HETATM    7  C13 UNL     1       3.414  -1.944   1.977  1.00  0.00     0.182 A 
HETATM    8  N3  UNL     1       2.129  -2.160   1.674  1.00  0.00    -0.351 N 
ATOM      9  H3  UNL     1       1.614  -2.951   2.060  1.00  0.00     0.166 HD
HETATM   10  C14 UNL     1       1.554  -1.288   0.841  1.00  0.00     0.049 A 
HETATM   11  C15 UNL     1       0.221  -1.482   0.500  1.00  0.00     0.070 A 
HETATM   12  C16 UNL     1      -0.455  -0.622  -0.371  1.00  0.00     0.104 A 
ENDROOT
BRANCH   4  13
HETATM   13  N1  UNL     1       4.330   1.057   0.241  1.00  0.00    -0.240 NA
HETATM   14  H5  UNL     1       3.879   1.903   0.586  1.00  0.00     0.135 HD
BRANCH  13  15
HETATM   15  C6  UNL     1       5.735   1.186   0.325  1.00  0.00     0.089 A 
HETATM   16  C7  UNL     1       6.307   2.386   0.780  1.00  0.00     0.140 A 
HETATM   17  F1  UNL     1       5.499   3.393   1.150  1.00  0.00    -0.204 F 
HETATM   18  C8  UNL     1       7.695   2.571   0.870  1.00  0.00     0.047 A 
HETATM   19  C9  UNL     1       8.559   1.546   0.486  1.00  0.00     0.043 A 
HETATM   20  C10 UNL     1       7.995   0.378   0.015  1.00  0.00     0.107 A 
HETATM   21  C11 UNL     1       6.628   0.200  -0.071  1.00  0.00     0.129 A 
HETATM   22  O3  UNL     1       8.693  -0.702  -0.428  1.00  0.00    -0.323 OA
HETATM   23  O2  UNL     1       6.314  -1.010  -0.619  1.00  0.00    -0.321 OA
HETATM   24  C12 UNL     1       7.618  -1.591  -0.791  1.00  0.00     0.352 A 
ENDBRANCH  13  15
ENDBRANCH   4  13
BRANCH   1  25
HETATM   25  O1  UNL     1      -0.497   1.266  -1.781  1.00  0.00    -0.353 OA
HETATM   26  C1  UNL     1       0.194   2.301  -2.468  1.00  0.00     0.210 C 
ENDBRANCH   1  25
BRANCH  12  27
HETATM   27  O4  UNL     1      -1.767  -0.772  -0.748  1.00  0.00    -0.348 OA
BRANCH  27  28
HETATM   28  C17 UNL     1      -2.535  -1.783  -0.102  1.00  0.00     0.177 C 
BRANCH  28  29
HETATM   29  C18 UNL     1      -3.971  -1.739  -0.624  1.00  0.00     0.057 C 
BRANCH  29  30
HETATM   30  C19 UNL     1      -4.640  -0.384  -0.354  1.00  0.00     0.274 C 
BRANCH  30  31
HETATM   31  N4  UNL     1      -6.035  -0.339  -0.826  1.00  0.00     0.092 N 
HETATM   32  C20 UNL     1      -6.583   1.035  -0.777  1.00  0.00     0.298 C 
HETATM   33  C21 UNL     1      -7.445   1.305   0.465  1.00  0.00     0.198 C 
HETATM   34  O5  UNL     1      -8.578   0.431   0.570  1.00  0.00    -0.388 OA
HETATM   35  C22 UNL     1      -8.380  -0.825  -0.094  1.00  0.00     0.198 C 
HETATM   36  C23 UNL     1      -6.909  -1.272  -0.081  1.00  0.00     0.298 C 
ENDBRANCH  30  31
ENDBRANCH  29  30
ENDBRANCH  28  29
ENDBRANCH  27  28
ENDBRANCH  12  27
TORSDOF 8
