REMARK  8 active torsions:
REMARK  status: ('A' for Active; 'I' for Inactive)
REMARK    1  A    between atoms: O1_2  and  C2_3 
REMARK    2  A    between atoms: C2_3  and  C3_4 
REMARK    3  A    between atoms: C3_4  and  O2_5 
REMARK    4  A    between atoms: O2_5  and  C4_6 
REMARK    5  A    between atoms: C8_14  and  N3_15 
REMARK    6  A    between atoms: N3_15  and  C9_16 
REMARK    7  A    between atoms: C17_26  and  N4_27 
REMARK       I    between atoms: N4_27  and  C18_28 
REMARK    8  A    between atoms: C18_28  and  C19_30 
ROOT
HETATM    1  C4  UNL     1      -0.692  -0.959   1.777  1.00  0.00     0.097 A 
HETATM    2  C5  UNL     1       0.350  -1.861   2.008  1.00  0.00     0.069 A 
HETATM    3  C6  UNL     1       1.569  -1.755   1.351  1.00  0.00     0.049 A 
HETATM    4  N1  UNL     1       2.507  -2.664   1.622  1.00  0.00    -0.351 N 
ATOM      5  H1  UNL     1       2.347  -3.413   2.296  1.00  0.00     0.166 HD
HETATM    6  C7  UNL     1       3.666  -2.546   0.967  1.00  0.00     0.182 A 
HETATM    7  N2  UNL     1       3.976  -1.601   0.079  1.00  0.00    -0.338 N 
ATOM      8  H2  UNL     1       4.883  -1.584  -0.387  1.00  0.00     0.168 HD
HETATM    9  C8  UNL     1       3.037  -0.670  -0.175  1.00  0.00     0.119 A 
HETATM   10  C15 UNL     1       1.766  -0.711   0.438  1.00  0.00     0.037 A 
HETATM   11  C16 UNL     1       0.710   0.206   0.197  1.00  0.00     0.050 A 
HETATM   12  C17 UNL     1      -0.505   0.096   0.869  1.00  0.00     0.069 A 
ENDROOT
BRANCH   9  13
HETATM   13  N3  UNL     1       3.327   0.385  -1.085  1.00  0.00    -0.342 N 
HETATM   14  H10 UNL     1       3.043   1.268  -0.669  1.00  0.00     0.167 HD
BRANCH  13  15
HETATM   15  C9  UNL     1       4.455   0.551  -1.922  1.00  0.00     0.035 A 
HETATM   16  C10 UNL     1       5.175  -0.528  -2.456  1.00  0.00     0.032 A 
HETATM   17  C11 UNL     1       6.260  -0.320  -3.315  1.00  0.00     0.046 A 
HETATM   18  C12 UNL     1       6.617   0.975  -3.672  1.00  0.00     0.138 A 
HETATM   19  F1  UNL     1       7.659   1.154  -4.497  1.00  0.00    -0.204 F 
HETATM   20  C13 UNL     1       5.895   2.060  -3.186  1.00  0.00     0.074 A 
HETATM   21 CL1  UNL     1       6.317   3.669  -3.636  1.00  0.00    -0.081 Cl
HETATM   22  C14 UNL     1       4.812   1.849  -2.327  1.00  0.00     0.056 A 
ENDBRANCH  13  15
ENDBRANCH   9  13
BRANCH  12  23
HETATM   23  N4  UNL     1      -1.581   0.993   0.698  1.00  0.00    -0.323 N 
HETATM   24  C18 UNL     1      -1.637   2.127  -0.094  1.00  0.00     0.255 C 
HETATM   25  O3  UNL     1      -0.752   2.530  -0.848  1.00  0.00    -0.271 OA
HETATM   26  H15 UNL     1      -2.383   0.783   1.284  1.00  0.00     0.169 HD
BRANCH  24  27
HETATM   27  C19 UNL     1      -2.991   2.853   0.023  1.00  0.00     0.311 C 
HETATM   28  C20 UNL     1      -4.027   2.249  -0.926  1.00  0.00     0.047 C 
HETATM   29  C21 UNL     1      -4.451   3.405  -1.822  1.00  0.00     0.033 C 
HETATM   30  C22 UNL     1      -4.128   4.627  -0.993  1.00  0.00     0.271 C 
HETATM   31  N5  UNL     1      -2.856   4.280  -0.355  1.00  0.00     0.097 N 
HETATM   32  H23 UNL     1      -2.109   4.326  -1.060  1.00  0.00     0.317 HD
ENDBRANCH  24  27
ENDBRANCH  12  23
BRANCH   1  33
HETATM   33  O2  UNL     1      -1.926  -1.001   2.382  1.00  0.00    -0.347 OA
BRANCH  33  34
HETATM   34  C3  UNL     1      -2.297  -2.168   3.113  1.00  0.00     0.201 C 
BRANCH  34  35
HETATM   35  C2  UNL     1      -2.708  -3.316   2.194  1.00  0.00     0.193 C 
BRANCH  35  36
HETATM   36  O1  UNL     1      -3.125  -4.427   2.993  1.00  0.00    -0.394 OA
HETATM   37  C1  UNL     1      -3.476  -5.550   2.187  1.00  0.00     0.201 C 
ENDBRANCH  35  36
ENDBRANCH  34  35
ENDBRANCH  33  34
ENDBRANCH   1  33
TORSDOF 8
