REMARK  4 active torsions:
REMARK  status: ('A' for Active; 'I' for Inactive)
REMARK    1  A    between atoms: O1_2  and  C2_3 
REMARK    2  A    between atoms: C6_7  and  N1_8 
REMARK    3  A    between atoms: N1_8  and  C7_9 
REMARK    4  A    between atoms: C10_16  and  C11_17 
ROOT
HETATM    1  C7  UNL     1       1.476  -0.778   0.434  1.00  0.00     0.697 A 
HETATM    2  N2  UNL     1       1.466   0.470  -0.066  1.00  0.00    -0.131 N 
ATOM      3  H2  UNL     1       2.346   0.964  -0.215  1.00  0.00     0.205 HD
HETATM    4  N3  UNL     1       0.284   1.081  -0.376  1.00  0.00    -0.284 N 
ATOM      5  H3  UNL     1       0.278   2.028  -0.756  1.00  0.00     0.187 HD
HETATM    6  C8  UNL     1      -0.864   0.427  -0.177  1.00  0.00     0.077 A 
HETATM    7  C9  UNL     1      -2.080   1.028  -0.485  1.00  0.00     0.045 A 
HETATM    8  C10 UNL     1      -3.296   0.366  -0.286  1.00  0.00    -0.020 A 
HETATM    9  C17 UNL     1      -3.261  -0.931   0.234  1.00  0.00     0.021 A 
HETATM   10  C18 UNL     1      -2.037  -1.548   0.548  1.00  0.00    -0.032 A 
HETATM   11  C19 UNL     1      -2.036  -2.946   1.106  1.00  0.00     0.050 C 
HETATM   12  C20 UNL     1      -0.826  -0.874   0.345  1.00  0.00     0.083 A 
HETATM   13  N4  UNL     1       0.345  -1.470   0.647  1.00  0.00    -0.188 N 
ATOM     14  H4  UNL     1       0.371  -2.417   1.025  1.00  0.00     0.184 HD
ENDROOT
BRANCH   1  15
HETATM   15  N1  UNL     1       2.649  -1.451   0.771  1.00  0.00    -0.190 N 
HETATM   16  H7  UNL     1       2.412  -2.366   1.125  1.00  0.00     0.184 HD
BRANCH  15  17
HETATM   17  C6  UNL     1       4.010  -1.129   0.702  1.00  0.00     0.051 A 
HETATM   18  C5  UNL     1       4.941  -2.077   1.159  1.00  0.00     0.030 A 
HETATM   19  C4  UNL     1       6.313  -1.822   1.123  1.00  0.00     0.005 A 
HETATM   20  C3  UNL     1       6.776  -0.608   0.628  1.00  0.00     0.037 A 
HETATM   21  C2  UNL     1       5.877   0.354   0.169  1.00  0.00     0.070 A 
HETATM   22  C21 UNL     1       4.503   0.089   0.211  1.00  0.00     0.066 A 
BRANCH  21  23
HETATM   23  O1  UNL     1       6.461   1.504  -0.291  1.00  0.00    -0.356 OA
HETATM   24  C1  UNL     1       5.588   2.519  -0.773  1.00  0.00     0.210 C 
ENDBRANCH  21  23
ENDBRANCH  15  17
ENDBRANCH   1  15
BRANCH   8  25
HETATM   25  C11 UNL     1      -4.575   1.016  -0.616  1.00  0.00     0.018 A 
HETATM   26  C12 UNL     1      -5.145   0.905  -1.902  1.00  0.00     0.046 A 
HETATM   27 CL1  UNL     1      -4.380  -0.009  -3.160  1.00  0.00    -0.083 Cl
HETATM   28  C13 UNL     1      -6.360   1.526  -2.216  1.00  0.00     0.025 A 
HETATM   29  C14 UNL     1      -7.035   2.273  -1.254  1.00  0.00     0.003 A 
HETATM   30  C15 UNL     1      -6.495   2.397   0.023  1.00  0.00     0.025 A 
HETATM   31  C16 UNL     1      -5.280   1.777   0.339  1.00  0.00     0.046 A 
HETATM   32 CL2  UNL     1      -4.686   1.986   1.954  1.00  0.00    -0.083 Cl
ENDBRANCH   8  25
TORSDOF 4
