REMARK  4 active torsions:
REMARK  status: ('A' for Active; 'I' for Inactive)
REMARK    1  A    between atoms: C3_5  and  C4_6 
REMARK    2  A    between atoms: C13_19  and  N3_20 
REMARK    3  A    between atoms: N3_20  and  C14_21 
REMARK    4  A    between atoms: C18_25  and  N4_26 
ROOT
HETATM    1  C1  UNL     1      -1.431  -3.172   0.101  1.00  0.00     0.161 C 
HETATM    2  N1  UNL     1      -1.670  -1.741   0.027  1.00  0.00    -0.303 N 
HETATM    3  C2  UNL     1      -2.967  -1.262  -0.067  1.00  0.00     0.260 A 
HETATM    4  O1  UNL     1      -3.962  -1.986  -0.093  1.00  0.00    -0.267 OA
HETATM    5  C3  UNL     1      -3.142   0.228  -0.141  1.00  0.00     0.047 A 
HETATM    6  C10 UNL     1      -2.078   1.046  -0.115  1.00  0.00     0.034 A 
HETATM    7  C11 UNL     1      -0.744   0.479  -0.014  1.00  0.00     0.026 A 
HETATM    8  C12 UNL     1       0.400   1.241   0.021  1.00  0.00     0.121 A 
HETATM    9  N2  UNL     1       1.639   0.723   0.115  1.00  0.00    -0.201 N 
ATOM     10  H2  UNL     1       2.463   1.324   0.140  1.00  0.00     0.183 HD
HETATM   11  C13 UNL     1       1.749  -0.611   0.174  1.00  0.00     0.684 A 
HETATM   12  N5  UNL     1       0.689  -1.434   0.150  1.00  0.00    -0.175 N 
ATOM     13  H5  UNL     1       0.809  -2.446   0.201  1.00  0.00     0.186 HD
HETATM   14  C20 UNL     1      -0.541  -0.884   0.056  1.00  0.00     0.137 A 
ENDROOT
BRANCH  11  15
HETATM   15  N3  UNL     1       2.981  -1.249   0.275  1.00  0.00    -0.192 N 
HETATM   16  H9  UNL     1       2.833  -2.247   0.312  1.00  0.00     0.184 HD
BRANCH  15  17
HETATM   17  C14 UNL     1       4.310  -0.810   0.292  1.00  0.00     0.051 A 
HETATM   18  C15 UNL     1       5.325  -1.764   0.466  1.00  0.00     0.030 A 
HETATM   19  C16 UNL     1       6.671  -1.394   0.478  1.00  0.00     0.004 A 
HETATM   20  C17 UNL     1       7.025  -0.055   0.339  1.00  0.00     0.023 A 
HETATM   21  C18 UNL     1       6.039   0.926   0.230  1.00  0.00     0.008 A 
HETATM   22  C19 UNL     1       4.695   0.530   0.158  1.00  0.00     0.053 A 
BRANCH  21  23
HETATM   23  N4  UNL     1       6.397   2.257  -0.024  1.00  0.00    -0.303 NA
HETATM   24  H13 UNL     1       7.298   2.518   0.364  1.00  0.00     0.124 HD
HETATM   25  H14 UNL     1       5.667   2.922   0.213  1.00  0.00     0.124 HD
ENDBRANCH  21  23
ENDBRANCH  15  17
ENDBRANCH  11  15
BRANCH   5  26
HETATM   26  C4  UNL     1      -4.501   0.797  -0.244  1.00  0.00     0.023 A 
HETATM   27  C5  UNL     1      -5.238   1.120   0.910  1.00  0.00     0.046 A 
HETATM   28 CL1  UNL     1      -4.589   0.903   2.501  1.00  0.00    -0.083 Cl
HETATM   29  C6  UNL     1      -6.532   1.644   0.810  1.00  0.00     0.025 A 
HETATM   30  C7  UNL     1      -7.110   1.852  -0.440  1.00  0.00     0.003 A 
HETATM   31  C8  UNL     1      -6.395   1.538  -1.593  1.00  0.00     0.025 A 
HETATM   32  C9  UNL     1      -5.101   1.014  -1.498  1.00  0.00     0.046 A 
HETATM   33 CL2  UNL     1      -4.276   0.661  -2.980  1.00  0.00    -0.083 Cl
ENDBRANCH   5  26
TORSDOF 4
