REMARK  7 active torsions:
REMARK  status: ('A' for Active; 'I' for Inactive)
REMARK    1  A    between atoms: O1_2  and  C2_3 
REMARK    2  A    between atoms: C4_5  and  C5_6 
REMARK    3  A    between atoms: N2_9  and  C6_10 
REMARK    4  A    between atoms: N3_13  and  C9_14 
REMARK       I    between atoms: N4_17  and  C12_18 
REMARK    5  A    between atoms: C20_31  and  N7_32 
REMARK    6  A    between atoms: C24_36  and  N8_37 
REMARK       I    between atoms: N8_37  and  C25_38 
REMARK    7  A    between atoms: C25_38  and  C26_40 
ROOT
HETATM    1  C5  UNL     1       0.455   0.980   0.181  1.00  0.00     0.076 A 
HETATM    2  N1  UNL     1      -0.511   0.076   0.424  1.00  0.00    -0.295 N 
ATOM      3  H1  UNL     1      -0.398  -0.909   0.663  1.00  0.00     0.187 HD
HETATM    4  N2  UNL     1      -1.665   0.765   0.280  1.00  0.00    -0.270 N 
HETATM    5  C18 UNL     1      -1.470   2.075  -0.061  1.00  0.00     0.139 A 
HETATM    6  N5  UNL     1      -2.413   3.004  -0.285  1.00  0.00    -0.337 N 
ATOM      7  H5  UNL     1      -3.415   2.834  -0.199  1.00  0.00     0.168 HD
HETATM    8  C19 UNL     1      -1.878   4.182  -0.635  1.00  0.00     0.183 A 
HETATM    9  N6  UNL     1      -0.575   4.483  -0.787  1.00  0.00    -0.342 N 
ATOM     10  H6  UNL     1      -0.286   5.420  -1.069  1.00  0.00     0.167 HD
HETATM   11  C20 UNL     1       0.341   3.520  -0.559  1.00  0.00     0.095 A 
HETATM   12  C21 UNL     1      -0.099   2.251  -0.159  1.00  0.00     0.076 A 
ENDROOT
BRANCH   1  13
HETATM   13  C4  UNL     1       1.864   0.589   0.248  1.00  0.00    -0.004 A 
HETATM   14  C3  UNL     1       2.807   1.403   0.890  1.00  0.00     0.053 A 
HETATM   15  C2  UNL     1       4.162   1.052   0.890  1.00  0.00     0.095 A 
HETATM   16  C24 UNL     1       4.580  -0.146   0.270  1.00  0.00     0.068 A 
HETATM   17  C23 UNL     1       3.634  -0.976  -0.331  1.00  0.00     0.033 A 
HETATM   18  C22 UNL     1       2.285  -0.609  -0.341  1.00  0.00     0.016 A 
BRANCH  15  19
HETATM   19  O1  UNL     1       5.168   1.804   1.455  1.00  0.00    -0.354 OA
HETATM   20  C1  UNL     1       4.799   3.046   2.044  1.00  0.00     0.210 C 
ENDBRANCH  15  19
BRANCH  16  21
HETATM   21  N8  UNL     1       5.966  -0.410   0.270  1.00  0.00    -0.319 N 
HETATM   22  C25 UNL     1       6.638  -1.523  -0.186  1.00  0.00     0.273 C 
HETATM   23  O3  UNL     1       6.102  -2.554  -0.577  1.00  0.00    -0.266 OA
HETATM   24  H31 UNL     1       6.516   0.312   0.721  1.00  0.00     0.169 HD
BRANCH  22  25
HETATM   25  C26 UNL     1       8.091  -1.376  -0.134  1.00  0.00     0.104 A 
HETATM   26  C27 UNL     1       8.856  -0.218  -0.187  1.00  0.00     0.049 A 
HETATM   27  C28 UNL     1      10.229  -0.570  -0.145  1.00  0.00    -0.007 A 
HETATM   28  C29 UNL     1      11.424   0.177  -0.174  1.00  0.00     0.014 A 
HETATM   29  C33 UNL     1      10.295  -1.961  -0.065  1.00  0.00     0.045 A 
HETATM   30  C30 UNL     1      12.654  -0.485  -0.118  1.00  0.00     0.001 A 
HETATM   31  C31 UNL     1      12.701  -1.873  -0.035  1.00  0.00     0.002 A 
HETATM   32  C32 UNL     1      11.528  -2.635  -0.010  1.00  0.00     0.030 A 
HETATM   33  N9  UNL     1       8.992  -2.428  -0.063  1.00  0.00    -0.346 N 
HETATM   34  C34 UNL     1       8.613  -3.825   0.026  1.00  0.00     0.156 C 
ENDBRANCH  22  25
ENDBRANCH  16  21
ENDBRANCH   1  13
BRANCH   4  35
HETATM   35  C6  UNL     1      -2.927   0.042   0.393  1.00  0.00     0.113 C 
HETATM   36  C7  UNL     1      -3.463  -0.342  -0.989  1.00  0.00     0.047 C 
HETATM   37  C8  UNL     1      -4.925  -0.759  -0.892  1.00  0.00     0.119 C 
HETATM   38  N3  UNL     1      -5.767   0.357  -0.471  1.00  0.00    -0.408 N 
HETATM   39  C16 UNL     1      -5.153   1.294   0.476  1.00  0.00     0.119 C 
HETATM   40  C17 UNL     1      -3.985   0.720   1.278  1.00  0.00     0.047 C 
BRANCH  38  41
HETATM   41  C9  UNL     1      -7.180   0.045  -0.202  1.00  0.00     0.082 C 
HETATM   42  C10 UNL     1      -7.426  -0.712   1.120  1.00  0.00     0.045 C 
HETATM   43  C11 UNL     1      -8.590  -1.702   1.046  1.00  0.00     0.127 C 
HETATM   44  N4  UNL     1      -9.694  -1.214   0.229  1.00  0.00    -0.352 N 
HETATM   45  C12 UNL     1     -10.996  -1.469   0.640  1.00  0.00     0.215 C 
HETATM   46  C14 UNL     1      -9.368  -0.762  -1.123  1.00  0.00     0.127 C 
HETATM   47  C13 UNL     1     -12.101  -1.006  -0.277  1.00  0.00     0.117 C 
HETATM   48  O2  UNL     1     -11.266  -2.032   1.701  1.00  0.00    -0.274 OA
HETATM   49  C15 UNL     1      -7.867  -0.657  -1.381  1.00  0.00     0.045 C 
ENDBRANCH  38  41
ENDBRANCH   4  35
BRANCH  11  50
HETATM   50  N7  UNL     1       1.667   3.877  -0.781  1.00  0.00    -0.288 NA
HETATM   51  H27 UNL     1       2.241   3.124  -1.142  1.00  0.00     0.125 HD
HETATM   52  H28 UNL     1       1.698   4.732  -1.326  1.00  0.00     0.125 HD
ENDBRANCH  11  50
TORSDOF 7
