REMARK  5 active torsions:
REMARK  status: ('A' for Active; 'I' for Inactive)
REMARK    1  A    between atoms: O1_2  and  C2_3 
REMARK    2  A    between atoms: C6_7  and  N1_8 
REMARK    3  A    between atoms: C10_15  and  N3_16 
REMARK    4  A    between atoms: N3_16  and  C11_17 
REMARK    5  A    between atoms: C14_20  and  N4_21 
ROOT
HETATM    1  N1  UNL     1      -4.878   0.567  -0.210  1.00  0.00    -0.110 N 
HETATM    2  C7  UNL     1      -3.753   1.267   0.252  1.00  0.00     0.282 A 
HETATM    3  O2  UNL     1      -3.744   2.405   0.717  1.00  0.00    -0.266 OA
HETATM    4  C8  UNL     1      -2.441   0.612   0.132  1.00  0.00     0.095 A 
HETATM    5  C9  UNL     1      -1.279   1.225   0.532  1.00  0.00     0.127 A 
HETATM    6  N2  UNL     1      -0.059   0.653   0.416  1.00  0.00    -0.201 N 
ATOM      7  H2  UNL     1       0.782   1.142   0.722  1.00  0.00     0.183 HD
HETATM    8  C10 UNL     1       0.012  -0.577  -0.114  1.00  0.00     0.684 A 
HETATM    9  N6  UNL     1      -1.075  -1.251  -0.525  1.00  0.00    -0.174 N 
ATOM     10  H6  UNL     1      -0.998  -2.189  -0.917  1.00  0.00     0.186 HD
HETATM   11  C22 UNL     1      -2.278  -0.640  -0.400  1.00  0.00     0.162 A 
HETATM   12  N7  UNL     1      -3.444  -1.294  -0.830  1.00  0.00    -0.128 N 
HETATM   13  C23 UNL     1      -3.583  -2.554  -1.382  1.00  0.00     0.086 A 
HETATM   14  C24 UNL     1      -2.684  -3.578  -1.718  1.00  0.00     0.033 A 
HETATM   15  C25 UNL     1      -3.216  -4.749  -2.271  1.00  0.00     0.002 A 
HETATM   16  C26 UNL     1      -4.587  -4.892  -2.480  1.00  0.00     0.002 A 
HETATM   17  C27 UNL     1      -5.471  -3.863  -2.136  1.00  0.00     0.032 A 
HETATM   18  C28 UNL     1      -4.954  -2.682  -1.580  1.00  0.00     0.077 A 
HETATM   19  N8  UNL     1      -5.619  -1.559  -1.172  1.00  0.00    -0.188 N 
ATOM     20  H8  UNL     1      -6.627  -1.403  -1.196  1.00  0.00     0.184 HD
HETATM   21  C29 UNL     1      -4.700  -0.717  -0.741  1.00  0.00     0.701 A 
ENDROOT
BRANCH   8  22
HETATM   22  N3  UNL     1       1.214  -1.254  -0.270  1.00  0.00    -0.192 N 
HETATM   23  H8  UNL     1       1.039  -2.161  -0.677  1.00  0.00     0.184 HD
BRANCH  22  24
HETATM   24  C11 UNL     1       2.556  -0.901  -0.104  1.00  0.00     0.049 A 
HETATM   25  C12 UNL     1       3.538  -1.879  -0.296  1.00  0.00     0.032 A 
HETATM   26  C13 UNL     1       4.902  -1.591  -0.134  1.00  0.00     0.031 A 
HETATM   27  C14 UNL     1       5.355  -0.319   0.237  1.00  0.00     0.030 A 
HETATM   28  C20 UNL     1       4.360   0.647   0.442  1.00  0.00     0.031 A 
HETATM   29  C21 UNL     1       2.992   0.364   0.280  1.00  0.00     0.032 A 
BRANCH  27  30
HETATM   30  N4  UNL     1       6.699  -0.032   0.391  1.00  0.00    -0.378 N 
HETATM   31  C15 UNL     1       7.156   1.128   1.174  1.00  0.00     0.153 C 
HETATM   32  C16 UNL     1       8.583   0.905   1.730  1.00  0.00     0.291 C 
HETATM   33  N5  UNL     1       9.620   0.564   0.733  1.00  0.00     0.087 N 
HETATM   34  C17 UNL     1      10.425   1.726   0.370  1.00  0.00     0.310 C 
HETATM   35  C18 UNL     1       9.025  -0.054  -0.471  1.00  0.00     0.291 C 
HETATM   36  C19 UNL     1       7.750  -0.884  -0.190  1.00  0.00     0.153 C 
ENDBRANCH  27  30
ENDBRANCH  22  24
ENDBRANCH   8  22
BRANCH   1  37
HETATM   37  C6  UNL     1      -6.209   1.109  -0.131  1.00  0.00     0.063 A 
HETATM   38  C5  UNL     1      -7.197   0.806  -1.082  1.00  0.00     0.031 A 
HETATM   39  C4  UNL     1      -8.484   1.347  -0.996  1.00  0.00     0.005 A 
HETATM   40  C3  UNL     1      -8.815   2.211   0.045  1.00  0.00     0.037 A 
HETATM   41  C2  UNL     1      -7.857   2.540   0.998  1.00  0.00     0.070 A 
HETATM   42  C30 UNL     1      -6.568   1.993   0.902  1.00  0.00     0.067 A 
BRANCH  41  43
HETATM   43  O1  UNL     1      -8.047   3.368   2.073  1.00  0.00    -0.356 OA
HETATM   44  C1  UNL     1      -9.304   4.025   2.164  1.00  0.00     0.210 C 
ENDBRANCH  41  43
ENDBRANCH   1  37
TORSDOF 5
