REMARK  7 active torsions:
REMARK  status: ('A' for Active; 'I' for Inactive)
REMARK    1  A    between atoms: C8_8  and  N1_9 
REMARK    2  A    between atoms: C12_16  and  N3_17 
REMARK    3  A    between atoms: N3_17  and  C13_18 
REMARK    4  A    between atoms: C16_21  and  O2_22 
REMARK    5  A    between atoms: O2_22  and  C17_23 
REMARK    6  A    between atoms: C17_23  and  C18_24 
REMARK    7  A    between atoms: C18_24  and  N4_25 
ROOT
HETATM    1  N1  UNL     1      -6.111  -0.738  -0.176  1.00  0.00    -0.108 N 
HETATM    2  C9  UNL     1      -5.020  -1.583  -0.363  1.00  0.00     0.282 A 
HETATM    3  O1  UNL     1      -5.076  -2.770  -0.671  1.00  0.00    -0.266 OA
HETATM    4  C10 UNL     1      -3.685  -1.003  -0.142  1.00  0.00     0.095 A 
HETATM    5  C11 UNL     1      -2.538  -1.745  -0.272  1.00  0.00     0.127 A 
HETATM    6  N2  UNL     1      -1.302  -1.241  -0.058  1.00  0.00    -0.201 N 
ATOM      7  H2  UNL     1      -0.471  -1.823  -0.168  1.00  0.00     0.183 HD
HETATM    8  C12 UNL     1      -1.201   0.047   0.303  1.00  0.00     0.684 A 
HETATM    9  N6  UNL     1      -2.269   0.849   0.446  1.00  0.00    -0.174 N 
ATOM     10  H6  UNL     1      -2.165   1.827   0.716  1.00  0.00     0.186 HD
HETATM   11  C26 UNL     1      -3.491   0.308   0.218  1.00  0.00     0.162 A 
HETATM   12  N7  UNL     1      -4.645   1.103   0.348  1.00  0.00    -0.128 N 
HETATM   13  C27 UNL     1      -4.762   2.444   0.660  1.00  0.00     0.086 A 
HETATM   14  C28 UNL     1      -3.842   3.460   0.957  1.00  0.00     0.033 A 
HETATM   15  C29 UNL     1      -4.354   4.736   1.221  1.00  0.00     0.002 A 
HETATM   16  C30 UNL     1      -5.725   4.987   1.188  1.00  0.00     0.002 A 
HETATM   17  C31 UNL     1      -6.630   3.963   0.888  1.00  0.00     0.032 A 
HETATM   18  C32 UNL     1      -6.135   2.677   0.621  1.00  0.00     0.077 A 
HETATM   19  N8  UNL     1      -6.826   1.538   0.304  1.00  0.00    -0.188 N 
ATOM     20  H8  UNL     1      -7.836   1.438   0.205  1.00  0.00     0.184 HD
HETATM   21  C33 UNL     1      -5.916   0.599   0.153  1.00  0.00     0.701 A 
ENDROOT
BRANCH   8  22
HETATM   22  N3  UNL     1       0.024   0.637   0.597  1.00  0.00    -0.192 N 
HETATM   23  H11 UNL     1      -0.124   1.583   0.916  1.00  0.00     0.184 HD
BRANCH  22  24
HETATM   24  C13 UNL     1       1.348   0.192   0.535  1.00  0.00     0.052 A 
HETATM   25  C14 UNL     1       1.742  -1.000  -0.083  1.00  0.00     0.033 A 
HETATM   26  C15 UNL     1       3.083  -1.419  -0.089  1.00  0.00     0.042 A 
HETATM   27  C16 UNL     1       4.061  -0.652   0.539  1.00  0.00     0.107 A 
HETATM   28  C24 UNL     1       3.671   0.528   1.170  1.00  0.00     0.151 A 
HETATM   29  F1  UNL     1       4.582   1.291   1.795  1.00  0.00    -0.203 F 
HETATM   30  C25 UNL     1       2.342   0.950   1.168  1.00  0.00     0.075 A 
BRANCH  27  31
HETATM   31  O2  UNL     1       5.387  -0.969   0.622  1.00  0.00    -0.346 OA
BRANCH  31  32
HETATM   32  C17 UNL     1       5.881  -1.940  -0.304  1.00  0.00     0.206 C 
BRANCH  32  33
HETATM   33  C18 UNL     1       7.412  -2.046  -0.166  1.00  0.00     0.299 C 
BRANCH  33  34
HETATM   34  N4  UNL     1       8.182  -1.028  -0.913  1.00  0.00     0.093 N 
HETATM   35  C19 UNL     1       7.903   0.345  -0.442  1.00  0.00     0.302 C 
HETATM   36  C20 UNL     1       8.807   1.408  -1.114  1.00  0.00     0.302 C 
HETATM   37  N5  UNL     1      10.258   1.146  -1.032  1.00  0.00     0.087 N 
HETATM   38  C21 UNL     1      10.770   1.385   0.316  1.00  0.00     0.310 C 
HETATM   39  C22 UNL     1      10.513  -0.236  -1.477  1.00  0.00     0.302 C 
HETATM   40  C23 UNL     1       9.629  -1.313  -0.804  1.00  0.00     0.302 C 
ENDBRANCH  33  34
ENDBRANCH  32  33
ENDBRANCH  31  32
ENDBRANCH  27  31
ENDBRANCH  22  24
ENDBRANCH   8  22
BRANCH   1  41
HETATM   41  C8  UNL     1      -7.449  -1.180  -0.367  1.00  0.00     0.072 A 
HETATM   42  C2  UNL     1      -7.888  -1.578  -1.653  1.00  0.00    -0.034 A 
HETATM   43  C1  UNL     1      -7.005  -1.535  -2.871  1.00  0.00     0.050 C 
HETATM   44  C3  UNL     1      -9.204  -2.043  -1.817  1.00  0.00     0.009 A 
HETATM   45  C4  UNL     1     -10.084  -2.088  -0.741  1.00  0.00     0.001 A 
HETATM   46  C5  UNL     1      -9.658  -1.688   0.522  1.00  0.00     0.009 A 
HETATM   47  C6  UNL     1      -8.340  -1.253   0.733  1.00  0.00    -0.034 A 
HETATM   48  C7  UNL     1      -7.940  -0.881   2.136  1.00  0.00     0.050 C 
ENDBRANCH   1  41
TORSDOF 7
