REMARK  5 active torsions:
REMARK  status: ('A' for Active; 'I' for Inactive)
REMARK    1  A    between atoms: N1_2  and  C2_3 
REMARK    2  A    between atoms: C4_5  and  N3_28 
REMARK    3  A    between atoms: C5_7  and  N2_11 
REMARK    4  A    between atoms: C6_8  and  O2_9 
REMARK    5  A    between atoms: C26_31  and  O3_32 
ROOT
HETATM    1  C2  UNL     1       3.136   0.556  -0.019  1.00  0.00     0.257 C 
HETATM    2  C3  UNL     1       1.989   1.563   0.006  1.00  0.00     0.092 C 
HETATM    3  C4  UNL     1       1.014   1.355  -1.153  1.00  0.00     0.233 C 
HETATM    4  O1  UNL     1       1.118   0.083  -1.802  1.00  0.00    -0.339 OA
HETATM    5  C5  UNL     1       1.385  -1.056  -0.967  1.00  0.00     0.262 C 
HETATM    6  C6  UNL     1       2.493  -0.853   0.099  1.00  0.00     0.203 C 
ENDROOT
BRANCH   1   7
HETATM    7  N1  UNL     1       4.028   0.671  -1.185  1.00  0.00     0.086 N 
HETATM    8  C1  UNL     1       4.722   1.943  -1.289  1.00  0.00     0.307 C 
HETATM    9  H4  UNL     1       3.538   0.454  -2.054  1.00  0.00     0.316 HD
ENDBRANCH   1   7
BRANCH   6  10
HETATM   10  O2  UNL     1       3.451  -1.925  -0.024  1.00  0.00    -0.384 OA
HETATM   11  C7  UNL     1       4.389  -1.986   1.042  1.00  0.00     0.202 C 
ENDBRANCH   6  10
BRANCH   3  12
HETATM   12  N3  UNL     1      -0.368   1.611  -0.760  1.00  0.00    -0.316 N 
HETATM   13  C23 UNL     1      -0.993   2.846  -0.739  1.00  0.00     0.048 A 
HETATM   14  C18 UNL     1      -2.285   2.649  -0.215  1.00  0.00     0.004 A 
HETATM   15  C22 UNL     1      -0.531   4.116  -1.128  1.00  0.00     0.030 A 
HETATM   16  C17 UNL     1      -2.423   1.257   0.089  1.00  0.00     0.021 A 
HETATM   17  C19 UNL     1      -3.127   3.776  -0.095  1.00  0.00     0.014 A 
HETATM   18  C16 UNL     1      -3.360   0.356   0.616  1.00  0.00     0.037 A 
HETATM   19  C24 UNL     1      -1.218   0.676  -0.263  1.00  0.00     0.077 A 
HETATM   20  C15 UNL     1      -3.150  -1.036   0.796  1.00  0.00    -0.012 A 
HETATM   21  C26 UNL     1      -4.706   0.544   1.101  1.00  0.00     0.148 A 
HETATM   22  C14 UNL     1      -1.943  -1.662   0.448  1.00  0.00     0.015 A 
HETATM   23  C27 UNL     1      -4.407  -1.616   1.386  1.00  0.00     0.162 A 
HETATM   24  C13 UNL     1      -1.391  -2.974   0.483  1.00  0.00     0.004 A 
HETATM   25  C25 UNL     1      -0.966  -0.842  -0.080  1.00  0.00     0.077 A 
HETATM   26  C8  UNL     1      -0.090  -2.898  -0.039  1.00  0.00     0.048 A 
HETATM   27  C12 UNL     1      -1.878  -4.226   0.913  1.00  0.00     0.014 A 
HETATM   28  N2  UNL     1       0.140  -1.574  -0.388  1.00  0.00    -0.313 N 
HETATM   29  C9  UNL     1       0.733  -4.034  -0.136  1.00  0.00     0.030 A 
HETATM   30  C10 UNL     1       0.224  -5.260   0.300  1.00  0.00     0.002 A 
HETATM   31  C11 UNL     1      -1.063  -5.358   0.817  1.00  0.00     0.001 A 
HETATM   32  N4  UNL     1      -5.363  -0.479   1.546  1.00  0.00    -0.366 N 
ATOM     33  H4  UNL     1      -6.312  -0.503   1.919  1.00  0.00     0.162 HD
HETATM   34  C20 UNL     1      -2.674   5.041  -0.484  1.00  0.00     0.001 A 
HETATM   35  C21 UNL     1      -1.392   5.206  -0.993  1.00  0.00     0.002 A 
BRANCH  21  36
HETATM   36  O3  UNL     1      -5.270   1.746   1.097  1.00  0.00    -0.346 OA
HETATM   37  H22 UNL     1      -6.166   1.641   1.459  1.00  0.00     0.219 HD
ENDBRANCH  21  36
ENDBRANCH   3  12
TORSDOF 5
