REMARK  5 active torsions:
REMARK  status: ('A' for Active; 'I' for Inactive)
REMARK    1  A    between atoms: C2_2  and  C3_3 
REMARK       I    between atoms: C3_3  and  N1_5 
REMARK    2  A    between atoms: C6_8  and  C7_9 
REMARK    3  A    between atoms: C7_9  and  N2_10 
REMARK    4  A    between atoms: C9_12  and  C10_13 
REMARK    5  A    between atoms: C18_23  and  N3_24 
ROOT
HETATM    1  N2  UNL     1       0.149  -0.535  -1.575  1.00  0.00    -0.341 N 
HETATM    2  C8  UNL     1       0.902   0.594  -1.365  1.00  0.00     0.106 A 
HETATM    3  C9  UNL     1       2.219   0.205  -1.218  1.00  0.00     0.007 A 
HETATM    4  C17 UNL     1       2.263  -1.219  -1.339  1.00  0.00     0.064 A 
HETATM    5  C18 UNL     1       3.244  -2.221  -1.291  1.00  0.00     0.114 A 
HETATM    6  N4  UNL     1       2.869  -3.509  -1.433  1.00  0.00    -0.338 N 
ATOM      7  H4  UNL     1       3.557  -4.261  -1.391  1.00  0.00     0.168 HD
HETATM    8  C19 UNL     1       1.566  -3.779  -1.631  1.00  0.00     0.183 A 
HETATM    9  N5  UNL     1       0.543  -2.914  -1.704  1.00  0.00    -0.338 N 
ATOM     10  H5  UNL     1      -0.428  -3.186  -1.858  1.00  0.00     0.168 HD
HETATM   11  C20 UNL     1       0.956  -1.644  -1.549  1.00  0.00     0.123 A 
ENDROOT
BRANCH   1  12
HETATM   12  C7  UNL     1      -1.276  -0.537  -1.858  1.00  0.00     0.135 C 
BRANCH  12  13
HETATM   13  C6  UNL     1      -2.161  -0.334  -0.616  1.00  0.00     0.007 C 
HETATM   14  C5  UNL     1      -2.089  -1.517   0.359  1.00  0.00     0.026 C 
HETATM   15  C4  UNL     1      -2.980  -1.272   1.580  1.00  0.00     0.126 C 
HETATM   16  N1  UNL     1      -4.267  -0.666   1.248  1.00  0.00    -0.349 N 
HETATM   17  C3  UNL     1      -5.109  -0.364   2.311  1.00  0.00     0.242 C 
HETATM   18  C22 UNL     1      -4.661  -0.732  -0.153  1.00  0.00     0.126 C 
HETATM   19  O1  UNL     1      -4.820  -0.596   3.480  1.00  0.00    -0.268 OA
HETATM   20  C21 UNL     1      -3.619  -0.063  -1.049  1.00  0.00     0.026 C 
BRANCH  17  21
HETATM   21  C2  UNL     1      -6.399   0.294   1.986  1.00  0.00     0.064 C 
HETATM   22  C1  UNL     1      -7.483   0.068   2.747  1.00  0.00     0.017 C 
ENDBRANCH  17  21
ENDBRANCH  12  13
ENDBRANCH   1  12
BRANCH   3  23
HETATM   23  C10 UNL     1       3.289   1.156  -1.003  1.00  0.00    -0.021 A 
HETATM   24  C11 UNL     1       4.260   1.360  -2.009  1.00  0.00     0.015 A 
HETATM   25  C12 UNL     1       5.312   2.262  -1.816  1.00  0.00     0.040 A 
HETATM   26  C13 UNL     1       5.363   2.932  -0.614  1.00  0.00     0.105 A 
HETATM   27  C14 UNL     1       4.419   2.735   0.370  1.00  0.00     0.105 A 
HETATM   28  O3  UNL     1       6.312   3.834  -0.250  1.00  0.00    -0.323 OA
HETATM   29  C15 UNL     1       3.368   1.857   0.208  1.00  0.00     0.052 A 
HETATM   30  O2  UNL     1       4.661   3.484   1.479  1.00  0.00    -0.323 OA
HETATM   31  C16 UNL     1       5.857   4.186   1.077  1.00  0.00     0.352 A 
ENDBRANCH   3  23
BRANCH   5  32
HETATM   32  N3  UNL     1       4.593  -1.979  -1.094  1.00  0.00    -0.385 N 
HETATM   33  H17 UNL     1       4.826  -1.105  -0.641  1.00  0.00     0.157 HD
HETATM   34  H18 UNL     1       5.080  -2.808  -0.782  1.00  0.00     0.157 HD
ENDBRANCH   5  32
TORSDOF 5
