REMARK  8 active torsions:
REMARK  status: ('A' for Active; 'I' for Inactive)
REMARK    1  A    between atoms: O1_2  and  C2_3 
REMARK    2  A    between atoms: C5_6  and  N1_7 
REMARK    3  A    between atoms: N1_7  and  C6_8 
REMARK    4  A    between atoms: C17_25  and  O2_26 
REMARK    5  A    between atoms: O2_26  and  C18_27 
REMARK    6  A    between atoms: C18_27  and  C19_28 
REMARK    7  A    between atoms: C19_28  and  C20_29 
REMARK    8  A    between atoms: C20_29  and  N5_30 
ROOT
HETATM    1  C2  UNL     1      -0.555  -0.344  -1.306  1.00  0.00     0.102 A 
HETATM    2  C3  UNL     1       0.751  -0.147  -0.860  1.00  0.00     0.057 A 
HETATM    3  C4  UNL     1       1.504  -1.218  -0.310  1.00  0.00     0.038 A 
HETATM    4  C5  UNL     1       2.830  -1.118   0.160  1.00  0.00     0.119 A 
HETATM    5  N3  UNL     1       3.468  -2.160   0.722  1.00  0.00    -0.338 N 
ATOM      6  H3  UNL     1       4.418  -2.072   1.083  1.00  0.00     0.168 HD
HETATM    7  C14 UNL     1       2.800  -3.315   0.786  1.00  0.00     0.182 A 
HETATM    8  N4  UNL     1       1.558  -3.532   0.339  1.00  0.00    -0.351 N 
ATOM      9  H4  UNL     1       1.119  -4.450   0.406  1.00  0.00     0.166 HD
HETATM   10  C15 UNL     1       0.921  -2.488  -0.199  1.00  0.00     0.050 A 
HETATM   11  C16 UNL     1      -0.371  -2.676  -0.671  1.00  0.00     0.070 A 
HETATM   12  C17 UNL     1      -1.114  -1.625  -1.219  1.00  0.00     0.104 A 
ENDROOT
BRANCH   4  13
HETATM   13  N1  UNL     1       3.517   0.116   0.016  1.00  0.00    -0.340 N 
HETATM   14  H5  UNL     1       3.476   0.418  -0.947  1.00  0.00     0.167 HD
BRANCH  13  15
HETATM   15  C6  UNL     1       4.670   0.554   0.692  1.00  0.00     0.061 A 
HETATM   16  C7  UNL     1       4.922   0.203   2.032  1.00  0.00     0.032 A 
HETATM   17  C8  UNL     1       6.034   0.670   2.732  1.00  0.00     0.003 A 
HETATM   18  C9  UNL     1       6.942   1.533   2.119  1.00  0.00     0.015 A 
HETATM   19  C10 UNL     1       6.726   1.930   0.783  1.00  0.00     0.016 A 
HETATM   20  C11 UNL     1       7.426   2.783  -0.120  1.00  0.00     0.061 A 
HETATM   21  C13 UNL     1       5.606   1.434   0.104  1.00  0.00     0.071 A 
HETATM   22 CL1  UNL     1       8.854   3.641   0.227  1.00  0.00    -0.082 Cl
HETATM   23  C12 UNL     1       6.751   2.783  -1.314  1.00  0.00     0.113 A 
HETATM   24  N2  UNL     1       5.657   1.971  -1.170  1.00  0.00    -0.362 N 
HETATM   25  H10 UNL     1       4.990   1.777  -1.901  1.00  0.00     0.165 HD
ENDBRANCH  13  15
ENDBRANCH   4  13
BRANCH   1  26
HETATM   26  O1  UNL     1      -1.345   0.638  -1.846  1.00  0.00    -0.353 OA
HETATM   27  C1  UNL     1      -1.034   1.983  -1.489  1.00  0.00     0.210 C 
ENDBRANCH   1  26
BRANCH  12  28
HETATM   28  O2  UNL     1      -2.380  -1.787  -1.723  1.00  0.00    -0.348 OA
BRANCH  28  29
HETATM   29  C18 UNL     1      -3.220  -2.694  -0.999  1.00  0.00     0.177 C 
BRANCH  29  30
HETATM   30  C19 UNL     1      -4.681  -2.369  -1.301  1.00  0.00     0.057 C 
BRANCH  30  31
HETATM   31  C20 UNL     1      -5.107  -0.901  -1.117  1.00  0.00     0.274 C 
BRANCH  31  32
HETATM   32  N5  UNL     1      -5.332  -0.476   0.279  1.00  0.00     0.092 N 
HETATM   33  C21 UNL     1      -4.060  -0.269   1.014  1.00  0.00     0.298 C 
HETATM   34  C22 UNL     1      -4.169   0.804   2.116  1.00  0.00     0.198 C 
HETATM   35  O3  UNL     1      -4.481   2.104   1.595  1.00  0.00    -0.388 OA
HETATM   36  C23 UNL     1      -5.292   2.049   0.414  1.00  0.00     0.198 C 
HETATM   37  C24 UNL     1      -6.141   0.770   0.327  1.00  0.00     0.298 C 
ENDBRANCH  31  32
ENDBRANCH  30  31
ENDBRANCH  29  30
ENDBRANCH  28  29
ENDBRANCH  12  28
TORSDOF 8
