REMARK  8 active torsions:
REMARK  status: ('A' for Active; 'I' for Inactive)
REMARK    1  A    between atoms: O1_2  and  C2_3 
REMARK    2  A    between atoms: C5_6  and  N1_7 
REMARK    3  A    between atoms: N1_7  and  C6_8 
REMARK    4  A    between atoms: C16_24  and  O4_25 
REMARK    5  A    between atoms: O4_25  and  C17_26 
REMARK    6  A    between atoms: C17_26  and  C18_27 
REMARK    7  A    between atoms: C18_27  and  C19_28 
REMARK    8  A    between atoms: C19_28  and  N4_29 
ROOT
HETATM    1  C2  UNL     1       0.017  -0.266   1.433  1.00  0.00     0.102 A 
HETATM    2  C3  UNL     1       1.339  -0.177   0.993  1.00  0.00     0.057 A 
HETATM    3  C4  UNL     1       1.754  -0.804  -0.211  1.00  0.00     0.038 A 
HETATM    4  C5  UNL     1       3.065  -0.775  -0.731  1.00  0.00     0.119 A 
HETATM    5  N2  UNL     1       3.380  -1.358  -1.901  1.00  0.00    -0.338 N 
ATOM      6  H2  UNL     1       4.326  -1.318  -2.281  1.00  0.00     0.168 HD
HETATM    7  C13 UNL     1       2.396  -1.992  -2.542  1.00  0.00     0.182 A 
HETATM    8  N3  UNL     1       1.129  -2.103  -2.131  1.00  0.00    -0.351 N 
ATOM      9  H3  UNL     1       0.434  -2.618  -2.672  1.00  0.00     0.166 HD
HETATM   10  C14 UNL     1       0.817  -1.507  -0.977  1.00  0.00     0.050 A 
HETATM   11  C15 UNL     1      -0.493  -1.595  -0.523  1.00  0.00     0.070 A 
HETATM   12  C16 UNL     1      -0.909  -0.992   0.669  1.00  0.00     0.104 A 
ENDROOT
BRANCH   4  13
HETATM   13  N1  UNL     1       4.085  -0.131   0.023  1.00  0.00    -0.342 N 
HETATM   14  H5  UNL     1       4.112  -0.549   0.948  1.00  0.00     0.167 HD
BRANCH  13  15
HETATM   15  C6  UNL     1       5.380   0.250  -0.404  1.00  0.00     0.036 A 
HETATM   16  C7  UNL     1       5.653   0.634  -1.735  1.00  0.00     0.032 A 
HETATM   17  C8  UNL     1       6.924   1.076  -2.127  1.00  0.00     0.042 A 
HETATM   18  C9  UNL     1       7.900   1.149  -1.161  1.00  0.00     0.105 A 
HETATM   19  C10 UNL     1       7.644   0.812   0.145  1.00  0.00     0.107 A 
HETATM   20  O3  UNL     1       9.182   1.557  -1.351  1.00  0.00    -0.323 OA
HETATM   21  C11 UNL     1       6.400   0.375   0.555  1.00  0.00     0.069 A 
HETATM   22  O2  UNL     1       8.733   0.968   0.945  1.00  0.00    -0.323 OA
HETATM   23  C12 UNL     1       9.707   1.433  -0.013  1.00  0.00     0.352 A 
ENDBRANCH  13  15
ENDBRANCH   4  13
BRANCH   1  24
HETATM   24  O1  UNL     1      -0.460   0.306   2.585  1.00  0.00    -0.353 OA
HETATM   25  C1  UNL     1       0.404   1.179   3.298  1.00  0.00     0.210 C 
ENDBRANCH   1  24
BRANCH  12  26
HETATM   26  O4  UNL     1      -2.186  -1.050   1.166  1.00  0.00    -0.348 OA
BRANCH  26  27
HETATM   27  C17 UNL     1      -3.172  -1.749   0.406  1.00  0.00     0.177 C 
BRANCH  27  28
HETATM   28  C18 UNL     1      -4.511  -1.649   1.137  1.00  0.00     0.057 C 
BRANCH  28  29
HETATM   29  C19 UNL     1      -5.055  -0.214   1.197  1.00  0.00     0.274 C 
BRANCH  29  30
HETATM   30  N4  UNL     1      -5.388   0.323  -0.130  1.00  0.00     0.092 N 
HETATM   31  C20 UNL     1      -5.420   1.801  -0.099  1.00  0.00     0.298 C 
HETATM   32  C21 UNL     1      -6.195   2.373  -1.295  1.00  0.00     0.198 C 
HETATM   33  O5  UNL     1      -7.581   2.005  -1.287  1.00  0.00    -0.388 OA
HETATM   34  C22 UNL     1      -7.829   0.769  -0.604  1.00  0.00     0.198 C 
HETATM   35  C23 UNL     1      -6.650  -0.215  -0.683  1.00  0.00     0.298 C 
ENDBRANCH  29  30
ENDBRANCH  28  29
ENDBRANCH  27  28
ENDBRANCH  26  27
ENDBRANCH  12  26
TORSDOF 8
