REMARK  16 active torsions:
REMARK  status: ('A' for Active; 'I' for Inactive)
REMARK    1  A    between atoms: O1_2  and  C2_3 
REMARK    2  A    between atoms: C6_7  and  C7_8 
REMARK    3  A    between atoms: N1_10  and  C9_11 
REMARK    4  A    between atoms: C12_14  and  C13_15 
REMARK    5  A    between atoms: C13_15  and  C14_16 
REMARK    6  A    between atoms: C14_16  and  N2_17 
REMARK    7  A    between atoms: N2_17  and  C16_19 
REMARK    8  A    between atoms: C16_19  and  C17_20 
REMARK    9  A    between atoms: C17_20  and  O2_21 
REMARK   10  A    between atoms: O2_21  and  P1_22 
REMARK   11  A    between atoms: P1_22  and  O4_24 
REMARK   12  A    between atoms: P1_22  and  C18_25 
REMARK   13  A    between atoms: C18_25  and  P2_26 
REMARK   14  A    between atoms: P2_26  and  O6_28 
REMARK   15  A    between atoms: P2_26  and  O7_29 
REMARK   16  A    between atoms: C23_38  and  N5_39 
ROOT
HETATM    1  C9  UNL     1       2.106  -0.286   0.334  1.00  0.00     0.040 A 
HETATM    2  C10 UNL     1       1.202  -0.398   1.398  1.00  0.00     0.030 A 
HETATM    3  C11 UNL     1      -0.117  -0.812   1.176  1.00  0.00     0.009 A 
HETATM    4  C12 UNL     1      -0.563  -1.118  -0.113  1.00  0.00    -0.056 A 
HETATM    5  C19 UNL     1       0.333  -1.002  -1.179  1.00  0.00     0.009 A 
HETATM    6  C20 UNL     1       1.655  -0.597  -0.959  1.00  0.00     0.030 A 
ENDROOT
BRANCH   1   7
HETATM    7  N1  UNL     1       3.465   0.123   0.549  1.00  0.00    -0.307 N 
HETATM    8  C8  UNL     1       4.495  -0.051  -0.364  1.00  0.00     0.112 A 
HETATM    9  C7  UNL     1       5.671   0.425   0.173  1.00  0.00     0.007 A 
HETATM   10  C24 UNL     1       5.374   0.944   1.460  1.00  0.00     0.059 A 
HETATM   11  C21 UNL     1       4.012   0.743   1.676  1.00  0.00     0.127 A 
HETATM   12  C23 UNL     1       6.101   1.572   2.486  1.00  0.00     0.093 A 
HETATM   13  N3  UNL     1       3.348   1.125   2.788  1.00  0.00    -0.337 N 
HETATM   14  C22 UNL     1       4.143   1.708   3.694  1.00  0.00     0.183 A 
ATOM     15  H3  UNL     1       2.347   0.984   2.923  1.00  0.00     0.168 HD
HETATM   16  N4  UNL     1       5.461   1.940   3.611  1.00  0.00    -0.343 N 
ATOM     17  H4  UNL     1       5.965   2.383   4.379  1.00  0.00     0.167 HD
BRANCH   9  18
HETATM   18  C6  UNL     1       6.933   0.335  -0.527  1.00  0.00    -0.021 A 
HETATM   19  C5  UNL     1       7.285   1.299  -1.475  1.00  0.00     0.012 A 
HETATM   20  C4  UNL     1       8.512   1.209  -2.131  1.00  0.00     0.004 A 
HETATM   21  C3  UNL     1       9.391   0.160  -1.843  1.00  0.00     0.037 A 
HETATM   22  C2  UNL     1       9.044  -0.808  -0.898  1.00  0.00     0.069 A 
HETATM   23  C25 UNL     1       7.814  -0.715  -0.242  1.00  0.00     0.049 A 
BRANCH  22  24
HETATM   24  O1  UNL     1       9.809  -1.879  -0.525  1.00  0.00    -0.356 OA
HETATM   25  C1  UNL     1      11.056  -2.042  -1.188  1.00  0.00     0.210 C 
ENDBRANCH  22  24
ENDBRANCH   9  18
BRANCH  12  26
HETATM   26  N5  UNL     1       7.457   1.848   2.423  1.00  0.00    -0.288 NA
HETATM   27  H29 UNL     1       7.997   1.265   1.797  1.00  0.00     0.125 HD
HETATM   28  H30 UNL     1       7.845   2.013   3.343  1.00  0.00     0.125 HD
ENDBRANCH  12  26
ENDBRANCH   1   7
BRANCH   4  29
HETATM   29  C13 UNL     1      -1.994  -1.541  -0.350  1.00  0.00     0.068 C 
BRANCH  29  30
HETATM   30  C14 UNL     1      -2.943  -0.330  -0.400  1.00  0.00     0.276 C 
BRANCH  30  31
HETATM   31  N2  UNL     1      -4.366  -0.711  -0.551  1.00  0.00     0.086 N 
HETATM   32  C15 UNL     1      -4.637  -1.186  -1.912  1.00  0.00     0.310 C 
BRANCH  31  33
HETATM   33  C16 UNL     1      -5.224   0.445  -0.214  1.00  0.00     0.298 C 
BRANCH  33  34
HETATM   34  C17 UNL     1      -6.701   0.083  -0.001  1.00  0.00     0.208 C 
BRANCH  34  35
HETATM   35  O2  UNL     1      -7.408   1.254   0.389  1.00  0.00    -0.317 OA
BRANCH  35  36
HETATM   36  P1  UNL     1      -8.754   1.071   1.258  1.00  0.00     0.249 P 
HETATM   37  O3  UNL     1      -8.559   0.256   2.494  1.00  0.00    -0.653 OA
BRANCH  36  38
HETATM   38  O4  UNL     1      -9.081   2.606   1.592  1.00  0.00    -0.329 OA
HETATM   39  H21 UNL     1      -8.521   2.945   2.316  1.00  0.00     0.220 HD
ENDBRANCH  36  38
BRANCH  36  40
HETATM   40  C18 UNL     1      -9.994   0.553   0.099  1.00  0.00     0.249 C 
BRANCH  40  41
HETATM   41  P2  UNL     1     -11.644   0.230   0.659  1.00  0.00     0.247 P 
HETATM   42  O5  UNL     1     -12.322   1.259   1.495  1.00  0.00    -0.653 OA
BRANCH  41  43
HETATM   43  O6  UNL     1     -12.476  -0.151  -0.662  1.00  0.00    -0.329 OA
HETATM   44  H24 UNL     1     -11.984  -0.607  -1.367  1.00  0.00     0.220 HD
ENDBRANCH  41  43
BRANCH  41  45
HETATM   45  O7  UNL     1     -11.609  -1.213   1.351  1.00  0.00    -0.329 OA
HETATM   46  H25 UNL     1     -12.454  -1.406   1.805  1.00  0.00     0.220 HD
ENDBRANCH  41  45
ENDBRANCH  40  41
ENDBRANCH  36  40
ENDBRANCH  35  36
ENDBRANCH  34  35
ENDBRANCH  33  34
ENDBRANCH  31  33
ENDBRANCH  30  31
ENDBRANCH  29  30
ENDBRANCH   4  29
TORSDOF 16
