REMARK  8 active torsions:
REMARK  status: ('A' for Active; 'I' for Inactive)
REMARK    1  A    between atoms: C4_4  and  C5_5 
REMARK    2  A    between atoms: C7_7  and  O1_8 
REMARK    3  A    between atoms: C13_19  and  N3_20 
REMARK    4  A    between atoms: N3_20  and  C14_21 
REMARK    5  A    between atoms: C18_25  and  O2_26 
REMARK    6  A    between atoms: O2_26  and  C19_27 
REMARK    7  A    between atoms: C19_27  and  C20_28 
REMARK    8  A    between atoms: C20_28  and  N4_29 
ROOT
HETATM    1  C1  UNL     1       3.621  -0.323  -2.129  1.00  0.00     0.050 C 
HETATM    2  C2  UNL     1       4.343  -0.112  -0.825  1.00  0.00    -0.032 A 
HETATM    3  C3  UNL     1       5.748  -0.069  -0.812  1.00  0.00     0.021 A 
HETATM    4  C4  UNL     1       6.448   0.119   0.382  1.00  0.00    -0.021 A 
HETATM    5  C11 UNL     1       5.708   0.271   1.560  1.00  0.00     0.045 A 
HETATM    6  C12 UNL     1       4.318   0.229   1.559  1.00  0.00     0.077 A 
HETATM    7  N1  UNL     1       3.633   0.375   2.698  1.00  0.00    -0.284 N 
ATOM      8  H1  UNL     1       4.125   0.521   3.580  1.00  0.00     0.187 HD
HETATM    9  N2  UNL     1       2.268   0.327   2.670  1.00  0.00    -0.131 N 
ATOM     10  H2  UNL     1       1.739   0.436   3.535  1.00  0.00     0.205 HD
HETATM   11  C13 UNL     1       1.616   0.137   1.505  1.00  0.00     0.697 A 
HETATM   12  N5  UNL     1       2.268  -0.008   0.344  1.00  0.00    -0.188 N 
ATOM     13  H5  UNL     1       1.759  -0.147  -0.529  1.00  0.00     0.184 HD
HETATM   14  C26 UNL     1       3.614   0.035   0.362  1.00  0.00     0.083 A 
ENDROOT
BRANCH  11  15
HETATM   15  N3  UNL     1       0.223   0.099   1.582  1.00  0.00    -0.190 N 
HETATM   16  H10 UNL     1      -0.063   0.217   2.543  1.00  0.00     0.184 HD
BRANCH  15  17
HETATM   17  C14 UNL     1      -0.798  -0.079   0.642  1.00  0.00     0.051 A 
HETATM   18  C15 UNL     1      -0.581  -0.256  -0.726  1.00  0.00     0.030 A 
HETATM   19  C16 UNL     1      -1.650  -0.429  -1.611  1.00  0.00     0.005 A 
HETATM   20  C17 UNL     1      -2.963  -0.428  -1.142  1.00  0.00     0.037 A 
HETATM   21  C18 UNL     1      -3.210  -0.253   0.216  1.00  0.00     0.070 A 
HETATM   22  C25 UNL     1      -2.130  -0.080   1.092  1.00  0.00     0.066 A 
BRANCH  21  23
HETATM   23  O2  UNL     1      -4.440  -0.230   0.816  1.00  0.00    -0.349 OA
BRANCH  23  24
HETATM   24  C19 UNL     1      -5.580  -0.385  -0.035  1.00  0.00     0.206 C 
BRANCH  24  25
HETATM   25  C20 UNL     1      -6.839  -0.338   0.845  1.00  0.00     0.299 C 
BRANCH  25  26
HETATM   26  N4  UNL     1      -8.085  -0.534   0.093  1.00  0.00     0.090 N 
HETATM   27  C21 UNL     1      -8.405   0.580  -0.803  1.00  0.00     0.272 C 
HETATM   28  C22 UNL     1      -9.882   0.372  -1.113  1.00  0.00     0.032 C 
HETATM   29  C23 UNL     1     -10.417  -0.479   0.032  1.00  0.00     0.032 C 
HETATM   30  C24 UNL     1      -9.243  -0.640   0.984  1.00  0.00     0.272 C 
ENDBRANCH  25  26
ENDBRANCH  24  25
ENDBRANCH  23  24
ENDBRANCH  21  23
ENDBRANCH  15  17
ENDBRANCH  11  15
BRANCH   4  31
HETATM   31  C5  UNL     1       7.917   0.168   0.397  1.00  0.00    -0.001 A 
HETATM   32  C6  UNL     1       8.567   1.315  -0.095  1.00  0.00     0.050 A 
HETATM   33  C7  UNL     1       9.957   1.401  -0.096  1.00  0.00     0.066 A 
HETATM   34  C8  UNL     1      10.738   0.359   0.387  1.00  0.00     0.038 A 
HETATM   35  C9  UNL     1      10.114  -0.789   0.876  1.00  0.00     0.027 A 
HETATM   36  C10 UNL     1       8.716  -0.886   0.881  1.00  0.00     0.045 A 
HETATM   37 CL1  UNL     1       8.024  -2.353   1.484  1.00  0.00    -0.083 Cl
BRANCH  33  38
HETATM   38  O1  UNL     1      10.519   2.541  -0.587  1.00  0.00    -0.361 OA
HETATM   39  H6  UNL     1      11.486   2.477  -0.510  1.00  0.00     0.217 HD
ENDBRANCH  33  38
ENDBRANCH   4  31
TORSDOF 8
