REMARK  5 active torsions:
REMARK  status: ('A' for Active; 'I' for Inactive)
REMARK    1  A    between atoms: C8_8  and  C9_9 
REMARK    2  A    between atoms: C14_16  and  N2_17 
REMARK    3  A    between atoms: N2_17  and  C15_18 
REMARK    4  A    between atoms: C19_22  and  C20_23 
REMARK       I    between atoms: C20_23  and  N3_25 
REMARK    5  A    between atoms: N3_25  and  C21_26 
ROOT
HETATM    1  C9  UNL     1      -5.343   0.059   0.191  1.00  0.00    -0.022 A 
HETATM    2  C10 UNL     1      -4.923  -0.690   1.293  1.00  0.00     0.021 A 
HETATM    3  C11 UNL     1      -3.556  -0.880   1.556  1.00  0.00    -0.032 A 
HETATM    4  C12 UNL     1      -3.139  -1.692   2.753  1.00  0.00     0.050 C 
HETATM    5  C13 UNL     1      -2.585  -0.321   0.715  1.00  0.00     0.083 A 
HETATM    6  N1  UNL     1      -1.274  -0.506   0.971  1.00  0.00    -0.188 N 
ATOM      7  H1  UNL     1      -0.967  -1.053   1.776  1.00  0.00     0.184 HD
HETATM    8  C14 UNL     1      -0.385   0.052   0.134  1.00  0.00     0.697 A 
HETATM    9  N5  UNL     1      -0.765   0.774  -0.934  1.00  0.00    -0.131 N 
ATOM     10  H5  UNL     1      -0.060   1.180  -1.549  1.00  0.00     0.205 HD
HETATM   11  N6  UNL     1      -2.092   0.967  -1.201  1.00  0.00    -0.284 N 
ATOM     12  H6  UNL     1      -2.379   1.516  -2.011  1.00  0.00     0.187 HD
HETATM   13  C26 UNL     1      -3.009   0.430  -0.391  1.00  0.00     0.077 A 
HETATM   14  C27 UNL     1      -4.365   0.612  -0.642  1.00  0.00     0.045 A 
ENDROOT
BRANCH   8  15
HETATM   15  N2  UNL     1       0.951  -0.178   0.455  1.00  0.00    -0.190 N 
HETATM   16  H14 UNL     1       0.995  -0.727   1.302  1.00  0.00     0.184 HD
BRANCH  15  17
HETATM   17  C15 UNL     1       2.167   0.250  -0.088  1.00  0.00     0.050 A 
HETATM   18  C16 UNL     1       2.273   1.098  -1.196  1.00  0.00     0.030 A 
HETATM   19  C17 UNL     1       3.521   1.488  -1.697  1.00  0.00     0.003 A 
HETATM   20  C18 UNL     1       4.693   1.023  -1.106  1.00  0.00     0.017 A 
HETATM   21  C19 UNL     1       4.615   0.154  -0.015  1.00  0.00     0.034 A 
HETATM   22  C25 UNL     1       3.359  -0.216   0.490  1.00  0.00     0.047 A 
BRANCH  21  23
HETATM   23  C20 UNL     1       5.827  -0.382   0.662  1.00  0.00     0.252 C 
HETATM   24  O1  UNL     1       5.787  -0.671   1.852  1.00  0.00    -0.268 OA
HETATM   25  N3  UNL     1       6.948  -0.550  -0.122  1.00  0.00    -0.351 N 
HETATM   26  H18 UNL     1       6.919  -0.325  -1.107  1.00  0.00     0.163 HD
BRANCH  25  27
HETATM   27  C21 UNL     1       8.218  -0.995   0.446  1.00  0.00     0.114 C 
HETATM   28  C22 UNL     1       9.006   0.182   1.002  1.00  0.00     0.057 C 
HETATM   29  C23 UNL     1       9.721   0.713  -0.227  1.00  0.00     0.272 C 
HETATM   30  N4  UNL     1      10.099  -0.480  -0.987  1.00  0.00     0.085 N 
HETATM   31  C24 UNL     1       9.159  -1.553  -0.630  1.00  0.00     0.294 C 
HETATM   32  H24 UNL     1      10.085  -0.292  -1.988  1.00  0.00     0.315 HD
ENDBRANCH  25  27
ENDBRANCH  21  23
ENDBRANCH  15  17
ENDBRANCH   8  15
BRANCH   1  33
HETATM   33  C8  UNL     1      -6.774   0.261  -0.087  1.00  0.00    -0.014 A 
HETATM   34  C2  UNL     1      -7.480  -0.643  -0.921  1.00  0.00    -0.050 A 
HETATM   35  C1  UNL     1      -6.800  -1.831  -1.552  1.00  0.00     0.049 C 
HETATM   36  C3  UNL     1      -8.844  -0.435  -1.178  1.00  0.00     0.007 A 
HETATM   37  C4  UNL     1      -9.515   0.649  -0.621  1.00  0.00     0.001 A 
HETATM   38  C5  UNL     1      -8.833   1.542   0.200  1.00  0.00     0.007 A 
HETATM   39  C6  UNL     1      -7.468   1.363   0.474  1.00  0.00    -0.050 A 
HETATM   40  C7  UNL     1      -6.776   2.360   1.370  1.00  0.00     0.049 C 
ENDBRANCH   1  33
TORSDOF 5
