REMARK  5 active torsions:
REMARK  status: ('A' for Active; 'I' for Inactive)
REMARK    1  A    between atoms: C3_4  and  C4_5 
REMARK    2  A    between atoms: C5_6  and  C6_7 
REMARK    3  A    between atoms: N2_9  and  C8_10 
REMARK    4  A    between atoms: N3_13  and  C11_14 
REMARK    5  A    between atoms: C11_14  and  C12_15 
ROOT
HETATM    1  C6  UNL     1      -1.066  -1.462  -0.478  1.00  0.00     0.009 A 
HETATM    2  C7  UNL     1       0.275  -1.334  -0.766  1.00  0.00     0.105 A 
HETATM    3  N2  UNL     1       0.983  -1.406   0.406  1.00  0.00    -0.350 N 
HETATM    4  C17 UNL     1       0.102  -1.546   1.470  1.00  0.00     0.045 A 
HETATM    5  C18 UNL     1       0.336  -1.647   2.853  1.00  0.00     0.030 A 
HETATM    6  C19 UNL     1      -0.761  -1.797   3.705  1.00  0.00     0.002 A 
HETATM    7  C20 UNL     1      -2.053  -1.836   3.199  1.00  0.00     0.001 A 
HETATM    8  C21 UNL     1      -2.281  -1.732   1.823  1.00  0.00     0.014 A 
HETATM    9  C22 UNL     1      -1.193  -1.582   0.937  1.00  0.00     0.003 A 
ENDROOT
BRANCH   1  10
HETATM   10  C5  UNL     1      -2.090  -1.488  -1.466  1.00  0.00     0.061 A 
HETATM   11  C4  UNL     1      -3.230  -0.780  -1.559  1.00  0.00     0.061 A 
HETATM   12  C24 UNL     1      -3.927  -1.241  -2.787  1.00  0.00     0.260 A 
HETATM   13  N4  UNL     1      -3.183  -2.221  -3.334  1.00  0.00    -0.289 N 
HETATM   14  O2  UNL     1      -4.969  -0.813  -3.248  1.00  0.00    -0.267 OA
HETATM   15  C23 UNL     1      -2.049  -2.408  -2.632  1.00  0.00     0.260 A 
HETATM   16  H26 UNL     1      -3.402  -2.687  -4.198  1.00  0.00     0.172 HD
HETATM   17  O1  UNL     1      -1.159  -3.190  -2.920  1.00  0.00    -0.267 OA
BRANCH  11  18
HETATM   18  C3  UNL     1      -3.734   0.246  -0.713  1.00  0.00     0.009 A 
HETATM   19  C2  UNL     1      -2.982   1.296  -0.227  1.00  0.00     0.104 A 
HETATM   20  N1  UNL     1      -3.791   2.066   0.565  1.00  0.00    -0.360 N 
HETATM   21  C1  UNL     1      -3.361   3.257   1.262  1.00  0.00     0.156 C 
HETATM   22  C30 UNL     1      -5.062   1.533   0.616  1.00  0.00     0.045 A 
HETATM   23  C25 UNL     1      -5.057   0.388  -0.191  1.00  0.00     0.003 A 
HETATM   24  C29 UNL     1      -6.211   1.957   1.306  1.00  0.00     0.030 A 
HETATM   25  C26 UNL     1      -6.251  -0.356  -0.305  1.00  0.00     0.014 A 
HETATM   26  C27 UNL     1      -7.403   0.065   0.372  1.00  0.00     0.001 A 
HETATM   27  C28 UNL     1      -7.379   1.203   1.169  1.00  0.00     0.002 A 
ENDBRANCH  11  18
ENDBRANCH   1  10
BRANCH   3  28
HETATM   28  C8  UNL     1       2.441  -1.329   0.550  1.00  0.00     0.093 C 
HETATM   29  C9  UNL     1       2.893   0.069   1.009  1.00  0.00     0.056 C 
HETATM   30  C10 UNL     1       3.587   0.839  -0.111  1.00  0.00     0.274 C 
HETATM   31  N3  UNL     1       4.746   0.144  -0.683  1.00  0.00     0.088 N 
HETATM   32  C15 UNL     1       4.684  -1.320  -0.572  1.00  0.00     0.274 C 
HETATM   33  C16 UNL     1       3.249  -1.830  -0.661  1.00  0.00     0.056 C 
BRANCH  31  34
HETATM   34  C11 UNL     1       6.046   0.642  -0.226  1.00  0.00     0.277 C 
BRANCH  34  35
HETATM   35  C12 UNL     1       6.286   2.058  -0.667  1.00  0.00     0.014 A 
HETATM   36  C13 UNL     1       7.570   2.431  -1.370  1.00  0.00     0.007 A 
HETATM   37  C14 UNL     1       6.274   2.438  -2.128  1.00  0.00     0.007 A 
ENDBRANCH  34  35
ENDBRANCH  31  34
ENDBRANCH   3  28
TORSDOF 5
