REMARK  6 active torsions:
REMARK  status: ('A' for Active; 'I' for Inactive)
REMARK    1  A    between atoms: C2_2  and  C3_3 
REMARK       I    between atoms: C3_3  and  N1_5 
REMARK    2  A    between atoms: C7_9  and  N2_10 
REMARK    3  A    between atoms: C8_13  and  C9_14 
REMARK    4  A    between atoms: C13_18  and  O2_19 
REMARK    5  A    between atoms: O2_19  and  C14_20 
REMARK    6  A    between atoms: C24_30  and  N4_31 
ROOT
HETATM    1  N2  UNL     1      -2.189   0.673   0.819  1.00  0.00    -0.269 N 
HETATM    2  N3  UNL     1      -1.199   0.836  -0.089  1.00  0.00    -0.295 N 
ATOM      3  H3  UNL     1      -1.281   1.125  -1.064  1.00  0.00     0.187 HD
HETATM    4  C8  UNL     1      -0.082   0.529   0.593  1.00  0.00     0.077 A 
HETATM    5  C23 UNL     1      -0.370   0.145   1.933  1.00  0.00     0.082 A 
HETATM    6  C24 UNL     1       0.328  -0.293   3.067  1.00  0.00     0.116 A 
HETATM    7  N5  UNL     1      -0.374  -0.572   4.185  1.00  0.00    -0.338 N 
ATOM      8  H5  UNL     1       0.097  -0.898   5.029  1.00  0.00     0.168 HD
HETATM    9  C25 UNL     1      -1.713  -0.410   4.161  1.00  0.00     0.183 A 
HETATM   10  N6  UNL     1      -2.485  -0.012   3.133  1.00  0.00    -0.337 N 
ATOM     11  H6  UNL     1      -3.500   0.075   3.174  1.00  0.00     0.168 HD
HETATM   12  C26 UNL     1      -1.743   0.256   2.044  1.00  0.00     0.140 A 
ENDROOT
BRANCH   4  13
HETATM   13  C9  UNL     1       1.236   0.576  -0.035  1.00  0.00     0.005 A 
HETATM   14  C10 UNL     1       2.039   1.733   0.097  1.00  0.00    -0.046 A 
HETATM   15  C11 UNL     1       1.544   2.967   0.802  1.00  0.00     0.049 C 
HETATM   16  C12 UNL     1       3.347   1.722  -0.409  1.00  0.00     0.045 A 
HETATM   17  C13 UNL     1       3.855   0.574  -1.014  1.00  0.00     0.077 A 
HETATM   18  C20 UNL     1       3.051  -0.551  -1.192  1.00  0.00     0.045 A 
HETATM   19  C21 UNL     1       1.734  -0.563  -0.710  1.00  0.00    -0.046 A 
HETATM   20  C22 UNL     1       0.890  -1.792  -0.922  1.00  0.00     0.049 C 
BRANCH  17  21
HETATM   21  O2  UNL     1       5.141   0.592  -1.502  1.00  0.00    -0.311 OA
BRANCH  21  22
HETATM   22  C14 UNL     1       6.052  -0.075  -0.714  1.00  0.00     0.076 A 
HETATM   23  C15 UNL     1       6.567  -1.293  -1.168  1.00  0.00     0.037 A 
HETATM   24  C16 UNL     1       7.520  -1.971  -0.406  1.00  0.00     0.003 A 
HETATM   25  C17 UNL     1       7.974  -1.417   0.793  1.00  0.00     0.000 A 
HETATM   26  C18 UNL     1       7.477  -0.184   1.230  1.00  0.00     0.003 A 
HETATM   27  C19 UNL     1       6.517   0.492   0.475  1.00  0.00     0.037 A 
ENDBRANCH  21  22
ENDBRANCH  17  21
ENDBRANCH   4  13
BRANCH   1  28
HETATM   28  C7  UNL     1      -3.580   0.864   0.435  1.00  0.00     0.128 C 
HETATM   29  C6  UNL     1      -3.833   2.223  -0.227  1.00  0.00     0.030 C 
HETATM   30  C5  UNL     1      -5.307   2.344  -0.605  1.00  0.00     0.022 C 
HETATM   31  C4  UNL     1      -5.737   1.204  -1.522  1.00  0.00     0.126 C 
HETATM   32  N1  UNL     1      -5.418  -0.112  -0.969  1.00  0.00    -0.347 N 
HETATM   33  C3  UNL     1      -6.171  -1.177  -1.460  1.00  0.00     0.242 C 
HETATM   34  C27 UNL     1      -4.049  -0.289  -0.460  1.00  0.00     0.153 C 
HETATM   35  O1  UNL     1      -7.170  -1.054  -2.163  1.00  0.00    -0.268 OA
BRANCH  33  36
HETATM   36  C2  UNL     1      -5.709  -2.532  -1.086  1.00  0.00     0.064 C 
HETATM   37  C1  UNL     1      -5.099  -3.287  -2.009  1.00  0.00     0.017 C 
ENDBRANCH  33  36
ENDBRANCH   1  28
BRANCH   6  38
HETATM   38  N4  UNL     1       1.698  -0.473   3.124  1.00  0.00    -0.385 N 
HETATM   39  H24 UNL     1       1.997  -1.026   3.916  1.00  0.00     0.157 HD
HETATM   40  H25 UNL     1       2.194  -0.596   2.249  1.00  0.00     0.157 HD
ENDBRANCH   6  38
TORSDOF 6
