REMARK  10 active torsions:
REMARK  status: ('A' for Active; 'I' for Inactive)
REMARK    1  A    between atoms: C2_2  and  C3_3 
REMARK    2  A    between atoms: C2_2  and  O1_9 
REMARK    3  A    between atoms: C4_4  and  C5_5 
REMARK    4  A    between atoms: O1_9  and  C6_10 
REMARK    5  A    between atoms: C8_12  and  C9_13 
REMARK    6  A    between atoms: C11_15  and  C12_16 
REMARK    7  A    between atoms: C14_18  and  C15_19 
REMARK    8  A    between atoms: C15_19  and  N1_20 
REMARK    9  A    between atoms: C20_28  and  N3_29 
REMARK   10  A    between atoms: C23_32  and  C24_33 
REMARK       I    between atoms: C24_33  and  N4_34 
ROOT
HETATM    1  C6  UNL     1      -3.600  -0.714   0.172  1.00  0.00     0.086 A 
HETATM    2  C7  UNL     1      -2.243  -0.364   0.192  1.00  0.00     0.050 A 
HETATM    3  C8  UNL     1      -1.275  -1.250   0.686  1.00  0.00    -0.020 A 
HETATM    4  C21 UNL     1      -1.692  -2.520   1.109  1.00  0.00     0.013 A 
HETATM    5  C22 UNL     1      -3.039  -2.893   1.047  1.00  0.00     0.021 A 
HETATM    6  C23 UNL     1      -4.005  -1.990   0.583  1.00  0.00     0.065 A 
ENDROOT
BRANCH   3   7
HETATM    7  C9  UNL     1       0.138  -0.848   0.766  1.00  0.00     0.013 A 
HETATM    8  C10 UNL     1       0.854  -0.562  -0.410  1.00  0.00     0.029 A 
HETATM    9  C11 UNL     1       2.197  -0.181  -0.358  1.00  0.00    -0.003 A 
HETATM   10  C19 UNL     1       2.774  -0.112   0.905  1.00  0.00     0.102 A 
HETATM   11  N2  UNL     1       2.126  -0.374   2.065  1.00  0.00    -0.355 N 
HETATM   12  C20 UNL     1       0.828  -0.725   1.983  1.00  0.00     0.088 A 
ATOM     13  H2  UNL     1       2.602  -0.308   2.965  1.00  0.00     0.166 HD
BRANCH   9  14
HETATM   14  C12 UNL     1       2.982   0.112  -1.560  1.00  0.00     0.017 A 
HETATM   15  C13 UNL     1       4.272  -0.281  -1.867  1.00  0.00     0.029 A 
HETATM   16  C14 UNL     1       4.744   0.226  -3.126  1.00  0.00    -0.022 A 
HETATM   17  C18 UNL     1       3.755   0.971  -3.742  1.00  0.00     0.059 A 
HETATM   18  S1  UNL     1       2.332   1.091  -2.808  1.00  0.00    -0.101 SA
BRANCH  16  19
HETATM   19  C15 UNL     1       6.100  -0.061  -3.714  1.00  0.00     0.310 C 
BRANCH  19  20
HETATM   20  N1  UNL     1       7.136   0.907  -3.335  1.00  0.00     0.084 N 
HETATM   21  C16 UNL     1       6.893   2.255  -3.835  1.00  0.00     0.309 C 
HETATM   22  C17 UNL     1       7.447   0.912  -1.911  1.00  0.00     0.309 C 
ENDBRANCH  19  20
ENDBRANCH  16  19
ENDBRANCH   9  14
BRANCH  12  23
HETATM   23  N3  UNL     1       0.218  -0.989   3.211  1.00  0.00    -0.288 NA
HETATM   24  H20 UNL     1       0.896  -0.761   3.933  1.00  0.00     0.125 HD
HETATM   25  H21 UNL     1      -0.642  -0.456   3.318  1.00  0.00     0.125 HD
ENDBRANCH  12  23
ENDBRANCH   3   7
BRANCH   1  26
HETATM   26  O1  UNL     1      -4.461   0.256  -0.275  1.00  0.00    -0.341 OA
BRANCH  26  27
HETATM   27  C2  UNL     1      -5.208   0.860   0.796  1.00  0.00     0.147 C 
HETATM   28  C1  UNL     1      -6.515   1.385   0.202  1.00  0.00     0.044 C 
BRANCH  27  29
HETATM   29  C3  UNL     1      -4.401   2.008   1.359  1.00  0.00     0.009 C 
HETATM   30  C4  UNL     1      -3.714   2.045   2.517  1.00  0.00     0.087 C 
BRANCH  30  31
HETATM   31  C5  UNL     1      -3.528   0.997   3.563  1.00  0.00     0.407 C 
HETATM   32  F1  UNL     1      -2.232   0.591   3.618  1.00  0.00    -0.167 F 
HETATM   33  F2  UNL     1      -3.836   1.481   4.792  1.00  0.00    -0.167 F 
HETATM   34  F3  UNL     1      -4.278  -0.115   3.381  1.00  0.00    -0.167 F 
ENDBRANCH  30  31
ENDBRANCH  27  29
ENDBRANCH  26  27
ENDBRANCH   1  26
BRANCH   6  35
HETATM   35  C24 UNL     1      -5.428  -2.414   0.522  1.00  0.00     0.252 C 
HETATM   36  N4  UNL     1      -5.866  -3.224   1.536  1.00  0.00    -0.366 N 
HETATM   37  H24 UNL     1      -6.861  -3.409   1.559  1.00  0.00     0.159 HD
HETATM   38  H25 UNL     1      -5.349  -3.327   2.398  1.00  0.00     0.159 HD
HETATM   39  O2  UNL     1      -6.197  -2.046  -0.355  1.00  0.00    -0.268 OA
ENDBRANCH   6  35
TORSDOF 10
