REMARK  8 active torsions:
REMARK  status: ('A' for Active; 'I' for Inactive)
REMARK    1  A    between atoms: O1_2  and  C2_3 
REMARK    2  A    between atoms: C5_6  and  N1_7 
REMARK    3  A    between atoms: N1_7  and  C6_8 
REMARK    4  A    between atoms: C17_24  and  O3_25 
REMARK    5  A    between atoms: O3_25  and  C18_26 
REMARK    6  A    between atoms: C18_26  and  C19_27 
REMARK    7  A    between atoms: C19_27  and  C20_28 
REMARK    8  A    between atoms: C20_28  and  N4_29 
ROOT
HETATM    1  C2  UNL     1      -0.351  -1.431  -1.485  1.00  0.00     0.102 A 
HETATM    2  C3  UNL     1      -1.672  -0.992  -1.384  1.00  0.00     0.056 A 
HETATM    3  C4  UNL     1      -2.011   0.125  -0.580  1.00  0.00     0.032 A 
HETATM    4  C5  UNL     1      -3.313   0.635  -0.418  1.00  0.00     0.098 A 
HETATM    5  N2  UNL     1      -3.570   1.708   0.350  1.00  0.00    -0.342 N 
ATOM      6  H2  UNL     1      -4.511   2.093   0.434  1.00  0.00     0.167 HD
HETATM    7  C14 UNL     1      -2.534   2.244   0.997  1.00  0.00     0.182 A 
HETATM    8  N3  UNL     1      -1.260   1.843   0.920  1.00  0.00    -0.351 N 
ATOM      9  H3  UNL     1      -0.517   2.316   1.435  1.00  0.00     0.166 HD
HETATM   10  C15 UNL     1      -1.009   0.791   0.134  1.00  0.00     0.049 A 
HETATM   11  C16 UNL     1       0.302   0.348   0.022  1.00  0.00     0.070 A 
HETATM   12  C17 UNL     1       0.650  -0.748  -0.776  1.00  0.00     0.104 A 
ENDROOT
BRANCH   4  13
HETATM   13  N1  UNL     1      -4.372   0.067  -1.183  1.00  0.00    -0.242 NA
HETATM   14  H5  UNL     1      -4.209   0.351  -2.145  1.00  0.00     0.135 HD
BRANCH  13  15
HETATM   15  C6  UNL     1      -5.750   0.143  -0.859  1.00  0.00     0.049 A 
HETATM   16  C7  UNL     1      -6.706   0.117  -1.898  1.00  0.00     0.027 A 
HETATM   17  C8  UNL     1      -8.083   0.146  -1.652  1.00  0.00     0.003 A 
HETATM   18  C9  UNL     1      -8.577   0.164  -0.344  1.00  0.00     0.014 A 
HETATM   19  C10 UNL     1      -7.662   0.128   0.721  1.00  0.00     0.001 A 
HETATM   20  C11 UNL     1      -7.775   0.093   2.137  1.00  0.00     0.039 A 
HETATM   21  C13 UNL     1      -6.297   0.109   0.438  1.00  0.00     0.106 A 
HETATM   22  C12 UNL     1      -6.493   0.027   2.626  1.00  0.00     0.143 A 
HETATM   23  O2  UNL     1      -5.596   0.022   1.609  1.00  0.00    -0.320 OA
ENDBRANCH  13  15
ENDBRANCH   4  13
BRANCH   1  24
HETATM   24  O1  UNL     1       0.060  -2.498  -2.242  1.00  0.00    -0.353 OA
HETATM   25  C1  UNL     1      -0.943  -3.314  -2.832  1.00  0.00     0.210 C 
ENDBRANCH   1  24
BRANCH  12  26
HETATM   26  O3  UNL     1       1.929  -1.224  -0.928  1.00  0.00    -0.348 OA
BRANCH  26  27
HETATM   27  C18 UNL     1       2.959  -0.642  -0.126  1.00  0.00     0.177 C 
BRANCH  27  28
HETATM   28  C19 UNL     1       4.254  -1.397  -0.415  1.00  0.00     0.057 C 
BRANCH  28  29
HETATM   29  C20 UNL     1       5.420  -1.051   0.521  1.00  0.00     0.274 C 
BRANCH  29  30
HETATM   30  N4  UNL     1       6.241   0.098   0.109  1.00  0.00     0.092 N 
HETATM   31  C21 UNL     1       7.499   0.177   0.887  1.00  0.00     0.298 C 
HETATM   32  C22 UNL     1       7.442   1.190   2.042  1.00  0.00     0.198 C 
HETATM   33  O4  UNL     1       7.165   2.531   1.610  1.00  0.00    -0.388 OA
HETATM   34  C23 UNL     1       6.468   2.582   0.358  1.00  0.00     0.198 C 
HETATM   35  C24 UNL     1       5.521   1.387   0.165  1.00  0.00     0.298 C 
ENDBRANCH  29  30
ENDBRANCH  28  29
ENDBRANCH  27  28
ENDBRANCH  26  27
ENDBRANCH  12  26
TORSDOF 8
