REMARK  9 active torsions:
REMARK  status: ('A' for Active; 'I' for Inactive)
REMARK    1  A    between atoms: O1_2  and  C2_3 
REMARK    2  A    between atoms: C7_8  and  N1_9 
REMARK    3  A    between atoms: N1_9  and  C8_10 
REMARK    4  A    between atoms: C12_18  and  O2_19 
REMARK    5  A    between atoms: O2_19  and  C13_20 
REMARK    6  A    between atoms: C13_20  and  C14_21 
REMARK    7  A    between atoms: C14_21  and  C15_22 
REMARK    8  A    between atoms: C15_22  and  N4_23 
REMARK    9  A    between atoms: C20_29  and  O4_30 
ROOT
HETATM    1  C8  UNL     1      -2.787  -2.085   1.950  1.00  0.00     0.098 A 
HETATM    2  N2  UNL     1      -2.688  -3.382   2.294  1.00  0.00    -0.342 N 
ATOM      3  H2  UNL     1      -3.511  -3.971   2.418  1.00  0.00     0.167 HD
HETATM    4  C9  UNL     1      -1.451  -3.853   2.463  1.00  0.00     0.182 A 
HETATM    5  N3  UNL     1      -0.315  -3.157   2.344  1.00  0.00    -0.351 N 
ATOM      6  H3  UNL     1       0.597  -3.595   2.477  1.00  0.00     0.166 HD
HETATM    7  C10 UNL     1      -0.432  -1.860   2.043  1.00  0.00     0.049 A 
HETATM    8  C11 UNL     1       0.730  -1.106   1.932  1.00  0.00     0.070 A 
HETATM    9  C12 UNL     1       0.705   0.260   1.632  1.00  0.00     0.104 A 
HETATM   10  C20 UNL     1      -0.529   0.902   1.449  1.00  0.00     0.102 A 
HETATM   11  C22 UNL     1      -1.702   0.156   1.568  1.00  0.00     0.056 A 
HETATM   12  C23 UNL     1      -1.667  -1.236   1.843  1.00  0.00     0.032 A 
ENDROOT
BRANCH   1  13
HETATM   13  N1  UNL     1      -4.113  -1.640   1.748  1.00  0.00    -0.242 NA
HETATM   14  H8  UNL     1      -4.661  -2.493   1.868  1.00  0.00     0.135 HD
BRANCH  13  15
HETATM   15  C7  UNL     1      -4.616  -0.963   0.601  1.00  0.00     0.047 A 
HETATM   16  C2  UNL     1      -4.132  -1.150  -0.712  1.00  0.00     0.089 A 
HETATM   17  C3  UNL     1      -4.737  -0.471  -1.777  1.00  0.00     0.038 A 
HETATM   18  C4  UNL     1      -5.817   0.384  -1.552  1.00  0.00     0.003 A 
HETATM   19  C5  UNL     1      -6.320   0.547  -0.266  1.00  0.00     0.002 A 
HETATM   20  C6  UNL     1      -5.732  -0.134   0.799  1.00  0.00     0.027 A 
BRANCH  16  21
HETATM   21  O1  UNL     1      -3.115  -2.052  -0.890  1.00  0.00    -0.354 OA
HETATM   22  C1  UNL     1      -2.240  -1.804  -1.984  1.00  0.00     0.210 C 
ENDBRANCH  16  21
ENDBRANCH  13  15
ENDBRANCH   1  13
BRANCH  10  23
HETATM   23  O4  UNL     1      -0.483   2.242   1.160  1.00  0.00    -0.353 OA
HETATM   24  C21 UNL     1      -1.715   2.901   0.902  1.00  0.00     0.210 C 
ENDBRANCH  10  23
BRANCH   9  25
HETATM   25  O2  UNL     1       1.820   1.051   1.511  1.00  0.00    -0.348 OA
BRANCH  25  26
HETATM   26  C13 UNL     1       3.095   0.418   1.550  1.00  0.00     0.177 C 
BRANCH  26  27
HETATM   27  C14 UNL     1       4.181   1.462   1.311  1.00  0.00     0.046 C 
BRANCH  27  28
HETATM   28  C15 UNL     1       4.021   2.335   0.053  1.00  0.00     0.119 C 
BRANCH  28  29
HETATM   29  N4  UNL     1       4.196   1.734  -1.265  1.00  0.00    -0.408 N 
HETATM   30  C16 UNL     1       5.432   0.981  -1.497  1.00  0.00     0.143 C 
HETATM   31  C17 UNL     1       5.183  -0.511  -1.767  1.00  0.00     0.187 C 
HETATM   32  O3  UNL     1       4.295  -0.763  -2.865  1.00  0.00    -0.388 OA
HETATM   33  C18 UNL     1       3.365   0.304  -3.102  1.00  0.00     0.187 C 
HETATM   34  C19 UNL     1       3.008   1.088  -1.829  1.00  0.00     0.143 C 
ENDBRANCH  28  29
ENDBRANCH  27  28
ENDBRANCH  26  27
ENDBRANCH  25  26
ENDBRANCH   9  25
TORSDOF 9
