REMARK  5 active torsions:
REMARK  status: ('A' for Active; 'I' for Inactive)
REMARK    1  A    between atoms: N2_8  and  C7_9 
REMARK    2  A    between atoms: C10_12  and  C11_13 
REMARK    3  A    between atoms: C15_19  and  C16_20 
REMARK    4  A    between atoms: C20_24  and  O1_25 
REMARK    5  A    between atoms: C22_27  and  C23_28 
ROOT
HETATM    1  C11 UNL     1      -0.547   0.169  -2.196  1.00  0.00     0.070 A 
HETATM    2  C12 UNL     1      -0.752   0.209  -3.526  1.00  0.00     0.049 A 
HETATM    3  C13 UNL     1      -2.164   0.098  -3.969  1.00  0.00     0.092 A 
HETATM    4  N3  UNL     1      -3.201  -0.025  -3.202  1.00  0.00    -0.350 N 
ATOM      5  H3  UNL     1      -4.146  -0.093  -3.579  1.00  0.00     0.166 HD
HETATM    6  C14 UNL     1      -2.954  -0.059  -1.854  1.00  0.00     0.141 A 
HETATM    7  C15 UNL     1      -3.797  -0.156  -0.762  1.00  0.00     0.049 A 
HETATM    8  C22 UNL     1      -2.944  -0.152   0.380  1.00  0.00     0.073 A 
HETATM    9  N5  UNL     1      -1.661  -0.013   0.021  1.00  0.00    -0.290 N 
ATOM     10  H5  UNL     1      -0.853   0.046   0.641  1.00  0.00     0.187 HD
HETATM   11  N6  UNL     1      -1.656   0.033  -1.335  1.00  0.00    -0.238 N 
ENDROOT
BRANCH   1  12
HETATM   12  C10 UNL     1       0.830   0.308  -1.683  1.00  0.00    -0.007 A 
HETATM   13  C9  UNL     1       1.842  -0.572  -2.074  1.00  0.00     0.016 A 
HETATM   14  C8  UNL     1       3.153  -0.412  -1.599  1.00  0.00     0.030 A 
HETATM   15  C7  UNL     1       3.503   0.613  -0.709  1.00  0.00     0.030 A 
HETATM   16  C29 UNL     1       2.473   1.492  -0.339  1.00  0.00     0.030 A 
HETATM   17  C28 UNL     1       1.161   1.345  -0.808  1.00  0.00     0.016 A 
BRANCH  15  18
HETATM   18  N2  UNL     1       4.791   0.791  -0.261  1.00  0.00    -0.372 N 
HETATM   19  C3  UNL     1       5.894  -0.179  -0.447  1.00  0.00     0.115 C 
HETATM   20  C2  UNL     1       5.831  -1.264   0.659  1.00  0.00     0.297 C 
HETATM   21  C4  UNL     1       7.089   0.640   0.042  1.00  0.00     0.064 C 
HETATM   22  N1  UNL     1       6.201  -0.528   1.907  1.00  0.00     0.092 N 
HETATM   23  C1  UNL     1       7.351  -1.118   2.580  1.00  0.00     0.310 C 
HETATM   24  C5  UNL     1       6.463   0.858   1.416  1.00  0.00     0.242 C 
HETATM   25  C6  UNL     1       5.096   1.502   1.005  1.00  0.00     0.159 C 
ENDBRANCH  15  18
ENDBRANCH   1  12
BRANCH   7  26
HETATM   26  C16 UNL     1      -5.245  -0.193  -0.874  1.00  0.00    -0.017 A 
HETATM   27  C17 UNL     1      -6.023   0.777  -0.227  1.00  0.00     0.012 A 
HETATM   28  C18 UNL     1      -7.417   0.736  -0.311  1.00  0.00     0.004 A 
HETATM   29  C19 UNL     1      -8.044  -0.274  -1.041  1.00  0.00     0.036 A 
HETATM   30  C20 UNL     1      -7.268  -1.233  -1.685  1.00  0.00     0.066 A 
HETATM   31  C21 UNL     1      -5.879  -1.200  -1.610  1.00  0.00     0.049 A 
BRANCH  30  32
HETATM   32  O1  UNL     1      -7.843  -2.239  -2.407  1.00  0.00    -0.361 OA
HETATM   33  H19 UNL     1      -8.806  -2.119  -2.393  1.00  0.00     0.217 HD
ENDBRANCH  30  32
ENDBRANCH   7  26
BRANCH   8  34
HETATM   34  C23 UNL     1      -3.290  -0.272   1.800  1.00  0.00    -0.004 A 
HETATM   35  C24 UNL     1      -4.356  -1.066   2.228  1.00  0.00     0.030 A 
HETATM   36  C25 UNL     1      -4.626  -1.135   3.585  1.00  0.00     0.088 A 
HETATM   37  N4  UNL     1      -3.914  -0.485   4.529  1.00  0.00    -0.375 N 
HETATM   38  C26 UNL     1      -2.875   0.259   4.097  1.00  0.00     0.088 A 
ATOM     39  H4  UNL     1      -4.149  -0.553   5.519  1.00  0.00     0.164 HD
HETATM   40  C27 UNL     1      -2.529   0.395   2.763  1.00  0.00     0.030 A 
ENDBRANCH   8  34
TORSDOF 5
