REMARK  5 active torsions:
REMARK  status: ('A' for Active; 'I' for Inactive)
REMARK    1  A    between atoms: C3_5  and  C4_6 
REMARK    2  A    between atoms: C7_9  and  C8_10 
REMARK       I    between atoms: C8_10  and  N2_12 
REMARK    3  A    between atoms: N2_12  and  N3_13 
REMARK       I    between atoms: N3_13  and  C9_14 
REMARK    4  A    between atoms: C9_14  and  C10_16 
REMARK    5  A    between atoms: C10_16  and  C11_18 
ROOT
HETATM    1  C8  UNL     1      -0.284   1.495   1.367  1.00  0.00     0.270 C 
HETATM    2  O1  UNL     1       0.407   1.323   2.368  1.00  0.00    -0.266 OA
HETATM    3  N2  UNL     1       0.072   2.381   0.364  1.00  0.00    -0.263 N 
HETATM    4  H6  UNL     1      -0.300   2.277  -0.579  1.00  0.00     0.190 HD
ENDROOT
BRANCH   3   5
HETATM    5  N3  UNL     1       1.371   2.919   0.438  1.00  0.00    -0.260 N 
HETATM    6  C9  UNL     1       2.201   2.730  -0.652  1.00  0.00     0.311 C 
HETATM    7  O2  UNL     1       1.824   2.377  -1.762  1.00  0.00    -0.262 OA
HETATM    8  H7  UNL     1       1.765   3.006   1.376  1.00  0.00     0.190 HD
BRANCH   6   9
HETATM    9  C10 UNL     1       3.673   2.986  -0.353  1.00  0.00     0.253 C 
HETATM   10  O3  UNL     1       3.971   4.134  -0.023  1.00  0.00    -0.281 OA
BRANCH   9  11
HETATM   11  C11 UNL     1       4.655   1.908  -0.410  1.00  0.00     0.048 A 
HETATM   12  C12 UNL     1       6.018   2.121  -0.277  1.00  0.00     0.105 A 
HETATM   13  N4  UNL     1       6.662   0.921  -0.365  1.00  0.00    -0.364 N 
HETATM   14  C13 UNL     1       5.749  -0.092  -0.537  1.00  0.00     0.043 A 
HETATM   15  H9  UNL     1       7.662   0.787  -0.302  1.00  0.00     0.165 HD
HETATM   16  C14 UNL     1       5.962  -1.471  -0.661  1.00  0.00     0.030 A 
HETATM   17  C18 UNL     1       4.478   0.491  -0.572  1.00  0.00     0.006 A 
HETATM   18  C15 UNL     1       4.845  -2.291  -0.821  1.00  0.00     0.002 A 
HETATM   19  C16 UNL     1       3.565  -1.750  -0.857  1.00  0.00     0.001 A 
HETATM   20  C17 UNL     1       3.368  -0.369  -0.733  1.00  0.00     0.015 A 
ENDBRANCH   9  11
ENDBRANCH   6   9
ENDBRANCH   3   5
BRANCH   1  21
HETATM   21  C7  UNL     1      -1.536   0.717   1.157  1.00  0.00     0.033 A 
HETATM   22  C6  UNL     1      -2.559   1.157   0.310  1.00  0.00     0.018 A 
HETATM   23  C5  UNL     1      -3.715   0.384   0.146  1.00  0.00     0.016 A 
HETATM   24  C4  UNL     1      -3.873  -0.831   0.830  1.00  0.00     0.010 A 
HETATM   25  C20 UNL     1      -2.849  -1.256   1.689  1.00  0.00     0.016 A 
HETATM   26  C19 UNL     1      -1.692  -0.487   1.855  1.00  0.00     0.018 A 
BRANCH  24  27
HETATM   27  C3  UNL     1      -5.082  -1.627   0.644  1.00  0.00     0.137 A 
HETATM   28  N1  UNL     1      -6.104  -1.229  -0.193  1.00  0.00    -0.323 N 
HETATM   29  C2  UNL     1      -6.967  -2.209  -0.074  1.00  0.00     0.144 A 
ATOM     30  H1  UNL     1      -6.171  -0.385  -0.761  1.00  0.00     0.169 HD
HETATM   31  C1  UNL     1      -8.279  -2.394  -0.717  1.00  0.00     0.100 C 
HETATM   32  O4  UNL     1      -6.558  -3.191   0.775  1.00  0.00    -0.223 OA
HETATM   33  N5  UNL     1      -5.309  -2.804   1.253  1.00  0.00    -0.242 N 
ATOM     34  H5  UNL     1      -4.707  -3.298   1.911  1.00  0.00     0.196 HD
ENDBRANCH  24  27
ENDBRANCH   1  21
TORSDOF 5
