REMARK  6 active torsions:
REMARK  status: ('A' for Active; 'I' for Inactive)
REMARK    1  A    between atoms: O1_2  and  C2_3 
REMARK    2  A    between atoms: C4_5  and  N1_6 
REMARK    3  A    between atoms: N1_6  and  C5_7 
REMARK    4  A    between atoms: C11_16  and  O2_17 
REMARK    5  A    between atoms: O2_17  and  C12_18 
REMARK    6  A    between atoms: C18_25  and  O3_26 
ROOT
HETATM    1  C5  UNL     1       2.298   0.775   0.159  1.00  0.00     0.067 A 
HETATM    2  C6  UNL     1       2.554   1.985   0.823  1.00  0.00     0.087 A 
HETATM    3  C7  UNL     1       3.868   2.489   1.067  1.00  0.00     0.103 C 
HETATM    4  N2  UNL     1       4.932   2.917   1.246  1.00  0.00    -0.191 NA
HETATM    5  C8  UNL     1       1.470   2.745   1.225  1.00  0.00     0.113 A 
HETATM    6  N3  UNL     1       0.182   2.414   0.989  1.00  0.00    -0.364 N 
ATOM      7  H3  UNL     1      -0.578   3.015   1.307  1.00  0.00     0.165 HD
HETATM    8  C9  UNL     1      -0.074   1.276   0.326  1.00  0.00     0.047 A 
HETATM    9  C10 UNL     1      -1.398   0.949   0.072  1.00  0.00     0.070 A 
HETATM   10  C11 UNL     1      -1.756  -0.216  -0.611  1.00  0.00     0.104 A 
HETATM   11  C18 UNL     1      -0.749  -1.089  -1.052  1.00  0.00     0.102 A 
HETATM   12  C20 UNL     1       0.588  -0.767  -0.809  1.00  0.00     0.055 A 
HETATM   13  C21 UNL     1       0.949   0.416  -0.123  1.00  0.00     0.022 A 
ENDROOT
BRANCH   1  14
HETATM   14  N1  UNL     1       3.345  -0.043  -0.375  1.00  0.00    -0.353 N 
HETATM   15  H5  UNL     1       3.541   0.261  -1.329  1.00  0.00     0.166 HD
BRANCH  14  16
HETATM   16  C4  UNL     1       4.525  -0.461   0.300  1.00  0.00     0.057 A 
HETATM   17  C3  UNL     1       5.744  -0.404  -0.404  1.00  0.00     0.069 A 
HETATM   18  C2  UNL     1       6.951  -0.789   0.195  1.00  0.00     0.092 A 
HETATM   19  C24 UNL     1       6.936  -1.286   1.503  1.00  0.00     0.069 A 
HETATM   20  C23 UNL     1       5.739  -1.372   2.212  1.00  0.00     0.052 A 
HETATM   21 CL2  UNL     1       8.385  -1.807   2.287  1.00  0.00    -0.081 Cl
HETATM   22  C22 UNL     1       4.542  -0.966   1.618  1.00  0.00     0.062 A 
HETATM   23 CL1  UNL     1       3.101  -1.178   2.555  1.00  0.00    -0.082 Cl
BRANCH  18  24
HETATM   24  O1  UNL     1       8.156  -0.755  -0.457  1.00  0.00    -0.354 OA
HETATM   25  C1  UNL     1       8.325   0.302  -1.396  1.00  0.00     0.210 C 
ENDBRANCH  18  24
ENDBRANCH  14  16
ENDBRANCH   1  14
BRANCH  11  26
HETATM   26  O3  UNL     1      -1.169  -2.216  -1.713  1.00  0.00    -0.353 OA
HETATM   27  C19 UNL     1      -0.198  -3.214  -1.996  1.00  0.00     0.210 C 
ENDBRANCH  11  26
BRANCH  10  28
HETATM   28  O2  UNL     1      -3.042  -0.600  -0.892  1.00  0.00    -0.343 OA
BRANCH  28  29
HETATM   29  C12 UNL     1      -4.146   0.201  -0.458  1.00  0.00     0.132 C 
HETATM   30  C13 UNL     1      -4.469  -0.075   1.019  1.00  0.00     0.062 C 
HETATM   31  C14 UNL     1      -5.967  -0.015   1.328  1.00  0.00     0.274 C 
HETATM   32  N4  UNL     1      -6.612   0.996   0.492  1.00  0.00     0.084 N 
HETATM   33  C15 UNL     1      -7.975   1.276   0.937  1.00  0.00     0.309 C 
HETATM   34  C16 UNL     1      -6.590   0.619  -0.930  1.00  0.00     0.274 C 
HETATM   35  C17 UNL     1      -5.345  -0.177  -1.328  1.00  0.00     0.062 C 
ENDBRANCH  28  29
ENDBRANCH  10  28
TORSDOF 6
