REMARK  9 active torsions:
REMARK  status: ('A' for Active; 'I' for Inactive)
REMARK    1  A    between atoms: C2_2  and  C3_3 
REMARK       I    between atoms: C3_3  and  N1_5 
REMARK    2  A    between atoms: C7_9  and  C8_10 
REMARK       I    between atoms: C8_10  and  N2_12 
REMARK    3  A    between atoms: N2_12  and  C9_13 
REMARK    4  A    between atoms: C12_16  and  N3_17 
REMARK    5  A    between atoms: N3_17  and  C13_18 
REMARK    6  A    between atoms: C22_33  and  O3_34 
REMARK    7  A    between atoms: O3_34  and  C23_35 
REMARK    8  A    between atoms: C23_35  and  C24_36 
REMARK    9  A    between atoms: C24_36  and  O4_37 
ROOT
HETATM    1  C9  UNL     1       0.100   0.538  -0.305  1.00  0.00     0.069 A 
HETATM    2  C10 UNL     1      -1.010  -0.297  -0.180  1.00  0.00     0.050 A 
HETATM    3  C11 UNL     1      -2.239   0.190   0.337  1.00  0.00     0.037 A 
HETATM    4  C12 UNL     1      -3.410  -0.578   0.509  1.00  0.00     0.119 A 
HETATM    5  N4  UNL     1      -4.553  -0.036   0.970  1.00  0.00    -0.338 N 
ATOM      6  H4  UNL     1      -5.402  -0.591   1.075  1.00  0.00     0.168 HD
HETATM    7  C19 UNL     1      -4.523   1.261   1.283  1.00  0.00     0.182 A 
HETATM    8  N5  UNL     1      -3.467   2.075   1.179  1.00  0.00    -0.351 N 
ATOM      9  H5  UNL     1      -3.520   3.058   1.447  1.00  0.00     0.166 HD
HETATM   10  C20 UNL     1      -2.341   1.537   0.707  1.00  0.00     0.049 A 
HETATM   11  C21 UNL     1      -1.229   2.359   0.577  1.00  0.00     0.069 A 
HETATM   12  C22 UNL     1      -0.011   1.882   0.088  1.00  0.00     0.097 A 
ENDROOT
BRANCH   1  13
HETATM   13  N2  UNL     1       1.346   0.113  -0.815  1.00  0.00    -0.323 N 
HETATM   14  C8  UNL     1       1.736  -1.160  -1.192  1.00  0.00     0.245 C 
HETATM   15  O2  UNL     1       1.037  -2.169  -1.115  1.00  0.00    -0.271 OA
HETATM   16  H11 UNL     1       2.059   0.850  -0.864  1.00  0.00     0.169 HD
BRANCH  14  17
HETATM   17  C7  UNL     1       3.175  -1.200  -1.764  1.00  0.00     0.180 C 
HETATM   18  N1  UNL     1       4.166  -0.911  -0.720  1.00  0.00    -0.335 N 
HETATM   19  C3  UNL     1       4.480   0.386  -0.398  1.00  0.00     0.243 C 
HETATM   20  C4  UNL     1       4.931  -2.104  -0.381  1.00  0.00     0.127 C 
HETATM   21  O1  UNL     1       3.902   1.350  -0.897  1.00  0.00    -0.268 OA
HETATM   22  C5  UNL     1       4.187  -3.249  -1.049  1.00  0.00     0.022 C 
HETATM   23  C6  UNL     1       3.573  -2.587  -2.276  1.00  0.00     0.037 C 
BRANCH  19  24
HETATM   24  C2  UNL     1       5.573   0.621   0.571  1.00  0.00     0.064 C 
HETATM   25  C1  UNL     1       5.497   0.195   1.839  1.00  0.00     0.017 C 
ENDBRANCH  19  24
ENDBRANCH  14  17
ENDBRANCH   1  13
BRANCH  12  26
HETATM   26  O3  UNL     1       1.120   2.639  -0.077  1.00  0.00    -0.347 OA
BRANCH  26  27
HETATM   27  C23 UNL     1       1.204   3.908   0.570  1.00  0.00     0.201 C 
BRANCH  27  28
HETATM   28  C24 UNL     1       0.777   5.032  -0.373  1.00  0.00     0.193 C 
BRANCH  28  29
HETATM   29  O4  UNL     1       0.864   6.313   0.250  1.00  0.00    -0.394 OA
HETATM   30  C25 UNL     1      -0.281   6.629   1.030  1.00  0.00     0.201 C 
ENDBRANCH  28  29
ENDBRANCH  27  28
ENDBRANCH  26  27
ENDBRANCH  12  26
BRANCH   4  31
HETATM   31  N3  UNL     1      -3.385  -1.958   0.182  1.00  0.00    -0.339 N 
HETATM   32  H13 UNL     1      -2.578  -2.406   0.615  1.00  0.00     0.167 HD
BRANCH  31  33
HETATM   33  C13 UNL     1      -4.473  -2.862   0.110  1.00  0.00     0.074 A 
HETATM   34  C14 UNL     1      -5.744  -2.484  -0.339  1.00  0.00     0.033 A 
HETATM   35  C15 UNL     1      -6.779  -3.420  -0.441  1.00  0.00     0.004 A 
HETATM   36  C16 UNL     1      -6.553  -4.755  -0.109  1.00  0.00     0.027 A 
HETATM   37  C17 UNL     1      -5.287  -5.154   0.314  1.00  0.00     0.074 A 
HETATM   38 CL1  UNL     1      -5.012  -6.806   0.714  1.00  0.00    -0.081 Cl
HETATM   39  C18 UNL     1      -4.259  -4.217   0.411  1.00  0.00     0.164 A 
HETATM   40  F1  UNL     1      -3.034  -4.598   0.815  1.00  0.00    -0.202 F 
ENDBRANCH  31  33
ENDBRANCH   4  31
TORSDOF 9
