REMARK  8 active torsions:
REMARK  status: ('A' for Active; 'I' for Inactive)
REMARK    1  A    between atoms: O1_2  and  C2_3 
REMARK    2  A    between atoms: C6_7  and  C7_8 
REMARK    3  A    between atoms: N1_10  and  C9_11 
REMARK    4  A    between atoms: C12_14  and  C13_15 
REMARK    5  A    between atoms: C13_15  and  C14_16 
REMARK    6  A    between atoms: C14_16  and  N2_17 
REMARK    7  A    between atoms: C17_20  and  O2_21 
REMARK    8  A    between atoms: C24_32  and  N5_33 
ROOT
HETATM    1  C7  UNL     1      -4.121  -0.738  -0.086  1.00  0.00     0.007 A 
HETATM    2  C8  UNL     1      -2.905  -0.263   0.355  1.00  0.00     0.112 A 
HETATM    3  N1  UNL     1      -1.886  -1.093  -0.090  1.00  0.00    -0.307 N 
HETATM    4  C22 UNL     1      -2.487  -2.094  -0.865  1.00  0.00     0.127 A 
HETATM    5  N3  UNL     1      -1.865  -3.102  -1.510  1.00  0.00    -0.337 N 
ATOM      6  H3  UNL     1      -0.854  -3.239  -1.497  1.00  0.00     0.168 HD
HETATM    7  C23 UNL     1      -2.711  -3.904  -2.169  1.00  0.00     0.183 A 
HETATM    8  N4  UNL     1      -4.046  -3.809  -2.253  1.00  0.00    -0.343 N 
ATOM      9  H4  UNL     1      -4.586  -4.478  -2.801  1.00  0.00     0.167 HD
HETATM   10  C24 UNL     1      -4.651  -2.806  -1.594  1.00  0.00     0.093 A 
HETATM   11  C25 UNL     1      -3.868  -1.894  -0.866  1.00  0.00     0.059 A 
ENDROOT
BRANCH   3  12
HETATM   12  C9  UNL     1      -0.490  -0.917   0.221  1.00  0.00     0.040 A 
HETATM   13  C10 UNL     1      -0.076   0.121   1.073  1.00  0.00     0.030 A 
HETATM   14  C11 UNL     1       1.276   0.295   1.396  1.00  0.00     0.009 A 
HETATM   15  C12 UNL     1       2.249  -0.562   0.880  1.00  0.00    -0.056 A 
HETATM   16  C20 UNL     1       1.848  -1.588   0.022  1.00  0.00     0.009 A 
HETATM   17  C21 UNL     1       0.495  -1.766  -0.300  1.00  0.00     0.030 A 
BRANCH  15  18
HETATM   18  C13 UNL     1       3.706  -0.367   1.228  1.00  0.00     0.068 C 
BRANCH  18  19
HETATM   19  C14 UNL     1       4.397   0.617   0.271  1.00  0.00     0.277 C 
BRANCH  19  20
HETATM   20  N2  UNL     1       5.762   0.992   0.681  1.00  0.00     0.088 N 
HETATM   21  C15 UNL     1       6.645  -0.167   0.872  1.00  0.00     0.275 C 
HETATM   22  C16 UNL     1       8.117   0.220   0.807  1.00  0.00     0.062 C 
HETATM   23  C17 UNL     1       8.464   0.741  -0.586  1.00  0.00     0.121 C 
HETATM   24  C18 UNL     1       7.312   1.511  -1.228  1.00  0.00     0.062 C 
HETATM   25  C19 UNL     1       6.332   2.039  -0.180  1.00  0.00     0.275 C 
BRANCH  23  26
HETATM   26  O2  UNL     1       9.625   1.561  -0.486  1.00  0.00    -0.395 OA
HETATM   27  H19 UNL     1       9.877   1.827  -1.388  1.00  0.00     0.210 HD
ENDBRANCH  23  26
ENDBRANCH  19  20
ENDBRANCH  18  19
ENDBRANCH  15  18
ENDBRANCH   3  12
BRANCH   1  28
HETATM   28  C6  UNL     1      -5.368  -0.094   0.268  1.00  0.00    -0.021 A 
HETATM   29  C5  UNL     1      -6.210  -0.682   1.215  1.00  0.00     0.012 A 
HETATM   30  C4  UNL     1      -7.402  -0.053   1.574  1.00  0.00     0.004 A 
HETATM   31  C3  UNL     1      -7.756   1.165   0.989  1.00  0.00     0.037 A 
HETATM   32  C2  UNL     1      -6.922   1.756   0.035  1.00  0.00     0.069 A 
HETATM   33  C26 UNL     1      -5.727   1.122  -0.321  1.00  0.00     0.049 A 
BRANCH  32  34
HETATM   34  O1  UNL     1      -7.152   2.939  -0.610  1.00  0.00    -0.356 OA
HETATM   35  C1  UNL     1      -8.349   3.631  -0.275  1.00  0.00     0.210 C 
ENDBRANCH  32  34
ENDBRANCH   1  28
BRANCH  10  36
HETATM   36  N5  UNL     1      -6.033  -2.727  -1.708  1.00  0.00    -0.288 NA
HETATM   37  H27 UNL     1      -6.403  -1.790  -1.621  1.00  0.00     0.125 HD
HETATM   38  H28 UNL     1      -6.349  -3.249  -2.521  1.00  0.00     0.125 HD
ENDBRANCH  10  36
TORSDOF 8
