REMARK  8 active torsions:
REMARK  status: ('A' for Active; 'I' for Inactive)
REMARK    1  A    between atoms: O1_2  and  C2_3 
REMARK    2  A    between atoms: C6_7  and  C7_8 
REMARK    3  A    between atoms: N1_10  and  C9_11 
REMARK    4  A    between atoms: C12_14  and  O2_15 
REMARK    5  A    between atoms: O2_15  and  C13_16 
REMARK    6  A    between atoms: C13_16  and  C14_17 
REMARK    7  A    between atoms: C14_17  and  N2_18 
REMARK    8  A    between atoms: C22_32  and  N6_33 
ROOT
HETATM    1  C7  UNL     1       2.984  -0.338  -0.108  1.00  0.00     0.007 A 
HETATM    2  C8  UNL     1       1.710  -0.146  -0.601  1.00  0.00     0.112 A 
HETATM    3  N1  UNL     1       0.788  -0.801   0.203  1.00  0.00    -0.307 N 
HETATM    4  C20 UNL     1       1.510  -1.425   1.226  1.00  0.00     0.127 A 
HETATM    5  N4  UNL     1       1.002  -2.155   2.240  1.00  0.00    -0.337 N 
ATOM      6  H4  UNL     1       0.005  -2.332   2.361  1.00  0.00     0.168 HD
HETATM    7  C21 UNL     1       1.939  -2.623   3.071  1.00  0.00     0.183 A 
HETATM    8  N5  UNL     1       3.268  -2.454   2.995  1.00  0.00    -0.343 N 
ATOM      9  H5  UNL     1       3.890  -2.875   3.685  1.00  0.00     0.167 HD
HETATM   10  C22 UNL     1       3.756  -1.715   1.985  1.00  0.00     0.093 A 
HETATM   11  C23 UNL     1       2.867  -1.155   1.049  1.00  0.00     0.059 A 
ENDROOT
BRANCH   3  12
HETATM   12  C9  UNL     1      -0.636  -0.802  -0.014  1.00  0.00     0.040 A 
HETATM   13  C10 UNL     1      -1.211   0.035  -0.986  1.00  0.00     0.033 A 
HETATM   14  C11 UNL     1      -2.597   0.049  -1.206  1.00  0.00     0.039 A 
HETATM   15  C12 UNL     1      -3.436  -0.770  -0.457  1.00  0.00     0.069 A 
HETATM   16  C18 UNL     1      -2.874  -1.609   0.504  1.00  0.00     0.039 A 
HETATM   17  C19 UNL     1      -1.491  -1.628   0.726  1.00  0.00     0.033 A 
BRANCH  15  18
HETATM   18  O2  UNL     1      -4.795  -0.850  -0.565  1.00  0.00    -0.350 OA
BRANCH  18  19
HETATM   19  C13 UNL     1      -5.434   0.057  -1.466  1.00  0.00     0.196 C 
BRANCH  19  20
HETATM   20  C14 UNL     1      -6.946  -0.134  -1.367  1.00  0.00     0.156 C 
BRANCH  20  21
HETATM   21  N2  UNL     1      -7.509   0.515  -0.196  1.00  0.00    -0.350 N 
HETATM   22  C15 UNL     1      -7.583  -0.007   1.064  1.00  0.00     0.108 A 
HETATM   23  C16 UNL     1      -8.202   0.968   1.814  1.00  0.00     0.106 A 
HETATM   24  N3  UNL     1      -8.511   2.058   1.039  1.00  0.00    -0.361 N 
HETATM   25  C17 UNL     1      -8.084   1.755  -0.167  1.00  0.00     0.182 A 
ATOM     26  H3  UNL     1      -8.973   2.918   1.335  1.00  0.00     0.166 HD
ENDBRANCH  20  21
ENDBRANCH  19  20
ENDBRANCH  18  19
ENDBRANCH  15  18
ENDBRANCH   3  12
BRANCH   1  27
HETATM   27  C6  UNL     1       4.151   0.268  -0.725  1.00  0.00    -0.021 A 
HETATM   28  C5  UNL     1       4.449   0.022  -2.070  1.00  0.00     0.012 A 
HETATM   29  C4  UNL     1       5.573   0.604  -2.654  1.00  0.00     0.004 A 
HETATM   30  C3  UNL     1       6.403   1.429  -1.892  1.00  0.00     0.037 A 
HETATM   31  C2  UNL     1       6.118   1.683  -0.548  1.00  0.00     0.069 A 
HETATM   32  C24 UNL     1       4.986   1.106   0.031  1.00  0.00     0.049 A 
BRANCH  31  33
HETATM   33  O1  UNL     1       7.015   2.500   0.081  1.00  0.00    -0.356 OA
HETATM   34  C1  UNL     1       6.761   2.800   1.449  1.00  0.00     0.210 C 
ENDBRANCH  31  33
ENDBRANCH   1  27
BRANCH  10  35
HETATM   35  N6  UNL     1       5.136  -1.576   1.936  1.00  0.00    -0.288 NA
HETATM   36  H20 UNL     1       5.515  -1.434   1.009  1.00  0.00     0.125 HD
HETATM   37  H21 UNL     1       5.586  -2.293   2.496  1.00  0.00     0.125 HD
ENDBRANCH  10  35
TORSDOF 8
