REMARK  8 active torsions:
REMARK  status: ('A' for Active; 'I' for Inactive)
REMARK    1  A    between atoms: C4_4  and  C5_5 
REMARK    2  A    between atoms: C7_7  and  O1_8 
REMARK    3  A    between atoms: C13_19  and  N3_20 
REMARK    4  A    between atoms: N3_20  and  C14_21 
REMARK    5  A    between atoms: C18_25  and  C19_26 
REMARK       I    between atoms: C19_26  and  N4_28 
REMARK    6  A    between atoms: N4_28  and  C20_29 
REMARK    7  A    between atoms: C20_29  and  C21_30 
REMARK    8  A    between atoms: C21_30  and  N5_31 
ROOT
HETATM    1  C1  UNL     1       3.487  -1.513   2.357  1.00  0.00     0.050 C 
HETATM    2  C2  UNL     1       3.932  -0.704   1.169  1.00  0.00    -0.032 A 
HETATM    3  C3  UNL     1       5.276  -0.305   1.070  1.00  0.00     0.021 A 
HETATM    4  C4  UNL     1       5.722   0.452  -0.017  1.00  0.00    -0.021 A 
HETATM    5  C11 UNL     1       4.793   0.792  -1.005  1.00  0.00     0.045 A 
HETATM    6  C12 UNL     1       3.460   0.404  -0.917  1.00  0.00     0.077 A 
HETATM    7  N1  UNL     1       2.590   0.746  -1.872  1.00  0.00    -0.284 N 
ATOM      8  H1  UNL     1       2.897   1.293  -2.676  1.00  0.00     0.187 HD
HETATM    9  N2  UNL     1       1.285   0.356  -1.762  1.00  0.00    -0.131 N 
ATOM     10  H2  UNL     1       0.615   0.616  -2.486  1.00  0.00     0.205 HD
HETATM   11  C13 UNL     1       0.879  -0.368  -0.705  1.00  0.00     0.697 A 
HETATM   12  N6  UNL     1       1.720  -0.733   0.276  1.00  0.00    -0.188 N 
ATOM     13  H6  UNL     1       1.394  -1.282   1.072  1.00  0.00     0.184 HD
HETATM   14  C25 UNL     1       3.009  -0.351   0.176  1.00  0.00     0.083 A 
ENDROOT
BRANCH  11  15
HETATM   15  N3  UNL     1      -0.440  -0.784  -0.531  1.00  0.00    -0.190 N 
HETATM   16  H10 UNL     1      -0.500  -1.315   0.326  1.00  0.00     0.184 HD
BRANCH  15  17
HETATM   17  C14 UNL     1      -1.596  -0.692  -1.314  1.00  0.00     0.050 A 
HETATM   18  C15 UNL     1      -1.627  -0.129  -2.596  1.00  0.00     0.030 A 
HETATM   19  C16 UNL     1      -2.817  -0.055  -3.329  1.00  0.00     0.003 A 
HETATM   20  C17 UNL     1      -4.006  -0.528  -2.782  1.00  0.00     0.017 A 
HETATM   21  C18 UNL     1      -4.009  -1.066  -1.493  1.00  0.00     0.034 A 
HETATM   22  C24 UNL     1      -2.808  -1.155  -0.773  1.00  0.00     0.047 A 
BRANCH  21  23
HETATM   23  C19 UNL     1      -5.300  -1.546  -0.930  1.00  0.00     0.251 C 
HETATM   24  O2  UNL     1      -6.199  -1.921  -1.675  1.00  0.00    -0.268 OA
HETATM   25  N4  UNL     1      -5.423  -1.495   0.442  1.00  0.00    -0.355 N 
HETATM   26  H14 UNL     1      -4.773  -0.934   0.975  1.00  0.00     0.162 HD
BRANCH  25  27
HETATM   27  C20 UNL     1      -6.685  -1.794   1.090  1.00  0.00     0.153 C 
BRANCH  27  28
HETATM   28  C21 UNL     1      -7.741  -0.674   0.985  1.00  0.00     0.291 C 
BRANCH  28  29
HETATM   29  N5  UNL     1      -7.379   0.550   1.739  1.00  0.00     0.081 N 
HETATM   30  C22 UNL     1      -6.630   1.492   0.900  1.00  0.00     0.309 C 
HETATM   31  C23 UNL     1      -8.594   1.215   2.220  1.00  0.00     0.309 C 
ENDBRANCH  28  29
ENDBRANCH  27  28
ENDBRANCH  25  27
ENDBRANCH  21  23
ENDBRANCH  15  17
ENDBRANCH  11  15
BRANCH   4  32
HETATM   32  C5  UNL     1       7.125   0.870  -0.125  1.00  0.00    -0.001 A 
HETATM   33  C6  UNL     1       7.977   0.182  -1.006  1.00  0.00     0.050 A 
HETATM   34  C7  UNL     1       9.315   0.547  -1.135  1.00  0.00     0.066 A 
HETATM   35  C8  UNL     1       9.842   1.600  -0.399  1.00  0.00     0.038 A 
HETATM   36  C9  UNL     1       9.014   2.298   0.479  1.00  0.00     0.027 A 
HETATM   37  C10 UNL     1       7.667   1.938   0.616  1.00  0.00     0.045 A 
HETATM   38 CL1  UNL     1       6.704   2.864   1.715  1.00  0.00    -0.083 Cl
BRANCH  34  39
HETATM   39  O1  UNL     1      10.082  -0.165  -2.007  1.00  0.00    -0.361 OA
HETATM   40  H6  UNL     1      10.984   0.198  -2.006  1.00  0.00     0.217 HD
ENDBRANCH  34  39
ENDBRANCH   4  32
TORSDOF 8
