REMARK  1 active torsions:
REMARK  status: ('A' for Active; 'I' for Inactive)
REMARK    1  A    between atoms: O1_2  and  C2_3 
ROOT
HETATM    1  C2  UNL     1       3.642  -0.125   0.133  1.00  0.00     0.103 A 
HETATM    2  C3  UNL     1       3.908   1.233   0.366  1.00  0.00     0.070 A 
HETATM    3  C4  UNL     1       2.930   2.116   0.829  1.00  0.00     0.049 A 
HETATM    4  N1  UNL     1       3.243   3.398   1.057  1.00  0.00    -0.351 N 
ATOM      5  H1  UNL     1       4.184   3.755   0.892  1.00  0.00     0.166 HD
HETATM    6  C5  UNL     1       2.261   4.192   1.512  1.00  0.00     0.182 A 
HETATM    7  N2  UNL     1       0.984   3.845   1.719  1.00  0.00    -0.342 N 
ATOM      8  H2  UNL     1       0.289   4.509   2.060  1.00  0.00     0.167 HD
HETATM    9  C6  UNL     1       0.680   2.566   1.448  1.00  0.00     0.098 A 
HETATM   10  C7  UNL     1       1.641   1.628   1.046  1.00  0.00     0.032 A 
HETATM   11  C8  UNL     1       1.381   0.260   0.874  1.00  0.00     0.056 A 
HETATM   12  C9  UNL     1       2.356  -0.600   0.391  1.00  0.00     0.103 A 
HETATM   13  O2  UNL     1       1.998  -1.917   0.279  1.00  0.00    -0.348 OA
HETATM   14  C10 UNL     1       1.778  -2.292  -1.087  1.00  0.00     0.176 C 
HETATM   15  C11 UNL     1       0.826  -3.492  -1.118  1.00  0.00     0.027 C 
HETATM   16  C12 UNL     1      -0.672  -3.146  -1.161  1.00  0.00     0.004 C 
HETATM   17  C13 UNL     1      -1.152  -2.221  -0.040  1.00  0.00     0.019 C 
HETATM   18  C14 UNL     1      -2.683  -2.103  -0.004  1.00  0.00     0.117 C 
HETATM   19  N3  UNL     1      -3.216  -1.301   1.102  1.00  0.00    -0.413 N 
HETATM   20  C15 UNL     1      -4.666  -1.361   1.207  1.00  0.00     0.143 C 
HETATM   21  C16 UNL     1      -2.646   0.033   1.356  1.00  0.00     0.156 C 
HETATM   22  C17 UNL     1      -2.468   1.032   0.220  1.00  0.00    -0.019 A 
HETATM   23  C18 UNL     1      -3.295   1.021  -0.919  1.00  0.00     0.012 A 
HETATM   24  C19 UNL     1      -3.122   1.934  -1.963  1.00  0.00     0.020 A 
HETATM   25  C20 UNL     1      -2.129   2.898  -1.875  1.00  0.00     0.012 A 
HETATM   26 BR1  UNL     1      -1.897   4.140  -3.279  1.00  0.00    -0.051 Br
HETATM   27  C21 UNL     1      -1.320   2.967  -0.746  1.00  0.00     0.043 A 
HETATM   28  C22 UNL     1      -1.476   2.043   0.308  1.00  0.00     0.023 A 
HETATM   29  N4  UNL     1      -0.704   2.218   1.512  1.00  0.00    -0.244 NA
HETATM   30  H25 UNL     1      -1.097   3.060   1.946  1.00  0.00     0.135 HD
ENDROOT
BRANCH   1  31
HETATM   31  O1  UNL     1       4.553  -1.042  -0.317  1.00  0.00    -0.353 OA
HETATM   32  C1  UNL     1       5.892  -0.600  -0.492  1.00  0.00     0.210 C 
ENDBRANCH   1  31
TORSDOF 1
