REMARK  8 active torsions:
REMARK  status: ('A' for Active; 'I' for Inactive)
REMARK    1  A    between atoms: O1_2  and  C2_3 
REMARK    2  A    between atoms: C5_6  and  N1_7 
REMARK    3  A    between atoms: N1_7  and  C6_8 
REMARK    4  A    between atoms: C17_24  and  O2_25 
REMARK    5  A    between atoms: O2_25  and  C18_26 
REMARK    6  A    between atoms: C18_26  and  C19_27 
REMARK    7  A    between atoms: C19_27  and  C20_28 
REMARK    8  A    between atoms: C20_28  and  N5_29 
ROOT
HETATM    1  C2  UNL     1      -0.228  -0.341   1.721  1.00  0.00     0.102 A 
HETATM    2  C3  UNL     1      -1.544  -0.126   1.305  1.00  0.00     0.057 A 
HETATM    3  C4  UNL     1      -1.835   0.336  -0.007  1.00  0.00     0.038 A 
HETATM    4  C5  UNL     1      -3.131   0.581  -0.519  1.00  0.00     0.119 A 
HETATM    5  N3  UNL     1      -3.327   0.961  -1.795  1.00  0.00    -0.338 N 
ATOM      6  H3  UNL     1      -4.264   1.097  -2.174  1.00  0.00     0.168 HD
HETATM    7  C14 UNL     1      -2.234   1.152  -2.544  1.00  0.00     0.182 A 
HETATM    8  N4  UNL     1      -0.970   0.975  -2.154  1.00  0.00    -0.351 N 
ATOM      9  H4  UNL     1      -0.187   1.146  -2.785  1.00  0.00     0.166 HD
HETATM   10  C15 UNL     1      -0.780   0.563  -0.899  1.00  0.00     0.050 A 
HETATM   11  C16 UNL     1       0.524   0.351  -0.472  1.00  0.00     0.070 A 
HETATM   12  C17 UNL     1       0.821  -0.093   0.822  1.00  0.00     0.104 A 
ENDROOT
BRANCH   4  13
HETATM   13  N1  UNL     1      -4.235   0.438   0.368  1.00  0.00    -0.340 N 
HETATM   14  H5  UNL     1      -4.056   1.041   1.168  1.00  0.00     0.167 HD
BRANCH  13  15
HETATM   15  C6  UNL     1      -5.638   0.388   0.140  1.00  0.00     0.061 A 
HETATM   16  C7  UNL     1      -6.477   0.401   1.280  1.00  0.00     0.032 A 
HETATM   17  C8  UNL     1      -7.866   0.300   1.201  1.00  0.00     0.003 A 
HETATM   18  C9  UNL     1      -8.490   0.147  -0.035  1.00  0.00     0.014 A 
HETATM   19  C10 UNL     1      -7.700   0.083  -1.196  1.00  0.00    -0.006 A 
HETATM   20  C11 UNL     1      -8.008  -0.094  -2.575  1.00  0.00     0.030 A 
HETATM   21  C13 UNL     1      -6.310   0.199  -1.082  1.00  0.00     0.069 A 
HETATM   22  C12 UNL     1      -6.823  -0.086  -3.272  1.00  0.00     0.089 A 
HETATM   23  N2  UNL     1      -5.817   0.089  -2.363  1.00  0.00    -0.363 N 
HETATM   24  H11 UNL     1      -4.830   0.175  -2.571  1.00  0.00     0.165 HD
ENDBRANCH  13  15
ENDBRANCH   4  13
BRANCH   1  25
HETATM   25  O1  UNL     1       0.135  -0.784   2.967  1.00  0.00    -0.353 OA
HETATM   26  C1  UNL     1      -0.898  -1.075   3.898  1.00  0.00     0.210 C 
ENDBRANCH   1  25
BRANCH  12  27
HETATM   27  O2  UNL     1       2.088  -0.347   1.285  1.00  0.00    -0.348 OA
BRANCH  27  28
HETATM   28  C18 UNL     1       3.210   0.143   0.548  1.00  0.00     0.177 C 
BRANCH  28  29
HETATM   29  C19 UNL     1       3.708  -0.912  -0.435  1.00  0.00     0.046 C 
BRANCH  29  30
HETATM   30  C20 UNL     1       4.790  -0.411  -1.400  1.00  0.00     0.119 C 
BRANCH  30  31
HETATM   31  N5  UNL     1       6.123  -0.139  -0.879  1.00  0.00    -0.408 N 
HETATM   32  C21 UNL     1       6.338   1.139  -0.193  1.00  0.00     0.143 C 
HETATM   33  C22 UNL     1       6.982   0.984   1.199  1.00  0.00     0.187 C 
HETATM   34  O3  UNL     1       8.205   0.239   1.183  1.00  0.00    -0.388 OA
HETATM   35  C23 UNL     1       8.209  -0.832   0.226  1.00  0.00     0.187 C 
HETATM   36  C24 UNL     1       6.805  -1.264  -0.233  1.00  0.00     0.143 C 
ENDBRANCH  30  31
ENDBRANCH  29  30
ENDBRANCH  28  29
ENDBRANCH  27  28
ENDBRANCH  12  27
TORSDOF 8
