REMARK  8 active torsions:
REMARK  status: ('A' for Active; 'I' for Inactive)
REMARK    1  A    between atoms: O1_2  and  C2_3 
REMARK    2  A    between atoms: C5_6  and  N1_7 
REMARK    3  A    between atoms: N1_7  and  C6_8 
REMARK    4  A    between atoms: C17_24  and  O3_25 
REMARK    5  A    between atoms: O3_25  and  C18_26 
REMARK    6  A    between atoms: C18_26  and  C19_27 
REMARK    7  A    between atoms: C19_27  and  C20_28 
REMARK    8  A    between atoms: C20_28  and  N4_29 
ROOT
HETATM    1  C2  UNL     1      -0.424  -1.563  -0.965  1.00  0.00     0.102 A 
HETATM    2  C3  UNL     1      -1.724  -1.080  -0.810  1.00  0.00     0.057 A 
HETATM    3  C4  UNL     1      -1.976   0.133  -0.118  1.00  0.00     0.038 A 
HETATM    4  C5  UNL     1      -3.251   0.699   0.092  1.00  0.00     0.119 A 
HETATM    5  N2  UNL     1      -3.412   1.879   0.716  1.00  0.00    -0.338 N 
ATOM      6  H2  UNL     1      -4.335   2.294   0.844  1.00  0.00     0.168 HD
HETATM    7  C14 UNL     1      -2.307   2.482   1.160  1.00  0.00     0.182 A 
HETATM    8  N3  UNL     1      -1.057   2.024   1.042  1.00  0.00    -0.351 N 
ATOM      9  H3  UNL     1      -0.261   2.537   1.422  1.00  0.00     0.166 HD
HETATM   10  C15 UNL     1      -0.900   0.862   0.402  1.00  0.00     0.050 A 
HETATM   11  C16 UNL     1       0.388   0.364   0.251  1.00  0.00     0.070 A 
HETATM   12  C17 UNL     1       0.645  -0.839  -0.416  1.00  0.00     0.104 A 
ENDROOT
BRANCH   4  13
HETATM   13  N1  UNL     1      -4.398  -0.004  -0.361  1.00  0.00    -0.341 N 
HETATM   14  H5  UNL     1      -4.386  -0.952  -0.006  1.00  0.00     0.167 HD
BRANCH  13  15
HETATM   15  C6  UNL     1      -5.716   0.482  -0.504  1.00  0.00     0.046 A 
HETATM   16  C7  UNL     1      -5.978   1.804  -0.928  1.00  0.00     0.030 A 
HETATM   17  C8  UNL     1      -7.277   2.290  -1.112  1.00  0.00     0.005 A 
HETATM   18  C9  UNL     1      -8.386   1.472  -0.898  1.00  0.00     0.038 A 
HETATM   19  C10 UNL     1      -8.119   0.166  -0.499  1.00  0.00     0.087 A 
HETATM   20  O2  UNL     1      -9.065  -0.782  -0.251  1.00  0.00    -0.322 OA
HETATM   21  C13 UNL     1      -6.842  -0.353  -0.299  1.00  0.00     0.026 A 
HETATM   22  C11 UNL     1      -8.408  -1.913   0.110  1.00  0.00     0.143 A 
HETATM   23  C12 UNL     1      -7.048  -1.708   0.095  1.00  0.00     0.041 A 
ENDBRANCH  13  15
ENDBRANCH   4  13
BRANCH   1  24
HETATM   24  O1  UNL     1      -0.103  -2.729  -1.611  1.00  0.00    -0.353 OA
HETATM   25  C1  UNL     1      -1.109  -3.343  -2.404  1.00  0.00     0.210 C 
ENDBRANCH   1  24
BRANCH  12  26
HETATM   26  O3  UNL     1       1.895  -1.374  -0.600  1.00  0.00    -0.348 OA
BRANCH  26  27
HETATM   27  C18 UNL     1       3.001  -0.727   0.035  1.00  0.00     0.177 C 
BRANCH  27  28
HETATM   28  C19 UNL     1       4.253  -1.537  -0.279  1.00  0.00     0.057 C 
BRANCH  28  29
HETATM   29  C20 UNL     1       5.511  -1.107   0.484  1.00  0.00     0.274 C 
BRANCH  29  30
HETATM   30  N4  UNL     1       5.923   0.268   0.176  1.00  0.00     0.092 N 
HETATM   31  C21 UNL     1       5.424   1.266   1.148  1.00  0.00     0.298 C 
HETATM   32  C22 UNL     1       6.491   1.750   2.145  1.00  0.00     0.198 C 
HETATM   33  O4  UNL     1       7.629   2.345   1.510  1.00  0.00    -0.388 OA
HETATM   34  C23 UNL     1       7.885   1.813   0.202  1.00  0.00     0.198 C 
HETATM   35  C24 UNL     1       7.395   0.366   0.049  1.00  0.00     0.298 C 
ENDBRANCH  29  30
ENDBRANCH  28  29
ENDBRANCH  27  28
ENDBRANCH  26  27
ENDBRANCH  12  26
TORSDOF 8
