REMARK  4 active torsions:
REMARK  status: ('A' for Active; 'I' for Inactive)
REMARK    1  A    between atoms: N1_2  and  C1_4 
REMARK    2  A    between atoms: C5_8  and  C6_9 
REMARK    3  A    between atoms: C9_19  and  N6_20 
REMARK    4  A    between atoms: N6_20  and  C10_21 
ROOT
HETATM    1  C6  UNL     1      -0.994  -0.614  -1.713  1.00  0.00     0.075 A 
HETATM    2  N2  UNL     1      -1.637  -0.393  -2.910  1.00  0.00    -0.297 N 
HETATM    3  N3  UNL     1      -1.104  -1.033  -3.965  1.00  0.00    -0.284 N 
ATOM      4  H3  UNL     1      -1.414  -1.014  -4.937  1.00  0.00     0.188 HD
HETATM    5  C7  UNL     1      -0.074  -1.698  -3.440  1.00  0.00     0.136 A 
HETATM    6  N4  UNL     1       0.765  -2.524  -4.104  1.00  0.00    -0.337 N 
ATOM      7  H4  UNL     1       0.713  -2.720  -5.104  1.00  0.00     0.168 HD
HETATM    8  C8  UNL     1       1.684  -3.057  -3.265  1.00  0.00     0.183 A 
HETATM    9  N5  UNL     1       1.874  -2.864  -1.922  1.00  0.00    -0.342 N 
ATOM     10  H5  UNL     1       2.620  -3.359  -1.433  1.00  0.00     0.167 HD
HETATM   11  C9  UNL     1       1.060  -2.006  -1.242  1.00  0.00     0.102 A 
HETATM   12  C16 UNL     1       0.056  -1.446  -2.046  1.00  0.00     0.077 A 
HETATM   13  H4  UNL     1      -2.466   0.172  -3.066  1.00  0.00     0.187 HD
ENDROOT
BRANCH   1  14
HETATM   14  C5  UNL     1      -1.486  -0.053  -0.465  1.00  0.00    -0.005 A 
HETATM   15  C4  UNL     1      -2.057  -0.888   0.506  1.00  0.00     0.014 A 
HETATM   16  C3  UNL     1      -2.506  -0.363   1.721  1.00  0.00     0.003 A 
HETATM   17  C2  UNL     1      -2.380   1.001   1.982  1.00  0.00     0.036 A 
HETATM   18  C1  UNL     1      -1.810   1.836   1.013  1.00  0.00     0.103 A 
HETATM   19  C17 UNL     1      -1.377   1.319  -0.216  1.00  0.00     0.050 A 
BRANCH  18  20
HETATM   20  N1  UNL     1      -1.646   3.267   1.293  1.00  0.00    -0.116 N 
HETATM   21  O1  UNL     1      -2.058   3.695   2.380  1.00  0.00    -0.532 OA
HETATM   22  O2  UNL     1      -1.108   3.966   0.422  1.00  0.00    -0.532 OA
ENDBRANCH  18  20
ENDBRANCH   1  14
BRANCH  11  23
HETATM   23  N6  UNL     1       1.308  -1.814   0.127  1.00  0.00    -0.244 NA
HETATM   24  H6  UNL     1       2.093  -2.431   0.339  1.00  0.00     0.135 HD
BRANCH  23  25
HETATM   25  C10 UNL     1       1.539  -0.564   0.751  1.00  0.00     0.015 A 
HETATM   26  C11 UNL     1       2.064   0.541   0.066  1.00  0.00     0.024 A 
HETATM   27  C12 UNL     1       2.302   1.746   0.732  1.00  0.00     0.003 A 
HETATM   28  C13 UNL     1       2.038   1.853   2.096  1.00  0.00     0.024 A 
HETATM   29  C14 UNL     1       1.554   0.747   2.790  1.00  0.00     0.035 A 
HETATM   30 CL1  UNL     1       1.222   0.874   4.474  1.00  0.00    -0.084 Cl
HETATM   31  C15 UNL     1       1.323  -0.459   2.130  1.00  0.00     0.047 A 
ENDBRANCH  23  25
ENDBRANCH  11  23
TORSDOF 4
