REMARK  9 active torsions:
REMARK  status: ('A' for Active; 'I' for Inactive)
REMARK    1  A    between atoms: O1_2  and  C2_3 
REMARK    2  A    between atoms: C6_8  and  N1_9 
REMARK    3  A    between atoms: N1_9  and  C7_10 
REMARK    4  A    between atoms: C11_18  and  O2_19 
REMARK    5  A    between atoms: O2_19  and  C12_20 
REMARK    6  A    between atoms: C12_20  and  C13_21 
REMARK    7  A    between atoms: C13_21  and  C14_22 
REMARK    8  A    between atoms: C14_22  and  N4_23 
REMARK    9  A    between atoms: C19_29  and  O4_30 
ROOT
HETATM    1  C7  UNL     1      -3.224  -0.104  -0.806  1.00  0.00     0.098 A 
HETATM    2  N2  UNL     1      -3.733   0.744  -1.718  1.00  0.00    -0.342 N 
ATOM      3  H2  UNL     1      -4.737   0.908  -1.796  1.00  0.00     0.167 HD
HETATM    4  C8  UNL     1      -2.858   1.360  -2.516  1.00  0.00     0.182 A 
HETATM    5  N3  UNL     1      -1.527   1.229  -2.478  1.00  0.00    -0.351 N 
ATOM      6  H3  UNL     1      -0.920   1.753  -3.109  1.00  0.00     0.166 HD
HETATM    7  C9  UNL     1      -1.031   0.379  -1.574  1.00  0.00     0.049 A 
HETATM    8  C10 UNL     1       0.347   0.213  -1.511  1.00  0.00     0.070 A 
HETATM    9  C11 UNL     1       0.950  -0.664  -0.603  1.00  0.00     0.104 A 
HETATM   10  C19 UNL     1       0.143  -1.407   0.272  1.00  0.00     0.102 A 
HETATM   11  C21 UNL     1      -1.242  -1.243   0.227  1.00  0.00     0.056 A 
HETATM   12  C22 UNL     1      -1.840  -0.343  -0.691  1.00  0.00     0.032 A 
ENDROOT
BRANCH   1  13
HETATM   13  N1  UNL     1      -4.118  -0.760   0.089  1.00  0.00    -0.243 NA
HETATM   14  H6  UNL     1      -3.856  -0.492   1.032  1.00  0.00     0.135 HD
BRANCH  13  15
HETATM   15  C6  UNL     1      -5.530  -0.764  -0.078  1.00  0.00     0.038 A 
HETATM   16  C5  UNL     1      -6.160  -1.383  -1.176  1.00  0.00     0.055 A 
HETATM   17  C4  UNL     1      -7.548  -1.320  -1.323  1.00  0.00     0.028 A 
HETATM   18 CL1  UNL     1      -5.275  -2.308  -2.341  1.00  0.00    -0.082 Cl
HETATM   19  C3  UNL     1      -8.319  -0.637  -0.382  1.00  0.00     0.038 A 
HETATM   20  C2  UNL     1      -7.716  -0.013   0.711  1.00  0.00     0.070 A 
HETATM   21  C23 UNL     1      -6.327  -0.077   0.859  1.00  0.00     0.062 A 
BRANCH  20  22
HETATM   22  O1  UNL     1      -8.587   0.622   1.552  1.00  0.00    -0.356 OA
HETATM   23  C1  UNL     1      -8.030   1.310   2.665  1.00  0.00     0.210 C 
ENDBRANCH  20  22
ENDBRANCH  13  15
ENDBRANCH   1  13
BRANCH  10  24
HETATM   24  O4  UNL     1       0.794  -2.245   1.141  1.00  0.00    -0.353 OA
HETATM   25  C20 UNL     1       0.019  -3.241   1.794  1.00  0.00     0.210 C 
ENDBRANCH  10  24
BRANCH   9  26
HETATM   26  O2  UNL     1       2.302  -0.860  -0.484  1.00  0.00    -0.348 OA
BRANCH  26  27
HETATM   27  C12 UNL     1       3.190  -0.295  -1.449  1.00  0.00     0.177 C 
BRANCH  27  28
HETATM   28  C13 UNL     1       3.637   1.110  -1.040  1.00  0.00     0.057 C 
BRANCH  28  29
HETATM   29  C14 UNL     1       4.455   1.128   0.261  1.00  0.00     0.274 C 
BRANCH  29  30
HETATM   30  N4  UNL     1       5.746   0.429   0.162  1.00  0.00     0.092 N 
HETATM   31  C15 UNL     1       6.390   0.280   1.486  1.00  0.00     0.298 C 
HETATM   32  C16 UNL     1       7.474   1.334   1.760  1.00  0.00     0.198 C 
HETATM   33  O3  UNL     1       8.543   1.310   0.803  1.00  0.00    -0.388 OA
HETATM   34  C17 UNL     1       8.141   0.791  -0.472  1.00  0.00     0.198 C 
HETATM   35  C18 UNL     1       6.668   1.087  -0.792  1.00  0.00     0.298 C 
ENDBRANCH  29  30
ENDBRANCH  28  29
ENDBRANCH  27  28
ENDBRANCH  26  27
ENDBRANCH   9  26
TORSDOF 9
