REMARK  5 active torsions:
REMARK  status: ('A' for Active; 'I' for Inactive)
REMARK    1  A    between atoms: O1_2  and  C2_3 
REMARK    2  A    between atoms: C6_7  and  N1_8 
REMARK    3  A    between atoms: N1_8  and  C7_9 
REMARK    4  A    between atoms: C11_17  and  O2_18 
REMARK    5  A    between atoms: C13_20  and  O3_21 
ROOT
HETATM    1  C7  UNL     1       0.062   0.618  -0.379  1.00  0.00     0.119 A 
HETATM    2  N2  UNL     1      -0.363   1.876  -0.591  1.00  0.00    -0.338 N 
ATOM      3  H2  UNL     1      -1.340   2.081  -0.802  1.00  0.00     0.168 HD
HETATM    4  C8  UNL     1       0.551   2.844  -0.513  1.00  0.00     0.182 A 
HETATM    5  N3  UNL     1       1.851   2.682  -0.250  1.00  0.00    -0.351 N 
ATOM      6  H3  UNL     1       2.494   3.474  -0.221  1.00  0.00     0.166 HD
HETATM    7  C9  UNL     1       2.268   1.432  -0.027  1.00  0.00     0.050 A 
HETATM    8  C10 UNL     1       3.612   1.228   0.256  1.00  0.00     0.070 A 
HETATM    9  C11 UNL     1       4.132  -0.046   0.513  1.00  0.00     0.103 A 
HETATM   10  C13 UNL     1       3.274  -1.157   0.496  1.00  0.00     0.102 A 
HETATM   11  C15 UNL     1       1.922  -0.965   0.205  1.00  0.00     0.057 A 
HETATM   12  C16 UNL     1       1.408   0.329  -0.069  1.00  0.00     0.038 A 
ENDROOT
BRANCH   1  13
HETATM   13  N1  UNL     1      -0.860  -0.458  -0.497  1.00  0.00    -0.342 N 
HETATM   14  H7  UNL     1      -0.506  -1.108  -1.192  1.00  0.00     0.167 HD
BRANCH  13  15
HETATM   15  C6  UNL     1      -2.272  -0.400  -0.519  1.00  0.00     0.036 A 
HETATM   16  C5  UNL     1      -2.986  -1.439  -1.134  1.00  0.00     0.029 A 
HETATM   17  C4  UNL     1      -4.382  -1.457  -1.121  1.00  0.00     0.005 A 
HETATM   18  C3  UNL     1      -5.091  -0.449  -0.468  1.00  0.00     0.037 A 
HETATM   19  C2  UNL     1      -4.403   0.574   0.183  1.00  0.00     0.070 A 
HETATM   20  C17 UNL     1      -3.003   0.582   0.162  1.00  0.00     0.066 A 
BRANCH  19  21
HETATM   21  O1  UNL     1      -4.972   1.607   0.877  1.00  0.00    -0.356 OA
HETATM   22  C1  UNL     1      -6.392   1.659   0.909  1.00  0.00     0.210 C 
ENDBRANCH  19  21
ENDBRANCH  13  15
ENDBRANCH   1  13
BRANCH  10  23
HETATM   23  O3  UNL     1       3.847  -2.373   0.765  1.00  0.00    -0.353 OA
HETATM   24  C14 UNL     1       2.984  -3.488   0.937  1.00  0.00     0.210 C 
ENDBRANCH  10  23
BRANCH   9  25
HETATM   25  O2  UNL     1       5.450  -0.305   0.796  1.00  0.00    -0.353 OA
HETATM   26  C12 UNL     1       6.348   0.796   0.829  1.00  0.00     0.210 C 
ENDBRANCH   9  25
TORSDOF 5
