REMARK  4 active torsions:
REMARK  status: ('A' for Active; 'I' for Inactive)
REMARK    1  A    between atoms: O1_1  and  C1_2 
REMARK    2  A    between atoms: C5_6  and  N1_7 
REMARK    3  A    between atoms: C9_18  and  N6_19 
REMARK    4  A    between atoms: N6_19  and  C10_20 
ROOT
HETATM    1  N1  UNL     1       1.839  -0.330  -1.761  1.00  0.00    -0.340 N 
HETATM    2  C6  UNL     1       1.113   0.607  -2.430  1.00  0.00     0.138 A 
HETATM    3  N2  UNL     1       1.635   1.234  -3.538  1.00  0.00    -0.283 N 
HETATM    4  N3  UNL     1       0.839   2.171  -4.084  1.00  0.00    -0.283 N 
ATOM      5  H3  UNL     1       1.032   2.777  -4.881  1.00  0.00     0.188 HD
HETATM    6  C7  UNL     1      -0.264   2.118  -3.334  1.00  0.00     0.139 A 
HETATM    7  N4  UNL     1      -1.380   2.862  -3.500  1.00  0.00    -0.337 N 
ATOM      8  H4  UNL     1      -1.500   3.574  -4.220  1.00  0.00     0.168 HD
HETATM    9  C8  UNL     1      -2.317   2.532  -2.579  1.00  0.00     0.183 A 
HETATM   10  N5  UNL     1      -2.283   1.598  -1.578  1.00  0.00    -0.338 N 
ATOM     11  H5  UNL     1      -3.091   1.478  -0.967  1.00  0.00     0.168 HD
HETATM   12  C9  UNL     1      -1.170   0.826  -1.394  1.00  0.00     0.124 A 
HETATM   13  C16 UNL     1      -0.151   1.144  -2.304  1.00  0.00     0.099 A 
HETATM   14  H5  UNL     1       2.560  -0.840  -2.276  1.00  0.00     0.167 HD
HETATM   15  H6  UNL     1       2.552   1.096  -3.946  1.00  0.00     0.188 HD
ENDROOT
BRANCH   1  16
HETATM   16  C5  UNL     1       2.262  -0.216  -0.407  1.00  0.00     0.036 A 
HETATM   17  C4  UNL     1       1.986   0.894   0.402  1.00  0.00     0.029 A 
HETATM   18  C3  UNL     1       2.362   0.913   1.749  1.00  0.00     0.005 A 
HETATM   19  C2  UNL     1       3.011  -0.183   2.313  1.00  0.00     0.036 A 
HETATM   20  C1  UNL     1       3.274  -1.293   1.520  1.00  0.00     0.067 A 
HETATM   21  C17 UNL     1       2.902  -1.319   0.179  1.00  0.00     0.066 A 
BRANCH  20  22
HETATM   22  O1  UNL     1       3.894  -2.396   2.027  1.00  0.00    -0.361 OA
HETATM   23  H1  UNL     1       4.103  -2.235   2.962  1.00  0.00     0.217 HD
ENDBRANCH  20  22
ENDBRANCH   1  16
BRANCH  12  24
HETATM   24  N6  UNL     1      -1.075  -0.173  -0.422  1.00  0.00    -0.342 N 
HETATM   25  H8  UNL     1      -0.193  -0.670  -0.474  1.00  0.00     0.167 HD
BRANCH  24  26
HETATM   26  C10 UNL     1      -1.938  -0.610   0.594  1.00  0.00     0.035 A 
HETATM   27  C11 UNL     1      -1.479  -1.608   1.472  1.00  0.00     0.029 A 
HETATM   28  C12 UNL     1      -2.277  -2.086   2.516  1.00  0.00     0.004 A 
HETATM   29  C13 UNL     1      -3.554  -1.568   2.702  1.00  0.00     0.024 A 
HETATM   30  C14 UNL     1      -4.021  -0.576   1.844  1.00  0.00     0.036 A 
HETATM   31 CL1  UNL     1      -5.601   0.069   2.075  1.00  0.00    -0.084 Cl
HETATM   32  C15 UNL     1      -3.222  -0.099   0.801  1.00  0.00     0.053 A 
ENDBRANCH  24  26
ENDBRANCH  12  24
TORSDOF 4
