REMARK  4 active torsions:
REMARK  status: ('A' for Active; 'I' for Inactive)
REMARK    1  A    between atoms: CL1_1  and  C16_22 
REMARK    2  A    between atoms: C4_5  and  C5_6 
REMARK    3  A    between atoms: C9_10  and  N1_11 
REMARK    4  A    between atoms: N1_11  and  C10_12 
ROOT
HETATM    1  C10 UNL     1       0.979  -0.582  -2.138  1.00  0.00     0.117 A 
HETATM    2  N2  UNL     1       0.675   0.012  -3.305  1.00  0.00    -0.338 N 
ATOM      3  H2  UNL     1      -0.024  -0.413  -3.914  1.00  0.00     0.168 HD
HETATM    4  C11 UNL     1       1.281   1.170  -3.691  1.00  0.00     0.182 A 
HETATM    5  N3  UNL     1       2.216   1.764  -2.907  1.00  0.00    -0.352 N 
ATOM      6  H3  UNL     1       2.661   2.631  -3.210  1.00  0.00     0.166 HD
HETATM    7  C12 UNL     1       2.560   1.199  -1.712  1.00  0.00     0.047 A 
HETATM    8  C13 UNL     1       3.507   1.768  -0.885  1.00  0.00     0.069 A 
HETATM    9  C14 UNL     1       3.832   1.170   0.312  1.00  0.00     0.102 A 
HETATM   10  C15 UNL     1       3.194  -0.009   0.675  1.00  0.00     0.101 A 
HETATM   11  C16 UNL     1       2.253  -0.602  -0.114  1.00  0.00     0.161 A 
HETATM   12  C17 UNL     1       1.940   0.016  -1.317  1.00  0.00     0.036 A 
HETATM   13  O1  UNL     1       3.553  -0.569   1.881  1.00  0.00    -0.349 OA
HETATM   14  C18 UNL     1       4.854  -0.440   2.435  1.00  0.00     0.202 C 
HETATM   15  C19 UNL     1       5.559   0.818   2.022  1.00  0.00     0.202 C 
HETATM   16  O2  UNL     1       4.765   1.667   1.199  1.00  0.00    -0.346 OA
ENDROOT
BRANCH   1  17
HETATM   17  N1  UNL     1       0.382  -1.791  -1.690  1.00  0.00    -0.342 N 
HETATM   18  H8  UNL     1       0.907  -2.675  -1.940  1.00  0.00     0.167 HD
BRANCH  17  19
HETATM   19  C9  UNL     1      -0.822  -1.864  -0.960  1.00  0.00     0.034 A 
HETATM   20  C8  UNL     1      -1.262  -3.091  -0.487  1.00  0.00     0.029 A 
HETATM   21  C7  UNL     1      -2.431  -3.243   0.229  1.00  0.00     0.003 A 
HETATM   22  C6  UNL     1      -3.183  -2.115   0.476  1.00  0.00     0.012 A 
HETATM   23  C5  UNL     1      -2.767  -0.863   0.014  1.00  0.00    -0.024 A 
HETATM   24  C20 UNL     1      -1.588  -0.772  -0.697  1.00  0.00     0.041 A 
BRANCH  23  25
HETATM   25  C4  UNL     1      -3.622   0.261   0.323  1.00  0.00    -0.026 A 
HETATM   26  C3  UNL     1      -3.770   1.370  -0.475  1.00  0.00     0.012 A 
HETATM   27  C2  UNL     1      -4.611   2.413  -0.112  1.00  0.00     0.001 A 
HETATM   28  C1  UNL     1      -5.338   2.391   1.060  1.00  0.00     0.000 A 
HETATM   29  C22 UNL     1      -5.195   1.282   1.866  1.00  0.00     0.001 A 
HETATM   30  C21 UNL     1      -4.362   0.251   1.504  1.00  0.00     0.012 A 
ENDBRANCH  23  25
ENDBRANCH  17  19
ENDBRANCH   1  17
BRANCH  11  31
HETATM   31 CL1  UNL     1       0.687   0.000   0.000  1.00  0.00    -0.219 Cl
HETATM   32  H1  UNL     1      -0.687   0.000   0.000  1.00  0.00     0.129 HD
ENDBRANCH  11  31
TORSDOF 4
