REMARK  8 active torsions:
REMARK  status: ('A' for Active; 'I' for Inactive)
REMARK    1  A    between atoms: O1_2  and  C2_3 
REMARK    2  A    between atoms: C5_6  and  N1_7 
REMARK    3  A    between atoms: N1_7  and  C6_8 
REMARK    4  A    between atoms: C17_24  and  O2_25 
REMARK    5  A    between atoms: O2_25  and  C18_26 
REMARK    6  A    between atoms: C18_26  and  C19_27 
REMARK    7  A    between atoms: C19_27  and  C20_28 
REMARK    8  A    between atoms: C20_28  and  N5_29 
ROOT
HETATM    1  C2  UNL     1      -0.518  -0.534   1.896  1.00  0.00     0.102 A 
HETATM    2  C3  UNL     1      -1.803  -0.249   1.432  1.00  0.00     0.056 A 
HETATM    3  C4  UNL     1      -2.000   0.479   0.231  1.00  0.00     0.032 A 
HETATM    4  C5  UNL     1      -3.257   0.811  -0.313  1.00  0.00     0.098 A 
HETATM    5  N3  UNL     1      -3.376   1.494  -1.465  1.00  0.00    -0.342 N 
ATOM      6  H3  UNL     1      -4.289   1.741  -1.848  1.00  0.00     0.167 HD
HETATM    7  C14 UNL     1      -2.245   1.834  -2.084  1.00  0.00     0.182 A 
HETATM    8  N4  UNL     1      -1.004   1.576  -1.657  1.00  0.00    -0.351 N 
ATOM      9  H4  UNL     1      -0.184   1.877  -2.184  1.00  0.00     0.166 HD
HETATM   10  C15 UNL     1      -0.891   0.905  -0.507  1.00  0.00     0.049 A 
HETATM   11  C16 UNL     1       0.382   0.620  -0.030  1.00  0.00     0.070 A 
HETATM   12  C17 UNL     1       0.590  -0.081   1.163  1.00  0.00     0.104 A 
ENDROOT
BRANCH   4  13
HETATM   13  N1  UNL     1      -4.430   0.478   0.422  1.00  0.00    -0.244 NA
HETATM   14  H5  UNL     1      -4.398   1.026   1.277  1.00  0.00     0.135 HD
BRANCH  13  15
HETATM   15  C6  UNL     1      -5.757   0.424  -0.089  1.00  0.00     0.026 A 
HETATM   16  C7  UNL     1      -6.810   0.837   0.760  1.00  0.00     0.025 A 
HETATM   17  C8  UNL     1      -8.147   0.786   0.367  1.00  0.00     0.004 A 
HETATM   18  C9  UNL     1      -8.504   0.293  -0.886  1.00  0.00     0.030 A 
HETATM   19  C10 UNL     1      -7.475  -0.167  -1.713  1.00  0.00     0.044 A 
HETATM   20  N2  UNL     1      -7.549  -0.727  -2.970  1.00  0.00    -0.365 N 
HETATM   21  C13 UNL     1      -6.125  -0.125  -1.349  1.00  0.00     0.013 A 
HETATM   22  C11 UNL     1      -6.305  -1.085  -3.405  1.00  0.00     0.089 A 
HETATM   23  H9  UNL     1      -8.409  -0.871  -3.481  1.00  0.00     0.165 HD
HETATM   24  C12 UNL     1      -5.407  -0.733  -2.425  1.00  0.00     0.032 A 
ENDBRANCH  13  15
ENDBRANCH   4  13
BRANCH   1  25
HETATM   25  O1  UNL     1      -0.244  -1.229   3.046  1.00  0.00    -0.353 OA
HETATM   26  C1  UNL     1      -1.333  -1.834   3.730  1.00  0.00     0.210 C 
ENDBRANCH   1  25
BRANCH  12  27
HETATM   27  O2  UNL     1       1.821  -0.400   1.677  1.00  0.00    -0.348 OA
BRANCH  27  28
HETATM   28  C18 UNL     1       2.994   0.188   1.111  1.00  0.00     0.177 C 
BRANCH  28  29
HETATM   29  C19 UNL     1       3.563  -0.716   0.019  1.00  0.00     0.057 C 
BRANCH  29  30
HETATM   30  C20 UNL     1       4.753  -0.088  -0.714  1.00  0.00     0.274 C 
BRANCH  30  31
HETATM   31  N5  UNL     1       5.859   0.296   0.171  1.00  0.00     0.092 N 
HETATM   32  C21 UNL     1       6.777   1.231  -0.518  1.00  0.00     0.298 C 
HETATM   33  C22 UNL     1       8.156   1.274   0.155  1.00  0.00     0.198 C 
HETATM   34  O3  UNL     1       8.844   0.017   0.085  1.00  0.00    -0.388 OA
HETATM   35  C23 UNL     1       7.956  -1.106   0.021  1.00  0.00     0.198 C 
HETATM   36  C24 UNL     1       6.608  -0.858   0.718  1.00  0.00     0.298 C 
ENDBRANCH  30  31
ENDBRANCH  29  30
ENDBRANCH  28  29
ENDBRANCH  27  28
ENDBRANCH  12  27
TORSDOF 8
