REMARK  5 active torsions:
REMARK  status: ('A' for Active; 'I' for Inactive)
REMARK    1  A    between atoms: O1_2  and  C2_3 
REMARK    2  A    between atoms: C7_9  and  N1_10 
REMARK    3  A    between atoms: C11_17  and  N3_18 
REMARK    4  A    between atoms: N3_18  and  C12_19 
REMARK    5  A    between atoms: C15_22  and  N4_23 
ROOT
HETATM    1  N1  UNL     1      -5.071   0.307   0.631  1.00  0.00    -0.107 N 
HETATM    2  C8  UNL     1      -3.986   1.173   0.796  1.00  0.00     0.282 A 
HETATM    3  O2  UNL     1      -4.011   2.263   1.363  1.00  0.00    -0.266 OA
HETATM    4  C9  UNL     1      -2.675   0.703   0.317  1.00  0.00     0.095 A 
HETATM    5  C10 UNL     1      -1.544   1.474   0.419  1.00  0.00     0.127 A 
HETATM    6  N2  UNL     1      -0.322   1.052   0.025  1.00  0.00    -0.201 N 
ATOM      7  H2  UNL     1       0.497   1.653   0.120  1.00  0.00     0.183 HD
HETATM    8  C11 UNL     1      -0.218  -0.180  -0.495  1.00  0.00     0.684 A 
HETATM    9  N6  UNL     1      -1.276  -0.995  -0.647  1.00  0.00    -0.174 N 
ATOM     10  H6  UNL     1      -1.175  -1.921  -1.062  1.00  0.00     0.186 HD
HETATM   11  C23 UNL     1      -2.482  -0.541  -0.228  1.00  0.00     0.162 A 
HETATM   12  N7  UNL     1      -3.615  -1.369  -0.324  1.00  0.00    -0.128 N 
HETATM   13  C24 UNL     1      -3.724  -2.656  -0.814  1.00  0.00     0.086 A 
HETATM   14  C25 UNL     1      -2.813  -3.574  -1.359  1.00  0.00     0.033 A 
HETATM   15  C26 UNL     1      -3.311  -4.823  -1.751  1.00  0.00     0.002 A 
HETATM   16  C27 UNL     1      -4.661  -5.141  -1.606  1.00  0.00     0.002 A 
HETATM   17  C28 UNL     1      -5.557  -4.213  -1.065  1.00  0.00     0.032 A 
HETATM   18  C29 UNL     1      -5.076  -2.957  -0.666  1.00  0.00     0.077 A 
HETATM   19  N8  UNL     1      -5.761  -1.907  -0.116  1.00  0.00    -0.188 N 
ATOM     20  H8  UNL     1      -6.760  -1.864   0.087  1.00  0.00     0.184 HD
HETATM   21  C30 UNL     1      -4.867  -0.963   0.097  1.00  0.00     0.701 A 
ENDROOT
BRANCH   8  22
HETATM   22  N3  UNL     1       0.997  -0.714  -0.909  1.00  0.00    -0.192 N 
HETATM   23  H8  UNL     1       0.849  -1.657  -1.237  1.00  0.00     0.184 HD
BRANCH  22  24
HETATM   24  C12 UNL     1       2.331  -0.333  -0.724  1.00  0.00     0.049 A 
HETATM   25  C13 UNL     1       3.340  -1.168  -1.213  1.00  0.00     0.032 A 
HETATM   26  C14 UNL     1       4.699  -0.848  -1.058  1.00  0.00     0.031 A 
HETATM   27  C15 UNL     1       5.117   0.326  -0.421  1.00  0.00     0.030 A 
HETATM   28  C21 UNL     1       4.096   1.168   0.040  1.00  0.00     0.031 A 
HETATM   29  C22 UNL     1       2.734   0.850  -0.110  1.00  0.00     0.032 A 
BRANCH  27  30
HETATM   30  N4  UNL     1       6.455   0.635  -0.257  1.00  0.00    -0.378 N 
HETATM   31  C16 UNL     1       7.502  -0.005  -1.071  1.00  0.00     0.153 C 
HETATM   32  C17 UNL     1       8.805   0.828  -1.068  1.00  0.00     0.291 C 
HETATM   33  N5  UNL     1       9.372   1.121   0.265  1.00  0.00     0.087 N 
HETATM   34  C18 UNL     1      10.400   0.154   0.637  1.00  0.00     0.310 C 
HETATM   35  C19 UNL     1       8.313   1.171   1.298  1.00  0.00     0.291 C 
HETATM   36  C20 UNL     1       6.916   1.581   0.774  1.00  0.00     0.153 C 
ENDBRANCH  27  30
ENDBRANCH  22  24
ENDBRANCH   8  22
BRANCH   1  37
HETATM   37  C7  UNL     1      -6.399   0.676   1.004  1.00  0.00     0.095 A 
HETATM   38  C2  UNL     1      -6.947   1.920   0.614  1.00  0.00     0.096 A 
HETATM   39  C3  UNL     1      -8.233   2.278   1.040  1.00  0.00     0.041 A 
HETATM   40  C4  UNL     1      -8.977   1.415   1.848  1.00  0.00     0.026 A 
HETATM   41  C5  UNL     1      -8.446   0.184   2.218  1.00  0.00     0.036 A 
HETATM   42 CL1  UNL     1      -9.369  -0.880   3.208  1.00  0.00    -0.084 Cl
HETATM   43  C6  UNL     1      -7.171  -0.190   1.800  1.00  0.00     0.057 A 
BRANCH  38  44
HETATM   44  O1  UNL     1      -6.219   2.669  -0.279  1.00  0.00    -0.354 OA
HETATM   45  C1  UNL     1      -6.490   4.067  -0.299  1.00  0.00     0.210 C 
ENDBRANCH  38  44
ENDBRANCH   1  37
TORSDOF 5
