REMARK  4 active torsions:
REMARK  status: ('A' for Active; 'I' for Inactive)
REMARK    1  A    between atoms: C2_2  and  N1_3 
REMARK    2  A    between atoms: C5_6  and  N2_7 
REMARK    3  A    between atoms: C7_9  and  C8_10 
REMARK    4  A    between atoms: C9_11  and  C10_12 
ROOT
HETATM    1  C8  UNL     1      -1.711  -1.549  -2.222  1.00  0.00     0.061 A 
HETATM    2  C9  UNL     1      -3.036  -1.336  -2.139  1.00  0.00     0.061 A 
HETATM    3  C19 UNL     1      -3.641  -1.870  -3.386  1.00  0.00     0.260 A 
HETATM    4  O1  UNL     1      -4.823  -1.892  -3.679  1.00  0.00    -0.267 OA
HETATM    5  N4  UNL     1      -2.639  -2.337  -4.155  1.00  0.00    -0.289 N 
HETATM    6  C20 UNL     1      -1.452  -2.184  -3.539  1.00  0.00     0.260 A 
HETATM    7  O2  UNL     1      -0.373  -2.515  -3.996  1.00  0.00    -0.267 OA
HETATM    8  H20 UNL     1      -2.762  -2.753  -5.062  1.00  0.00     0.172 HD
ENDROOT
BRANCH   1   9
HETATM    9  C7  UNL     1      -0.674  -1.264  -1.291  1.00  0.00     0.009 A 
HETATM   10  C6  UNL     1       0.489  -0.602  -1.615  1.00  0.00     0.105 A 
HETATM   11  N2  UNL     1       1.247  -0.470  -0.476  1.00  0.00    -0.350 N 
HETATM   12  C26 UNL     1       0.601  -1.072   0.589  1.00  0.00     0.045 A 
HETATM   13  C21 UNL     1      -0.610  -1.585   0.099  1.00  0.00     0.003 A 
HETATM   14  C25 UNL     1       0.966  -1.220   1.940  1.00  0.00     0.030 A 
HETATM   15  C22 UNL     1      -1.463  -2.272   0.992  1.00  0.00     0.014 A 
HETATM   16  C23 UNL     1      -1.103  -2.417   2.334  1.00  0.00     0.001 A 
HETATM   17  C24 UNL     1       0.097  -1.896   2.800  1.00  0.00     0.002 A 
BRANCH  11  18
HETATM   18  C5  UNL     1       2.527   0.238  -0.453  1.00  0.00     0.093 C 
HETATM   19  C4  UNL     1       3.717  -0.662  -0.082  1.00  0.00     0.056 C 
HETATM   20  C3  UNL     1       4.812   0.101   0.669  1.00  0.00     0.274 C 
HETATM   21  N1  UNL     1       4.980   1.426   0.074  1.00  0.00     0.088 N 
HETATM   22  C28 UNL     1       3.801   2.280   0.306  1.00  0.00     0.274 C 
HETATM   23  C27 UNL     1       2.479   1.511   0.396  1.00  0.00     0.056 C 
BRANCH  21  24
HETATM   24  C2  UNL     1       6.203   2.115   0.507  1.00  0.00     0.268 C 
HETATM   25  C1  UNL     1       7.472   1.476  -0.047  1.00  0.00     0.037 C 
ENDBRANCH  21  24
ENDBRANCH  11  18
ENDBRANCH   1   9
BRANCH   2  26
HETATM   26  C10 UNL     1      -3.808  -0.723  -1.113  1.00  0.00     0.009 A 
HETATM   27  C11 UNL     1      -4.963  -1.268  -0.590  1.00  0.00     0.104 A 
HETATM   28  N3  UNL     1      -5.434  -0.419   0.375  1.00  0.00    -0.360 N 
HETATM   29  C12 UNL     1      -6.632  -0.644   1.151  1.00  0.00     0.156 C 
HETATM   30  C13 UNL     1      -4.615   0.685   0.484  1.00  0.00     0.045 A 
HETATM   31  C14 UNL     1      -4.700   1.812   1.319  1.00  0.00     0.030 A 
HETATM   32  C18 UNL     1      -3.584   0.524  -0.449  1.00  0.00     0.003 A 
HETATM   33  C15 UNL     1      -3.717   2.798   1.199  1.00  0.00     0.002 A 
HETATM   34  C16 UNL     1      -2.688   2.670   0.274  1.00  0.00     0.001 A 
HETATM   35  C17 UNL     1      -2.614   1.546  -0.555  1.00  0.00     0.014 A 
ENDBRANCH   2  26
TORSDOF 4
