REMARK  9 active torsions:
REMARK  status: ('A' for Active; 'I' for Inactive)
REMARK    1  A    between atoms: C3_5  and  C4_6 
REMARK    2  A    between atoms: C13_19  and  N3_20 
REMARK    3  A    between atoms: N3_20  and  C14_21 
REMARK    4  A    between atoms: C18_25  and  P1_26 
REMARK    5  A    between atoms: P1_26  and  O3_28 
REMARK    6  A    between atoms: P1_26  and  C19_29 
REMARK    7  A    between atoms: C19_29  and  P2_30 
REMARK    8  A    between atoms: P2_30  and  O5_32 
REMARK    9  A    between atoms: P2_30  and  O6_33 
ROOT
HETATM    1  C1  UNL     1       2.380   2.809  -1.355  1.00  0.00     0.161 C 
HETATM    2  N1  UNL     1       3.058   1.635  -0.836  1.00  0.00    -0.303 N 
HETATM    3  C2  UNL     1       4.441   1.624  -0.737  1.00  0.00     0.260 A 
HETATM    4  O1  UNL     1       5.155   2.569  -1.068  1.00  0.00    -0.267 OA
HETATM    5  C3  UNL     1       5.077   0.376  -0.193  1.00  0.00     0.047 A 
HETATM    6  C10 UNL     1       4.326  -0.671   0.180  1.00  0.00     0.034 A 
HETATM    7  C11 UNL     1       2.880  -0.595   0.052  1.00  0.00     0.026 A 
HETATM    8  C12 UNL     1       2.035  -1.619   0.408  1.00  0.00     0.121 A 
HETATM    9  N2  UNL     1       0.696  -1.556   0.291  1.00  0.00    -0.201 N 
ATOM     10  H2  UNL     1       0.103  -2.339   0.566  1.00  0.00     0.183 HD
HETATM   11  C13 UNL     1       0.171  -0.426  -0.201  1.00  0.00     0.684 A 
HETATM   12  N4  UNL     1       0.916   0.626  -0.574  1.00  0.00    -0.175 N 
ATOM     13  H4  UNL     1       0.482   1.472  -0.944  1.00  0.00     0.186 HD
HETATM   14  C21 UNL     1       2.257   0.532  -0.445  1.00  0.00     0.137 A 
ENDROOT
BRANCH  11  15
HETATM   15  N3  UNL     1      -1.201  -0.257  -0.367  1.00  0.00    -0.192 N 
HETATM   16  H9  UNL     1      -1.369   0.660  -0.753  1.00  0.00     0.184 HD
BRANCH  15  17
HETATM   17  C14 UNL     1      -2.317  -1.062  -0.123  1.00  0.00     0.050 A 
HETATM   18  C15 UNL     1      -2.251  -2.350   0.415  1.00  0.00     0.030 A 
HETATM   19  C16 UNL     1      -3.407  -3.107   0.629  1.00  0.00     0.003 A 
HETATM   20  C17 UNL     1      -4.656  -2.586   0.308  1.00  0.00     0.017 A 
HETATM   21  C18 UNL     1      -4.762  -1.301  -0.229  1.00  0.00     0.025 A 
HETATM   22  C20 UNL     1      -3.590  -0.555  -0.438  1.00  0.00     0.047 A 
BRANCH  21  23
HETATM   23  P1  UNL     1      -6.339  -0.633  -0.631  1.00  0.00     0.143 P 
HETATM   24  O2  UNL     1      -7.502  -1.587  -0.708  1.00  0.00    -0.670 OA
BRANCH  23  25
HETATM   25  O3  UNL     1      -6.135   0.069  -2.071  1.00  0.00    -0.345 OA
HETATM   26  H13 UNL     1      -6.074  -0.571  -2.808  1.00  0.00     0.218 HD
ENDBRANCH  23  25
BRANCH  23  27
HETATM   27  C19 UNL     1      -6.750   0.736   0.446  1.00  0.00     0.223 C 
BRANCH  27  28
HETATM   28  P2  UNL     1      -8.438   1.294   0.495  1.00  0.00     0.245 P 
HETATM   29  O4  UNL     1      -8.771   2.235   1.605  1.00  0.00    -0.653 OA
BRANCH  28  30
HETATM   30  O5  UNL     1      -8.758   1.919  -0.943  1.00  0.00    -0.329 OA
HETATM   31  H16 UNL     1      -9.638   2.344  -0.948  1.00  0.00     0.220 HD
ENDBRANCH  28  30
BRANCH  28  32
HETATM   32  O6  UNL     1      -9.361  -0.016   0.457  1.00  0.00    -0.329 OA
HETATM   33  H17 UNL     1      -8.974  -0.796  -0.014  1.00  0.00     0.220 HD
ENDBRANCH  28  32
ENDBRANCH  27  28
ENDBRANCH  23  27
ENDBRANCH  21  23
ENDBRANCH  15  17
ENDBRANCH  11  15
BRANCH   5  34
HETATM   34  C4  UNL     1       6.547   0.306  -0.067  1.00  0.00     0.023 A 
HETATM   35  C5  UNL     1       7.341  -0.161  -1.131  1.00  0.00     0.046 A 
HETATM   36 CL1  UNL     1       6.645  -0.707  -2.620  1.00  0.00    -0.083 Cl
HETATM   37  C6  UNL     1       8.735  -0.211  -1.017  1.00  0.00     0.025 A 
HETATM   38  C7  UNL     1       9.358   0.204   0.158  1.00  0.00     0.003 A 
HETATM   39  C8  UNL     1       8.587   0.669   1.222  1.00  0.00     0.025 A 
HETATM   40  C9  UNL     1       7.193   0.721   1.112  1.00  0.00     0.046 A 
HETATM   41 CL2  UNL     1       6.309   1.301   2.483  1.00  0.00    -0.083 Cl
ENDBRANCH   5  34
TORSDOF 9
