REMARK  7 active torsions:
REMARK  status: ('A' for Active; 'I' for Inactive)
REMARK    1  A    between atoms: O1_2  and  C2_3 
REMARK    2  A    between atoms: C2_3  and  C3_4 
REMARK    3  A    between atoms: C3_4  and  O2_5 
REMARK    4  A    between atoms: O2_5  and  C4_6 
REMARK    5  A    between atoms: C10_15  and  N3_16 
REMARK    6  A    between atoms: N3_16  and  C11_17 
REMARK    7  A    between atoms: C19_27  and  O3_28 
ROOT
HETATM    1  C4  UNL     1       2.308  -0.233  -0.415  1.00  0.00     0.104 A 
HETATM    2  C5  UNL     1       1.793  -0.842   0.733  1.00  0.00     0.070 A 
HETATM    3  C6  UNL     1       0.430  -1.029   0.918  1.00  0.00     0.047 A 
HETATM    4  N1  UNL     1       0.022  -1.627   2.047  1.00  0.00    -0.364 N 
ATOM      5  H1  UNL     1       0.695  -1.923   2.754  1.00  0.00     0.165 HD
HETATM    6  C7  UNL     1      -1.302  -1.827   2.225  1.00  0.00     0.113 A 
HETATM    7  C8  UNL     1      -2.274  -1.456   1.313  1.00  0.00     0.087 A 
HETATM    8  C9  UNL     1      -3.634  -1.794   1.595  1.00  0.00     0.103 C 
HETATM    9  N2  UNL     1      -4.730  -2.094   1.829  1.00  0.00    -0.191 NA
HETATM   10  C10 UNL     1      -1.862  -0.798   0.144  1.00  0.00     0.067 A 
HETATM   11  C17 UNL     1      -0.469  -0.596  -0.077  1.00  0.00     0.022 A 
HETATM   12  C18 UNL     1       0.050   0.035  -1.232  1.00  0.00     0.055 A 
HETATM   13  C19 UNL     1       1.423   0.224  -1.404  1.00  0.00     0.102 A 
ENDROOT
BRANCH  10  14
HETATM   14  N3  UNL     1      -2.772  -0.452  -0.906  1.00  0.00    -0.353 N 
HETATM   15  H10 UNL     1      -2.833  -1.238  -1.553  1.00  0.00     0.166 HD
BRANCH  14  16
HETATM   16  C11 UNL     1      -4.023   0.208  -0.772  1.00  0.00     0.054 A 
HETATM   17  C12 UNL     1      -5.092  -0.244  -1.567  1.00  0.00     0.033 A 
HETATM   18  C13 UNL     1      -6.353   0.356  -1.495  1.00  0.00     0.026 A 
HETATM   19  C14 UNL     1      -6.558   1.431  -0.638  1.00  0.00     0.035 A 
HETATM   20 CL1  UNL     1      -8.108   2.172  -0.554  1.00  0.00    -0.084 Cl
HETATM   21  C15 UNL     1      -5.514   1.921   0.139  1.00  0.00     0.050 A 
HETATM   22  C16 UNL     1      -4.251   1.321   0.068  1.00  0.00     0.062 A 
HETATM   23 CL2  UNL     1      -2.997   2.052   1.012  1.00  0.00    -0.082 Cl
ENDBRANCH  14  16
ENDBRANCH  10  14
BRANCH  13  24
HETATM   24  O3  UNL     1       1.993   0.825  -2.498  1.00  0.00    -0.353 OA
HETATM   25  C20 UNL     1       1.128   1.476  -3.418  1.00  0.00     0.210 C 
ENDBRANCH  13  24
BRANCH   1  26
HETATM   26  O2  UNL     1       3.640  -0.014  -0.657  1.00  0.00    -0.346 OA
BRANCH  26  27
HETATM   27  C3  UNL     1       4.614  -0.584   0.214  1.00  0.00     0.201 C 
BRANCH  27  28
HETATM   28  C2  UNL     1       4.969   0.377   1.349  1.00  0.00     0.193 C 
BRANCH  28  29
HETATM   29  O1  UNL     1       5.897  -0.198   2.270  1.00  0.00    -0.394 OA
HETATM   30  C1  UNL     1       7.243  -0.132   1.817  1.00  0.00     0.201 C 
ENDBRANCH  28  29
ENDBRANCH  27  28
ENDBRANCH  26  27
ENDBRANCH   1  26
TORSDOF 7
