REMARK  7 active torsions:
REMARK  status: ('A' for Active; 'I' for Inactive)
REMARK    1  A    between atoms: O1_2  and  C2_3 
REMARK    2  A    between atoms: C4_5  and  C5_6 
REMARK    3  A    between atoms: N2_9  and  C6_10 
REMARK    4  A    between atoms: C9_13  and  N3_14 
REMARK       I    between atoms: N4_17  and  C12_18 
REMARK    5  A    between atoms: C20_31  and  N7_32 
REMARK    6  A    between atoms: C24_36  and  N8_37 
REMARK       I    between atoms: N8_37  and  C25_38 
REMARK    7  A    between atoms: C25_38  and  C26_40 
ROOT
HETATM    1  C5  UNL     1      -0.218  -1.338  -0.539  1.00  0.00     0.076 A 
HETATM    2  N1  UNL     1       0.765  -0.445  -0.732  1.00  0.00    -0.295 N 
ATOM      3  H1  UNL     1       0.676   0.562  -0.868  1.00  0.00     0.187 HD
HETATM    4  N2  UNL     1       1.902  -1.180  -0.706  1.00  0.00    -0.270 N 
HETATM    5  C18 UNL     1       1.663  -2.524  -0.604  1.00  0.00     0.140 A 
HETATM    6  N5  UNL     1       2.565  -3.519  -0.598  1.00  0.00    -0.337 N 
ATOM      7  H5  UNL     1       3.572  -3.378  -0.684  1.00  0.00     0.168 HD
HETATM    8  C19 UNL     1       1.983  -4.720  -0.465  1.00  0.00     0.183 A 
HETATM    9  N6  UNL     1       0.673  -4.993  -0.342  1.00  0.00    -0.338 N 
ATOM     10  H6  UNL     1       0.348  -5.955  -0.250  1.00  0.00     0.168 HD
HETATM   11  C20 UNL     1      -0.203  -3.968  -0.343  1.00  0.00     0.116 A 
HETATM   12  C21 UNL     1       0.290  -2.664  -0.483  1.00  0.00     0.082 A 
ENDROOT
BRANCH   1  13
HETATM   13  C4  UNL     1      -1.598  -0.883  -0.416  1.00  0.00    -0.004 A 
HETATM   14  C3  UNL     1      -2.164  -0.083  -1.417  1.00  0.00     0.053 A 
HETATM   15  C2  UNL     1      -3.480   0.371  -1.295  1.00  0.00     0.095 A 
HETATM   16  C24 UNL     1      -4.238   0.031  -0.154  1.00  0.00     0.068 A 
HETATM   17  C23 UNL     1      -3.667  -0.761   0.841  1.00  0.00     0.033 A 
HETATM   18  C22 UNL     1      -2.353  -1.215   0.712  1.00  0.00     0.016 A 
BRANCH  15  19
HETATM   19  O1  UNL     1      -4.129   1.158  -2.220  1.00  0.00    -0.354 OA
HETATM   20  C1  UNL     1      -3.407   1.507  -3.395  1.00  0.00     0.210 C 
ENDBRANCH  15  19
BRANCH  16  21
HETATM   21  N8  UNL     1      -5.548   0.553  -0.084  1.00  0.00    -0.319 N 
HETATM   22  C25 UNL     1      -6.513   0.347   0.879  1.00  0.00     0.273 C 
HETATM   23  O3  UNL     1      -6.401  -0.440   1.812  1.00  0.00    -0.266 OA
HETATM   24  H31 UNL     1      -5.792   1.129  -0.879  1.00  0.00     0.169 HD
BRANCH  22  25
HETATM   25  C26 UNL     1      -7.719   1.147   0.680  1.00  0.00     0.104 A 
HETATM   26  C27 UNL     1      -7.899   2.296  -0.079  1.00  0.00     0.049 A 
HETATM   27  C28 UNL     1      -9.237   2.741   0.062  1.00  0.00    -0.007 A 
HETATM   28  C29 UNL     1      -9.953   3.838  -0.458  1.00  0.00     0.014 A 
HETATM   29  C33 UNL     1      -9.879   1.847   0.916  1.00  0.00     0.045 A 
HETATM   30  C30 UNL     1     -11.296   4.009  -0.110  1.00  0.00     0.001 A 
HETATM   31  C31 UNL     1     -11.923   3.108   0.744  1.00  0.00     0.002 A 
HETATM   32  C32 UNL     1     -11.229   2.015   1.270  1.00  0.00     0.030 A 
HETATM   33  N9  UNL     1      -8.947   0.890   1.274  1.00  0.00    -0.346 N 
HETATM   34  C34 UNL     1      -9.215  -0.242   2.139  1.00  0.00     0.156 C 
ENDBRANCH  22  25
ENDBRANCH  16  21
ENDBRANCH   1  13
BRANCH   4  35
HETATM   35  C6  UNL     1       3.177  -0.463  -0.714  1.00  0.00     0.110 C 
HETATM   36  C7  UNL     1       3.892  -0.499   0.642  1.00  0.00     0.029 C 
HETATM   37  C8  UNL     1       4.892  -1.634   0.808  1.00  0.00     0.027 C 
HETATM   38  C9  UNL     1       5.873  -1.822  -0.365  1.00  0.00     0.079 C 
HETATM   39  C16 UNL     1       5.122  -1.861  -1.710  1.00  0.00     0.027 C 
HETATM   40  C17 UNL     1       4.070  -0.774  -1.922  1.00  0.00     0.029 C 
BRANCH  38  41
HETATM   41  N3  UNL     1       7.060  -0.951  -0.365  1.00  0.00    -0.405 N 
HETATM   42  C10 UNL     1       6.942   0.428  -0.836  1.00  0.00     0.137 C 
HETATM   43  C11 UNL     1       8.173   1.303  -0.517  1.00  0.00     0.145 C 
HETATM   44  N4  UNL     1       8.478   1.328   0.916  1.00  0.00    -0.349 N 
HETATM   45  C12 UNL     1       9.139   2.353   1.568  1.00  0.00     0.215 C 
HETATM   46  C14 UNL     1       8.050   0.160   1.687  1.00  0.00     0.145 C 
HETATM   47  C13 UNL     1       9.631   3.500   0.721  1.00  0.00     0.117 C 
HETATM   48  O2  UNL     1       9.328   2.352   2.784  1.00  0.00    -0.274 OA
HETATM   49  C15 UNL     1       7.932  -1.102   0.815  1.00  0.00     0.137 C 
ENDBRANCH  38  41
ENDBRANCH   4  35
BRANCH  11  50
HETATM   50  N7  UNL     1      -1.539  -4.297  -0.213  1.00  0.00    -0.385 N 
HETATM   51  H27 UNL     1      -2.222  -3.644  -0.578  1.00  0.00     0.157 HD
HETATM   52  H28 UNL     1      -1.716  -5.281  -0.371  1.00  0.00     0.157 HD
ENDBRANCH  11  50
TORSDOF 7
