REMARK  15 active torsions:
REMARK  status: ('A' for Active; 'I' for Inactive)
REMARK    1  A    between atoms: C2_2  and  N1_3 
REMARK    2  A    between atoms: C2_2  and  C18_28 
REMARK       I    between atoms: N1_3  and  C3_4 
REMARK    3  A    between atoms: C3_4  and  C4_6 
REMARK    4  A    between atoms: C4_6  and  C5_7 
REMARK    5  A    between atoms: C4_6  and  N2_19 
REMARK    6  A    between atoms: C5_7  and  C6_8 
REMARK    7  A    between atoms: C9_11  and  O2_12 
REMARK    8  A    between atoms: O2_12  and  P1_13 
REMARK    9  A    between atoms: P1_13  and  O4_15 
REMARK   10  A    between atoms: P1_13  and  O5_16 
REMARK       I    between atoms: N2_19  and  C12_20 
REMARK   11  A    between atoms: C12_20  and  C13_22 
REMARK   12  A    between atoms: C13_22  and  C14_23 
REMARK   13  A    between atoms: C19_31  and  C20_32 
REMARK   14  A    between atoms: C20_32  and  C21_33 
REMARK   15  A    between atoms: C24_36  and  C25_37 
ROOT
HETATM    1  C4  UNL     1      -1.278   2.672  -0.710  1.00  0.00     0.180 C 
ENDROOT
BRANCH   1   2
HETATM    2  C3  UNL     1      -0.985   1.630  -1.815  1.00  0.00     0.241 C 
HETATM    3  N1  UNL     1       0.328   1.501  -2.198  1.00  0.00    -0.348 N 
HETATM    4  H5  UNL     1       1.039   2.084  -1.775  1.00  0.00     0.163 HD
HETATM    5  O1  UNL     1      -1.891   0.987  -2.349  1.00  0.00    -0.271 OA
BRANCH   3   6
HETATM    6  C2  UNL     1       0.755   0.479  -3.151  1.00  0.00     0.158 C 
HETATM    7  C1  UNL     1       0.916   1.083  -4.542  1.00  0.00     0.041 C 
BRANCH   6   8
HETATM    8  C18 UNL     1       2.029  -0.149  -2.683  1.00  0.00     0.170 A 
HETATM    9  N3  UNL     1       2.376  -1.417  -2.625  1.00  0.00    -0.325 N 
HETATM   10  C19 UNL     1       3.645  -1.350  -2.095  1.00  0.00     0.108 A 
ATOM     11  H3  UNL     1       1.841  -2.240  -2.902  1.00  0.00     0.169 HD
HETATM   12  N4  UNL     1       4.087  -0.103  -1.861  1.00  0.00    -0.247 N 
HETATM   13  O7  UNL     1       3.012   0.697  -2.247  1.00  0.00    -0.221 OA
ATOM     14  H4  UNL     1       4.991   0.188  -1.490  1.00  0.00     0.196 HD
BRANCH  10  15
HETATM   15  C20 UNL     1       4.496  -2.552  -1.894  1.00  0.00     0.117 C 
BRANCH  15  16
HETATM   16  C21 UNL     1       4.247  -3.042  -0.487  1.00  0.00    -0.051 A 
HETATM   17  C22 UNL     1       4.944  -2.491   0.599  1.00  0.00     0.008 A 
HETATM   18  C23 UNL     1       4.713  -2.949   1.901  1.00  0.00     0.017 A 
HETATM   19  C24 UNL     1       3.789  -3.976   2.145  1.00  0.00     0.047 A 
HETATM   20  C26 UNL     1       3.100  -4.533   1.058  1.00  0.00     0.017 A 
HETATM   21  C27 UNL     1       3.321  -4.067  -0.241  1.00  0.00     0.008 A 
BRANCH  19  22
HETATM   22  C25 UNL     1       3.510  -4.456   3.548  1.00  0.00     0.417 C 
HETATM   23  F1  UNL     1       4.443  -4.043   4.455  1.00  0.00    -0.166 F 
HETATM   24  F2  UNL     1       3.474  -5.814   3.652  1.00  0.00    -0.166 F 
HETATM   25  F3  UNL     1       2.310  -4.009   4.031  1.00  0.00    -0.166 F 
ENDBRANCH  19  22
ENDBRANCH  15  16
ENDBRANCH  10  15
ENDBRANCH   6   8
ENDBRANCH   3   6
ENDBRANCH   1   2
BRANCH   1  26
HETATM   26  C5  UNL     1      -0.383   2.534   0.541  1.00  0.00     0.073 C 
BRANCH  26  27
HETATM   27  C6  UNL     1      -0.182   1.117   1.033  1.00  0.00    -0.056 A 
HETATM   28  C7  UNL     1       1.066   0.502   0.895  1.00  0.00     0.010 A 
HETATM   29  C8  UNL     1       1.231  -0.838   1.239  1.00  0.00     0.038 A 
HETATM   30  C9  UNL     1       0.164  -1.574   1.751  1.00  0.00     0.081 A 
HETATM   31  C10 UNL     1      -1.063  -0.956   1.956  1.00  0.00     0.038 A 
HETATM   32  C11 UNL     1      -1.236   0.385   1.592  1.00  0.00     0.010 A 
BRANCH  30  33
HETATM   33  O2  UNL     1       0.425  -2.891   1.980  1.00  0.00    -0.255 OA
BRANCH  33  34
HETATM   34  P1  UNL     1      -0.497  -3.965   2.713  1.00  0.00     0.396 P 
HETATM   35  O3  UNL     1       0.035  -5.361   2.697  1.00  0.00    -0.631 OA
BRANCH  34  36
HETATM   36  O4  UNL     1      -0.745  -3.432   4.197  1.00  0.00    -0.307 OA
HETATM   37  H11 UNL     1      -0.034  -3.743   4.790  1.00  0.00     0.222 HD
ENDBRANCH  34  36
BRANCH  34  38
HETATM   38  O5  UNL     1      -1.946  -3.909   2.039  1.00  0.00    -0.307 OA
HETATM   39  H12 UNL     1      -2.077  -4.676   1.453  1.00  0.00     0.222 HD
ENDBRANCH  34  38
ENDBRANCH  33  34
ENDBRANCH  30  33
ENDBRANCH  26  27
ENDBRANCH   1  26
BRANCH   1  40
HETATM   40  N2  UNL     1      -2.707   2.573  -0.399  1.00  0.00    -0.347 N 
HETATM   41  C12 UNL     1      -3.383   3.592   0.228  1.00  0.00     0.223 C 
HETATM   42  O6  UNL     1      -2.813   4.591   0.663  1.00  0.00    -0.273 OA
HETATM   43  H15 UNL     1      -3.229   1.901  -0.958  1.00  0.00     0.163 HD
BRANCH  41  44
HETATM   44  C13 UNL     1      -4.882   3.369   0.356  1.00  0.00     0.148 C 
BRANCH  44  45
HETATM   45  C14 UNL     1      -5.618   4.450  -0.374  1.00  0.00    -0.009 A 
HETATM   46  C15 UNL     1      -5.979   5.701   0.092  1.00  0.00     0.015 A 
HETATM   47  C16 UNL     1      -6.665   6.467  -0.893  1.00  0.00     0.008 A 
HETATM   48  C17 UNL     1      -6.811   5.776  -2.076  1.00  0.00     0.050 A 
HETATM   49  S1  UNL     1      -6.123   4.211  -1.995  1.00  0.00    -0.106 SA
ENDBRANCH  44  45
ENDBRANCH  41  44
ENDBRANCH   1  40
TORSDOF 15
