REMARK  10 active torsions:
REMARK  status: ('A' for Active; 'I' for Inactive)
REMARK    1  A    between atoms: C2_2  and  C3_3 
REMARK    2  A    between atoms: C3_3  and  C4_4 
REMARK    3  A    between atoms: C6_6  and  N1_7 
REMARK    4  A    between atoms: N1_7  and  C7_8 
REMARK    5  A    between atoms: C7_8  and  C8_9 
REMARK    6  A    between atoms: C8_9  and  N2_10 
REMARK    7  A    between atoms: C12_17  and  C13_18 
REMARK       I    between atoms: C13_18  and  N4_20 
REMARK    8  A    between atoms: N4_20  and  N5_21 
REMARK    9  A    between atoms: C14_23  and  C15_24 
REMARK   10  A    between atoms: C20_30  and  N7_31 
ROOT
HETATM    1  C4  UNL     1      -1.627  -2.144   1.497  1.00  0.00    -0.040 A 
HETATM    2  C5  UNL     1      -2.971  -1.741   1.330  1.00  0.00     0.050 A 
HETATM    3  C6  UNL     1      -3.304  -0.562   0.673  1.00  0.00     0.081 A 
HETATM    4  N3  UNL     1      -2.381   0.243   0.143  1.00  0.00    -0.341 N 
ATOM      5  H3  UNL     1      -2.629   1.101  -0.350  1.00  0.00     0.167 HD
HETATM    6  C11 UNL     1      -1.103  -0.146   0.299  1.00  0.00     0.089 A 
HETATM    7  S1  UNL     1       0.124   0.837  -0.339  1.00  0.00    -0.064 SA
HETATM    8  C12 UNL     1       1.355  -0.217   0.203  1.00  0.00     0.103 A 
HETATM    9  C20 UNL     1       0.814  -1.308   0.868  1.00  0.00     0.062 A 
HETATM   10  C21 UNL     1      -0.632  -1.289   0.942  1.00  0.00     0.032 A 
ENDROOT
BRANCH   8  11
HETATM   11  C13 UNL     1       2.769   0.070  -0.054  1.00  0.00     0.279 C 
HETATM   12  O1  UNL     1       3.663  -0.714   0.269  1.00  0.00    -0.265 OA
HETATM   13  N4  UNL     1       3.019   1.284  -0.697  1.00  0.00    -0.266 N 
HETATM   14  H20 UNL     1       2.218   1.754  -1.109  1.00  0.00     0.190 HD
BRANCH  13  15
HETATM   15  N5  UNL     1       4.224   1.707  -1.204  1.00  0.00    -0.307 N 
HETATM   16  C14 UNL     1       5.311   1.380  -0.580  1.00  0.00     0.136 C 
ATOM     17  H5  UNL     1       4.262   2.268  -2.055  1.00  0.00     0.186 HD
BRANCH  16  18
HETATM   18  C15 UNL     1       6.599   1.764  -1.112  1.00  0.00     0.050 A 
HETATM   19  C16 UNL     1       6.868   2.526  -2.236  1.00  0.00     0.032 A 
HETATM   20  C17 UNL     1       8.269   2.659  -2.364  1.00  0.00     0.019 A 
HETATM   21  C18 UNL     1       8.836   1.964  -1.320  1.00  0.00     0.091 A 
HETATM   22  N6  UNL     1       7.824   1.419  -0.575  1.00  0.00    -0.360 N 
HETATM   23  C19 UNL     1       8.032   0.589   0.593  1.00  0.00     0.155 C 
ENDBRANCH  16  18
ENDBRANCH  13  15
ENDBRANCH   8  11
BRANCH   9  24
HETATM   24  N7  UNL     1       1.607  -2.274   1.384  1.00  0.00    -0.397 N 
HETATM   25  H28 UNL     1       2.614  -2.270   1.196  1.00  0.00     0.156 HD
HETATM   26  H29 UNL     1       1.278  -3.157   1.752  1.00  0.00     0.156 HD
ENDBRANCH   9  24
BRANCH   1  27
HETATM   27  C3  UNL     1      -1.390  -3.446   2.232  1.00  0.00     0.039 C 
BRANCH  27  28
HETATM   28  C2  UNL     1      -1.618  -4.691   1.367  1.00  0.00     0.000 C 
HETATM   29  C1  UNL     1      -0.586  -4.877   0.265  1.00  0.00     0.005 C 
ENDBRANCH  27  28
ENDBRANCH   1  27
BRANCH   3  30
HETATM   30  N1  UNL     1      -4.675  -0.257   0.540  1.00  0.00    -0.277 NA
HETATM   31  H9  UNL     1      -5.111  -0.313   1.457  1.00  0.00     0.129 HD
BRANCH  30  32
HETATM   32  C7  UNL     1      -4.944   1.031  -0.116  1.00  0.00     0.124 C 
BRANCH  32  33
HETATM   33  C8  UNL     1      -6.470   1.266  -0.207  1.00  0.00     0.286 C 
BRANCH  33  34
HETATM   34  N2  UNL     1      -6.941   2.520  -0.822  1.00  0.00     0.081 N 
HETATM   35  C9  UNL     1      -6.478   3.706  -0.108  1.00  0.00     0.309 C 
HETATM   36  C10 UNL     1      -6.602   2.602  -2.240  1.00  0.00     0.309 C 
ENDBRANCH  33  34
ENDBRANCH  32  33
ENDBRANCH  30  32
ENDBRANCH   3  30
TORSDOF 10
