REMARK  8 active torsions:
REMARK  status: ('A' for Active; 'I' for Inactive)
REMARK    1  A    between atoms: C4_4  and  C5_5 
REMARK    2  A    between atoms: C7_7  and  O1_8 
REMARK    3  A    between atoms: C13_19  and  N3_20 
REMARK    4  A    between atoms: N3_20  and  C14_21 
REMARK    5  A    between atoms: C18_25  and  S1_26 
REMARK    6  A    between atoms: S1_26  and  C19_27 
REMARK    7  A    between atoms: C19_27  and  C20_28 
REMARK    8  A    between atoms: C20_28  and  N4_29 
ROOT
HETATM    1  C1  UNL     1       3.459   0.605  -2.358  1.00  0.00     0.050 C 
HETATM    2  C2  UNL     1       3.847   0.114  -0.988  1.00  0.00    -0.032 A 
HETATM    3  C3  UNL     1       5.187   0.209  -0.574  1.00  0.00     0.021 A 
HETATM    4  C4  UNL     1       5.581  -0.250   0.685  1.00  0.00    -0.021 A 
HETATM    5  C11 UNL     1       4.604  -0.804   1.519  1.00  0.00     0.045 A 
HETATM    6  C12 UNL     1       3.276  -0.905   1.118  1.00  0.00     0.077 A 
HETATM    7  N1  UNL     1       2.362  -1.441   1.931  1.00  0.00    -0.284 N 
ATOM      8  H1  UNL     1       2.630  -1.780   2.855  1.00  0.00     0.187 HD
HETATM    9  N2  UNL     1       1.065  -1.531   1.514  1.00  0.00    -0.131 N 
ATOM     10  H2  UNL     1       0.362  -1.941   2.129  1.00  0.00     0.205 HD
HETATM   11  C13 UNL     1       0.707  -1.082   0.295  1.00  0.00     0.697 A 
HETATM   12  N5  UNL     1       1.595  -0.535  -0.546  1.00  0.00    -0.188 N 
ATOM     13  H5  UNL     1       1.308  -0.196  -1.464  1.00  0.00     0.184 HD
HETATM   14  C26 UNL     1       2.877  -0.445  -0.145  1.00  0.00     0.083 A 
ENDROOT
BRANCH  11  15
HETATM   15  N3  UNL     1      -0.641  -1.221  -0.036  1.00  0.00    -0.190 N 
HETATM   16  H10 UNL     1      -1.127  -1.667   0.728  1.00  0.00     0.184 HD
BRANCH  15  17
HETATM   17  C14 UNL     1      -1.408  -0.886  -1.158  1.00  0.00     0.050 A 
HETATM   18  C15 UNL     1      -0.893  -0.262  -2.298  1.00  0.00     0.030 A 
HETATM   19  C16 UNL     1      -1.711   0.043  -3.390  1.00  0.00     0.004 A 
HETATM   20  C17 UNL     1      -3.069  -0.265  -3.356  1.00  0.00     0.018 A 
HETATM   21  C18 UNL     1      -3.614  -0.874  -2.227  1.00  0.00     0.002 A 
HETATM   22  C25 UNL     1      -2.780  -1.191  -1.147  1.00  0.00     0.048 A 
BRANCH  21  23
HETATM   23  S1  UNL     1      -5.346  -1.291  -2.147  1.00  0.00    -0.128 SA
BRANCH  23  24
HETATM   24  C19 UNL     1      -6.092   0.376  -2.230  1.00  0.00     0.109 C 
BRANCH  24  25
HETATM   25  C20 UNL     1      -5.822   1.304  -1.027  1.00  0.00     0.283 C 
BRANCH  25  26
HETATM   26  N4  UNL     1      -6.467   1.069   0.264  1.00  0.00     0.089 N 
HETATM   27  C21 UNL     1      -7.896   0.789   0.236  1.00  0.00     0.272 C 
HETATM   28  C22 UNL     1      -8.193   0.425   1.685  1.00  0.00     0.032 C 
HETATM   29  C23 UNL     1      -6.859  -0.037   2.265  1.00  0.00     0.032 C 
HETATM   30  C24 UNL     1      -5.874   0.040   1.106  1.00  0.00     0.272 C 
ENDBRANCH  25  26
ENDBRANCH  24  25
ENDBRANCH  23  24
ENDBRANCH  21  23
ENDBRANCH  15  17
ENDBRANCH  11  15
BRANCH   4  31
HETATM   31  C5  UNL     1       6.980  -0.147   1.123  1.00  0.00    -0.001 A 
HETATM   32  C6  UNL     1       7.464   1.097   1.575  1.00  0.00     0.050 A 
HETATM   33  C7  UNL     1       8.783   1.228   2.002  1.00  0.00     0.066 A 
HETATM   34  C8  UNL     1       9.648   0.142   1.988  1.00  0.00     0.038 A 
HETATM   35  C9  UNL     1       9.190  -1.098   1.544  1.00  0.00     0.027 A 
HETATM   36  C10 UNL     1       7.866  -1.244   1.115  1.00  0.00     0.045 A 
HETATM   37 CL1  UNL     1       7.372  -2.809   0.566  1.00  0.00    -0.083 Cl
BRANCH  33  38
HETATM   38  O1  UNL     1       9.271   2.419   2.450  1.00  0.00    -0.361 OA
HETATM   39  H6  UNL     1       8.558   3.080   2.441  1.00  0.00     0.217 HD
ENDBRANCH  33  38
ENDBRANCH   4  31
TORSDOF 8
