REMARK  4 active torsions:
REMARK  status: ('A' for Active; 'I' for Inactive)
REMARK    1  A    between atoms: C6_6  and  N1_7 
REMARK    2  A    between atoms: C10_14  and  N3_15 
REMARK    3  A    between atoms: N3_15  and  C11_16 
REMARK    4  A    between atoms: C14_19  and  N4_20 
ROOT
HETATM    1  N1  UNL     1      -5.140   0.361   0.034  1.00  0.00    -0.110 N 
HETATM    2  C7  UNL     1      -4.040   1.194   0.302  1.00  0.00     0.282 A 
HETATM    3  O1  UNL     1      -4.087   2.353   0.718  1.00  0.00    -0.266 OA
HETATM    4  C8  UNL     1      -2.697   0.671   0.015  1.00  0.00     0.095 A 
HETATM    5  C9  UNL     1      -1.562   1.396   0.281  1.00  0.00     0.127 A 
HETATM    6  N2  UNL     1      -0.315   0.949   0.014  1.00  0.00    -0.201 N 
ATOM      7  H2  UNL     1       0.504   1.515   0.236  1.00  0.00     0.183 HD
HETATM    8  C10 UNL     1      -0.186  -0.260  -0.551  1.00  0.00     0.684 A 
HETATM    9  N6  UNL     1      -1.243  -1.034  -0.853  1.00  0.00    -0.174 N 
ATOM     10  H6  UNL     1      -1.121  -1.948  -1.289  1.00  0.00     0.186 HD
HETATM   11  C22 UNL     1      -2.477  -0.555  -0.557  1.00  0.00     0.162 A 
HETATM   12  N7  UNL     1      -3.616  -1.324  -0.837  1.00  0.00    -0.128 N 
HETATM   13  C23 UNL     1      -3.699  -2.576  -1.414  1.00  0.00     0.086 A 
HETATM   14  C24 UNL     1      -2.759  -3.479  -1.933  1.00  0.00     0.033 A 
HETATM   15  C25 UNL     1      -3.241  -4.687  -2.450  1.00  0.00     0.002 A 
HETATM   16  C26 UNL     1      -4.603  -4.984  -2.444  1.00  0.00     0.002 A 
HETATM   17  C27 UNL     1      -5.526  -4.075  -1.918  1.00  0.00     0.032 A 
HETATM   18  C28 UNL     1      -5.060  -2.861  -1.396  1.00  0.00     0.077 A 
HETATM   19  N8  UNL     1      -5.773  -1.837  -0.838  1.00  0.00    -0.188 N 
ATOM     20  H8  UNL     1      -6.781  -1.808  -0.683  1.00  0.00     0.184 HD
HETATM   21  C29 UNL     1      -4.902  -0.894  -0.540  1.00  0.00     0.701 A 
ENDROOT
BRANCH   8  22
HETATM   22  N3  UNL     1       1.054  -0.787  -0.895  1.00  0.00    -0.192 N 
HETATM   23  H8  UNL     1       0.931  -1.683  -1.340  1.00  0.00     0.184 HD
BRANCH  22  24
HETATM   24  C11 UNL     1       2.372  -0.404  -0.624  1.00  0.00     0.049 A 
HETATM   25  C12 UNL     1       3.417  -1.090  -1.251  1.00  0.00     0.032 A 
HETATM   26  C13 UNL     1       4.762  -0.740  -1.035  1.00  0.00     0.031 A 
HETATM   27  C14 UNL     1       5.130   0.310  -0.188  1.00  0.00     0.030 A 
HETATM   28  C20 UNL     1       4.072   1.009   0.410  1.00  0.00     0.031 A 
HETATM   29  C21 UNL     1       2.725   0.664   0.197  1.00  0.00     0.032 A 
BRANCH  27  30
HETATM   30  N4  UNL     1       6.458   0.651   0.014  1.00  0.00    -0.378 N 
HETATM   31  C15 UNL     1       7.523  -0.366  -0.096  1.00  0.00     0.153 C 
HETATM   32  C16 UNL     1       8.566  -0.211   1.038  1.00  0.00     0.291 C 
HETATM   33  N5  UNL     1       9.206   1.114   1.143  1.00  0.00     0.087 N 
HETATM   34  C17 UNL     1      10.527   1.142   0.524  1.00  0.00     0.310 C 
HETATM   35  C18 UNL     1       8.339   2.178   0.588  1.00  0.00     0.291 C 
HETATM   36  C19 UNL     1       6.825   1.889   0.727  1.00  0.00     0.153 C 
ENDBRANCH  27  30
ENDBRANCH  22  24
ENDBRANCH   8  22
BRANCH   1  37
HETATM   37  C6  UNL     1      -6.494   0.762   0.321  1.00  0.00     0.061 A 
HETATM   38  C5  UNL     1      -7.594   0.300  -0.419  1.00  0.00     0.030 A 
HETATM   39  C4  UNL     1      -8.900   0.716  -0.133  1.00  0.00     0.003 A 
HETATM   40  C3  UNL     1      -9.139   1.612   0.904  1.00  0.00     0.007 A 
HETATM   41  C2  UNL     1      -8.077   2.083   1.673  1.00  0.00    -0.060 A 
HETATM   42  C1  UNL     1      -8.310   3.078   2.773  1.00  0.00     0.048 C 
HETATM   43  C30 UNL     1      -6.768   1.666   1.366  1.00  0.00     0.037 A 
ENDBRANCH   1  37
TORSDOF 4
