REMARK  8 active torsions:
REMARK  status: ('A' for Active; 'I' for Inactive)
REMARK    1  A    between atoms: O1_2  and  C2_3 
REMARK    2  A    between atoms: C5_6  and  N1_7 
REMARK    3  A    between atoms: N1_7  and  C6_8 
REMARK    4  A    between atoms: C18_25  and  O2_26 
REMARK    5  A    between atoms: O2_26  and  C19_27 
REMARK    6  A    between atoms: C19_27  and  C20_28 
REMARK    7  A    between atoms: C20_28  and  C21_29 
REMARK    8  A    between atoms: C21_29  and  N5_30 
ROOT
HETATM    1  C2  UNL     1       1.006   0.580  -1.102  1.00  0.00     0.102 A 
HETATM    2  C3  UNL     1      -0.343   0.401  -0.795  1.00  0.00     0.057 A 
HETATM    3  C4  UNL     1      -0.963  -0.868  -0.936  1.00  0.00     0.038 A 
HETATM    4  C5  UNL     1      -2.314  -1.148  -0.644  1.00  0.00     0.119 A 
HETATM    5  N3  UNL     1      -2.824  -2.387  -0.758  1.00  0.00    -0.338 N 
ATOM      6  H3  UNL     1      -3.797  -2.587  -0.526  1.00  0.00     0.168 HD
HETATM    7  C15 UNL     1      -1.998  -3.342  -1.189  1.00  0.00     0.182 A 
HETATM    8  N4  UNL     1      -0.711  -3.185  -1.513  1.00  0.00    -0.351 N 
ATOM      9  H4  UNL     1      -0.144  -3.964  -1.847  1.00  0.00     0.166 HD
HETATM   10  C16 UNL     1      -0.204  -1.957  -1.378  1.00  0.00     0.050 A 
HETATM   11  C17 UNL     1       1.136  -1.762  -1.690  1.00  0.00     0.070 A 
HETATM   12  C18 UNL     1       1.753  -0.514  -1.570  1.00  0.00     0.104 A 
ENDROOT
BRANCH   4  13
HETATM   13  N1  UNL     1      -3.160  -0.089  -0.224  1.00  0.00    -0.341 N 
HETATM   14  H5  UNL     1      -3.131   0.665  -0.897  1.00  0.00     0.167 HD
BRANCH  13  15
HETATM   15  C6  UNL     1      -4.435  -0.183   0.378  1.00  0.00     0.046 A 
HETATM   16  C7  UNL     1      -4.732  -1.201   1.305  1.00  0.00     0.030 A 
HETATM   17  C8  UNL     1      -5.974  -1.291   1.931  1.00  0.00     0.005 A 
HETATM   18  C9  UNL     1      -6.975  -0.357   1.671  1.00  0.00     0.030 A 
HETATM   19  C10 UNL     1      -6.688   0.678   0.770  1.00  0.00     0.046 A 
HETATM   20  C11 UNL     1      -5.449   0.784   0.127  1.00  0.00     0.019 A 
HETATM   21  N2  UNL     1      -7.465   1.734   0.335  1.00  0.00    -0.360 N 
HETATM   22  C12 UNL     1      -5.520   1.943  -0.706  1.00  0.00     0.033 A 
HETATM   23  C13 UNL     1      -6.770   2.500  -0.561  1.00  0.00     0.092 A 
HETATM   24  C14 UNL     1      -8.823   1.996   0.757  1.00  0.00     0.155 C 
ENDBRANCH  13  15
ENDBRANCH   4  13
BRANCH   1  25
HETATM   25  O1  UNL     1       1.683   1.766  -0.980  1.00  0.00    -0.353 OA
HETATM   26  C1  UNL     1       1.017   2.848  -0.340  1.00  0.00     0.210 C 
ENDBRANCH   1  25
BRANCH  12  27
HETATM   27  O2  UNL     1       3.069  -0.257  -1.856  1.00  0.00    -0.348 OA
BRANCH  27  28
HETATM   28  C19 UNL     1       3.916  -1.303  -2.315  1.00  0.00     0.177 C 
BRANCH  28  29
HETATM   29  C20 UNL     1       4.515  -2.134  -1.177  1.00  0.00     0.057 C 
BRANCH  29  30
HETATM   30  C21 UNL     1       5.731  -1.490  -0.481  1.00  0.00     0.274 C 
BRANCH  30  31
HETATM   31  N5  UNL     1       5.450  -0.836   0.806  1.00  0.00     0.092 N 
HETATM   32  C22 UNL     1       6.694  -0.517   1.543  1.00  0.00     0.298 C 
HETATM   33  C23 UNL     1       7.173   0.928   1.338  1.00  0.00     0.198 C 
HETATM   34  O3  UNL     1       6.215   1.914   1.752  1.00  0.00    -0.388 OA
HETATM   35  C24 UNL     1       4.869   1.420   1.750  1.00  0.00     0.198 C 
HETATM   36  C25 UNL     1       4.623   0.380   0.646  1.00  0.00     0.298 C 
ENDBRANCH  30  31
ENDBRANCH  29  30
ENDBRANCH  28  29
ENDBRANCH  27  28
ENDBRANCH  12  27
TORSDOF 8
