REMARK  4 active torsions:
REMARK  status: ('A' for Active; 'I' for Inactive)
REMARK    1  A    between atoms: N2_5  and  C4_6 
REMARK    2  A    between atoms: C7_9  and  N3_10 
REMARK    3  A    between atoms: N3_10  and  C8_11 
REMARK    4  A    between atoms: N5_18  and  C13_19 
ROOT
HETATM    1  C8  UNL     1      -1.249  -0.428   0.623  1.00  0.00     0.684 A 
HETATM    2  N4  UNL     1      -0.922  -0.752   1.890  1.00  0.00    -0.201 N 
ATOM      3  H4  UNL     1       0.058  -0.826   2.163  1.00  0.00     0.183 HD
HETATM    4  C9  UNL     1      -1.899  -0.979   2.797  1.00  0.00     0.121 A 
HETATM    5  C10 UNL     1      -3.228  -0.874   2.413  1.00  0.00     0.026 A 
HETATM    6  C11 UNL     1      -4.494  -1.023   3.032  1.00  0.00     0.034 A 
HETATM    7  C12 UNL     1      -5.453  -0.771   2.073  1.00  0.00     0.094 A 
HETATM    8  N5  UNL     1      -4.810  -0.477   0.892  1.00  0.00    -0.337 N 
HETATM    9  C19 UNL     1      -3.450  -0.536   1.088  1.00  0.00     0.135 A 
HETATM   10  N6  UNL     1      -2.507  -0.304   0.161  1.00  0.00    -0.175 N 
ATOM     11  H6  UNL     1      -2.724  -0.057  -0.804  1.00  0.00     0.186 HD
ENDROOT
BRANCH   1  12
HETATM   12  N3  UNL     1      -0.267  -0.183  -0.337  1.00  0.00    -0.192 N 
HETATM   13  H10 UNL     1      -0.720   0.039  -1.210  1.00  0.00     0.184 HD
BRANCH  12  14
HETATM   14  C7  UNL     1       1.130  -0.190  -0.332  1.00  0.00     0.049 A 
HETATM   15  C6  UNL     1       1.909  -0.495   0.783  1.00  0.00     0.032 A 
HETATM   16  C5  UNL     1       3.313  -0.480   0.725  1.00  0.00     0.031 A 
HETATM   17  C4  UNL     1       3.994  -0.154  -0.452  1.00  0.00     0.030 A 
HETATM   18  C21 UNL     1       3.208   0.154  -1.569  1.00  0.00     0.031 A 
HETATM   19  C20 UNL     1       1.808   0.136  -1.513  1.00  0.00     0.032 A 
BRANCH  17  20
HETATM   20  N2  UNL     1       5.390  -0.114  -0.561  1.00  0.00    -0.378 N 
HETATM   21  C3  UNL     1       6.222  -0.882   0.389  1.00  0.00     0.153 C 
HETATM   22  C2  UNL     1       6.902   0.040   1.424  1.00  0.00     0.291 C 
HETATM   23  N1  UNL     1       7.764   1.097   0.845  1.00  0.00     0.087 N 
HETATM   24  C1  UNL     1       9.183   0.774   0.972  1.00  0.00     0.310 C 
HETATM   25  C23 UNL     1       7.416   1.359  -0.571  1.00  0.00     0.291 C 
HETATM   26  C22 UNL     1       5.901   1.248  -0.862  1.00  0.00     0.153 C 
ENDBRANCH  17  20
ENDBRANCH  12  14
ENDBRANCH   1  12
BRANCH   8  27
HETATM   27  C13 UNL     1      -5.459  -0.148  -0.375  1.00  0.00     0.091 C 
HETATM   28  C14 UNL     1      -6.331  -1.303  -0.890  1.00  0.00     0.026 C 
HETATM   29  C15 UNL     1      -6.998  -0.949  -2.218  1.00  0.00     0.002 C 
HETATM   30  C16 UNL     1      -7.791   0.352  -2.120  1.00  0.00     0.000 C 
HETATM   31  C17 UNL     1      -6.927   1.503  -1.611  1.00  0.00     0.002 C 
HETATM   32  C18 UNL     1      -6.259   1.161  -0.281  1.00  0.00     0.026 C 
ENDBRANCH   8  27
TORSDOF 4
