REMARK  4 active torsions:
REMARK  status: ('A' for Active; 'I' for Inactive)
REMARK    1  A    between atoms: C5_6  and  C6_7 
REMARK    2  A    between atoms: C6_7  and  N1_8 
REMARK    3  A    between atoms: C10_19  and  N6_20 
REMARK    4  A    between atoms: N6_20  and  C11_21 
ROOT
HETATM    1  N1  UNL     1       1.270  -1.130  -0.419  1.00  0.00    -0.370 N 
HETATM    2  C7  UNL     1       0.564  -2.298  -0.391  1.00  0.00     0.134 A 
HETATM    3  N2  UNL     1       1.056  -3.511  -0.822  1.00  0.00    -0.283 N 
HETATM    4  N3  UNL     1       0.243  -4.562  -0.599  1.00  0.00    -0.283 N 
ATOM      5  H3  UNL     1       0.417  -5.548  -0.795  1.00  0.00     0.188 HD
HETATM    6  C8  UNL     1      -0.845  -4.006  -0.060  1.00  0.00     0.138 A 
HETATM    7  N4  UNL     1      -1.965  -4.648   0.341  1.00  0.00    -0.337 N 
ATOM      8  H4  UNL     1      -2.109  -5.656   0.282  1.00  0.00     0.168 HD
HETATM    9  C9  UNL     1      -2.871  -3.767   0.833  1.00  0.00     0.183 A 
HETATM   10  N5  UNL     1      -2.809  -2.401   0.950  1.00  0.00    -0.338 N 
ATOM     11  H5  UNL     1      -3.595  -1.887   1.348  1.00  0.00     0.168 HD
HETATM   12  C10 UNL     1      -1.694  -1.731   0.533  1.00  0.00     0.124 A 
HETATM   13  C17 UNL     1      -0.706  -2.598   0.049  1.00  0.00     0.098 A 
HETATM   14  H6  UNL     1       1.065  -0.459   0.326  1.00  0.00     0.161 HD
HETATM   15  H7  UNL     1       1.957  -3.698  -1.244  1.00  0.00     0.188 HD
ENDROOT
BRANCH   1  16
HETATM   16  C6  UNL     1       2.675  -1.073  -0.802  1.00  0.00     0.160 C 
BRANCH  16  17
HETATM   17  C5  UNL     1       3.112   0.371  -0.831  1.00  0.00    -0.039 A 
HETATM   18  C4  UNL     1       2.715   1.210  -1.884  1.00  0.00     0.009 A 
HETATM   19  C3  UNL     1       3.092   2.554  -1.904  1.00  0.00     0.002 A 
HETATM   20  C2  UNL     1       3.867   3.076  -0.868  1.00  0.00     0.024 A 
HETATM   21  C1  UNL     1       4.257   2.252   0.185  1.00  0.00     0.034 A 
HETATM   22 CL1  UNL     1       5.207   2.896   1.467  1.00  0.00    -0.084 Cl
HETATM   23  C18 UNL     1       3.882   0.908   0.211  1.00  0.00     0.032 A 
ENDBRANCH  16  17
ENDBRANCH   1  16
BRANCH  12  24
HETATM   24  N6  UNL     1      -1.574  -0.335   0.525  1.00  0.00    -0.342 N 
HETATM   25  H9  UNL     1      -0.863  -0.041  -0.135  1.00  0.00     0.167 HD
BRANCH  24  26
HETATM   26  C11 UNL     1      -2.445   0.686   0.939  1.00  0.00     0.035 A 
HETATM   27  C12 UNL     1      -3.573   0.466   1.739  1.00  0.00     0.029 A 
HETATM   28  C13 UNL     1      -4.388   1.525   2.154  1.00  0.00     0.004 A 
HETATM   29  C14 UNL     1      -4.078   2.831   1.786  1.00  0.00     0.024 A 
HETATM   30  C15 UNL     1      -2.949   3.069   1.009  1.00  0.00     0.036 A 
HETATM   31 CL2  UNL     1      -2.546   4.681   0.558  1.00  0.00    -0.084 Cl
HETATM   32  C16 UNL     1      -2.136   2.012   0.595  1.00  0.00     0.053 A 
ENDBRANCH  24  26
ENDBRANCH  12  24
TORSDOF 4
