REMARK  5 active torsions:
REMARK  status: ('A' for Active; 'I' for Inactive)
REMARK    1  A    between atoms: N1_1  and  C1_2 
REMARK    2  A    between atoms: C4_8  and  C5_9 
REMARK    3  A    between atoms: C17_25  and  C18_26 
REMARK       I    between atoms: C18_26  and  N6_28 
REMARK    4  A    between atoms: N6_28  and  C19_29 
REMARK    5  A    between atoms: C21_31  and  C22_32 
ROOT
HETATM    1  C1  UNL     1      -1.061   1.435   3.054  1.00  0.00     0.129 A 
HETATM    2  N2  UNL     1      -2.021   1.712   3.907  1.00  0.00    -0.349 N 
ATOM      3  H2  UNL     1      -1.804   2.117   4.817  1.00  0.00     0.167 HD
HETATM    4  C2  UNL     1      -3.326   1.446   3.552  1.00  0.00     0.107 A 
HETATM    5  C3  UNL     1      -3.692   0.923   2.372  1.00  0.00     0.116 A 
HETATM    6  N3  UNL     1      -2.705   0.611   1.453  1.00  0.00    -0.305 N 
HETATM    7  C4  UNL     1      -2.729   0.076   0.175  1.00  0.00     0.094 A 
HETATM    8  N5  UNL     1      -1.496  -0.084  -0.280  1.00  0.00    -0.343 N 
ATOM      9  H5  UNL     1      -1.222  -0.476  -1.181  1.00  0.00     0.167 HD
HETATM   10  C13 UNL     1      -0.662   0.382   0.701  1.00  0.00     0.075 A 
HETATM   11  C14 UNL     1       0.774   0.367   0.570  1.00  0.00    -0.007 A 
HETATM   12  C15 UNL     1       1.508  -0.727   1.044  1.00  0.00     0.015 A 
HETATM   13  C16 UNL     1       2.903  -0.743   0.925  1.00  0.00     0.018 A 
HETATM   14  C17 UNL     1       3.565   0.332   0.315  1.00  0.00     0.032 A 
HETATM   15  C25 UNL     1       2.826   1.430  -0.148  1.00  0.00     0.018 A 
HETATM   16  C26 UNL     1       1.434   1.445  -0.026  1.00  0.00     0.015 A 
HETATM   17  C27 UNL     1      -1.382   0.836   1.780  1.00  0.00     0.112 A 
ENDROOT
BRANCH   7  18
HETATM   18  C5  UNL     1      -3.951  -0.264  -0.637  1.00  0.00     0.072 C 
HETATM   19  C6  UNL     1      -4.725   0.989  -1.120  1.00  0.00     0.016 C 
HETATM   20  C7  UNL     1      -6.071   1.256  -0.430  1.00  0.00     0.026 C 
HETATM   21  C8  UNL     1      -6.921   0.002  -0.160  1.00  0.00     0.087 C 
HETATM   22  C9  UNL     1      -8.182  -0.111  -1.007  1.00  0.00     0.034 C 
HETATM   23  N4  UNL     1      -6.201  -1.207  -0.476  1.00  0.00    -0.347 N 
HETATM   24  C10 UNL     1      -7.752  -0.920  -2.224  1.00  0.00     0.105 C 
HETATM   25  C11 UNL     1      -6.561  -1.702  -1.730  1.00  0.00     0.220 C 
HETATM   26  O1  UNL     1      -5.967  -2.555  -2.367  1.00  0.00    -0.273 OA
HETATM   27  C12 UNL     1      -4.839  -1.341   0.002  1.00  0.00     0.138 C 
ENDBRANCH   7  18
BRANCH   1  28
HETATM   28  N1  UNL     1       0.204   1.743   3.458  1.00  0.00    -0.384 N 
HETATM   29  H1  UNL     1       0.968   1.209   3.063  1.00  0.00     0.157 HD
HETATM   30  H2  UNL     1       0.273   1.910   4.457  1.00  0.00     0.157 HD
ENDBRANCH   1  28
BRANCH  14  31
HETATM   31  C18 UNL     1       5.049   0.361   0.152  1.00  0.00     0.257 C 
HETATM   32  O2  UNL     1       5.616   1.450   0.149  1.00  0.00    -0.267 OA
HETATM   33  N6  UNL     1       5.646  -0.867  -0.018  1.00  0.00    -0.309 N 
HETATM   34  H19 UNL     1       5.079  -1.696  -0.121  1.00  0.00     0.170 HD
BRANCH  33  35
HETATM   35  C19 UNL     1       7.000  -1.151  -0.195  1.00  0.00     0.108 A 
HETATM   36  C20 UNL     1       8.012  -0.204  -0.164  1.00  0.00     0.064 A 
HETATM   37  C21 UNL     1       9.336  -0.613  -0.368  1.00  0.00     0.052 A 
HETATM   38  C23 UNL     1       9.588  -1.968  -0.595  1.00  0.00     0.033 A 
HETATM   39  C24 UNL     1       8.520  -2.844  -0.599  1.00  0.00     0.090 A 
HETATM   40  N7  UNL     1       7.241  -2.463  -0.403  1.00  0.00    -0.352 N 
ATOM     41  H7  UNL     1       6.481  -3.143  -0.412  1.00  0.00     0.166 HD
BRANCH  37  42
HETATM   42  C22 UNL     1      10.448   0.401  -0.359  1.00  0.00     0.417 C 
HETATM   43  F1  UNL     1      10.408   1.227  -1.439  1.00  0.00    -0.166 F 
HETATM   44  F2  UNL     1      10.416   1.207   0.737  1.00  0.00    -0.166 F 
HETATM   45  F3  UNL     1      11.688  -0.164  -0.368  1.00  0.00    -0.166 F 
ENDBRANCH  37  42
ENDBRANCH  33  35
ENDBRANCH  14  31
TORSDOF 5
