REMARK  8 active torsions:
REMARK  status: ('A' for Active; 'I' for Inactive)
REMARK    1  A    between atoms: C8_8  and  C9_9 
REMARK    2  A    between atoms: C14_16  and  N2_17 
REMARK    3  A    between atoms: N2_17  and  C15_18 
REMARK    4  A    between atoms: C19_22  and  C20_23 
REMARK       I    between atoms: C20_23  and  N3_25 
REMARK    5  A    between atoms: N3_25  and  C21_26 
REMARK    6  A    between atoms: C21_26  and  C22_27 
REMARK    7  A    between atoms: C22_27  and  C23_28 
REMARK    8  A    between atoms: C23_28  and  N4_29 
ROOT
HETATM    1  C9  UNL     1      -6.274  -0.097  -0.165  1.00  0.00    -0.022 A 
HETATM    2  C10 UNL     1      -5.581  -0.236   1.040  1.00  0.00     0.021 A 
HETATM    3  C11 UNL     1      -4.178  -0.286   1.062  1.00  0.00    -0.032 A 
HETATM    4  C12 UNL     1      -3.463  -0.438   2.378  1.00  0.00     0.050 C 
HETATM    5  C13 UNL     1      -3.443  -0.197  -0.127  1.00  0.00     0.083 A 
HETATM    6  N1  UNL     1      -2.097  -0.247  -0.102  1.00  0.00    -0.188 N 
ATOM      7  H1  UNL     1      -1.592  -0.345   0.779  1.00  0.00     0.184 HD
HETATM    8  C14 UNL     1      -1.440  -0.164  -1.267  1.00  0.00     0.697 A 
HETATM    9  N5  UNL     1      -2.087  -0.027  -2.442  1.00  0.00    -0.131 N 
ATOM     10  H5  UNL     1      -1.555   0.036  -3.310  1.00  0.00     0.205 HD
HETATM   11  N6  UNL     1      -3.451   0.028  -2.477  1.00  0.00    -0.284 N 
ATOM     12  H6  UNL     1      -3.939   0.133  -3.367  1.00  0.00     0.187 HD
HETATM   13  C27 UNL     1      -4.141  -0.057  -1.336  1.00  0.00     0.077 A 
HETATM   14  C28 UNL     1      -5.530  -0.008  -1.346  1.00  0.00     0.045 A 
ENDROOT
BRANCH   8  15
HETATM   15  N2  UNL     1      -0.048  -0.221  -1.337  1.00  0.00    -0.190 N 
HETATM   16  H14 UNL     1       0.240  -0.176  -2.305  1.00  0.00     0.184 HD
BRANCH  15  17
HETATM   17  C15 UNL     1       0.968  -0.380  -0.389  1.00  0.00     0.050 A 
HETATM   18  C16 UNL     1       0.746  -0.468   0.989  1.00  0.00     0.030 A 
HETATM   19  C17 UNL     1       1.805  -0.639   1.889  1.00  0.00     0.003 A 
HETATM   20  C18 UNL     1       3.116  -0.715   1.424  1.00  0.00     0.017 A 
HETATM   21  C19 UNL     1       3.367  -0.611   0.054  1.00  0.00     0.034 A 
HETATM   22  C26 UNL     1       2.296  -0.455  -0.839  1.00  0.00     0.047 A 
BRANCH  21  23
HETATM   23  C20 UNL     1       4.745  -0.691  -0.505  1.00  0.00     0.251 C 
HETATM   24  O1  UNL     1       4.917  -1.072  -1.657  1.00  0.00    -0.268 OA
HETATM   25  N3  UNL     1       5.768  -0.285   0.330  1.00  0.00    -0.357 N 
HETATM   26  H18 UNL     1       5.519   0.295   1.120  1.00  0.00     0.162 HD
BRANCH  25  27
HETATM   27  C21 UNL     1       7.126  -0.160  -0.173  1.00  0.00     0.124 C 
BRANCH  27  28
HETATM   28  C22 UNL     1       8.138  -0.249   0.965  1.00  0.00     0.050 C 
BRANCH  28  29
HETATM   29  C23 UNL     1       9.588  -0.195   0.468  1.00  0.00     0.273 C 
BRANCH  29  30
HETATM   30  N4  UNL     1       9.925   1.036  -0.265  1.00  0.00     0.080 N 
HETATM   31  C24 UNL     1       9.971   2.206   0.614  1.00  0.00     0.309 C 
HETATM   32  C25 UNL     1      11.215   0.880  -0.944  1.00  0.00     0.309 C 
ENDBRANCH  29  30
ENDBRANCH  28  29
ENDBRANCH  27  28
ENDBRANCH  25  27
ENDBRANCH  21  23
ENDBRANCH  15  17
ENDBRANCH   8  15
BRANCH   1  33
HETATM   33  C8  UNL     1      -7.745  -0.047  -0.193  1.00  0.00    -0.014 A 
HETATM   34  C2  UNL     1      -8.425   1.193  -0.094  1.00  0.00    -0.050 A 
HETATM   35  C1  UNL     1      -7.679   2.495   0.044  1.00  0.00     0.049 C 
HETATM   36  C3  UNL     1      -9.829   1.222  -0.120  1.00  0.00     0.007 A 
HETATM   37  C4  UNL     1     -10.562   0.047  -0.244  1.00  0.00     0.001 A 
HETATM   38  C5  UNL     1      -9.905  -1.175  -0.343  1.00  0.00     0.007 A 
HETATM   39  C6  UNL     1      -8.503  -1.239  -0.320  1.00  0.00    -0.050 A 
HETATM   40  C7  UNL     1      -7.840  -2.589  -0.431  1.00  0.00     0.049 C 
ENDBRANCH   1  33
TORSDOF 8
