REMARK  10 active torsions:
REMARK  status: ('A' for Active; 'I' for Inactive)
REMARK    1  A    between atoms: O1_2  and  C2_3 
REMARK    2  A    between atoms: C2_3  and  C3_4 
REMARK    3  A    between atoms: C3_4  and  O2_5 
REMARK    4  A    between atoms: O2_5  and  C4_6 
REMARK    5  A    between atoms: C10_15  and  N3_16 
REMARK    6  A    between atoms: N3_16  and  C11_17 
REMARK    7  A    between atoms: C19_27  and  O3_28 
REMARK    8  A    between atoms: O3_28  and  C20_29 
REMARK    9  A    between atoms: C20_29  and  C21_30 
REMARK   10  A    between atoms: C21_30  and  O4_31 
ROOT
HETATM    1  C4  UNL     1      -1.874  -1.109  -0.777  1.00  0.00     0.104 A 
HETATM    2  C5  UNL     1      -1.055  -1.961  -1.526  1.00  0.00     0.070 A 
HETATM    3  C6  UNL     1       0.229  -1.597  -1.907  1.00  0.00     0.047 A 
HETATM    4  N1  UNL     1       0.952  -2.472  -2.623  1.00  0.00    -0.364 N 
ATOM      5  H1  UNL     1       0.565  -3.379  -2.883  1.00  0.00     0.165 HD
HETATM    6  C7  UNL     1       2.205  -2.123  -2.992  1.00  0.00     0.113 A 
HETATM    7  C8  UNL     1       2.796  -0.916  -2.672  1.00  0.00     0.087 A 
HETATM    8  C9  UNL     1       4.135  -0.659  -3.097  1.00  0.00     0.103 C 
HETATM    9  N2  UNL     1       5.219  -0.436  -3.447  1.00  0.00    -0.191 NA
HETATM   10  C10 UNL     1       2.049   0.008  -1.928  1.00  0.00     0.067 A 
HETATM   11  C17 UNL     1       0.726  -0.335  -1.528  1.00  0.00     0.022 A 
HETATM   12  C18 UNL     1      -0.108   0.532  -0.784  1.00  0.00     0.055 A 
HETATM   13  C19 UNL     1      -1.397   0.156  -0.402  1.00  0.00     0.103 A 
ENDROOT
BRANCH  10  14
HETATM   14  N3  UNL     1       2.623   1.243  -1.507  1.00  0.00    -0.353 N 
HETATM   15  H10 UNL     1       3.156   1.700  -2.253  1.00  0.00     0.166 HD
BRANCH  14  16
HETATM   16  C11 UNL     1       3.297   1.468  -0.270  1.00  0.00     0.054 A 
HETATM   17  C12 UNL     1       3.139   0.609   0.828  1.00  0.00     0.033 A 
HETATM   18  C13 UNL     1       3.753   0.893   2.052  1.00  0.00     0.026 A 
HETATM   19  C14 UNL     1       4.517   2.049   2.198  1.00  0.00     0.035 A 
HETATM   20 CL1  UNL     1       5.263   2.393   3.709  1.00  0.00    -0.084 Cl
HETATM   21  C15 UNL     1       4.671   2.931   1.134  1.00  0.00     0.050 A 
HETATM   22  C16 UNL     1       4.056   2.644  -0.086  1.00  0.00     0.062 A 
HETATM   23 CL2  UNL     1       4.252   3.773  -1.383  1.00  0.00    -0.082 Cl
ENDBRANCH  14  16
ENDBRANCH  10  14
BRANCH  13  24
HETATM   24  O3  UNL     1      -2.253   0.930   0.336  1.00  0.00    -0.346 OA
BRANCH  24  25
HETATM   25  C20 UNL     1      -1.876   2.262   0.679  1.00  0.00     0.201 C 
BRANCH  25  26
HETATM   26  C21 UNL     1      -1.066   2.296   1.976  1.00  0.00     0.193 C 
BRANCH  26  27
HETATM   27  O4  UNL     1      -0.663   3.623   2.314  1.00  0.00    -0.394 OA
HETATM   28  C22 UNL     1       0.547   4.013   1.678  1.00  0.00     0.201 C 
ENDBRANCH  26  27
ENDBRANCH  25  26
ENDBRANCH  24  25
ENDBRANCH  13  24
BRANCH   1  29
HETATM   29  O2  UNL     1      -3.147  -1.417  -0.365  1.00  0.00    -0.346 OA
BRANCH  29  30
HETATM   30  C3  UNL     1      -3.688  -2.680  -0.746  1.00  0.00     0.201 C 
BRANCH  30  31
HETATM   31  C2  UNL     1      -5.118  -2.773  -0.214  1.00  0.00     0.193 C 
BRANCH  31  32
HETATM   32  O1  UNL     1      -5.747  -4.001  -0.581  1.00  0.00    -0.394 OA
HETATM   33  C1  UNL     1      -5.427  -5.072   0.298  1.00  0.00     0.201 C 
ENDBRANCH  31  32
ENDBRANCH  30  31
ENDBRANCH  29  30
ENDBRANCH   1  29
TORSDOF 10
