REMARK  16 active torsions:
REMARK  status: ('A' for Active; 'I' for Inactive)
REMARK    1  A    between atoms: N1_2  and  C2_3 
REMARK    2  A    between atoms: N1_2  and  C5_14 
REMARK    3  A    between atoms: C2_3  and  C3_4 
REMARK    4  A    between atoms: C3_4  and  O1_5 
REMARK    5  A    between atoms: O1_5  and  P1_6 
REMARK    6  A    between atoms: P1_6  and  O3_8 
REMARK    7  A    between atoms: P1_6  and  C4_9 
REMARK    8  A    between atoms: C4_9  and  P2_10 
REMARK    9  A    between atoms: P2_10  and  O5_12 
REMARK   10  A    between atoms: P2_10  and  O6_13 
REMARK   11  A    between atoms: C5_14  and  C6_15 
REMARK   12  A    between atoms: C6_15  and  C7_16 
REMARK   13  A    between atoms: C10_19  and  N2_20 
REMARK   14  A    between atoms: C12_22  and  C13_23 
REMARK   15  A    between atoms: C17_27  and  O7_28 
REMARK   16  A    between atoms: C20_31  and  N3_32 
ROOT
HETATM    1  C7  UNL     1      -0.163   1.224  -2.713  1.00  0.00    -0.056 A 
HETATM    2  C8  UNL     1       0.806   2.073  -2.168  1.00  0.00     0.009 A 
HETATM    3  C9  UNL     1       1.843   1.570  -1.371  1.00  0.00     0.030 A 
HETATM    4  C10 UNL     1       1.946   0.196  -1.099  1.00  0.00     0.040 A 
HETATM    5  C23 UNL     1       0.975  -0.650  -1.650  1.00  0.00     0.030 A 
HETATM    6  C24 UNL     1      -0.059  -0.144  -2.452  1.00  0.00     0.009 A 
ENDROOT
BRANCH   4   7
HETATM    7  N2  UNL     1       3.026  -0.313  -0.292  1.00  0.00    -0.307 N 
HETATM    8  C11 UNL     1       4.046   0.461   0.246  1.00  0.00     0.112 A 
HETATM    9  C12 UNL     1       4.928  -0.343   0.933  1.00  0.00     0.008 A 
HETATM   10  C19 UNL     1       4.449  -1.673   0.846  1.00  0.00     0.065 A 
HETATM   11  C20 UNL     1       4.874  -2.927   1.318  1.00  0.00     0.114 A 
HETATM   12  C22 UNL     1       3.273  -1.637   0.096  1.00  0.00     0.128 A 
HETATM   13  N4  UNL     1       4.134  -4.015   1.047  1.00  0.00    -0.338 N 
HETATM   14  C21 UNL     1       3.021  -3.855   0.316  1.00  0.00     0.183 A 
ATOM     15  H4  UNL     1       4.411  -4.936   1.387  1.00  0.00     0.168 HD
HETATM   16  N5  UNL     1       2.522  -2.721  -0.192  1.00  0.00    -0.337 N 
ATOM     17  H5  UNL     1       1.663  -2.680  -0.740  1.00  0.00     0.168 HD
BRANCH   9  18
HETATM   18  C13 UNL     1       6.106   0.182   1.588  1.00  0.00    -0.021 A 
HETATM   19  C14 UNL     1       7.319   0.250   0.893  1.00  0.00     0.012 A 
HETATM   20  C15 UNL     1       8.463   0.738   1.529  1.00  0.00     0.004 A 
HETATM   21  C16 UNL     1       8.399   1.156   2.859  1.00  0.00     0.036 A 
HETATM   22  C17 UNL     1       7.189   1.080   3.543  1.00  0.00     0.066 A 
HETATM   23  C18 UNL     1       6.042   0.597   2.921  1.00  0.00     0.049 A 
BRANCH  22  24
HETATM   24  O7  UNL     1       7.087   1.469   4.847  1.00  0.00    -0.361 OA
HETATM   25  H23 UNL     1       7.936   1.846   5.128  1.00  0.00     0.217 HD
ENDBRANCH  22  24
ENDBRANCH   9  18
BRANCH  11  26
HETATM   26  N3  UNL     1       6.023  -3.127   2.067  1.00  0.00    -0.385 N 
HETATM   27  H25 UNL     1       6.358  -2.325   2.585  1.00  0.00     0.157 HD
HETATM   28  H26 UNL     1       5.998  -4.012   2.557  1.00  0.00     0.157 HD
ENDBRANCH  11  26
ENDBRANCH   4   7
BRANCH   1  29
HETATM   29  C6  UNL     1      -1.233   1.795  -3.617  1.00  0.00     0.068 C 
BRANCH  29  30
HETATM   30  C5  UNL     1      -2.661   1.226  -3.467  1.00  0.00     0.276 C 
BRANCH  30  31
HETATM   31  N1  UNL     1      -3.254   1.278  -2.113  1.00  0.00     0.086 N 
HETATM   32  C1  UNL     1      -3.331   2.654  -1.612  1.00  0.00     0.310 C 
BRANCH  31  33
HETATM   33  C2  UNL     1      -4.585   0.643  -2.129  1.00  0.00     0.298 C 
BRANCH  33  34
HETATM   34  C3  UNL     1      -5.100   0.256  -0.736  1.00  0.00     0.208 C 
BRANCH  34  35
HETATM   35  O1  UNL     1      -6.397  -0.321  -0.871  1.00  0.00    -0.317 OA
BRANCH  35  36
HETATM   36  P1  UNL     1      -6.773  -1.675  -0.086  1.00  0.00     0.249 P 
HETATM   37  O2  UNL     1      -8.093  -2.234  -0.504  1.00  0.00    -0.653 OA
BRANCH  36  38
HETATM   38  O3  UNL     1      -5.575  -2.660  -0.503  1.00  0.00    -0.329 OA
HETATM   39  H8  UNL     1      -5.718  -3.045  -1.390  1.00  0.00     0.220 HD
ENDBRANCH  36  38
BRANCH  36  40
HETATM   40  C4  UNL     1      -6.560  -1.314   1.632  1.00  0.00     0.249 C 
BRANCH  40  41
HETATM   41  P2  UNL     1      -7.530  -0.053   2.414  1.00  0.00     0.247 P 
HETATM   42  O4  UNL     1      -7.098   0.338   3.788  1.00  0.00    -0.653 OA
BRANCH  41  43
HETATM   43  O5  UNL     1      -7.620   1.191   1.408  1.00  0.00    -0.329 OA
HETATM   44  H11 UNL     1      -7.735   0.982   0.459  1.00  0.00     0.220 HD
ENDBRANCH  41  43
BRANCH  41  45
HETATM   45  O6  UNL     1      -9.052  -0.541   2.392  1.00  0.00    -0.329 OA
HETATM   46  H12 UNL     1      -9.618   0.032   2.947  1.00  0.00     0.220 HD
ENDBRANCH  41  45
ENDBRANCH  40  41
ENDBRANCH  36  40
ENDBRANCH  35  36
ENDBRANCH  34  35
ENDBRANCH  33  34
ENDBRANCH  31  33
ENDBRANCH  30  31
ENDBRANCH  29  30
ENDBRANCH   1  29
TORSDOF 16
