REMARK  10 active torsions:
REMARK  status: ('A' for Active; 'I' for Inactive)
REMARK       I    between atoms: N1_2  and  C2_3 
REMARK    1  A    between atoms: C2_3  and  C3_5 
REMARK    2  A    between atoms: C3_5  and  N2_6 
REMARK    3  A    between atoms: N2_6  and  C4_7 
REMARK    4  A    between atoms: C4_7  and  C5_8 
REMARK    5  A    between atoms: C5_8  and  O2_9 
REMARK    6  A    between atoms: O2_9  and  C6_10 
REMARK    7  A    between atoms: C9_13  and  N3_14 
REMARK    8  A    between atoms: C11_16  and  C12_17 
REMARK    9  A    between atoms: C16_21  and  O3_22 
REMARK   10  A    between atoms: C20_26  and  N4_27 
ROOT
HETATM    1  N3  UNL     1      -1.494  -0.825  -0.079  1.00  0.00    -0.307 N 
HETATM    2  C10 UNL     1      -2.368   0.139   0.401  1.00  0.00     0.112 A 
HETATM    3  C11 UNL     1      -3.600   0.008  -0.206  1.00  0.00     0.007 A 
HETATM    4  C19 UNL     1      -3.499  -1.079  -1.121  1.00  0.00     0.059 A 
HETATM    5  C20 UNL     1      -4.365  -1.738  -2.011  1.00  0.00     0.093 A 
HETATM    6  N5  UNL     1      -3.897  -2.751  -2.760  1.00  0.00    -0.343 N 
ATOM      7  H5  UNL     1      -4.504  -3.237  -3.421  1.00  0.00     0.167 HD
HETATM    8  C21 UNL     1      -2.613  -3.107  -2.617  1.00  0.00     0.183 A 
HETATM    9  N6  UNL     1      -1.708  -2.583  -1.787  1.00  0.00    -0.337 N 
ATOM     10  H6  UNL     1      -0.748  -2.921  -1.718  1.00  0.00     0.168 HD
HETATM   11  C22 UNL     1      -2.191  -1.559  -1.047  1.00  0.00     0.127 A 
ENDROOT
BRANCH   1  12
HETATM   12  C9  UNL     1      -0.137  -1.004   0.374  1.00  0.00     0.040 A 
HETATM   13  C8  UNL     1       0.361  -0.267   1.466  1.00  0.00     0.033 A 
HETATM   14  C7  UNL     1       1.674  -0.448   1.934  1.00  0.00     0.039 A 
HETATM   15  C6  UNL     1       2.513  -1.370   1.322  1.00  0.00     0.069 A 
HETATM   16  C24 UNL     1       2.033  -2.092   0.230  1.00  0.00     0.039 A 
HETATM   17  C23 UNL     1       0.726  -1.917  -0.240  1.00  0.00     0.033 A 
BRANCH  15  18
HETATM   18  O2  UNL     1       3.800  -1.659   1.662  1.00  0.00    -0.349 OA
BRANCH  18  19
HETATM   19  C5  UNL     1       4.362  -1.107   2.857  1.00  0.00     0.205 C 
BRANCH  19  20
HETATM   20  C4  UNL     1       5.033   0.256   2.598  1.00  0.00     0.296 C 
BRANCH  20  21
HETATM   21  N2  UNL     1       5.791   0.374   1.341  1.00  0.00     0.094 N 
HETATM   22  H7  UNL     1       5.147   0.139   0.575  1.00  0.00     0.316 HD
BRANCH  21  23
HETATM   23  C3  UNL     1       6.906  -0.599   1.264  1.00  0.00     0.371 C 
BRANCH  23  24
HETATM   24  C2  UNL     1       7.708  -0.339  -0.018  1.00  0.00     0.245 C 
HETATM   25  N1  UNL     1       7.942   1.004  -0.241  1.00  0.00    -0.364 N 
HETATM   26  C1  UNL     1       8.548   1.482  -1.454  1.00  0.00     0.149 C 
HETATM   27  H4  UNL     1       7.342   1.624   0.298  1.00  0.00     0.161 HD
HETATM   28  O1  UNL     1       8.100  -1.243  -0.752  1.00  0.00    -0.272 OA
ENDBRANCH  23  24
ENDBRANCH  21  23
ENDBRANCH  20  21
ENDBRANCH  19  20
ENDBRANCH  18  19
ENDBRANCH  15  18
ENDBRANCH   1  12
BRANCH   3  29
HETATM   29  C12 UNL     1      -4.710   0.904   0.088  1.00  0.00    -0.021 A 
HETATM   30  C13 UNL     1      -5.092   1.155   1.409  1.00  0.00     0.012 A 
HETATM   31  C14 UNL     1      -6.162   2.005   1.682  1.00  0.00     0.004 A 
HETATM   32  C15 UNL     1      -6.859   2.600   0.632  1.00  0.00     0.037 A 
HETATM   33  C16 UNL     1      -6.490   2.362  -0.692  1.00  0.00     0.069 A 
HETATM   34  C18 UNL     1      -5.406   1.525  -0.959  1.00  0.00     0.049 A 
BRANCH  33  35
HETATM   35  O3  UNL     1      -7.262   2.999  -1.624  1.00  0.00    -0.356 OA
HETATM   36  C17 UNL     1      -6.962   2.737  -2.991  1.00  0.00     0.210 C 
ENDBRANCH  33  35
ENDBRANCH   3  29
BRANCH   5  37
HETATM   37  N4  UNL     1      -5.716  -1.437  -2.159  1.00  0.00    -0.288 NA
HETATM   38  H22 UNL     1      -6.153  -1.125  -1.303  1.00  0.00     0.125 HD
HETATM   39  H23 UNL     1      -6.183  -2.213  -2.618  1.00  0.00     0.125 HD
ENDBRANCH   5  37
TORSDOF 10
