REMARK  5 active torsions:
REMARK  status: ('A' for Active; 'I' for Inactive)
REMARK    1  A    between atoms: C6_11  and  N4_12 
REMARK    2  A    between atoms: N4_12  and  C7_13 
REMARK    3  A    between atoms: C7_13  and  C8_14 
REMARK    4  A    between atoms: C15_23  and  N6_24 
REMARK    5  A    between atoms: N6_24  and  C16_25 
ROOT
HETATM    1  N1  UNL     1      -4.066  -3.352  -0.925  1.00  0.00    -0.191 NA
HETATM    2  C1  UNL     1      -2.932  -3.103  -0.903  1.00  0.00     0.103 C 
HETATM    3  C2  UNL     1      -1.525  -2.849  -0.920  1.00  0.00     0.087 A 
HETATM    4  C3  UNL     1      -0.745  -3.664  -1.728  1.00  0.00     0.113 A 
HETATM    5  N2  UNL     1       0.603  -3.607  -1.798  1.00  0.00    -0.363 N 
ATOM      6  H2  UNL     1       1.128  -4.225  -2.417  1.00  0.00     0.165 HD
HETATM    7  C4  UNL     1       1.227  -2.703  -1.020  1.00  0.00     0.060 A 
HETATM    8  C5  UNL     1       2.607  -2.616  -1.010  1.00  0.00     0.119 A 
HETATM    9  N3  UNL     1       3.348  -1.754  -0.266  1.00  0.00    -0.355 N 
ATOM     10  H3  UNL     1       4.367  -1.766  -0.302  1.00  0.00     0.166 HD
HETATM   11  C6  UNL     1       2.691  -0.886   0.518  1.00  0.00     0.081 A 
HETATM   12  C13 UNL     1       1.300  -0.904   0.593  1.00  0.00     0.058 A 
HETATM   13  C14 UNL     1       0.539  -1.816  -0.175  1.00  0.00     0.023 A 
HETATM   14  C15 UNL     1      -0.888  -1.870  -0.142  1.00  0.00     0.063 A 
ENDROOT
BRANCH  14  15
HETATM   15  N6  UNL     1      -1.552  -1.025   0.740  1.00  0.00    -0.383 N 
HETATM   16  H11 UNL     1      -1.436  -1.261   1.731  1.00  0.00     0.160 HD
BRANCH  15  17
HETATM   17  C16 UNL     1      -2.591  -0.029   0.434  1.00  0.00     0.081 C 
HETATM   18  C17 UNL     1      -2.651   0.369  -1.049  1.00  0.00     0.025 C 
HETATM   19  C18 UNL     1      -3.431   1.652  -1.369  1.00  0.00     0.002 C 
HETATM   20  C19 UNL     1      -4.244   2.280  -0.241  1.00  0.00     0.000 C 
HETATM   21  C20 UNL     1      -5.423   1.441   0.251  1.00  0.00     0.000 C 
HETATM   22  C21 UNL     1      -5.188  -0.064   0.329  1.00  0.00     0.002 C 
HETATM   23  C22 UNL     1      -3.924  -0.471   1.068  1.00  0.00     0.025 C 
ENDBRANCH  15  17
ENDBRANCH  14  15
BRANCH  11  24
HETATM   24  N4  UNL     1       3.391   0.009   1.336  1.00  0.00    -0.275 NA
HETATM   25  H3  UNL     1       2.976   0.931   1.272  1.00  0.00     0.129 HD
BRANCH  24  26
HETATM   26  C7  UNL     1       4.839   0.054   1.169  1.00  0.00     0.133 C 
BRANCH  26  27
HETATM   27  C8  UNL     1       5.248   1.082   0.152  1.00  0.00    -0.029 A 
HETATM   28  C9  UNL     1       5.543   2.400   0.517  1.00  0.00     0.011 A 
HETATM   29  C10 UNL     1       5.936   3.316  -0.457  1.00  0.00     0.018 A 
HETATM   30  C11 UNL     1       6.010   2.885  -1.770  1.00  0.00     0.087 A 
HETATM   31  N5  UNL     1       5.718   1.627  -2.165  1.00  0.00    -0.375 N 
HETATM   32  C12 UNL     1       5.341   0.757  -1.198  1.00  0.00     0.096 A 
ATOM     33  H5  UNL     1       5.778   1.346  -3.144  1.00  0.00     0.164 HD
ENDBRANCH  26  27
ENDBRANCH  24  26
ENDBRANCH  11  24
TORSDOF 5
