REMARK  8 active torsions:
REMARK  status: ('A' for Active; 'I' for Inactive)
REMARK    1  A    between atoms: C4_4  and  N1_5 
REMARK    2  A    between atoms: N1_5  and  C5_6 
REMARK    3  A    between atoms: C5_6  and  C6_7 
REMARK    4  A    between atoms: C6_7  and  N2_8 
REMARK    5  A    between atoms: C10_15  and  C11_16 
REMARK       I    between atoms: C11_16  and  N4_18 
REMARK    6  A    between atoms: N4_18  and  N5_19 
REMARK    7  A    between atoms: C12_21  and  C13_22 
REMARK    8  A    between atoms: C18_28  and  N7_29 
ROOT
HETATM    1  C1  UNL     1       1.699   2.906   3.512  1.00  0.00     0.049 C 
HETATM    2  C2  UNL     1       1.775   2.197   2.190  1.00  0.00    -0.044 A 
HETATM    3  C3  UNL     1       2.999   2.183   1.497  1.00  0.00     0.050 A 
HETATM    4  C4  UNL     1       3.115   1.551   0.265  1.00  0.00     0.081 A 
HETATM    5  N3  UNL     1       2.093   0.943  -0.346  1.00  0.00    -0.341 N 
ATOM      6  H3  UNL     1       2.188   0.502  -1.261  1.00  0.00     0.167 HD
HETATM    7  C9  UNL     1       0.930   0.955   0.332  1.00  0.00     0.089 A 
HETATM    8  S1  UNL     1      -0.436   0.210  -0.352  1.00  0.00    -0.064 SA
HETATM    9  C10 UNL     1      -1.416   0.594   0.999  1.00  0.00     0.103 A 
HETATM   10  C18 UNL     1      -0.690   1.289   1.953  1.00  0.00     0.062 A 
HETATM   11  C19 UNL     1       0.683   1.524   1.577  1.00  0.00     0.032 A 
ENDROOT
BRANCH   9  12
HETATM   12  C11 UNL     1      -2.817   0.180   1.065  1.00  0.00     0.279 C 
HETATM   13  O1  UNL     1      -3.493   0.306   2.088  1.00  0.00    -0.265 OA
HETATM   14  N4  UNL     1      -3.328  -0.365  -0.110  1.00  0.00    -0.266 N 
HETATM   15  H16 UNL     1      -2.729  -0.437  -0.924  1.00  0.00     0.190 HD
BRANCH  14  16
HETATM   16  N5  UNL     1      -4.623  -0.792  -0.170  1.00  0.00    -0.307 N 
HETATM   17  C12 UNL     1      -5.009  -1.269  -1.309  1.00  0.00     0.136 C 
ATOM     18  H5  UNL     1      -5.248  -0.738   0.634  1.00  0.00     0.186 HD
BRANCH  17  19
HETATM   19  C13 UNL     1      -6.353  -1.756  -1.511  1.00  0.00     0.050 A 
HETATM   20  C14 UNL     1      -6.868  -2.284  -2.687  1.00  0.00     0.032 A 
HETATM   21  C15 UNL     1      -8.218  -2.639  -2.464  1.00  0.00     0.019 A 
HETATM   22  C16 UNL     1      -8.507  -2.325  -1.158  1.00  0.00     0.091 A 
HETATM   23  N6  UNL     1      -7.378  -1.792  -0.584  1.00  0.00    -0.360 N 
HETATM   24  C17 UNL     1      -7.307  -1.346   0.793  1.00  0.00     0.155 C 
ENDBRANCH  17  19
ENDBRANCH  14  16
ENDBRANCH   9  12
BRANCH  10  25
HETATM   25  N7  UNL     1      -1.243   1.703   3.120  1.00  0.00    -0.397 N 
HETATM   26  H24 UNL     1      -0.680   1.900   3.939  1.00  0.00     0.156 HD
HETATM   27  H25 UNL     1      -2.180   1.367   3.368  1.00  0.00     0.156 HD
ENDBRANCH  10  25
BRANCH   4  28
HETATM   28  N1  UNL     1       4.328   1.547  -0.428  1.00  0.00    -0.277 NA
HETATM   29  H5  UNL     1       4.143   1.031  -1.295  1.00  0.00     0.129 HD
BRANCH  28  30
HETATM   30  C5  UNL     1       5.421   0.882   0.287  1.00  0.00     0.124 C 
BRANCH  30  31
HETATM   31  C6  UNL     1       6.503   0.430  -0.723  1.00  0.00     0.286 C 
BRANCH  31  32
HETATM   32  N2  UNL     1       5.978  -0.376  -1.850  1.00  0.00     0.081 N 
HETATM   33  C7  UNL     1       5.478  -1.678  -1.406  1.00  0.00     0.309 C 
HETATM   34  C8  UNL     1       7.024  -0.562  -2.859  1.00  0.00     0.309 C 
ENDBRANCH  31  32
ENDBRANCH  30  31
ENDBRANCH  28  30
ENDBRANCH   4  28
TORSDOF 8
