REMARK  13 active torsions:
REMARK  status: ('A' for Active; 'I' for Inactive)
REMARK    1  A    between atoms: N1_2  and  C3_4 
REMARK    2  A    between atoms: C3_4  and  C4_5 
REMARK    3  A    between atoms: C4_5  and  C5_6 
REMARK    4  A    between atoms: C5_6  and  N2_7 
REMARK    5  A    between atoms: C7_10  and  C8_11 
REMARK    6  A    between atoms: C17_24  and  N4_25 
REMARK    7  A    between atoms: N4_25  and  C18_26 
REMARK    8  A    between atoms: C21_29  and  P1_30 
REMARK    9  A    between atoms: P1_30  and  O3_32 
REMARK   10  A    between atoms: P1_30  and  C22_33 
REMARK   11  A    between atoms: C22_33  and  P2_34 
REMARK   12  A    between atoms: P2_34  and  O5_36 
REMARK   13  A    between atoms: P2_34  and  O6_37 
ROOT
HETATM    1  N2  UNL     1      -2.718   0.430   0.553  1.00  0.00    -0.298 N 
HETATM    2  C6  UNL     1      -3.628   1.471   0.679  1.00  0.00     0.260 A 
HETATM    3  O1  UNL     1      -4.847   1.323   0.601  1.00  0.00    -0.267 OA
HETATM    4  C7  UNL     1      -3.069   2.844   0.920  1.00  0.00     0.047 A 
HETATM    5  C14 UNL     1      -1.744   3.039   1.010  1.00  0.00     0.034 A 
HETATM    6  C15 UNL     1      -0.844   1.914   0.842  1.00  0.00     0.026 A 
HETATM    7  C16 UNL     1       0.524   2.036   0.898  1.00  0.00     0.121 A 
HETATM    8  N3  UNL     1       1.370   1.007   0.714  1.00  0.00    -0.201 N 
ATOM      9  H3  UNL     1       2.380   1.135   0.770  1.00  0.00     0.183 HD
HETATM   10  C17 UNL     1       0.835  -0.193   0.454  1.00  0.00     0.684 A 
HETATM   11  N5  UNL     1      -0.488  -0.408   0.387  1.00  0.00    -0.175 N 
ATOM     12  H5  UNL     1      -0.859  -1.337   0.185  1.00  0.00     0.186 HD
HETATM   13  C25 UNL     1      -1.314   0.640   0.594  1.00  0.00     0.137 A 
ENDROOT
BRANCH  10  14
HETATM   14  N4  UNL     1       1.633  -1.300   0.181  1.00  0.00    -0.192 N 
HETATM   15  H18 UNL     1       1.053  -2.081  -0.085  1.00  0.00     0.184 HD
BRANCH  14  16
HETATM   16  C18 UNL     1       3.013  -1.520   0.229  1.00  0.00     0.049 A 
HETATM   17  C19 UNL     1       3.546  -2.608  -0.477  1.00  0.00     0.031 A 
HETATM   18  C20 UNL     1       4.923  -2.845  -0.515  1.00  0.00     0.019 A 
HETATM   19  C21 UNL     1       5.814  -1.999   0.155  1.00  0.00     0.023 A 
HETATM   20  C23 UNL     1       5.291  -0.917   0.865  1.00  0.00     0.019 A 
HETATM   21  C24 UNL     1       3.911  -0.675   0.886  1.00  0.00     0.031 A 
BRANCH  19  22
HETATM   22  P1  UNL     1       7.542  -2.324   0.087  1.00  0.00     0.142 P 
HETATM   23  O2  UNL     1       7.974  -3.495  -0.753  1.00  0.00    -0.670 OA
BRANCH  22  24
HETATM   24  O3  UNL     1       7.940  -2.664   1.624  1.00  0.00    -0.345 OA
HETATM   25  H21 UNL     1       7.614  -3.548   1.890  1.00  0.00     0.218 HD
ENDBRANCH  22  24
BRANCH  22  26
HETATM   26  C22 UNL     1       8.525  -0.862  -0.229  1.00  0.00     0.223 C 
BRANCH  26  27
HETATM   27  P2  UNL     1       7.973   0.345  -1.402  1.00  0.00     0.245 P 
HETATM   28  O4  UNL     1       6.938   1.327  -0.967  1.00  0.00    -0.653 OA
BRANCH  27  29
HETATM   29  O5  UNL     1       9.299   1.099  -1.903  1.00  0.00    -0.329 OA
HETATM   30  H24 UNL     1       9.105   1.916  -2.397  1.00  0.00     0.220 HD
ENDBRANCH  27  29
BRANCH  27  31
HETATM   31  O6  UNL     1       7.558  -0.436  -2.733  1.00  0.00    -0.329 OA
HETATM   32  H25 UNL     1       7.085   0.115  -3.384  1.00  0.00     0.220 HD
ENDBRANCH  27  31
ENDBRANCH  26  27
ENDBRANCH  22  26
ENDBRANCH  19  22
ENDBRANCH  14  16
ENDBRANCH  10  14
BRANCH   1  33
HETATM   33  C5  UNL     1      -3.218  -0.929   0.341  1.00  0.00     0.135 C 
BRANCH  33  34
HETATM   34  C4  UNL     1      -3.433  -1.235  -1.143  1.00  0.00     0.050 C 
BRANCH  34  35
HETATM   35  C3  UNL     1      -3.794  -2.705  -1.396  1.00  0.00     0.273 C 
BRANCH  35  36
HETATM   36  N1  UNL     1      -4.946  -3.195  -0.626  1.00  0.00     0.080 N 
HETATM   37  C1  UNL     1      -6.197  -2.553  -1.035  1.00  0.00     0.309 C 
HETATM   38  C2  UNL     1      -5.068  -4.649  -0.760  1.00  0.00     0.309 C 
ENDBRANCH  35  36
ENDBRANCH  34  35
ENDBRANCH  33  34
ENDBRANCH   1  33
BRANCH   4  39
HETATM   39  C8  UNL     1      -3.980   3.998   1.045  1.00  0.00     0.023 A 
HETATM   40  C9  UNL     1      -4.394   4.713  -0.094  1.00  0.00     0.046 A 
HETATM   41 CL1  UNL     1      -3.862   4.286  -1.687  1.00  0.00    -0.083 Cl
HETATM   42  C10 UNL     1      -5.247   5.815   0.022  1.00  0.00     0.025 A 
HETATM   43  C11 UNL     1      -5.701   6.220   1.275  1.00  0.00     0.003 A 
HETATM   44  C12 UNL     1      -5.303   5.524   2.414  1.00  0.00     0.025 A 
HETATM   45  C13 UNL     1      -4.451   4.420   2.302  1.00  0.00     0.046 A 
HETATM   46 CL2  UNL     1      -3.994   3.617   3.768  1.00  0.00    -0.083 Cl
ENDBRANCH   4  39
TORSDOF 13
