REMARK  9 active torsions:
REMARK  status: ('A' for Active; 'I' for Inactive)
REMARK    1  A    between atoms: C2_2  and  O2_4 
REMARK    2  A    between atoms: O2_4  and  C3_5 
REMARK    3  A    between atoms: C3_5  and  C6_8 
REMARK    4  A    between atoms: C7_9  and  C8_10 
REMARK    5  A    between atoms: C8_10  and  C9_12 
REMARK    6  A    between atoms: C9_12  and  O4_14 
REMARK    7  A    between atoms: C9_12  and  C11_15 
REMARK    8  A    between atoms: C12_16  and  O5_17 
REMARK    9  A    between atoms: C22_27  and  O6_28 
ROOT
HETATM    1  C11 UNL     1       1.016   0.614   1.570  1.00  0.00     0.066 C 
HETATM    2  C12 UNL     1       1.779   0.929   0.257  1.00  0.00     0.127 C 
HETATM    3  C13 UNL     1       0.803   0.666  -0.915  1.00  0.00     0.042 C 
HETATM    4  C14 UNL     1      -0.568   0.389  -0.258  1.00  0.00    -0.029 C 
HETATM    5  C15 UNL     1      -1.220   1.788  -0.019  1.00  0.00     0.016 C 
HETATM    6  C16 UNL     1      -1.516  -0.546  -1.089  1.00  0.00     0.014 C 
HETATM    7  C17 UNL     1      -1.959   0.051  -2.443  1.00  0.00     0.034 C 
HETATM    8  C18 UNL     1      -3.070   1.044  -2.313  1.00  0.00    -0.022 C 
HETATM    9  C19 UNL     1      -4.062   0.907  -1.410  1.00  0.00    -0.063 C 
HETATM   10  C20 UNL     1      -4.135  -0.416  -0.646  1.00  0.00     0.034 C 
HETATM   11  C21 UNL     1      -5.167  -0.384   0.490  1.00  0.00     0.050 C 
HETATM   12  C22 UNL     1      -6.537   0.062   0.006  1.00  0.00     0.189 C 
HETATM   13  C23 UNL     1      -6.516   1.279  -0.909  1.00  0.00     0.167 C 
HETATM   14  O7  UNL     1      -7.591   1.693  -1.365  1.00  0.00    -0.294 OA
HETATM   15  C24 UNL     1      -5.169   1.964  -1.207  1.00  0.00     0.039 C 
HETATM   16  C25 UNL     1      -4.829   2.897  -0.031  1.00  0.00     0.028 C 
HETATM   17  C26 UNL     1      -5.376   2.864  -2.451  1.00  0.00     0.028 C 
HETATM   18  C27 UNL     1      -2.748  -1.111  -0.271  1.00  0.00     0.029 C 
HETATM   19  C28 UNL     1      -2.922  -2.607  -0.708  1.00  0.00     0.025 C 
HETATM   20  C29 UNL     1      -2.493  -1.207   1.271  1.00  0.00     0.137 C 
HETATM   21  O8  UNL     1      -3.211  -1.919   1.989  1.00  0.00    -0.297 OA
HETATM   22  C30 UNL     1      -1.376  -0.425   1.951  1.00  0.00     0.089 C 
HETATM   23  C31 UNL     1      -0.132  -0.332   1.072  1.00  0.00    -0.021 C 
HETATM   24  C32 UNL     1       0.440  -1.762   0.879  1.00  0.00     0.017 C 
ENDROOT
BRANCH   1  25
HETATM   25  C9  UNL     1       1.877   0.260   2.823  1.00  0.00     0.125 C 
HETATM   26  C10 UNL     1       2.669   1.487   3.319  1.00  0.00     0.055 C 
BRANCH  25  27
HETATM   27  C8  UNL     1       2.865  -0.945   2.697  1.00  0.00     0.183 C 
HETATM   28  O3  UNL     1       2.680  -2.019   3.274  1.00  0.00    -0.290 OA
BRANCH  27  29
HETATM   29  C7  UNL     1       4.084  -0.797   1.843  1.00  0.00     0.052 C 
HETATM   30  C6  UNL     1       4.709  -1.885   1.363  1.00  0.00     0.014 C 
BRANCH  30  31
HETATM   31  C3  UNL     1       5.918  -1.908   0.439  1.00  0.00     0.081 C 
HETATM   32  C4  UNL     1       7.097  -2.499   1.223  1.00  0.00     0.051 C 
HETATM   33  C5  UNL     1       5.554  -2.766  -0.780  1.00  0.00     0.051 C 
BRANCH  31  34
HETATM   34  O2  UNL     1       6.186  -0.539   0.043  1.00  0.00    -0.307 OA
BRANCH  34  35
HETATM   35  C2  UNL     1       7.220  -0.253  -0.789  1.00  0.00     0.255 C 
HETATM   36  C1  UNL     1       7.271   1.222  -1.041  1.00  0.00     0.126 C 
HETATM   37  O1  UNL     1       8.000  -1.058  -1.280  1.00  0.00    -0.266 OA
ENDBRANCH  34  35
ENDBRANCH  31  34
ENDBRANCH  30  31
ENDBRANCH  27  29
ENDBRANCH  25  27
BRANCH  25  38
HETATM   38  O4  UNL     1       0.933  -0.060   3.865  1.00  0.00    -0.382 OA
HETATM   39  H15 UNL     1       0.841   0.705   4.463  1.00  0.00     0.211 HD
ENDBRANCH  25  38
ENDBRANCH   1  25
BRANCH   2  40
HETATM   40  O5  UNL     1       2.220   2.276   0.272  1.00  0.00    -0.395 OA
HETATM   41  H18 UNL     1       2.555   2.494  -0.616  1.00  0.00     0.210 HD
ENDBRANCH   2  40
BRANCH  12  42
HETATM   42  O6  UNL     1      -7.155  -1.008  -0.715  1.00  0.00    -0.388 OA
HETATM   43  H32 UNL     1      -8.017  -0.663  -1.022  1.00  0.00     0.210 HD
ENDBRANCH  12  42
TORSDOF 9
