REMARK  6 active torsions:
REMARK  status: ('A' for Active; 'I' for Inactive)
REMARK    1  A    between atoms: O1_2  and  C2_3 
REMARK    2  A    between atoms: C3_4  and  N1_5 
REMARK       I    between atoms: N1_5  and  C5_7 
REMARK    3  A    between atoms: C5_7  and  C6_9 
REMARK    4  A    between atoms: C6_9  and  N2_10 
REMARK    5  A    between atoms: C8_12  and  N4_33 
REMARK    6  A    between atoms: C9_14  and  N3_16 
ROOT
HETATM    1  C2  UNL     1       1.542   1.093  -0.274  1.00  0.00     0.199 C 
HETATM    2  C3  UNL     1       2.465   0.085  -0.992  1.00  0.00     0.124 C 
HETATM    3  C7  UNL     1       1.728  -1.249  -1.143  1.00  0.00     0.082 C 
HETATM    4  C8  UNL     1       0.348  -1.036  -1.779  1.00  0.00     0.233 C 
HETATM    5  O3  UNL     1       0.077   0.308  -2.180  1.00  0.00    -0.333 OA
HETATM    6  C9  UNL     1       0.325   1.372  -1.222  1.00  0.00     0.168 C 
HETATM    7  C10 UNL     1       0.680   2.520  -2.198  1.00  0.00     0.074 C 
ENDROOT
BRANCH   2   8
HETATM    8  N1  UNL     1       3.840   0.007  -0.436  1.00  0.00    -0.347 N 
HETATM    9  C4  UNL     1       4.851   0.776  -1.157  1.00  0.00     0.153 C 
HETATM   10  C5  UNL     1       4.145  -0.769   0.683  1.00  0.00     0.247 C 
HETATM   11  O2  UNL     1       3.295  -1.382   1.331  1.00  0.00    -0.271 OA
BRANCH  10  12
HETATM   12  C6  UNL     1       5.614  -0.883   1.124  1.00  0.00     0.369 C 
BRANCH  12  13
HETATM   13  N2  UNL     1       6.421  -1.573   0.105  1.00  0.00     0.087 N 
HETATM   14  H11 UNL     1       6.005  -2.494  -0.054  1.00  0.00     0.313 HD
HETATM   15  H12 UNL     1       7.345  -1.757   0.495  1.00  0.00     0.313 HD
ENDBRANCH  12  13
ENDBRANCH  10  12
ENDBRANCH   2   8
BRANCH   1  16
HETATM   16  O1  UNL     1       1.098   0.502   0.957  1.00  0.00    -0.384 OA
HETATM   17  C1  UNL     1       1.498   1.223   2.113  1.00  0.00     0.202 C 
ENDBRANCH   1  16
BRANCH   6  18
HETATM   18  N3  UNL     1      -0.919   1.635  -0.476  1.00  0.00    -0.308 N 
HETATM   19  C11 UNL     1      -1.345   2.831   0.102  1.00  0.00     0.049 A 
HETATM   20  C12 UNL     1      -0.757   4.108   0.195  1.00  0.00     0.030 A 
HETATM   21  C16 UNL     1      -2.603   2.587   0.685  1.00  0.00     0.004 A 
HETATM   22  C13 UNL     1      -1.462   5.141   0.821  1.00  0.00     0.002 A 
HETATM   23  C14 UNL     1      -2.720   4.921   1.363  1.00  0.00     0.001 A 
HETATM   24  C15 UNL     1      -3.293   3.650   1.309  1.00  0.00     0.014 A 
HETATM   25  C17 UNL     1      -2.884   1.200   0.546  1.00  0.00     0.015 A 
HETATM   26  C18 UNL     1      -3.892   0.311   0.953  1.00  0.00    -0.010 A 
HETATM   27  C28 UNL     1      -1.820   0.656  -0.142  1.00  0.00     0.077 A 
HETATM   28  C19 UNL     1      -3.809  -1.094   0.702  1.00  0.00     0.054 A 
HETATM   29  C30 UNL     1      -5.153   0.601   1.712  1.00  0.00     0.163 A 
HETATM   30  C20 UNL     1      -2.748  -1.730   0.039  1.00  0.00     0.022 A 
HETATM   31  C29 UNL     1      -5.015  -1.707   1.279  1.00  0.00     0.253 A 
HETATM   32  C21 UNL     1      -2.345  -3.047  -0.341  1.00  0.00     0.004 A 
HETATM   33  C27 UNL     1      -1.748  -0.879  -0.405  1.00  0.00     0.077 A 
HETATM   34  C22 UNL     1      -2.901  -4.335  -0.181  1.00  0.00     0.014 A 
HETATM   35  C26 UNL     1      -1.115  -2.938  -1.012  1.00  0.00     0.048 A 
HETATM   36  C23 UNL     1      -2.233  -5.458  -0.680  1.00  0.00     0.001 A 
HETATM   37  C24 UNL     1      -1.018  -5.322  -1.339  1.00  0.00     0.002 A 
HETATM   38  C25 UNL     1      -0.440  -4.064  -1.517  1.00  0.00     0.030 A 
HETATM   39  N4  UNL     1      -0.786  -1.591  -1.051  1.00  0.00    -0.316 N 
HETATM   40  O4  UNL     1      -5.334  -2.878   1.279  1.00  0.00    -0.268 OA
HETATM   41  N5  UNL     1      -5.759  -0.694   1.843  1.00  0.00    -0.353 N 
HETATM   42  H27 UNL     1      -6.633  -0.892   2.310  1.00  0.00     0.163 HD
ENDBRANCH   6  18
TORSDOF 6
