REMARK  7 active torsions:
REMARK  status: ('A' for Active; 'I' for Inactive)
REMARK    1  A    between atoms: O1_2  and  C2_3 
REMARK    2  A    between atoms: C2_3  and  C3_4 
REMARK       I    between atoms: C3_4  and  N1_6 
REMARK    3  A    between atoms: C7_10  and  C8_11 
REMARK    4  A    between atoms: C13_18  and  C14_19 
REMARK       I    between atoms: C14_19  and  N3_21 
REMARK    5  A    between atoms: N3_21  and  C15_22 
REMARK    6  A    between atoms: C17_24  and  C18_25 
REMARK    7  A    between atoms: C24_37  and  N5_38 
ROOT
HETATM    1  C8  UNL     1      -2.330  -0.326  -1.404  1.00  0.00     0.094 A 
HETATM    2  N2  UNL     1      -1.185   0.143  -0.938  1.00  0.00    -0.342 N 
ATOM      3  H2  UNL     1      -1.002   1.084  -0.590  1.00  0.00     0.167 HD
HETATM    4  C9  UNL     1      -0.292  -0.899  -1.019  1.00  0.00     0.077 A 
HETATM    5  C10 UNL     1       1.071  -0.778  -0.563  1.00  0.00     0.032 A 
HETATM    6  C11 UNL     1       1.962   0.050  -1.256  1.00  0.00     0.018 A 
HETATM    7  C12 UNL     1       3.284   0.184  -0.817  1.00  0.00     0.018 A 
HETATM    8  C13 UNL     1       3.718  -0.488   0.337  1.00  0.00     0.035 A 
HETATM    9  C21 UNL     1       2.824  -1.320   1.024  1.00  0.00     0.060 A 
HETATM   10  C22 UNL     1       1.513  -1.455   0.575  1.00  0.00     0.130 A 
HETATM   11  F4  UNL     1       0.675  -2.241   1.270  1.00  0.00    -0.205 F 
HETATM   12  C23 UNL     1      -0.878  -2.001  -1.599  1.00  0.00     0.106 A 
HETATM   13  C24 UNL     1      -0.453  -3.330  -1.972  1.00  0.00     0.107 A 
HETATM   14  N6  UNL     1      -1.316  -4.173  -2.492  1.00  0.00    -0.354 N 
ATOM     15  H6  UNL     1      -1.023  -5.112  -2.763  1.00  0.00     0.166 HD
HETATM   16  C25 UNL     1      -2.625  -3.771  -2.666  1.00  0.00     0.107 A 
HETATM   17  C26 UNL     1      -3.079  -2.547  -2.357  1.00  0.00     0.116 A 
HETATM   18  N7  UNL     1      -2.188  -1.637  -1.818  1.00  0.00    -0.305 N 
ENDROOT
BRANCH   1  19
HETATM   19  C7  UNL     1      -3.637   0.422  -1.440  1.00  0.00     0.072 C 
HETATM   20  C6  UNL     1      -3.423   1.949  -1.564  1.00  0.00     0.015 C 
HETATM   21  C5  UNL     1      -3.660   2.669  -0.237  1.00  0.00     0.021 C 
HETATM   22  C4  UNL     1      -5.085   2.419   0.259  1.00  0.00     0.126 C 
HETATM   23  N1  UNL     1      -5.514   1.032   0.075  1.00  0.00    -0.350 N 
HETATM   24  C3  UNL     1      -6.827   0.593   0.237  1.00  0.00     0.243 C 
HETATM   25  C27 UNL     1      -4.462   0.055  -0.191  1.00  0.00     0.138 C 
HETATM   26  O2  UNL     1      -7.148  -0.578   0.028  1.00  0.00    -0.271 OA
BRANCH  24  27
HETATM   27  C2  UNL     1      -7.860   1.649   0.692  1.00  0.00     0.269 C 
BRANCH  27  28
HETATM   28  O1  UNL     1      -9.191   1.207   0.917  1.00  0.00    -0.387 OA
HETATM   29  C1  UNL     1      -9.317   0.413   2.089  1.00  0.00     0.202 C 
ENDBRANCH  27  28
ENDBRANCH  24  27
ENDBRANCH   1  19
BRANCH  13  30
HETATM   30  N5  UNL     1       0.827  -3.788  -1.844  1.00  0.00    -0.287 NA
HETATM   31  H20 UNL     1       0.970  -4.643  -2.370  1.00  0.00     0.125 HD
HETATM   32  H21 UNL     1       1.562  -3.105  -1.976  1.00  0.00     0.125 HD
ENDBRANCH  13  30
BRANCH   8  33
HETATM   33  C14 UNL     1       5.110  -0.366   0.868  1.00  0.00     0.257 C 
HETATM   34  O3  UNL     1       5.534  -1.253   1.603  1.00  0.00    -0.267 OA
HETATM   35  N3  UNL     1       5.788   0.776   0.515  1.00  0.00    -0.309 N 
HETATM   36  H15 UNL     1       5.316   1.523   0.025  1.00  0.00     0.170 HD
BRANCH  35  37
HETATM   37  C15 UNL     1       7.095   1.141   0.842  1.00  0.00     0.108 A 
HETATM   38  C16 UNL     1       7.983   0.341   1.547  1.00  0.00     0.064 A 
HETATM   39  C17 UNL     1       9.275   0.821   1.806  1.00  0.00     0.052 A 
HETATM   40  C19 UNL     1       9.619   2.095   1.350  1.00  0.00     0.033 A 
HETATM   41  C20 UNL     1       8.669   2.824   0.656  1.00  0.00     0.090 A 
HETATM   42  N4  UNL     1       7.426   2.370   0.391  1.00  0.00    -0.352 N 
ATOM     43  H4  UNL     1       6.759   2.936  -0.133  1.00  0.00     0.166 HD
BRANCH  39  44
HETATM   44  C18 UNL     1      10.264   0.006   2.596  1.00  0.00     0.417 C 
HETATM   45  F1  UNL     1      10.389   0.455   3.876  1.00  0.00    -0.166 F 
HETATM   46  F2  UNL     1      11.517   0.050   2.061  1.00  0.00    -0.166 F 
HETATM   47  F3  UNL     1       9.944  -1.313   2.687  1.00  0.00    -0.166 F 
ENDBRANCH  39  44
ENDBRANCH  35  37
ENDBRANCH   8  33
TORSDOF 7
