REMARK  3 active torsions:
REMARK  status: ('A' for Active; 'I' for Inactive)
REMARK    1  A    between atoms: O1_1  and  C1_2 
REMARK    2  A    between atoms: C5_6  and  N1_7 
REMARK    3  A    between atoms: N1_7  and  C6_8 
ROOT
HETATM    1  C6  UNL     1       0.103  -1.152  -0.236  1.00  0.00     0.135 A 
HETATM    2  N2  UNL     1       0.758  -2.328  -0.438  1.00  0.00    -0.270 N 
ATOM      3  H2  UNL     1       1.778  -2.319  -0.446  1.00  0.00     0.190 HD
HETATM    4  N3  UNL     1       0.136  -3.485  -0.625  1.00  0.00    -0.240 N 
ATOM      5  H3  UNL     1       0.698  -4.324  -0.767  1.00  0.00     0.208 HD
HETATM    6  N4  UNL     1      -1.118  -3.592  -0.635  1.00  0.00    -0.279 N 
ATOM      7  H4  UNL     1      -1.571  -4.494  -0.785  1.00  0.00     0.189 HD
HETATM    8  C7  UNL     1      -1.835  -2.480  -0.442  1.00  0.00     0.105 A 
HETATM    9  S1  UNL     1      -3.552  -2.514  -0.440  1.00  0.00    -0.074 SA
HETATM   10  C8  UNL     1      -3.596  -0.868  -0.158  1.00  0.00    -0.008 A 
HETATM   11  C9  UNL     1      -2.362  -0.281  -0.061  1.00  0.00    -0.028 A 
HETATM   12  C10 UNL     1      -1.301  -1.216  -0.232  1.00  0.00     0.052 A 
HETATM   13  C11 UNL     1      -2.495   1.177   0.192  1.00  0.00     0.041 C 
HETATM   14  C12 UNL     1      -4.001   1.319   0.575  1.00  0.00     0.010 C 
HETATM   15  C13 UNL     1      -4.733   0.067   0.004  1.00  0.00     0.047 C 
ENDROOT
BRANCH   1  16
HETATM   16  N1  UNL     1       0.781   0.064  -0.049  1.00  0.00    -0.341 N 
HETATM   17  H5  UNL     1       0.161   0.854   0.052  1.00  0.00     0.167 HD
BRANCH  16  18
HETATM   18  C5  UNL     1       2.147   0.396   0.005  1.00  0.00     0.036 A 
HETATM   19  C4  UNL     1       2.496   1.751   0.164  1.00  0.00     0.029 A 
HETATM   20  C3  UNL     1       3.832   2.159   0.225  1.00  0.00     0.005 A 
HETATM   21  C2  UNL     1       4.848   1.216   0.127  1.00  0.00     0.036 A 
HETATM   22  C1  UNL     1       4.518  -0.122  -0.030  1.00  0.00     0.067 A 
HETATM   23  C14 UNL     1       3.186  -0.536  -0.091  1.00  0.00     0.066 A 
BRANCH  22  24
HETATM   24  O1  UNL     1       5.542  -1.020  -0.123  1.00  0.00    -0.361 OA
HETATM   25  H1  UNL     1       5.162  -1.908  -0.237  1.00  0.00     0.217 HD
ENDBRANCH  22  24
ENDBRANCH  16  18
ENDBRANCH   1  16
TORSDOF 3
