REMARK  3 active torsions:
REMARK  status: ('A' for Active; 'I' for Inactive)
REMARK    1  A    between atoms: C4_4  and  C5_5 
REMARK    2  A    between atoms: N2_8  and  C6_9 
REMARK    3  A    between atoms: C12_15  and  C13_16 
ROOT
HETATM    1  C5  UNL     1       1.853  -0.719  -0.030  1.00  0.00     0.038 C 
HETATM    2  N1  UNL     1       1.559   0.322  -0.748  1.00  0.00    -0.301 N 
ATOM      3  H1  UNL     1       2.034   0.618  -1.601  1.00  0.00     0.187 HD
HETATM    4  N2  UNL     1       0.493   0.954  -0.153  1.00  0.00    -0.283 N 
HETATM    5  C12 UNL     1       0.186   0.377   1.161  1.00  0.00     0.148 C 
HETATM    6  C23 UNL     1       0.991  -0.924   1.180  1.00  0.00     0.091 C 
ENDROOT
BRANCH   5   7
HETATM    7  C13 UNL     1      -1.288   0.121   1.464  1.00  0.00    -0.022 A 
HETATM    8  C14 UNL     1      -1.723   0.481   2.760  1.00  0.00     0.010 A 
HETATM    9  C15 UNL     1      -3.036   0.275   3.166  1.00  0.00     0.002 A 
HETATM   10  C16 UNL     1      -3.943  -0.308   2.291  1.00  0.00     0.012 A 
HETATM   11  C17 UNL     1      -3.554  -0.695   1.002  1.00  0.00    -0.025 A 
HETATM   12  C18 UNL     1      -4.500  -1.292   0.152  1.00  0.00     0.012 A 
HETATM   13  C22 UNL     1      -2.217  -0.489   0.563  1.00  0.00    -0.018 A 
HETATM   14  C19 UNL     1      -4.158  -1.698  -1.135  1.00  0.00     0.001 A 
HETATM   15  C20 UNL     1      -2.862  -1.510  -1.587  1.00  0.00     0.001 A 
HETATM   16  C21 UNL     1      -1.910  -0.918  -0.752  1.00  0.00     0.013 A 
ENDBRANCH   5   7
BRANCH   4  17
HETATM   17  C6  UNL     1       0.224   2.280  -0.518  1.00  0.00     0.051 A 
HETATM   18  C7  UNL     1       0.723   2.800  -1.727  1.00  0.00     0.031 A 
HETATM   19  C8  UNL     1       0.468   4.114  -2.135  1.00  0.00     0.002 A 
HETATM   20  C9  UNL     1      -0.307   4.948  -1.339  1.00  0.00     0.000 A 
HETATM   21  C10 UNL     1      -0.824   4.463  -0.144  1.00  0.00     0.002 A 
HETATM   22  C11 UNL     1      -0.563   3.146   0.257  1.00  0.00     0.031 A 
ENDBRANCH   4  17
BRANCH   1  23
HETATM   23  C4  UNL     1       2.949  -1.655  -0.372  1.00  0.00    -0.012 A 
HETATM   24  C3  UNL     1       3.776  -1.361  -1.464  1.00  0.00     0.013 A 
HETATM   25  C2  UNL     1       4.818  -2.223  -1.810  1.00  0.00     0.001 A 
HETATM   26  C1  UNL     1       5.038  -3.383  -1.069  1.00  0.00     0.000 A 
HETATM   27  C25 UNL     1       4.216  -3.683   0.017  1.00  0.00     0.001 A 
HETATM   28  C24 UNL     1       3.172  -2.822   0.367  1.00  0.00     0.013 A 
ENDBRANCH   1  23
TORSDOF 3
