REMARK  0 active torsions:
REMARK  status: ('A' for Active; 'I' for Inactive)
ROOT
HETATM    1 CL1  UNL     1       0.687   0.000   0.000  1.00  0.00    -0.194 Cl
HETATM    2 CL2  UNL     1       4.992  -2.573  -0.590  1.00  0.00    -0.085 Cl
HETATM    3  C1  UNL     1       3.793  -1.330  -0.204  1.00  0.00     0.034 A 
HETATM    4  C2  UNL     1       4.006  -0.406   0.801  1.00  0.00     0.023 A 
HETATM    5  C3  UNL     1       3.064   0.577   1.113  1.00  0.00     0.002 A 
HETATM    6  C4  UNL     1       1.882   0.601   0.369  1.00  0.00     0.023 A 
HETATM    7  C5  UNL     1       1.689  -0.330  -0.631  1.00  0.00     0.131 A 
HETATM    8  N1  UNL     1       0.486  -0.306  -1.392  1.00  0.00    -0.351 N 
HETATM    9  C6  UNL     1      -0.567   0.623  -1.155  1.00  0.00     0.096 A 
HETATM   10  N2  UNL     1      -0.615   1.842  -1.730  1.00  0.00    -0.341 N 
ATOM     11  H2  UNL     1       0.126   2.140  -2.364  1.00  0.00     0.167 HD
HETATM   12  C7  UNL     1      -1.664   2.675  -1.457  1.00  0.00     0.182 A 
HETATM   13  N3  UNL     1      -2.655   2.270  -0.607  1.00  0.00    -0.355 N 
ATOM     14  H3  UNL     1      -3.436   2.895  -0.407  1.00  0.00     0.166 HD
HETATM   15  C8  UNL     1      -2.609   1.052  -0.031  1.00  0.00     0.028 A 
HETATM   16  C9  UNL     1      -3.617   0.623   0.840  1.00  0.00     0.026 A 
HETATM   17  C10 UNL     1      -3.561  -0.632   1.426  1.00  0.00     0.002 A 
HETATM   18  C11 UNL     1      -2.514  -1.491   1.169  1.00  0.00    -0.003 A 
HETATM   19  C12 UNL     1      -1.510  -1.066   0.302  1.00  0.00    -0.005 A 
HETATM   20  C13 UNL     1      -1.569   0.184  -0.281  1.00  0.00     0.081 A 
HETATM   21  C14 UNL     1       2.619  -1.306  -0.943  1.00  0.00     0.047 A 
HETATM   22  H1  UNL     1      -0.687   0.000   0.000  1.00  0.00     0.161 HD
HETATM   23  H5  UNL     1       0.320  -0.985  -2.176  1.00  0.00     0.163 HD
ENDROOT
TORSDOF 0
