REMARK  9 active torsions:
REMARK  status: ('A' for Active; 'I' for Inactive)
REMARK    1  A    between atoms: N1_1  and  C1_2 
REMARK    2  A    between atoms: C3_8  and  N4_9 
REMARK    3  A    between atoms: N4_9  and  C4_10 
REMARK    4  A    between atoms: N6_18  and  C10_19 
REMARK    5  A    between atoms: C10_19  and  C11_20 
REMARK    6  A    between atoms: C18_28  and  C19_29 
REMARK    7  A    between atoms: N7_30  and  O1_32 
REMARK    8  A    between atoms: O1_32  and  C20_33 
REMARK    9  A    between atoms: C20_33  and  C21_34 
ROOT
HETATM    1  C1  UNL     1      -3.558   2.700   0.785  1.00  0.00     0.094 A 
HETATM    2  N2  UNL     1      -3.254   3.471   1.836  1.00  0.00    -0.342 N 
ATOM      3  H2  UNL     1      -3.899   4.181   2.184  1.00  0.00     0.167 HD
HETATM    4  C2  UNL     1      -2.063   3.264   2.407  1.00  0.00     0.183 A 
HETATM    5  N3  UNL     1      -1.149   2.365   2.022  1.00  0.00    -0.338 N 
ATOM      6  H3  UNL     1      -0.259   2.271   2.512  1.00  0.00     0.168 HD
HETATM    7  C3  UNL     1      -1.450   1.589   0.963  1.00  0.00     0.121 A 
HETATM    8  C18 UNL     1      -2.670   1.743   0.302  1.00  0.00     0.063 A 
ENDROOT
BRANCH   7   9
HETATM    9  N4  UNL     1      -0.497   0.669   0.462  1.00  0.00    -0.342 N 
HETATM   10  H4  UNL     1      -0.971  -0.121   0.016  1.00  0.00     0.167 HD
BRANCH   9  11
HETATM   11  C4  UNL     1       0.819   0.359   0.862  1.00  0.00     0.034 A 
HETATM   12  C5  UNL     1       1.406  -0.811   0.350  1.00  0.00     0.032 A 
HETATM   13  C6  UNL     1       2.724  -1.188   0.645  1.00  0.00     0.034 A 
HETATM   14  C7  UNL     1       3.464  -0.335   1.470  1.00  0.00     0.062 A 
HETATM   15  C8  UNL     1       2.930   0.844   1.979  1.00  0.00     0.011 A 
HETATM   16  N6  UNL     1       4.756  -0.380   1.943  1.00  0.00    -0.288 N 
HETATM   17  C9  UNL     1       3.974   1.411   2.740  1.00  0.00     0.121 A 
HETATM   18  C17 UNL     1       1.604   1.201   1.662  1.00  0.00     0.044 A 
HETATM   19  N5  UNL     1       5.082   0.667   2.737  1.00  0.00    -0.308 N 
ATOM     20  H5  UNL     1       5.964   0.845   3.218  1.00  0.00     0.186 HD
BRANCH  16  21
HETATM   21  C10 UNL     1       5.743  -1.424   1.698  1.00  0.00     0.187 C 
BRANCH  21  22
HETATM   22  C11 UNL     1       6.410  -1.268   0.352  1.00  0.00    -0.035 A 
HETATM   23  C12 UNL     1       6.247  -2.242  -0.647  1.00  0.00     0.009 A 
HETATM   24  C13 UNL     1       6.867  -2.095  -1.893  1.00  0.00     0.004 A 
HETATM   25  C14 UNL     1       7.657  -0.975  -2.151  1.00  0.00     0.042 A 
HETATM   26  C15 UNL     1       7.824  -0.013  -1.164  1.00  0.00     0.117 A 
HETATM   27  F1  UNL     1       8.584   1.062  -1.414  1.00  0.00    -0.206 F 
HETATM   28  C16 UNL     1       7.213  -0.148   0.079  1.00  0.00     0.051 A 
ENDBRANCH  21  22
ENDBRANCH  16  21
ENDBRANCH   9  11
ENDBRANCH   7   9
BRANCH   8  29
HETATM   29  C19 UNL     1      -3.052   0.906  -0.842  1.00  0.00     0.132 C 
HETATM   30  N7  UNL     1      -2.645  -0.321  -0.962  1.00  0.00    -0.277 N 
ATOM     31  H7  UNL     1      -1.999  -0.801  -0.335  1.00  0.00     0.193 HD
BRANCH  30  32
HETATM   32  O1  UNL     1      -3.250  -0.876  -2.107  1.00  0.00    -0.276 OA
BRANCH  32  33
HETATM   33  C20 UNL     1      -4.132  -1.940  -1.717  1.00  0.00     0.239 C 
BRANCH  33  34
HETATM   34  C21 UNL     1      -5.431  -1.362  -1.203  1.00  0.00    -0.032 A 
HETATM   35  C22 UNL     1      -5.699  -1.325   0.174  1.00  0.00     0.009 A 
HETATM   36  C23 UNL     1      -6.870  -0.733   0.650  1.00  0.00     0.001 A 
HETATM   37  C24 UNL     1      -7.782  -0.173  -0.243  1.00  0.00     0.000 A 
HETATM   38  C25 UNL     1      -7.525  -0.202  -1.614  1.00  0.00     0.001 A 
HETATM   39  C26 UNL     1      -6.354  -0.792  -2.092  1.00  0.00     0.009 A 
ENDBRANCH  33  34
ENDBRANCH  32  33
ENDBRANCH  30  32
ENDBRANCH   8  29
BRANCH   1  40
HETATM   40  N1  UNL     1      -4.832   2.909   0.237  1.00  0.00    -0.288 NA
HETATM   41  H1  UNL     1      -4.774   3.214  -0.730  1.00  0.00     0.125 HD
HETATM   42  H2  UNL     1      -5.387   2.055   0.273  1.00  0.00     0.125 HD
ENDBRANCH   1  40
TORSDOF 9
