REMARK  6 active torsions:
REMARK  status: ('A' for Active; 'I' for Inactive)
REMARK    1  A    between atoms: C5_6  and  N1_7 
REMARK    2  A    between atoms: N1_7  and  C6_8 
REMARK    3  A    between atoms: C11_17  and  N4_18 
REMARK    4  A    between atoms: N4_18  and  N5_19 
REMARK    5  A    between atoms: N6_21  and  C12_23 
REMARK    6  A    between atoms: C12_23  and  C13_24 
ROOT
HETATM    1  C6  UNL     1      -3.061   0.944  -0.911  1.00  0.00     0.119 A 
HETATM    2  N2  UNL     1      -3.960   1.760  -1.490  1.00  0.00    -0.338 N 
ATOM      3  H2  UNL     1      -4.887   1.903  -1.090  1.00  0.00     0.168 HD
HETATM    4  C7  UNL     1      -3.581   2.374  -2.614  1.00  0.00     0.182 A 
HETATM    5  N3  UNL     1      -2.395   2.254  -3.218  1.00  0.00    -0.352 N 
ATOM      6  H3  UNL     1      -2.174   2.766  -4.072  1.00  0.00     0.166 HD
HETATM    7  C8  UNL     1      -1.514   1.430  -2.647  1.00  0.00     0.047 A 
HETATM    8  C9  UNL     1      -0.277   1.259  -3.251  1.00  0.00     0.033 A 
HETATM    9  C10 UNL     1       0.697   0.408  -2.718  1.00  0.00     0.033 A 
HETATM   10  C11 UNL     1       0.462  -0.293  -1.536  1.00  0.00     0.050 A 
HETATM   11  C19 UNL     1      -0.795  -0.149  -0.937  1.00  0.00     0.048 A 
HETATM   12  C20 UNL     1      -1.785   0.724  -1.469  1.00  0.00     0.037 A 
ENDROOT
BRANCH  10  13
HETATM   13  N4  UNL     1       1.381  -1.212  -1.002  1.00  0.00    -0.287 N 
HETATM   14  H8  UNL     1       1.262  -1.440  -0.020  1.00  0.00     0.188 HD
BRANCH  13  15
HETATM   15  N5  UNL     1       2.662  -1.168  -1.411  1.00  0.00    -0.246 N 
HETATM   16  N6  UNL     1       3.317  -1.746  -0.525  1.00  0.00    -0.318 N 
ATOM     17  H6  UNL     1       2.902  -2.151   0.314  1.00  0.00     0.182 HD
ATOM     18  H5  UNL     1       3.021  -0.748  -2.268  1.00  0.00     0.208 HD
BRANCH  16  19
HETATM   19  C12 UNL     1       4.757  -1.780  -0.824  1.00  0.00     0.179 C 
BRANCH  19  20
HETATM   20  C13 UNL     1       5.560  -1.070   0.238  1.00  0.00    -0.039 A 
HETATM   21  C14 UNL     1       5.677   0.327   0.218  1.00  0.00     0.009 A 
HETATM   22  C15 UNL     1       6.408   0.990   1.206  1.00  0.00     0.001 A 
HETATM   23  C16 UNL     1       7.020   0.264   2.226  1.00  0.00     0.000 A 
HETATM   24  C17 UNL     1       6.900  -1.124   2.263  1.00  0.00     0.001 A 
HETATM   25  C18 UNL     1       6.170  -1.789   1.276  1.00  0.00     0.009 A 
ENDBRANCH  19  20
ENDBRANCH  16  19
ENDBRANCH  13  15
ENDBRANCH  10  13
BRANCH   1  26
HETATM   26  N1  UNL     1      -3.393   0.300   0.314  1.00  0.00    -0.342 N 
HETATM   27  H4  UNL     1      -2.681   0.528   1.001  1.00  0.00     0.167 HD
BRANCH  26  28
HETATM   28  C5  UNL     1      -4.665   0.165   0.918  1.00  0.00     0.034 A 
HETATM   29  C4  UNL     1      -4.738  -0.052   2.304  1.00  0.00     0.029 A 
HETATM   30  C3  UNL     1      -5.965  -0.254   2.943  1.00  0.00     0.004 A 
HETATM   31  C2  UNL     1      -7.141  -0.268   2.198  1.00  0.00     0.019 A 
HETATM   32  C1  UNL     1      -7.079  -0.093   0.818  1.00  0.00     0.013 A 
HETATM   33 BR1  UNL     1      -8.671  -0.141  -0.204  1.00  0.00    -0.051 Br
HETATM   34  C21 UNL     1      -5.853   0.107   0.179  1.00  0.00     0.048 A 
ENDBRANCH  26  28
ENDBRANCH   1  26
TORSDOF 6
