REMARK  3 active torsions:
REMARK  status: ('A' for Active; 'I' for Inactive)
REMARK    1  A    between atoms: C4_5  and  C5_6 
REMARK    2  A    between atoms: N2_9  and  C6_10 
REMARK    3  A    between atoms: C12_16  and  C13_17 
ROOT
HETATM    1  C5  UNL     1       1.962   0.392   0.046  1.00  0.00     0.038 C 
HETATM    2  N1  UNL     1       1.336   1.458   0.442  1.00  0.00    -0.301 N 
ATOM      3  H1  UNL     1       1.732   2.225   0.986  1.00  0.00     0.187 HD
HETATM    4  N2  UNL     1       0.049   1.363  -0.004  1.00  0.00    -0.283 N 
HETATM    5  C12 UNL     1      -0.233   0.097  -0.693  1.00  0.00     0.148 C 
HETATM    6  C23 UNL     1       1.151  -0.548  -0.801  1.00  0.00     0.091 C 
ENDROOT
BRANCH   5   7
HETATM    7  C13 UNL     1      -1.197  -0.825   0.054  1.00  0.00    -0.022 A 
HETATM    8  C14 UNL     1      -1.356  -0.688   1.448  1.00  0.00     0.010 A 
HETATM    9  C15 UNL     1      -2.213  -1.518   2.161  1.00  0.00     0.002 A 
HETATM   10  C16 UNL     1      -2.922  -2.513   1.497  1.00  0.00     0.012 A 
HETATM   11  C17 UNL     1      -2.780  -2.697   0.116  1.00  0.00    -0.025 A 
HETATM   12  C18 UNL     1      -3.501  -3.720  -0.524  1.00  0.00     0.012 A 
HETATM   13  C22 UNL     1      -1.909  -1.859  -0.630  1.00  0.00    -0.018 A 
HETATM   14  C19 UNL     1      -3.377  -3.939  -1.893  1.00  0.00     0.001 A 
HETATM   15  C20 UNL     1      -2.527  -3.138  -2.641  1.00  0.00     0.001 A 
HETATM   16  C21 UNL     1      -1.804  -2.115  -2.020  1.00  0.00     0.013 A 
ENDBRANCH   5   7
BRANCH   4  17
HETATM   17  C6  UNL     1      -0.793   2.477   0.004  1.00  0.00     0.051 A 
HETATM   18  C7  UNL     1      -0.367   3.696   0.562  1.00  0.00     0.031 A 
HETATM   19  C8  UNL     1      -1.190   4.827   0.588  1.00  0.00     0.002 A 
HETATM   20  C9  UNL     1      -2.472   4.765   0.056  1.00  0.00     0.000 A 
HETATM   21  C10 UNL     1      -2.926   3.572  -0.496  1.00  0.00     0.002 A 
HETATM   22  C11 UNL     1      -2.095   2.445  -0.519  1.00  0.00     0.031 A 
ENDBRANCH   4  17
BRANCH   1  23
HETATM   23  C4  UNL     1       3.384   0.126   0.367  1.00  0.00    -0.012 A 
HETATM   24  C3  UNL     1       4.051  -0.997  -0.136  1.00  0.00     0.015 A 
HETATM   25  C2  UNL     1       5.394  -1.219   0.188  1.00  0.00     0.020 A 
HETATM   26  C1  UNL     1       6.068  -0.318   1.012  1.00  0.00     0.011 A 
HETATM   27 BR1  UNL     1       7.882  -0.621   1.446  1.00  0.00    -0.051 Br
HETATM   28  C25 UNL     1       5.413   0.803   1.517  1.00  0.00     0.020 A 
HETATM   29  C24 UNL     1       4.072   1.025   1.194  1.00  0.00     0.015 A 
ENDBRANCH   1  23
TORSDOF 3
