REMARK  5 active torsions:
REMARK  status: ('A' for Active; 'I' for Inactive)
REMARK    1  A    between atoms: C3_4  and  N1_5 
REMARK    2  A    between atoms: N1_5  and  C4_6 
REMARK    3  A    between atoms: C15_24  and  O1_25 
REMARK    4  A    between atoms: O1_25  and  C16_26 
REMARK    5  A    between atoms: C16_26  and  C17_27 
ROOT
HETATM    1  N1  UNL     1      -2.106   0.198   0.086  1.00  0.00    -0.342 N 
HETATM    2  H2  UNL     1      -2.531  -0.288  -0.689  1.00  0.00     0.167 HD
ENDROOT
BRANCH   1   3
HETATM    3  C3  UNL     1      -0.702   0.132   0.110  1.00  0.00     0.035 A 
HETATM    4  C2  UNL     1       0.085   0.742   1.089  1.00  0.00     0.056 A 
HETATM    5  C1  UNL     1       1.481   0.626   1.070  1.00  0.00     0.069 A 
HETATM    6 CL1  UNL     1       2.374   1.420   2.324  1.00  0.00    -0.081 Cl
HETATM    7  C15 UNL     1       2.131  -0.113   0.072  1.00  0.00     0.091 A 
HETATM    8  C14 UNL     1       1.352  -0.739  -0.901  1.00  0.00     0.041 A 
HETATM    9  C13 UNL     1      -0.045  -0.620  -0.875  1.00  0.00     0.032 A 
BRANCH   7  10
HETATM   10  O1  UNL     1       3.498  -0.170   0.133  1.00  0.00    -0.345 OA
BRANCH  10  11
HETATM   11  C16 UNL     1       4.184  -0.884  -0.890  1.00  0.00     0.214 C 
BRANCH  11  12
HETATM   12  C17 UNL     1       5.665  -0.784  -0.623  1.00  0.00    -0.034 A 
HETATM   13  C18 UNL     1       6.304  -1.720   0.203  1.00  0.00     0.009 A 
HETATM   14  C19 UNL     1       7.673  -1.619   0.459  1.00  0.00     0.001 A 
HETATM   15  C20 UNL     1       8.413  -0.578  -0.098  1.00  0.00     0.000 A 
HETATM   16  C21 UNL     1       7.785   0.367  -0.908  1.00  0.00     0.001 A 
HETATM   17  C22 UNL     1       6.417   0.268  -1.166  1.00  0.00     0.009 A 
ENDBRANCH  11  12
ENDBRANCH  10  11
ENDBRANCH   7  10
ENDBRANCH   1   3
BRANCH   1  18
HETATM   18  C4  UNL     1      -2.999   1.070   0.721  1.00  0.00     0.123 A 
HETATM   19  N2  UNL     1      -2.576   2.158   1.432  1.00  0.00    -0.338 N 
HETATM   20  C5  UNL     1      -3.481   3.032   1.969  1.00  0.00     0.183 A 
ATOM     21  H2  UNL     1      -1.577   2.320   1.563  1.00  0.00     0.168 HD
HETATM   22  N3  UNL     1      -4.832   3.020   1.920  1.00  0.00    -0.337 N 
HETATM   23  C6  UNL     1      -5.281   1.943   1.237  1.00  0.00     0.137 A 
ATOM     24  H3  UNL     1      -5.432   3.729   2.342  1.00  0.00     0.168 HD
HETATM   25  N4  UNL     1      -6.558   1.646   1.015  1.00  0.00    -0.278 N 
HETATM   26  C12 UNL     1      -4.400   0.990   0.660  1.00  0.00     0.082 A 
HETATM   27  N5  UNL     1      -6.527   0.484   0.320  1.00  0.00    -0.265 N 
ATOM     28  H4  UNL     1      -7.380   2.176   1.304  1.00  0.00     0.189 HD
HETATM   29  C7  UNL     1      -7.640  -0.217  -0.151  1.00  0.00     0.116 A 
HETATM   30  C11 UNL     1      -5.212   0.026   0.107  1.00  0.00     0.073 A 
HETATM   31  C8  UNL     1      -7.485  -1.375  -0.810  1.00  0.00     0.019 A 
HETATM   32  C9  UNL     1      -6.144  -1.894  -0.998  1.00  0.00     0.004 A 
HETATM   33  C10 UNL     1      -5.059  -1.230  -0.557  1.00  0.00     0.032 A 
ENDBRANCH   1  18
TORSDOF 5
