REMARK  7 active torsions:
REMARK  status: ('A' for Active; 'I' for Inactive)
REMARK    1  A    between atoms: N1_1  and  C1_2 
REMARK    2  A    between atoms: C3_8  and  N4_9 
REMARK    3  A    between atoms: N4_9  and  C4_10 
REMARK    4  A    between atoms: N6_18  and  C10_19 
REMARK    5  A    between atoms: C10_19  and  C11_20 
REMARK    6  A    between atoms: C18_28  and  C19_29 
REMARK    7  A    between atoms: N7_30  and  O1_32 
ROOT
HETATM    1  C4  UNL     1      -1.121  -0.065   0.139  1.00  0.00     0.034 A 
HETATM    2  C5  UNL     1      -0.429  -0.827  -0.818  1.00  0.00     0.032 A 
HETATM    3  C6  UNL     1       0.839  -1.376  -0.577  1.00  0.00     0.034 A 
HETATM    4  C7  UNL     1       1.417  -1.124   0.671  1.00  0.00     0.062 A 
HETATM    5  C8  UNL     1       0.778  -0.357   1.638  1.00  0.00     0.011 A 
HETATM    6  C9  UNL     1       1.677  -0.328   2.726  1.00  0.00     0.121 A 
HETATM    7  N5  UNL     1       2.793  -1.023   2.494  1.00  0.00    -0.308 N 
ATOM      8  H5  UNL     1       3.587  -1.170   3.117  1.00  0.00     0.186 HD
HETATM    9  N6  UNL     1       2.620  -1.487   1.234  1.00  0.00    -0.288 N 
HETATM   10  C17 UNL     1      -0.495   0.184   1.368  1.00  0.00     0.044 A 
ENDROOT
BRANCH   1  11
HETATM   11  N4  UNL     1      -2.376   0.467  -0.216  1.00  0.00    -0.342 N 
HETATM   12  H4  UNL     1      -2.728   0.119  -1.109  1.00  0.00     0.167 HD
BRANCH  11  13
HETATM   13  C3  UNL     1      -3.432   1.009   0.554  1.00  0.00     0.121 A 
HETATM   14  N3  UNL     1      -3.315   1.075   1.896  1.00  0.00    -0.338 N 
HETATM   15  C2  UNL     1      -4.302   1.667   2.578  1.00  0.00     0.183 A 
ATOM     16  H3  UNL     1      -2.502   0.687   2.374  1.00  0.00     0.168 HD
HETATM   17  N2  UNL     1      -5.411   2.200   2.054  1.00  0.00    -0.342 N 
HETATM   18  C1  UNL     1      -5.529   2.120   0.723  1.00  0.00     0.094 A 
ATOM     19  H2  UNL     1      -6.125   2.641   2.634  1.00  0.00     0.167 HD
HETATM   20  C18 UNL     1      -4.557   1.539  -0.082  1.00  0.00     0.063 A 
BRANCH  18  21
HETATM   21  N1  UNL     1      -6.709   2.677   0.221  1.00  0.00    -0.288 NA
HETATM   22  H1  UNL     1      -7.244   3.013   1.020  1.00  0.00     0.125 HD
HETATM   23  H2  UNL     1      -7.250   2.010  -0.320  1.00  0.00     0.125 HD
ENDBRANCH  18  21
BRANCH  20  24
HETATM   24  C19 UNL     1      -4.750   1.497  -1.542  1.00  0.00     0.132 C 
HETATM   25  N7  UNL     1      -4.103   0.671  -2.309  1.00  0.00    -0.279 N 
ATOM     26  H7  UNL     1      -3.406  -0.006  -2.000  1.00  0.00     0.193 HD
BRANCH  25  27
HETATM   27  O1  UNL     1      -4.522   0.866  -3.630  1.00  0.00    -0.290 OA
HETATM   28  H16 UNL     1      -3.973   0.234  -4.130  1.00  0.00     0.244 HD
ENDBRANCH  25  27
ENDBRANCH  20  24
ENDBRANCH  11  13
ENDBRANCH   1  11
BRANCH   9  29
HETATM   29  C10 UNL     1       3.650  -2.329   0.638  1.00  0.00     0.187 C 
BRANCH  29  30
HETATM   30  C11 UNL     1       4.487  -1.582  -0.373  1.00  0.00    -0.035 A 
HETATM   31  C12 UNL     1       4.553  -2.018  -1.707  1.00  0.00     0.009 A 
HETATM   32  C13 UNL     1       5.337  -1.336  -2.642  1.00  0.00     0.004 A 
HETATM   33  C14 UNL     1       6.068  -0.215  -2.253  1.00  0.00     0.042 A 
HETATM   34  C15 UNL     1       6.012   0.214  -0.933  1.00  0.00     0.117 A 
HETATM   35  F1  UNL     1       6.720   1.288  -0.559  1.00  0.00    -0.206 F 
HETATM   36  C16 UNL     1       5.235  -0.457   0.007  1.00  0.00     0.051 A 
ENDBRANCH  29  30
ENDBRANCH   9  29
TORSDOF 7
