REMARK  6 active torsions:
REMARK  status: ('A' for Active; 'I' for Inactive)
REMARK    1  A    between atoms: C1_2  and  C2_3 
REMARK    2  A    between atoms: C1_2  and  C10_11 
REMARK    3  A    between atoms: C3_4  and  C4_5 
REMARK    4  A    between atoms: C10_11  and  C11_12 
REMARK    5  A    between atoms: C14_15  and  N1_16 
REMARK    6  A    between atoms: N1_16  and  C15_17 
ROOT
HETATM    1  C11 UNL     1       0.158  -1.831   0.424  1.00  0.00     0.017 A 
HETATM    2  C12 UNL     1      -1.026  -1.107   0.347  1.00  0.00     0.043 A 
HETATM    3  C13 UNL     1      -2.266  -1.787   0.257  1.00  0.00     0.038 A 
HETATM    4  C14 UNL     1      -3.525  -1.165   0.139  1.00  0.00     0.119 A 
HETATM    5  N2  UNL     1      -4.667  -1.876   0.101  1.00  0.00    -0.338 N 
ATOM      6  H2  UNL     1      -5.577  -1.419   0.037  1.00  0.00     0.168 HD
HETATM    7  C21 UNL     1      -4.556  -3.206   0.151  1.00  0.00     0.182 A 
HETATM    8  N3  UNL     1      -3.418  -3.900   0.239  1.00  0.00    -0.350 N 
ATOM      9  H3  UNL     1      -3.410  -4.920   0.264  1.00  0.00     0.166 HD
HETATM   10  C22 UNL     1      -2.286  -3.181   0.292  1.00  0.00     0.062 A 
HETATM   11  C23 UNL     1      -1.051  -3.802   0.387  1.00  0.00     0.118 A 
HETATM   12  N4  UNL     1       0.158  -3.180   0.454  1.00  0.00    -0.367 N 
ATOM     13  H4  UNL     1       1.026  -3.711   0.524  1.00  0.00     0.165 HD
ENDROOT
BRANCH   1  14
HETATM   14  C10 UNL     1       1.498  -1.146   0.533  1.00  0.00     0.140 C 
BRANCH  14  15
HETATM   15  C1  UNL     1       1.834  -0.240  -0.638  1.00  0.00     0.154 C 
HETATM   16  O1  UNL     1       0.997   0.164  -1.447  1.00  0.00    -0.293 OA
BRANCH  15  17
HETATM   17  C2  UNL     1       3.237   0.240  -0.813  1.00  0.00     0.051 C 
HETATM   18  C3  UNL     1       4.239   0.012   0.049  1.00  0.00     0.015 C 
BRANCH  18  19
HETATM   19  C4  UNL     1       5.606   0.515  -0.154  1.00  0.00    -0.036 A 
HETATM   20  C5  UNL     1       6.341   0.946   0.958  1.00  0.00     0.011 A 
HETATM   21  C6  UNL     1       7.652   1.405   0.811  1.00  0.00     0.001 A 
HETATM   22  C7  UNL     1       8.246   1.425  -0.449  1.00  0.00     0.000 A 
HETATM   23  C8  UNL     1       7.532   0.983  -1.560  1.00  0.00     0.001 A 
HETATM   24  C9  UNL     1       6.220   0.525  -1.413  1.00  0.00     0.011 A 
ENDBRANCH  18  19
ENDBRANCH  15  17
ENDBRANCH  14  15
ENDBRANCH   1  14
BRANCH   4  25
HETATM   25  N1  UNL     1      -3.577   0.253   0.042  1.00  0.00    -0.342 N 
HETATM   26  H11 UNL     1      -2.969   0.547  -0.718  1.00  0.00     0.167 HD
BRANCH  25  27
HETATM   27  C15 UNL     1      -4.699   1.104   0.165  1.00  0.00     0.034 A 
HETATM   28  C16 UNL     1      -5.805   0.790   0.965  1.00  0.00     0.029 A 
HETATM   29  C17 UNL     1      -6.867   1.687   1.119  1.00  0.00     0.004 A 
HETATM   30  C18 UNL     1      -6.827   2.929   0.493  1.00  0.00     0.019 A 
HETATM   31  C19 UNL     1      -5.718   3.270  -0.274  1.00  0.00     0.013 A 
HETATM   32 BR1  UNL     1      -5.641   4.967  -1.107  1.00  0.00    -0.051 Br
HETATM   33  C20 UNL     1      -4.657   2.375  -0.430  1.00  0.00     0.048 A 
ENDBRANCH  25  27
ENDBRANCH   4  25
TORSDOF 6
