REMARK  5 active torsions:
REMARK  status: ('A' for Active; 'I' for Inactive)
REMARK    1  A    between atoms: C2_2  and  C3_3 
REMARK    2  A    between atoms: C3_3  and  N1_4 
REMARK    3  A    between atoms: C8_9  and  N2_10 
REMARK    4  A    between atoms: N2_10  and  C9_11 
REMARK    5  A    between atoms: C14_20  and  N5_21 
ROOT
HETATM    1  C9  UNL     1      -2.198  -0.389   0.626  1.00  0.00     0.119 A 
HETATM    2  N3  UNL     1      -1.851  -0.929   1.809  1.00  0.00    -0.338 N 
ATOM      3  H3  UNL     1      -0.909  -0.828   2.186  1.00  0.00     0.168 HD
HETATM    4  C10 UNL     1      -2.798  -1.603   2.466  1.00  0.00     0.182 A 
HETATM    5  N4  UNL     1      -4.057  -1.794   2.062  1.00  0.00    -0.352 N 
ATOM      6  H4  UNL     1      -4.728  -2.314   2.627  1.00  0.00     0.166 HD
HETATM    7  C11 UNL     1      -4.391  -1.269   0.881  1.00  0.00     0.047 A 
HETATM    8  C12 UNL     1      -5.681  -1.467   0.408  1.00  0.00     0.032 A 
HETATM    9  C13 UNL     1      -6.104  -0.954  -0.823  1.00  0.00     0.025 A 
HETATM   10  C14 UNL     1      -5.243  -0.190  -1.602  1.00  0.00     0.006 A 
HETATM   11  C15 UNL     1      -3.928  -0.032  -1.165  1.00  0.00     0.040 A 
HETATM   12  C16 UNL     1      -3.494  -0.540   0.090  1.00  0.00     0.036 A 
ENDROOT
BRANCH   1  13
HETATM   13  N2  UNL     1      -1.245   0.378  -0.099  1.00  0.00    -0.342 N 
HETATM   14  H9  UNL     1      -1.644   1.289  -0.296  1.00  0.00     0.167 HD
BRANCH  13  15
HETATM   15  C8  UNL     1       0.154   0.466   0.099  1.00  0.00     0.034 A 
HETATM   16  C7  UNL     1       0.831   1.610  -0.362  1.00  0.00     0.043 A 
HETATM   17  C6  UNL     1       2.233   1.716  -0.244  1.00  0.00    -0.006 A 
HETATM   18  C5  UNL     1       3.175   2.722  -0.591  1.00  0.00     0.031 A 
HETATM   19  C19 UNL     1       2.945   0.653   0.314  1.00  0.00     0.044 A 
HETATM   20  C4  UNL     1       4.424   2.267  -0.237  1.00  0.00     0.092 A 
HETATM   21  N1  UNL     1       4.279   1.014   0.308  1.00  0.00    -0.353 N 
HETATM   22  C18 UNL     1       2.304  -0.517   0.743  1.00  0.00     0.033 A 
HETATM   23  C17 UNL     1       0.910  -0.591   0.613  1.00  0.00     0.032 A 
BRANCH  21  24
HETATM   24  C3  UNL     1       5.380   0.219   0.846  1.00  0.00     0.155 C 
BRANCH  24  25
HETATM   25  C2  UNL     1       5.994  -0.771  -0.108  1.00  0.00    -0.017 C 
HETATM   26  C1  UNL     1       5.645  -1.022  -1.378  1.00  0.00     0.008 C 
ENDBRANCH  24  25
ENDBRANCH  21  24
ENDBRANCH  13  15
ENDBRANCH   1  13
BRANCH  10  27
HETATM   27  N5  UNL     1      -5.617   0.210  -2.886  1.00  0.00    -0.303 NA
HETATM   28  H13 UNL     1      -6.617   0.331  -3.014  1.00  0.00     0.124 HD
HETATM   29  H14 UNL     1      -5.082   0.986  -3.263  1.00  0.00     0.124 HD
ENDBRANCH  10  27
TORSDOF 5
