REMARK  4 active torsions:
REMARK  status: ('A' for Active; 'I' for Inactive)
REMARK    1  A    between atoms: N2_4  and  N3_6 
REMARK    2  A    between atoms: N3_6  and  C2_7 
REMARK    3  A    between atoms: C7_16  and  N6_17 
REMARK    4  A    between atoms: N6_17  and  C8_18 
ROOT
HETATM    1  C2  UNL     1       3.060   0.113   0.073  1.00  0.00     0.050 A 
HETATM    2  C3  UNL     1       3.567   1.033   0.991  1.00  0.00     0.033 A 
HETATM    3  C4  UNL     1       2.716   1.699   1.881  1.00  0.00     0.033 A 
HETATM    4  C5  UNL     1       1.351   1.456   1.913  1.00  0.00     0.047 A 
HETATM    5  N4  UNL     1       0.600   2.137   2.782  1.00  0.00    -0.352 N 
ATOM      6  H4  UNL     1       1.005   2.826   3.416  1.00  0.00     0.166 HD
HETATM    7  C6  UNL     1      -0.709   1.870   2.779  1.00  0.00     0.182 A 
HETATM    8  N5  UNL     1      -1.331   0.978   2.005  1.00  0.00    -0.338 N 
ATOM      9  H5  UNL     1      -2.338   0.830   2.064  1.00  0.00     0.168 HD
HETATM   10  C7  UNL     1      -0.567   0.283   1.143  1.00  0.00     0.119 A 
HETATM   11  C15 UNL     1       0.823   0.499   1.038  1.00  0.00     0.037 A 
HETATM   12  C16 UNL     1       1.689  -0.165   0.126  1.00  0.00     0.048 A 
ENDROOT
BRANCH  10  13
HETATM   13  N6  UNL     1      -1.165  -0.718   0.327  1.00  0.00    -0.342 N 
HETATM   14  H8  UNL     1      -0.684  -1.596   0.494  1.00  0.00     0.167 HD
BRANCH  13  15
HETATM   15  C8  UNL     1      -2.537  -0.931   0.063  1.00  0.00     0.034 A 
HETATM   16  C9  UNL     1      -2.962  -2.207  -0.335  1.00  0.00     0.029 A 
HETATM   17  C10 UNL     1      -4.294  -2.449  -0.680  1.00  0.00     0.003 A 
HETATM   18  C11 UNL     1      -5.222  -1.410  -0.653  1.00  0.00     0.007 A 
HETATM   19  C12 UNL     1      -4.822  -0.123  -0.283  1.00  0.00    -0.060 A 
HETATM   20  C13 UNL     1      -5.799   1.015  -0.303  1.00  0.00     0.048 C 
HETATM   21  C14 UNL     1      -3.476   0.108   0.046  1.00  0.00     0.036 A 
ENDBRANCH  13  15
ENDBRANCH  10  13
BRANCH   1  22
HETATM   22  N3  UNL     1       3.879  -0.617  -0.805  1.00  0.00    -0.287 N 
HETATM   23  H4  UNL     1       3.418  -0.991  -1.628  1.00  0.00     0.188 HD
BRANCH  22  24
HETATM   24  N2  UNL     1       5.143  -0.205  -1.015  1.00  0.00    -0.247 N 
HETATM   25  N1  UNL     1       5.493  -0.729  -2.088  1.00  0.00    -0.327 N 
HETATM   26  C1  UNL     1       6.867  -0.369  -2.438  1.00  0.00     0.169 C 
ATOM     27  H1  UNL     1       4.897  -1.334  -2.653  1.00  0.00     0.181 HD
ATOM     28  H2  UNL     1       5.698   0.409  -0.419  1.00  0.00     0.208 HD
ENDBRANCH  22  24
ENDBRANCH   1  22
TORSDOF 4
