REMARK  3 active torsions:
REMARK  status: ('A' for Active; 'I' for Inactive)
REMARK    1  A    between atoms: C9_16  and  N4_17 
REMARK    2  A    between atoms: C10_19  and  C11_20 
REMARK    3  A    between atoms: C12_21  and  C13_22 
ROOT
HETATM    1 CL1  UNL     1      -1.427   2.498   1.388  1.00  0.00    -0.044 Cl
HETATM    2  C1  UNL     1      -2.654   1.368   0.987  1.00  0.00     0.203 A 
HETATM    3  N1  UNL     1      -3.872   1.714   1.303  1.00  0.00    -0.331 N 
ATOM      4  H1  UNL     1      -4.050   2.608   1.761  1.00  0.00     0.168 HD
HETATM    5  C2  UNL     1      -4.945   0.840   1.006  1.00  0.00     0.048 A 
HETATM    6  C3  UNL     1      -6.243   1.220   1.349  1.00  0.00     0.030 A 
HETATM    7  C4  UNL     1      -7.322   0.377   1.068  1.00  0.00     0.002 A 
HETATM    8  C5  UNL     1      -7.110  -0.853   0.442  1.00  0.00     0.001 A 
HETATM    9  C6  UNL     1      -5.818  -1.247   0.094  1.00  0.00     0.017 A 
HETATM   10  C7  UNL     1      -4.743  -0.402   0.376  1.00  0.00     0.037 A 
HETATM   11  C8  UNL     1      -3.374  -0.734   0.048  1.00  0.00     0.159 A 
HETATM   12  N2  UNL     1      -2.866  -1.795  -0.532  1.00  0.00    -0.269 N 
ATOM     13  H2  UNL     1      -3.383  -2.608  -0.867  1.00  0.00     0.189 HD
HETATM   14  N3  UNL     1      -1.508  -1.606  -0.604  1.00  0.00    -0.130 N 
ATOM     15  H3  UNL     1      -0.840  -2.264  -1.006  1.00  0.00     0.205 HD
HETATM   16  C9  UNL     1      -1.202  -0.434  -0.068  1.00  0.00     0.707 A 
HETATM   17  N5  UNL     1      -2.375   0.155   0.361  1.00  0.00    -0.103 N 
ENDROOT
BRANCH  16  18
HETATM   18  N4  UNL     1       0.003   0.169   0.082  1.00  0.00    -0.200 N 
HETATM   19  C10 UNL     1       1.016  -0.495  -0.371  1.00  0.00     0.106 C 
ATOM     20  H4  UNL     1       0.104   1.084   0.522  1.00  0.00     0.183 HD
BRANCH  19  21
HETATM   21  C11 UNL     1       2.384   0.054  -0.265  1.00  0.00     0.018 C 
HETATM   22  C12 UNL     1       3.417  -0.652  -0.743  1.00  0.00     0.013 C 
BRANCH  22  23
HETATM   23  C13 UNL     1       4.814  -0.199  -0.677  1.00  0.00    -0.036 A 
HETATM   24  C14 UNL     1       5.176   1.145  -0.841  1.00  0.00     0.011 A 
HETATM   25  C15 UNL     1       6.519   1.530  -0.801  1.00  0.00     0.001 A 
HETATM   26  C16 UNL     1       7.514   0.575  -0.607  1.00  0.00     0.000 A 
HETATM   27  C17 UNL     1       7.169  -0.766  -0.459  1.00  0.00     0.001 A 
HETATM   28  C18 UNL     1       5.826  -1.152  -0.500  1.00  0.00     0.011 A 
ENDBRANCH  22  23
ENDBRANCH  19  21
ENDBRANCH  16  18
TORSDOF 3
