REMARK  2 active torsions:
REMARK  status: ('A' for Active; 'I' for Inactive)
REMARK    1  A    between atoms: C5_6  and  N1_7 
REMARK    2  A    between atoms: N1_7  and  C6_8 
ROOT
HETATM    1  C6  UNL     1       0.476  -1.251  -0.251  1.00  0.00     0.120 A 
HETATM    2  N2  UNL     1       1.066  -2.457  -0.444  1.00  0.00    -0.338 N 
ATOM      3  H2  UNL     1       2.083  -2.531  -0.465  1.00  0.00     0.168 HD
HETATM    4  C7  UNL     1       0.310  -3.550  -0.607  1.00  0.00     0.182 A 
HETATM    5  N3  UNL     1      -1.018  -3.618  -0.609  1.00  0.00    -0.346 N 
ATOM      6  H3  UNL     1      -1.542  -4.481  -0.750  1.00  0.00     0.167 HD
HETATM    7  C8  UNL     1      -1.590  -2.421  -0.404  1.00  0.00     0.090 A 
HETATM    8  S1  UNL     1      -3.288  -2.296  -0.380  1.00  0.00    -0.075 SA
HETATM    9  C9  UNL     1      -3.218  -0.628  -0.082  1.00  0.00    -0.008 A 
HETATM   10  C10 UNL     1      -1.920  -0.153   0.018  1.00  0.00    -0.028 A 
HETATM   11  C11 UNL     1      -0.943  -1.206  -0.207  1.00  0.00     0.049 A 
HETATM   12  C12 UNL     1      -1.653   1.298   0.311  1.00  0.00     0.041 C 
HETATM   13  C13 UNL     1      -2.899   2.035   0.826  1.00  0.00     0.005 C 
HETATM   14  C14 UNL     1      -4.146   1.683   0.006  1.00  0.00     0.005 C 
HETATM   15  C15 UNL     1      -4.464   0.185   0.092  1.00  0.00     0.047 C 
ENDROOT
BRANCH   1  16
HETATM   16  N1  UNL     1       1.261  -0.091  -0.144  1.00  0.00    -0.342 N 
HETATM   17  H4  UNL     1       0.735   0.757  -0.278  1.00  0.00     0.167 HD
BRANCH  16  18
HETATM   18  C5  UNL     1       2.652   0.105  -0.063  1.00  0.00     0.034 A 
HETATM   19  C4  UNL     1       3.158   1.401  -0.267  1.00  0.00     0.029 A 
HETATM   20  C3  UNL     1       4.529   1.668  -0.203  1.00  0.00     0.004 A 
HETATM   21  C2  UNL     1       5.424   0.638   0.070  1.00  0.00     0.019 A 
HETATM   22  C1  UNL     1       4.937  -0.649   0.279  1.00  0.00     0.013 A 
HETATM   23 BR1  UNL     1       6.148  -2.052   0.661  1.00  0.00    -0.051 Br
HETATM   24  C16 UNL     1       3.567  -0.915   0.216  1.00  0.00     0.048 A 
ENDBRANCH  16  18
ENDBRANCH   1  16
TORSDOF 2
