REMARK  5 active torsions:
REMARK  status: ('A' for Active; 'I' for Inactive)
REMARK    1  A    between atoms: C5_6  and  C6_7 
REMARK    2  A    between atoms: C6_7  and  O1_8 
REMARK    3  A    between atoms: O1_8  and  C7_9 
REMARK    4  A    between atoms: C10_12  and  N1_13 
REMARK    5  A    between atoms: N1_13  and  C11_14 
ROOT
HETATM    1  N1  UNL     1      -1.750   0.229   0.498  1.00  0.00    -0.342 N 
HETATM    2  H8  UNL     1      -2.411  -0.360   0.981  1.00  0.00     0.167 HD
ENDROOT
BRANCH   1   3
HETATM    3  C10 UNL     1      -0.406  -0.038   0.821  1.00  0.00     0.035 A 
HETATM    4  C9  UNL     1       0.673   0.726   0.361  1.00  0.00     0.032 A 
HETATM    5  C8  UNL     1       1.992   0.394   0.688  1.00  0.00     0.041 A 
HETATM    6  C7  UNL     1       2.254  -0.734   1.459  1.00  0.00     0.091 A 
HETATM    7  C21 UNL     1       1.197  -1.511   1.931  1.00  0.00     0.069 A 
HETATM    8  C20 UNL     1      -0.120  -1.170   1.603  1.00  0.00     0.056 A 
HETATM    9 CL1  UNL     1       1.470  -2.906   2.910  1.00  0.00    -0.081 Cl
BRANCH   6  10
HETATM   10  O1  UNL     1       3.556  -1.011   1.780  1.00  0.00    -0.345 OA
BRANCH  10  11
HETATM   11  C6  UNL     1       4.136  -1.937   0.850  1.00  0.00     0.214 C 
BRANCH  11  12
HETATM   12  C5  UNL     1       5.076  -1.212  -0.082  1.00  0.00    -0.031 A 
HETATM   13  C4  UNL     1       6.198  -0.534   0.425  1.00  0.00     0.009 A 
HETATM   14  C3  UNL     1       7.072   0.139  -0.432  1.00  0.00     0.004 A 
HETATM   15  C2  UNL     1       6.833   0.143  -1.805  1.00  0.00     0.042 A 
HETATM   16  C1  UNL     1       5.722  -0.524  -2.308  1.00  0.00     0.117 A 
HETATM   17  F1  UNL     1       5.492  -0.519  -3.627  1.00  0.00    -0.206 F 
HETATM   18  C22 UNL     1       4.845  -1.198  -1.464  1.00  0.00     0.051 A 
ENDBRANCH  11  12
ENDBRANCH  10  11
ENDBRANCH   6  10
ENDBRANCH   1   3
BRANCH   1  19
HETATM   19  C11 UNL     1      -2.366   1.331  -0.108  1.00  0.00     0.123 A 
HETATM   20  N2  UNL     1      -1.680   2.466  -0.441  1.00  0.00    -0.338 N 
HETATM   21  C12 UNL     1      -2.334   3.546  -0.968  1.00  0.00     0.183 A 
ATOM     22  H2  UNL     1      -0.671   2.508  -0.295  1.00  0.00     0.168 HD
HETATM   23  N3  UNL     1      -3.645   3.714  -1.246  1.00  0.00    -0.337 N 
HETATM   24  C13 UNL     1      -4.349   2.600  -0.946  1.00  0.00     0.137 A 
ATOM     25  H3  UNL     1      -4.050   4.568  -1.631  1.00  0.00     0.168 HD
HETATM   26  N4  UNL     1      -5.660   2.450  -1.108  1.00  0.00    -0.278 N 
HETATM   27  C19 UNL     1      -3.738   1.439  -0.402  1.00  0.00     0.082 A 
HETATM   28  N5  UNL     1      -5.916   1.185  -0.700  1.00  0.00    -0.265 N 
ATOM     29  H4  UNL     1      -6.326   3.137  -1.462  1.00  0.00     0.189 HD
HETATM   30  C14 UNL     1      -7.171   0.572  -0.678  1.00  0.00     0.116 A 
HETATM   31  C18 UNL     1      -4.749   0.512  -0.286  1.00  0.00     0.073 A 
HETATM   32  C15 UNL     1      -7.300  -0.700  -0.274  1.00  0.00     0.019 A 
HETATM   33  C16 UNL     1      -6.109  -1.430   0.113  1.00  0.00     0.004 A 
HETATM   34  C17 UNL     1      -4.891  -0.857   0.103  1.00  0.00     0.032 A 
ENDBRANCH   1  19
TORSDOF 5
