REMARK  3 active torsions:
REMARK  status: ('A' for Active; 'I' for Inactive)
REMARK    1  A    between atoms: C4_5  and  C5_6 
REMARK    2  A    between atoms: N2_9  and  C6_10 
REMARK    3  A    between atoms: C12_16  and  C13_17 
ROOT
HETATM    1  C5  UNL     1       1.981   0.325   0.115  1.00  0.00     0.038 C 
HETATM    2  N1  UNL     1       1.378   1.410   0.494  1.00  0.00    -0.301 N 
ATOM      3  H1  UNL     1       1.781   2.162   1.054  1.00  0.00     0.187 HD
HETATM    4  N2  UNL     1       0.104   1.358   0.004  1.00  0.00    -0.283 N 
HETATM    5  C12 UNL     1      -0.196   0.105  -0.697  1.00  0.00     0.148 C 
HETATM    6  C23 UNL     1       1.169  -0.586  -0.762  1.00  0.00     0.091 C 
ENDROOT
BRANCH   5   7
HETATM    7  C13 UNL     1      -1.214  -0.787   0.014  1.00  0.00    -0.022 A 
HETATM    8  C14 UNL     1      -1.416  -0.648   1.402  1.00  0.00     0.010 A 
HETATM    9  C15 UNL     1      -2.323  -1.451   2.083  1.00  0.00     0.002 A 
HETATM   10  C16 UNL     1      -3.040  -2.420   1.394  1.00  0.00     0.012 A 
HETATM   11  C17 UNL     1      -2.858  -2.607   0.017  1.00  0.00    -0.025 A 
HETATM   12  C18 UNL     1      -3.590  -3.604  -0.649  1.00  0.00     0.012 A 
HETATM   13  C22 UNL     1      -1.936  -1.796  -0.697  1.00  0.00    -0.018 A 
HETATM   14  C19 UNL     1      -3.428  -3.825  -2.014  1.00  0.00     0.001 A 
HETATM   15  C20 UNL     1      -2.528  -3.050  -2.731  1.00  0.00     0.001 A 
HETATM   16  C21 UNL     1      -1.793  -2.053  -2.083  1.00  0.00     0.013 A 
ENDBRANCH   5   7
BRANCH   4  17
HETATM   17  C6  UNL     1      -0.700   2.500  -0.011  1.00  0.00     0.051 A 
HETATM   18  C7  UNL     1      -0.253   3.703   0.565  1.00  0.00     0.031 A 
HETATM   19  C8  UNL     1      -1.038   4.860   0.567  1.00  0.00     0.002 A 
HETATM   20  C9  UNL     1      -2.304   4.842  -0.007  1.00  0.00     0.000 A 
HETATM   21  C10 UNL     1      -2.778   3.666  -0.578  1.00  0.00     0.002 A 
HETATM   22  C11 UNL     1      -1.985   2.512  -0.578  1.00  0.00     0.031 A 
ENDBRANCH   4  17
BRANCH   1  23
HETATM   23  C4  UNL     1       3.382   0.011   0.483  1.00  0.00    -0.012 A 
HETATM   24  C3  UNL     1       4.028  -1.134  -0.003  1.00  0.00     0.016 A 
HETATM   25  C2  UNL     1       5.351  -1.398   0.366  1.00  0.00     0.043 A 
HETATM   26  C1  UNL     1       6.019  -0.521   1.213  1.00  0.00     0.116 A 
HETATM   27  F1  UNL     1       7.286  -0.779   1.563  1.00  0.00    -0.206 F 
HETATM   28  C25 UNL     1       5.392   0.619   1.702  1.00  0.00     0.043 A 
HETATM   29  C24 UNL     1       4.071   0.886   1.336  1.00  0.00     0.016 A 
ENDBRANCH   1  23
TORSDOF 3
