REMARK  3 active torsions:
REMARK  status: ('A' for Active; 'I' for Inactive)
REMARK    1  A    between atoms: N1_1  and  C1_2 
REMARK    2  A    between atoms: C5_6  and  N2_7 
REMARK    3  A    between atoms: N2_7  and  C6_8 
ROOT
HETATM    1  C1  UNL     1       4.154   0.231   0.164  1.00  0.00     0.008 A 
HETATM    2  C2  UNL     1       3.270   1.143   0.729  1.00  0.00     0.024 A 
HETATM    3  C3  UNL     1       1.894   0.981   0.560  1.00  0.00     0.019 A 
HETATM    4  C4  UNL     1       1.376  -0.128  -0.153  1.00  0.00     0.035 A 
HETATM    5  C5  UNL     1       0.007  -0.379  -0.386  1.00  0.00     0.119 A 
HETATM    6  N3  UNL     1      -0.412  -1.481  -1.032  1.00  0.00    -0.338 N 
ATOM      7  H3  UNL     1      -1.403  -1.664  -1.188  1.00  0.00     0.168 HD
HETATM    8  C12 UNL     1       0.531  -2.324  -1.460  1.00  0.00     0.182 A 
HETATM    9  N4  UNL     1       1.851  -2.176  -1.313  1.00  0.00    -0.351 N 
ATOM     10  H4  UNL     1       2.511  -2.862  -1.680  1.00  0.00     0.166 HD
HETATM   11  C13 UNL     1       2.264  -1.085  -0.661  1.00  0.00     0.048 A 
HETATM   12  C14 UNL     1       3.630  -0.896  -0.477  1.00  0.00     0.053 A 
ENDROOT
BRANCH   5  13
HETATM   13  N2  UNL     1      -0.947   0.576   0.062  1.00  0.00    -0.342 N 
HETATM   14  H5  UNL     1      -0.693   1.486  -0.308  1.00  0.00     0.167 HD
BRANCH  13  15
HETATM   15  C6  UNL     1      -2.350   0.438   0.169  1.00  0.00     0.033 A 
HETATM   16  C7  UNL     1      -2.975  -0.788   0.419  1.00  0.00     0.029 A 
HETATM   17  C8  UNL     1      -4.361  -0.871   0.589  1.00  0.00     0.002 A 
HETATM   18  C9  UNL     1      -5.142   0.280   0.537  1.00  0.00     0.000 A 
HETATM   19  C10 UNL     1      -4.535   1.514   0.327  1.00  0.00     0.002 A 
HETATM   20  C11 UNL     1      -3.149   1.592   0.157  1.00  0.00     0.029 A 
ENDBRANCH  13  15
ENDBRANCH   5  13
BRANCH   1  21
HETATM   21  N1  UNL     1       5.525   0.321   0.430  1.00  0.00    -0.303 NA
HETATM   22  H1  UNL     1       5.857   1.264   0.605  1.00  0.00     0.124 HD
HETATM   23  H2  UNL     1       6.111  -0.179  -0.232  1.00  0.00     0.124 HD
ENDBRANCH   1  21
TORSDOF 3
