REMARK  8 active torsions:
REMARK  status: ('A' for Active; 'I' for Inactive)
REMARK       I    between atoms: N1_1  and  C1_2 
REMARK    1  A    between atoms: C1_2  and  C2_4 
REMARK    2  A    between atoms: C2_4  and  O2_5 
REMARK    3  A    between atoms: O2_5  and  C3_6 
REMARK    4  A    between atoms: C3_6  and  C4_7 
REMARK    5  A    between atoms: C8_16  and  N5_17 
REMARK    6  A    between atoms: N5_17  and  C9_18 
REMARK    7  A    between atoms: N7_26  and  C15_27 
REMARK    8  A    between atoms: C15_27  and  C16_28 
ROOT
HETATM    1  N5  UNL     1      -1.496   0.649  -0.346  1.00  0.00    -0.341 N 
HETATM    2  H10 UNL     1      -1.799  -0.202  -0.816  1.00  0.00     0.167 HD
ENDROOT
BRANCH   1   3
HETATM    3  C8  UNL     1      -2.521   1.449   0.118  1.00  0.00     0.136 A 
HETATM    4  N4  UNL     1      -2.379   2.273   1.115  1.00  0.00    -0.336 N 
HETATM    5  C7  UNL     1      -3.451   2.987   1.581  1.00  0.00     0.199 A 
ATOM      6  H4  UNL     1      -1.464   2.388   1.552  1.00  0.00     0.168 HD
HETATM    7  N3  UNL     1      -4.667   2.949   1.137  1.00  0.00    -0.289 N 
HETATM    8  N2  UNL     1      -4.826   2.126   0.094  1.00  0.00    -0.262 N 
ATOM      9  H3  UNL     1      -5.429   3.493   1.543  1.00  0.00     0.188 HD
HETATM   10  C6  UNL     1      -6.002   1.910  -0.570  1.00  0.00     0.117 A 
HETATM   11  C23 UNL     1      -3.836   1.385  -0.480  1.00  0.00     0.108 A 
HETATM   12  C5  UNL     1      -5.750   1.066  -1.628  1.00  0.00     0.031 A 
HETATM   13  C4  UNL     1      -4.363   0.729  -1.589  1.00  0.00    -0.001 A 
BRANCH  13  14
HETATM   14  C3  UNL     1      -3.650  -0.133  -2.582  1.00  0.00     0.209 C 
BRANCH  14  15
HETATM   15  O2  UNL     1      -2.912  -1.201  -1.976  1.00  0.00    -0.377 OA
BRANCH  15  16
HETATM   16  C2  UNL     1      -3.744  -2.240  -1.459  1.00  0.00     0.270 C 
BRANCH  16  17
HETATM   17  C1  UNL     1      -3.865  -2.144   0.059  1.00  0.00     0.239 C 
HETATM   18  N1  UNL     1      -5.133  -2.015   0.556  1.00  0.00    -0.368 N 
HETATM   19  H1  UNL     1      -5.845  -1.555  -0.001  1.00  0.00     0.159 HD
HETATM   20  H2  UNL     1      -5.163  -1.804   1.547  1.00  0.00     0.159 HD
HETATM   21  O1  UNL     1      -2.896  -2.147   0.815  1.00  0.00    -0.271 OA
ENDBRANCH  16  17
ENDBRANCH  15  16
ENDBRANCH  14  15
ENDBRANCH  13  14
ENDBRANCH   1   3
BRANCH   1  22
HETATM   22  C9  UNL     1      -0.165   0.581   0.110  1.00  0.00     0.034 A 
HETATM   23  C10 UNL     1       0.508  -0.650   0.024  1.00  0.00     0.032 A 
HETATM   24  C11 UNL     1       1.834  -0.813   0.449  1.00  0.00     0.034 A 
HETATM   25  C12 UNL     1       2.483   0.311   0.972  1.00  0.00     0.062 A 
HETATM   26  C13 UNL     1       1.854   1.547   1.072  1.00  0.00     0.011 A 
HETATM   27  N7  UNL     1       3.751   0.510   1.471  1.00  0.00    -0.288 N 
HETATM   28  C14 UNL     1       2.828   2.401   1.636  1.00  0.00     0.121 A 
HETATM   29  C22 UNL     1       0.520   1.684   0.640  1.00  0.00     0.044 A 
HETATM   30  N6  UNL     1       3.984   1.779   1.881  1.00  0.00    -0.308 N 
ATOM     31  H6  UNL     1       4.838   2.167   2.281  1.00  0.00     0.186 HD
BRANCH  27  32
HETATM   32  C15 UNL     1       4.796  -0.494   1.636  1.00  0.00     0.187 C 
BRANCH  32  33
HETATM   33  C16 UNL     1       5.484  -0.831   0.333  1.00  0.00    -0.035 A 
HETATM   34  C17 UNL     1       6.113   0.165  -0.434  1.00  0.00     0.009 A 
HETATM   35  C18 UNL     1       6.766  -0.157  -1.628  1.00  0.00     0.004 A 
HETATM   36  C19 UNL     1       6.804  -1.480  -2.065  1.00  0.00     0.042 A 
HETATM   37  C20 UNL     1       6.193  -2.468  -1.303  1.00  0.00     0.117 A 
HETATM   38  F1  UNL     1       6.225  -3.737  -1.725  1.00  0.00    -0.206 F 
HETATM   39  C21 UNL     1       5.542  -2.160  -0.112  1.00  0.00     0.051 A 
ENDBRANCH  32  33
ENDBRANCH  27  32
ENDBRANCH   1  22
TORSDOF 8
