REMARK  4 active torsions:
REMARK  status: ('A' for Active; 'I' for Inactive)
REMARK    1  A    between atoms: N1_1  and  C1_2 
REMARK    2  A    between atoms: C1_2  and  N2_4 
REMARK    3  A    between atoms: C2_7  and  C3_8 
REMARK    4  A    between atoms: C10_16  and  C11_17 
ROOT
HETATM    1  N2  UNL     1      -0.725  -2.151  -0.116  1.00  0.00    -0.258 N 
HETATM    2  N3  UNL     1      -1.764  -1.423   0.438  1.00  0.00    -0.299 N 
ATOM      3  H3  UNL     1      -2.245  -1.620   1.316  1.00  0.00     0.187 HD
HETATM    4  C2  UNL     1      -2.009  -0.440  -0.377  1.00  0.00     0.038 C 
HETATM    5  C9  UNL     1      -1.191  -0.435  -1.643  1.00  0.00     0.091 C 
HETATM    6  C10 UNL     1      -0.153  -1.498  -1.303  1.00  0.00     0.149 C 
ENDROOT
BRANCH   6   7
HETATM    7  C11 UNL     1       1.211  -0.873  -1.056  1.00  0.00    -0.032 A 
HETATM    8  C12 UNL     1       2.198  -0.956  -2.047  1.00  0.00     0.010 A 
HETATM    9  C13 UNL     1       3.450  -0.363  -1.859  1.00  0.00     0.013 A 
HETATM   10  C14 UNL     1       3.745   0.332  -0.677  1.00  0.00    -0.026 A 
HETATM   11  C15 UNL     1       4.997   0.934  -0.474  1.00  0.00     0.012 A 
HETATM   12  C19 UNL     1       2.761   0.426   0.331  1.00  0.00    -0.025 A 
HETATM   13  C16 UNL     1       5.275   1.621   0.709  1.00  0.00     0.001 A 
HETATM   14  C17 UNL     1       4.306   1.713   1.703  1.00  0.00     0.001 A 
HETATM   15  C18 UNL     1       3.057   1.120   1.516  1.00  0.00     0.012 A 
HETATM   16  C20 UNL     1       1.507  -0.176   0.128  1.00  0.00     0.021 A 
ENDBRANCH   6   7
BRANCH   1  17
HETATM   17  C1  UNL     1      -0.350  -3.363   0.437  1.00  0.00     0.187 C 
HETATM   18  S1  UNL     1       0.833  -4.399  -0.115  1.00  0.00    -0.040 SA
BRANCH  17  19
HETATM   19  N1  UNL     1      -1.075  -3.710   1.539  1.00  0.00    -0.375 N 
HETATM   20  H1  UNL     1      -1.698  -3.001   1.907  1.00  0.00     0.158 HD
HETATM   21  H2  UNL     1      -0.829  -4.521   2.087  1.00  0.00     0.158 HD
ENDBRANCH  17  19
ENDBRANCH   1  17
BRANCH   4  22
HETATM   22  C3  UNL     1      -3.045   0.588  -0.115  1.00  0.00    -0.012 A 
HETATM   23  C4  UNL     1      -3.720   0.572   1.113  1.00  0.00     0.015 A 
HETATM   24  C5  UNL     1      -4.701   1.528   1.392  1.00  0.00     0.020 A 
HETATM   25  C6  UNL     1      -5.008   2.499   0.442  1.00  0.00     0.011 A 
HETATM   26 BR1  UNL     1      -6.334   3.793   0.816  1.00  0.00    -0.051 Br
HETATM   27  C7  UNL     1      -4.344   2.522  -0.784  1.00  0.00     0.020 A 
HETATM   28  C8  UNL     1      -3.363   1.566  -1.064  1.00  0.00     0.015 A 
ENDBRANCH   4  22
TORSDOF 4
