REMARK  6 active torsions:
REMARK  status: ('A' for Active; 'I' for Inactive)
REMARK    1  A    between atoms: O1_1  and  C1_2 
REMARK    2  A    between atoms: C6_11  and  N3_12 
REMARK    3  A    between atoms: N3_12  and  C7_13 
REMARK    4  A    between atoms: C10_16  and  O2_17 
REMARK    5  A    between atoms: O2_17  and  C11_18 
REMARK    6  A    between atoms: C11_18  and  C12_19 
ROOT
HETATM    1  N3  UNL     1      -2.062   0.161  -1.001  1.00  0.00    -0.342 N 
HETATM    2  H5  UNL     1      -2.599   0.048  -1.854  1.00  0.00     0.167 HD
ENDROOT
BRANCH   1   3
HETATM    3  C6  UNL     1      -2.945   0.092   0.111  1.00  0.00     0.119 A 
HETATM    4  N2  UNL     1      -2.680  -0.763   1.116  1.00  0.00    -0.338 N 
HETATM    5  C5  UNL     1      -3.559  -0.808   2.120  1.00  0.00     0.182 A 
ATOM      6  H2  UNL     1      -1.846  -1.350   1.111  1.00  0.00     0.168 HD
HETATM    7  N1  UNL     1      -4.678  -0.085   2.225  1.00  0.00    -0.352 N 
HETATM    8  C4  UNL     1      -4.931   0.772   1.234  1.00  0.00     0.047 A 
ATOM      9  H1  UNL     1      -5.307  -0.183   3.022  1.00  0.00     0.166 HD
HETATM   10  C3  UNL     1      -6.081   1.550   1.309  1.00  0.00     0.033 A 
HETATM   11  C20 UNL     1      -4.086   0.921   0.123  1.00  0.00     0.037 A 
HETATM   12  C2  UNL     1      -6.417   2.476   0.317  1.00  0.00     0.039 A 
HETATM   13  C1  UNL     1      -5.576   2.629  -0.772  1.00  0.00     0.066 A 
HETATM   14  C21 UNL     1      -4.420   1.868  -0.878  1.00  0.00     0.054 A 
BRANCH  13  15
HETATM   15  O1  UNL     1      -5.847   3.519  -1.765  1.00  0.00    -0.361 OA
HETATM   16  H1  UNL     1      -6.662   3.999  -1.546  1.00  0.00     0.217 HD
ENDBRANCH  13  15
ENDBRANCH   1   3
BRANCH   1  17
HETATM   17  C7  UNL     1      -0.763  -0.375  -1.133  1.00  0.00     0.033 A 
HETATM   18  C8  UNL     1      -0.255  -0.620  -2.416  1.00  0.00     0.032 A 
HETATM   19  C9  UNL     1       1.050  -1.093  -2.597  1.00  0.00     0.039 A 
HETATM   20  C10 UNL     1       1.883  -1.316  -1.502  1.00  0.00     0.069 A 
HETATM   21  C18 UNL     1       1.409  -1.028  -0.226  1.00  0.00     0.039 A 
HETATM   22  C19 UNL     1       0.101  -0.554  -0.048  1.00  0.00     0.032 A 
BRANCH  20  23
HETATM   23  O2  UNL     1       3.133  -1.772  -1.814  1.00  0.00    -0.347 OA
BRANCH  23  24
HETATM   24  C11 UNL     1       3.918  -2.348  -0.765  1.00  0.00     0.214 C 
BRANCH  24  25
HETATM   25  C12 UNL     1       4.768  -1.339  -0.025  1.00  0.00    -0.034 A 
HETATM   26  C13 UNL     1       5.251  -0.184  -0.657  1.00  0.00     0.009 A 
HETATM   27  C14 UNL     1       6.058   0.720   0.035  1.00  0.00     0.001 A 
HETATM   28  C15 UNL     1       6.401   0.475   1.363  1.00  0.00     0.000 A 
HETATM   29  C16 UNL     1       5.941  -0.676   1.999  1.00  0.00     0.001 A 
HETATM   30  C17 UNL     1       5.134  -1.581   1.308  1.00  0.00     0.009 A 
ENDBRANCH  24  25
ENDBRANCH  23  24
ENDBRANCH  20  23
ENDBRANCH   1  17
TORSDOF 6
