REMARK  9 active torsions:
REMARK  status: ('A' for Active; 'I' for Inactive)
REMARK    1  A    between atoms: O1_1  and  C1_2 
REMARK    2  A    between atoms: C1_2  and  C2_3 
REMARK    3  A    between atoms: C3_6  and  C4_7 
REMARK    4  A    between atoms: C5_8  and  C6_9 
REMARK    5  A    between atoms: C9_16  and  N4_17 
REMARK    6  A    between atoms: N4_17  and  C10_18 
REMARK    7  A    between atoms: C13_21  and  O2_22 
REMARK    8  A    between atoms: O2_22  and  C14_23 
REMARK    9  A    between atoms: C14_23  and  C15_24 
ROOT
HETATM    1  C6  UNL     1      -3.096   0.431   3.310  1.00  0.00     0.077 A 
HETATM    2  C7  UNL     1      -3.469   0.705   4.611  1.00  0.00     0.113 A 
HETATM    3  N2  UNL     1      -2.634   1.206   5.540  1.00  0.00    -0.361 N 
ATOM      4  H2  UNL     1      -2.934   1.404   6.494  1.00  0.00     0.166 HD
HETATM    5  C8  UNL     1      -1.382   1.426   5.123  1.00  0.00     0.181 A 
HETATM    6  N3  UNL     1      -0.909   1.197   3.889  1.00  0.00    -0.337 N 
ATOM      7  H3  UNL     1       0.064   1.388   3.651  1.00  0.00     0.168 HD
HETATM    8  C9  UNL     1      -1.769   0.704   2.974  1.00  0.00     0.127 A 
ENDROOT
BRANCH   8   9
HETATM    9  N4  UNL     1      -1.323   0.431   1.653  1.00  0.00    -0.341 N 
HETATM   10  H6  UNL     1      -2.003   0.781   0.984  1.00  0.00     0.167 HD
BRANCH   9  11
HETATM   11  C10 UNL     1      -0.012   0.426   1.133  1.00  0.00     0.035 A 
HETATM   12  C11 UNL     1       0.167   0.572  -0.251  1.00  0.00     0.032 A 
HETATM   13  C12 UNL     1       1.440   0.516  -0.835  1.00  0.00     0.041 A 
HETATM   14  C13 UNL     1       2.568   0.287  -0.047  1.00  0.00     0.091 A 
HETATM   15  C21 UNL     1       2.393   0.113   1.334  1.00  0.00     0.069 A 
HETATM   16 CL1  UNL     1       3.741  -0.204   2.374  1.00  0.00    -0.081 Cl
HETATM   17  C22 UNL     1       1.119   0.169   1.911  1.00  0.00     0.056 A 
BRANCH  14  18
HETATM   18  O2  UNL     1       3.850   0.221  -0.522  1.00  0.00    -0.345 OA
BRANCH  18  19
HETATM   19  C14 UNL     1       4.037   0.181  -1.936  1.00  0.00     0.214 C 
BRANCH  19  20
HETATM   20  C15 UNL     1       5.497  -0.061  -2.245  1.00  0.00    -0.031 A 
HETATM   21  C16 UNL     1       6.254  -0.980  -1.498  1.00  0.00     0.009 A 
HETATM   22  C17 UNL     1       7.594  -1.225  -1.810  1.00  0.00     0.004 A 
HETATM   23  C18 UNL     1       8.191  -0.561  -2.880  1.00  0.00     0.042 A 
HETATM   24  C19 UNL     1       7.442   0.338  -3.628  1.00  0.00     0.117 A 
HETATM   25  F1  UNL     1       8.013   0.971  -4.663  1.00  0.00    -0.206 F 
HETATM   26  C20 UNL     1       6.107   0.590  -3.327  1.00  0.00     0.051 A 
ENDBRANCH  19  20
ENDBRANCH  18  19
ENDBRANCH  14  18
ENDBRANCH   9  11
ENDBRANCH   8   9
BRANCH   1  27
HETATM   27  C5  UNL     1      -4.044  -0.108   2.383  1.00  0.00    -0.055 C 
HETATM   28  C4  UNL     1      -4.821  -0.554   1.584  1.00  0.00    -0.043 C 
BRANCH  28  29
HETATM   29  C3  UNL     1      -5.725  -1.071   0.613  1.00  0.00     0.094 A 
HETATM   30  N1  UNL     1      -6.140  -0.238  -0.402  1.00  0.00    -0.345 N 
HETATM   31  C2  UNL     1      -6.957  -0.902  -1.200  1.00  0.00     0.075 A 
ATOM     32  H1  UNL     1      -5.861   0.736  -0.519  1.00  0.00     0.167 HD
HETATM   33  S1  UNL     1      -7.265  -2.536  -0.759  1.00  0.00    -0.084 SA
HETATM   34  C23 UNL     1      -6.225  -2.353   0.593  1.00  0.00     0.090 A 
BRANCH  31  35
HETATM   35  C1  UNL     1      -7.609  -0.308  -2.411  1.00  0.00     0.229 C 
BRANCH  35  36
HETATM   36  O1  UNL     1      -6.919   0.897  -2.751  1.00  0.00    -0.394 OA
HETATM   37  H1  UNL     1      -6.472   1.190  -1.932  1.00  0.00     0.209 HD
ENDBRANCH  35  36
ENDBRANCH  31  35
ENDBRANCH  28  29
ENDBRANCH   1  27
TORSDOF 9
