REMARK  2 active torsions:
REMARK  status: ('A' for Active; 'I' for Inactive)
REMARK    1  A    between atoms: C5_6  and  N1_7 
REMARK    2  A    between atoms: N1_7  and  C6_8 
ROOT
HETATM    1  C6  UNL     1      -0.230  -0.122   0.429  1.00  0.00     0.126 A 
HETATM    2  N2  UNL     1      -0.192  -0.413   1.749  1.00  0.00    -0.337 N 
ATOM      3  H2  UNL     1      -1.052  -0.635   2.251  1.00  0.00     0.168 HD
HETATM    4  C7  UNL     1       0.983  -0.407   2.392  1.00  0.00     0.182 A 
HETATM    5  N3  UNL     1       2.185  -0.139   1.881  1.00  0.00    -0.350 N 
ATOM      6  H3  UNL     1       3.040  -0.154   2.437  1.00  0.00     0.166 HD
HETATM    7  C8  UNL     1       2.170   0.156   0.556  1.00  0.00     0.067 A 
HETATM    8  C9  UNL     1       0.996   0.173  -0.190  1.00  0.00     0.078 A 
HETATM    9  S1  UNL     1       1.315   0.582  -1.831  1.00  0.00    -0.066 SA
HETATM   10  C10 UNL     1       2.983   0.731  -1.545  1.00  0.00     0.087 A 
HETATM   11  N4  UNL     1       3.822   1.063  -2.549  1.00  0.00    -0.360 N 
ATOM     12  H4  UNL     1       3.505   1.237  -3.503  1.00  0.00     0.166 HD
HETATM   13  C11 UNL     1       5.117   1.145  -2.179  1.00  0.00     0.089 A 
HETATM   14  C12 UNL     1       5.603   0.921  -0.903  1.00  0.00     0.018 A 
HETATM   15  C13 UNL     1       4.701   0.581   0.102  1.00  0.00     0.018 A 
HETATM   16  C14 UNL     1       3.330   0.479  -0.225  1.00  0.00     0.026 A 
ENDROOT
BRANCH   1  17
HETATM   17  N1  UNL     1      -1.426  -0.110  -0.305  1.00  0.00    -0.341 N 
HETATM   18  H4  UNL     1      -1.280   0.127  -1.279  1.00  0.00     0.167 HD
BRANCH  17  19
HETATM   19  C5  UNL     1      -2.765  -0.359   0.039  1.00  0.00     0.034 A 
HETATM   20  C4  UNL     1      -3.192  -0.702   1.327  1.00  0.00     0.029 A 
HETATM   21  C3  UNL     1      -4.543  -0.937   1.608  1.00  0.00     0.004 A 
HETATM   22  C2  UNL     1      -5.497  -0.833   0.601  1.00  0.00     0.019 A 
HETATM   23  C1  UNL     1      -5.091  -0.493  -0.684  1.00  0.00     0.013 A 
HETATM   24 BR1  UNL     1      -6.375  -0.348  -2.065  1.00  0.00    -0.051 Br
HETATM   25  C15 UNL     1      -3.743  -0.258  -0.966  1.00  0.00     0.048 A 
ENDBRANCH  17  19
ENDBRANCH   1  17
TORSDOF 2
