REMARK  3 active torsions:
REMARK  status: ('A' for Active; 'I' for Inactive)
REMARK    1  A    between atoms: N1_1  and  C1_2 
REMARK    2  A    between atoms: C6_11  and  N4_12 
REMARK    3  A    between atoms: N4_12  and  C7_13 
ROOT
HETATM    1  C1  UNL     1      -4.436   1.670   0.314  1.00  0.00     0.006 A 
HETATM    2  C2  UNL     1      -5.361   1.189  -0.605  1.00  0.00     0.025 A 
HETATM    3  C3  UNL     1      -4.995   0.207  -1.531  1.00  0.00     0.032 A 
HETATM    4  C4  UNL     1      -3.700  -0.284  -1.606  1.00  0.00     0.047 A 
HETATM    5  N2  UNL     1      -3.426  -1.229  -2.509  1.00  0.00    -0.352 N 
ATOM      6  H2  UNL     1      -4.143  -1.599  -3.133  1.00  0.00     0.166 HD
HETATM    7  C5  UNL     1      -2.163  -1.665  -2.553  1.00  0.00     0.182 A 
HETATM    8  N3  UNL     1      -1.152  -1.236  -1.793  1.00  0.00    -0.338 N 
ATOM      9  H3  UNL     1      -0.212  -1.621  -1.888  1.00  0.00     0.168 HD
HETATM   10  C6  UNL     1      -1.431  -0.273  -0.896  1.00  0.00     0.119 A 
HETATM   11  C16 UNL     1      -2.734   0.244  -0.740  1.00  0.00     0.036 A 
HETATM   12  C17 UNL     1      -3.116   1.231   0.208  1.00  0.00     0.040 A 
ENDROOT
BRANCH  10  13
HETATM   13  N4  UNL     1      -0.386   0.258  -0.091  1.00  0.00    -0.342 N 
HETATM   14  H6  UNL     1      -0.368   1.265  -0.213  1.00  0.00     0.167 HD
BRANCH  13  15
HETATM   15  C7  UNL     1       0.918  -0.254   0.113  1.00  0.00     0.034 A 
HETATM   16  C8  UNL     1       1.204  -1.633   0.066  1.00  0.00     0.030 A 
HETATM   17  C9  UNL     1       2.484  -2.129   0.346  1.00  0.00     0.010 A 
HETATM   18  C10 UNL     1       3.476  -1.231   0.688  1.00  0.00    -0.052 A 
HETATM   19  C11 UNL     1       3.205   0.135   0.774  1.00  0.00    -0.050 A 
HETATM   20  C15 UNL     1       4.894  -1.520   1.067  1.00  0.00     0.039 C 
HETATM   21  C12 UNL     1       1.936   0.631   0.511  1.00  0.00     0.037 A 
HETATM   22  C13 UNL     1       4.415   0.891   1.225  1.00  0.00     0.039 C 
HETATM   23  C14 UNL     1       5.527  -0.127   0.934  1.00  0.00     0.009 C 
ENDBRANCH  13  15
ENDBRANCH  10  13
BRANCH   1  24
HETATM   24  N1  UNL     1      -4.765   2.725   1.168  1.00  0.00    -0.303 NA
HETATM   25  H1  UNL     1      -5.753   2.777   1.400  1.00  0.00     0.124 HD
HETATM   26  H2  UNL     1      -4.177   2.793   1.993  1.00  0.00     0.124 HD
ENDBRANCH   1  24
TORSDOF 3
