REMARK  4 active torsions:
REMARK  status: ('A' for Active; 'I' for Inactive)
REMARK    1  A    between atoms: C2_2  and  C3_3 
REMARK       I    between atoms: C3_3  and  N1_5 
REMARK    2  A    between atoms: N1_5  and  C4_6 
REMARK    3  A    between atoms: C9_15  and  N4_16 
REMARK    4  A    between atoms: N4_16  and  C10_17 
ROOT
HETATM    1  C4  UNL     1      -3.178  -0.478  -0.211  1.00  0.00     0.036 A 
HETATM    2  C5  UNL     1      -3.606  -1.774  -0.470  1.00  0.00     0.032 A 
HETATM    3  C6  UNL     1      -2.695  -2.838  -0.438  1.00  0.00     0.033 A 
HETATM    4  C7  UNL     1      -1.351  -2.652  -0.145  1.00  0.00     0.047 A 
HETATM    5  N2  UNL     1      -0.541  -3.713  -0.147  1.00  0.00    -0.352 N 
ATOM      6  H2  UNL     1      -0.887  -4.651  -0.351  1.00  0.00     0.166 HD
HETATM    7  C8  UNL     1       0.746  -3.485   0.131  1.00  0.00     0.182 A 
HETATM    8  N3  UNL     1       1.291  -2.302   0.427  1.00  0.00    -0.338 N 
ATOM      9  H3  UNL     1       2.286  -2.209   0.633  1.00  0.00     0.168 HD
HETATM   10  C9  UNL     1       0.467  -1.240   0.441  1.00  0.00     0.119 A 
HETATM   11  C18 UNL     1      -0.906  -1.356   0.139  1.00  0.00     0.037 A 
HETATM   12  C19 UNL     1      -1.828  -0.275   0.093  1.00  0.00     0.047 A 
ENDROOT
BRANCH  10  13
HETATM   13  N4  UNL     1       0.981   0.036   0.805  1.00  0.00    -0.342 N 
HETATM   14  H8  UNL     1       0.463   0.366   1.613  1.00  0.00     0.167 HD
BRANCH  13  15
HETATM   15  C10 UNL     1       2.336   0.443   0.866  1.00  0.00     0.034 A 
HETATM   16  C11 UNL     1       2.687   1.506   1.711  1.00  0.00     0.032 A 
HETATM   17  C12 UNL     1       3.993   2.009   1.776  1.00  0.00     0.033 A 
HETATM   18  C13 UNL     1       4.950   1.428   0.940  1.00  0.00     0.043 A 
HETATM   19  N5  UNL     1       6.291   1.714   0.792  1.00  0.00    -0.364 N 
HETATM   20  C16 UNL     1       4.644   0.393   0.055  1.00  0.00     0.011 A 
HETATM   21  C14 UNL     1       6.846   0.902  -0.161  1.00  0.00     0.108 A 
HETATM   22  H11 UNL     1       6.786   2.425   1.313  1.00  0.00     0.165 HD
HETATM   23  C15 UNL     1       5.848   0.084  -0.626  1.00  0.00     0.038 A 
HETATM   24 BR1  UNL     1       6.031  -1.236  -1.947  1.00  0.00    -0.049 Br
HETATM   25  C17 UNL     1       3.317  -0.088   0.013  1.00  0.00     0.044 A 
ENDBRANCH  13  15
ENDBRANCH  10  13
BRANCH   1  26
HETATM   26  N1  UNL     1      -4.016   0.657  -0.242  1.00  0.00    -0.324 N 
HETATM   27  C3  UNL     1      -5.373   0.684  -0.498  1.00  0.00     0.244 C 
HETATM   28  O1  UNL     1      -6.103  -0.271  -0.725  1.00  0.00    -0.268 OA
HETATM   29  H4  UNL     1      -3.563   1.542  -0.061  1.00  0.00     0.169 HD
BRANCH  27  30
HETATM   30  C2  UNL     1      -5.914   2.075  -0.467  1.00  0.00     0.064 C 
HETATM   31  C1  UNL     1      -7.218   2.304  -0.673  1.00  0.00     0.017 C 
ENDBRANCH  27  30
ENDBRANCH   1  26
TORSDOF 4
