REMARK  3 active torsions:
REMARK  status: ('A' for Active; 'I' for Inactive)
REMARK    1  A    between atoms: N1_1  and  C1_2 
REMARK    2  A    between atoms: C6_11  and  N4_12 
REMARK    3  A    between atoms: N4_12  and  C7_13 
ROOT
HETATM    1  C1  UNL     1       4.161   1.199  -0.062  1.00  0.00     0.006 A 
HETATM    2  C2  UNL     1       5.074   0.159   0.069  1.00  0.00     0.025 A 
HETATM    3  C3  UNL     1       4.637  -1.170   0.107  1.00  0.00     0.032 A 
HETATM    4  C4  UNL     1       3.290  -1.500   0.054  1.00  0.00     0.047 A 
HETATM    5  N2  UNL     1       2.947  -2.789   0.101  1.00  0.00    -0.352 N 
ATOM      6  H2  UNL     1       3.647  -3.529   0.154  1.00  0.00     0.166 HD
HETATM    7  C5  UNL     1       1.639  -3.061   0.075  1.00  0.00     0.182 A 
HETATM    8  N3  UNL     1       0.649  -2.169  -0.006  1.00  0.00    -0.338 N 
ATOM      9  H3  UNL     1      -0.329  -2.458  -0.019  1.00  0.00     0.168 HD
HETATM   10  C6  UNL     1       1.001  -0.872  -0.070  1.00  0.00     0.119 A 
HETATM   11  C15 UNL     1       2.351  -0.465  -0.033  1.00  0.00     0.036 A 
HETATM   12  C16 UNL     1       2.803   0.883  -0.059  1.00  0.00     0.040 A 
ENDROOT
BRANCH  10  13
HETATM   13  N4  UNL     1      -0.008   0.121  -0.201  1.00  0.00    -0.342 N 
HETATM   14  H6  UNL     1       0.204   0.692  -1.012  1.00  0.00     0.167 HD
BRANCH  13  15
HETATM   15  C7  UNL     1      -1.406  -0.010  -0.017  1.00  0.00     0.034 A 
HETATM   16  C8  UNL     1      -1.965  -0.926   0.878  1.00  0.00     0.032 A 
HETATM   17  C9  UNL     1      -3.346  -1.004   1.103  1.00  0.00     0.033 A 
HETATM   18  C10 UNL     1      -4.166  -0.104   0.417  1.00  0.00     0.043 A 
HETATM   19  N5  UNL     1      -5.535   0.048   0.444  1.00  0.00    -0.364 N 
HETATM   20  C13 UNL     1      -3.656   0.854  -0.460  1.00  0.00     0.011 A 
HETATM   21  C11 UNL     1      -5.915   1.073  -0.382  1.00  0.00     0.108 A 
HETATM   22  H9  UNL     1      -6.162  -0.518   0.999  1.00  0.00     0.165 HD
HETATM   23  C12 UNL     1      -4.772   1.582  -0.945  1.00  0.00     0.038 A 
HETATM   24 BR1  UNL     1      -4.683   3.007  -2.162  1.00  0.00    -0.049 Br
HETATM   25  C14 UNL     1      -2.259   0.905  -0.663  1.00  0.00     0.044 A 
ENDBRANCH  13  15
ENDBRANCH  10  13
BRANCH   1  26
HETATM   26  N1  UNL     1       4.582   2.526   0.034  1.00  0.00    -0.303 NA
HETATM   27  H1  UNL     1       3.937   3.206  -0.356  1.00  0.00     0.124 HD
HETATM   28  H2  UNL     1       5.539   2.686  -0.265  1.00  0.00     0.124 HD
ENDBRANCH   1  26
TORSDOF 3
