REMARK  4 active torsions:
REMARK  status: ('A' for Active; 'I' for Inactive)
REMARK    1  A    between atoms: N1_1  and  C1_2 
REMARK    2  A    between atoms: C1_2  and  N2_4 
REMARK    3  A    between atoms: C2_7  and  C3_8 
REMARK    4  A    between atoms: C10_15  and  C11_16 
ROOT
HETATM    1  N2  UNL     1      -0.650   1.531   1.400  1.00  0.00    -0.258 N 
HETATM    2  N3  UNL     1      -1.884   0.906   1.347  1.00  0.00    -0.299 N 
ATOM      3  H3  UNL     1      -2.502   0.711   2.135  1.00  0.00     0.187 HD
HETATM    4  C2  UNL     1      -2.104   0.615   0.098  1.00  0.00     0.038 C 
HETATM    5  C9  UNL     1      -1.053   1.095  -0.869  1.00  0.00     0.091 C 
HETATM    6  C10 UNL     1       0.042   1.519   0.103  1.00  0.00     0.149 C 
ENDROOT
BRANCH   6   7
HETATM    7  C11 UNL     1       1.222   0.561   0.051  1.00  0.00    -0.032 A 
HETATM    8  C12 UNL     1       1.182  -0.701   0.661  1.00  0.00     0.010 A 
HETATM    9  C13 UNL     1       2.269  -1.573   0.567  1.00  0.00     0.013 A 
HETATM   10  C14 UNL     1       3.423  -1.210  -0.141  1.00  0.00    -0.026 A 
HETATM   11  C15 UNL     1       4.523  -2.076  -0.244  1.00  0.00     0.012 A 
HETATM   12  C19 UNL     1       3.479   0.057  -0.763  1.00  0.00    -0.025 A 
HETATM   13  C16 UNL     1       5.665  -1.699  -0.952  1.00  0.00     0.001 A 
HETATM   14  C17 UNL     1       5.722  -0.451  -1.564  1.00  0.00     0.001 A 
HETATM   15  C18 UNL     1       4.637   0.422  -1.471  1.00  0.00     0.012 A 
HETATM   16  C20 UNL     1       2.378   0.925  -0.661  1.00  0.00     0.021 A 
ENDBRANCH   6   7
BRANCH   1  17
HETATM   17  C1  UNL     1      -0.218   2.117   2.577  1.00  0.00     0.187 C 
HETATM   18  S1  UNL     1       1.179   2.994   2.811  1.00  0.00    -0.040 SA
BRANCH  17  19
HETATM   19  N1  UNL     1      -1.071   1.933   3.625  1.00  0.00    -0.375 N 
HETATM   20  H1  UNL     1      -1.955   1.486   3.412  1.00  0.00     0.158 HD
HETATM   21  H2  UNL     1      -0.909   2.375   4.516  1.00  0.00     0.158 HD
ENDBRANCH  17  19
ENDBRANCH   1  17
BRANCH   4  22
HETATM   22  C3  UNL     1      -3.318  -0.099  -0.365  1.00  0.00    -0.012 A 
HETATM   23  C4  UNL     1      -3.586  -0.278  -1.726  1.00  0.00     0.013 A 
HETATM   24  C5  UNL     1      -4.740  -0.957  -2.129  1.00  0.00     0.001 A 
HETATM   25  C6  UNL     1      -5.626  -1.458  -1.176  1.00  0.00     0.000 A 
HETATM   26  C7  UNL     1      -5.365  -1.280   0.181  1.00  0.00     0.001 A 
HETATM   27  C8  UNL     1      -4.214  -0.602   0.587  1.00  0.00     0.013 A 
ENDBRANCH   4  22
TORSDOF 4
