REMARK  3 active torsions:
REMARK  status: ('A' for Active; 'I' for Inactive)
REMARK    1  A    between atoms: C5_5  and  N1_6 
REMARK    2  A    between atoms: N1_6  and  C6_7 
REMARK    3  A    between atoms: C14_20  and  O1_21 
ROOT
HETATM    1  C6  UNL     1      -1.254  -0.612  -0.134  1.00  0.00     0.136 A 
HETATM    2  N2  UNL     1      -0.980  -1.865   0.084  1.00  0.00    -0.336 N 
ATOM      3  H2  UNL     1      -0.040  -2.135   0.373  1.00  0.00     0.168 HD
HETATM    4  C7  UNL     1      -1.945  -2.823  -0.072  1.00  0.00     0.199 A 
HETATM    5  N3  UNL     1      -3.174  -2.640  -0.430  1.00  0.00    -0.289 N 
ATOM      6  H3  UNL     1      -3.848  -3.399  -0.525  1.00  0.00     0.188 HD
HETATM    7  N4  UNL     1      -3.475  -1.357  -0.664  1.00  0.00    -0.263 N 
HETATM    8  C8  UNL     1      -4.701  -0.900  -1.057  1.00  0.00     0.117 A 
HETATM    9  C9  UNL     1      -4.618   0.462  -1.219  1.00  0.00     0.028 A 
HETATM   10  C10 UNL     1      -3.282   0.855  -0.908  1.00  0.00    -0.028 A 
HETATM   11  C11 UNL     1      -2.779   2.252  -0.979  1.00  0.00     0.050 C 
HETATM   12  C12 UNL     1      -2.605  -0.308  -0.553  1.00  0.00     0.105 A 
ENDROOT
BRANCH   1  13
HETATM   13  N1  UNL     1      -0.321   0.390   0.044  1.00  0.00    -0.340 N 
HETATM   14  H6  UNL     1      -0.671   1.333  -0.000  1.00  0.00     0.167 HD
BRANCH  13  15
HETATM   15  C5  UNL     1       1.059   0.320   0.315  1.00  0.00     0.036 A 
HETATM   16  C4  UNL     1       1.715   1.496   0.720  1.00  0.00     0.030 A 
HETATM   17  C3  UNL     1       3.081   1.506   1.024  1.00  0.00     0.012 A 
HETATM   18  C2  UNL     1       3.833   0.333   0.936  1.00  0.00    -0.029 A 
HETATM   19  C1  UNL     1       5.298   0.335   1.264  1.00  0.00     0.051 C 
HETATM   20  C14 UNL     1       3.186  -0.839   0.541  1.00  0.00     0.073 A 
HETATM   21  C13 UNL     1       1.821  -0.849   0.235  1.00  0.00     0.066 A 
BRANCH  20  22
HETATM   22  O1  UNL     1       3.917  -1.992   0.455  1.00  0.00    -0.360 OA
HETATM   23  H14 UNL     1       3.321  -2.717   0.205  1.00  0.00     0.217 HD
ENDBRANCH  20  22
ENDBRANCH  13  15
ENDBRANCH   1  13
TORSDOF 3
