REMARK  5 active torsions:
REMARK  status: ('A' for Active; 'I' for Inactive)
REMARK    1  A    between atoms: N1_1  and  C1_2 
REMARK    2  A    between atoms: C2_5  and  N3_6 
REMARK    3  A    between atoms: N3_6  and  C3_7 
REMARK    4  A    between atoms: C11_21  and  S1_22 
REMARK    5  A    between atoms: S1_22  and  C12_23 
ROOT
HETATM    1  C3  UNL     1      -1.644  -0.137   0.419  1.00  0.00     0.708 A 
HETATM    2  N4  UNL     1      -2.548   0.501  -0.304  1.00  0.00    -0.130 N 
ATOM      3  H4  UNL     1      -3.381   0.078  -0.713  1.00  0.00     0.205 HD
HETATM    4  N5  UNL     1      -2.190   1.822  -0.419  1.00  0.00    -0.269 N 
ATOM      5  H5  UNL     1      -2.708   2.549  -0.913  1.00  0.00     0.189 HD
HETATM    6  C4  UNL     1      -1.059   1.974   0.225  1.00  0.00     0.158 A 
HETATM    7  C5  UNL     1      -0.250   3.153   0.435  1.00  0.00     0.037 A 
HETATM    8  C6  UNL     1      -0.606   4.414  -0.048  1.00  0.00     0.017 A 
HETATM    9  C7  UNL     1       0.223   5.507   0.207  1.00  0.00     0.001 A 
HETATM   10  C8  UNL     1       1.399   5.337   0.942  1.00  0.00     0.002 A 
HETATM   11  C9  UNL     1       1.753   4.073   1.421  1.00  0.00     0.030 A 
HETATM   12  C10 UNL     1       0.936   2.971   1.171  1.00  0.00     0.048 A 
HETATM   13  N6  UNL     1       1.328   1.700   1.655  1.00  0.00    -0.335 N 
ATOM     14  H6  UNL     1       2.199   1.595   2.175  1.00  0.00     0.168 HD
HETATM   15  C11 UNL     1       0.568   0.663   1.432  1.00  0.00     0.174 A 
HETATM   16  N7  UNL     1      -0.646   0.770   0.745  1.00  0.00    -0.107 N 
ENDROOT
BRANCH   1  17
HETATM   17  N3  UNL     1      -1.623  -1.436   0.828  1.00  0.00    -0.174 N 
HETATM   18  H3  UNL     1      -0.886  -1.708   1.473  1.00  0.00     0.186 HD
BRANCH  17  19
HETATM   19  C2  UNL     1      -2.512  -2.406   0.500  1.00  0.00     0.129 A 
HETATM   20  N2  UNL     1      -3.551  -2.182  -0.367  1.00  0.00    -0.322 N 
HETATM   21  C1  UNL     1      -4.265  -3.267  -0.520  1.00  0.00     0.143 A 
ATOM     22  H2  UNL     1      -3.741  -1.292  -0.829  1.00  0.00     0.169 HD
HETATM   23  S2  UNL     1      -3.705  -4.641   0.342  1.00  0.00    -0.062 SA
HETATM   24  C18 UNL     1      -2.432  -3.692   0.992  1.00  0.00     0.102 A 
BRANCH  21  25
HETATM   25  N1  UNL     1      -5.348  -3.325  -1.313  1.00  0.00    -0.380 N 
HETATM   26  H1  UNL     1      -5.579  -4.218  -1.728  1.00  0.00     0.158 HD
HETATM   27  H2  UNL     1      -5.436  -2.537  -1.948  1.00  0.00     0.158 HD
ENDBRANCH  21  25
ENDBRANCH  17  19
ENDBRANCH   1  17
BRANCH  15  28
HETATM   28  S1  UNL     1       1.153  -0.889   2.027  1.00  0.00    -0.053 SA
BRANCH  28  29
HETATM   29  C12 UNL     1       2.215  -1.337   0.666  1.00  0.00     0.008 A 
HETATM   30  C13 UNL     1       1.854  -2.385  -0.188  1.00  0.00     0.020 A 
HETATM   31  C14 UNL     1       2.682  -2.740  -1.257  1.00  0.00     0.020 A 
HETATM   32  C15 UNL     1       3.874  -2.050  -1.468  1.00  0.00     0.011 A 
HETATM   33 BR1  UNL     1       4.994  -2.532  -2.912  1.00  0.00    -0.051 Br
HETATM   34  C16 UNL     1       4.245  -1.008  -0.622  1.00  0.00     0.020 A 
HETATM   35  C17 UNL     1       3.417  -0.654   0.446  1.00  0.00     0.020 A 
ENDBRANCH  28  29
ENDBRANCH  15  28
TORSDOF 5
