REMARK  3 active torsions:
REMARK  status: ('A' for Active; 'I' for Inactive)
REMARK    1  A    between atoms: C4_5  and  C5_6 
REMARK    2  A    between atoms: N2_9  and  C6_10 
REMARK    3  A    between atoms: C12_16  and  C13_17 
ROOT
HETATM    1  C5  UNL     1       1.774  -0.670  -1.112  1.00  0.00     0.038 C 
HETATM    2  N1  UNL     1       1.869   0.507  -0.571  1.00  0.00    -0.301 N 
ATOM      3  H1  UNL     1       2.657   0.864  -0.031  1.00  0.00     0.187 HD
HETATM    4  N2  UNL     1       0.713   1.177  -0.863  1.00  0.00    -0.283 N 
HETATM    5  C12 UNL     1      -0.285   0.337  -1.527  1.00  0.00     0.147 C 
HETATM    6  C23 UNL     1       0.524  -0.903  -1.916  1.00  0.00     0.091 C 
ENDROOT
BRANCH   5   7
HETATM    7  C13 UNL     1      -1.458  -0.044  -0.634  1.00  0.00    -0.032 A 
HETATM    8  C14 UNL     1      -2.712  -0.291  -1.212  1.00  0.00     0.010 A 
HETATM    9  C15 UNL     1      -3.800  -0.668  -0.421  1.00  0.00     0.013 A 
HETATM   10  C16 UNL     1      -3.664  -0.813   0.967  1.00  0.00    -0.026 A 
HETATM   11  C17 UNL     1      -4.749  -1.188   1.776  1.00  0.00     0.012 A 
HETATM   12  C21 UNL     1      -2.406  -0.576   1.564  1.00  0.00    -0.025 A 
HETATM   13  C18 UNL     1      -4.595  -1.325   3.157  1.00  0.00     0.001 A 
HETATM   14  C19 UNL     1      -3.356  -1.091   3.745  1.00  0.00     0.001 A 
HETATM   15  C20 UNL     1      -2.267  -0.719   2.954  1.00  0.00     0.012 A 
HETATM   16  C22 UNL     1      -1.320  -0.199   0.756  1.00  0.00     0.021 A 
ENDBRANCH   5   7
BRANCH   4  17
HETATM   17  C6  UNL     1       0.576   2.532  -0.565  1.00  0.00     0.051 A 
HETATM   18  C7  UNL     1       1.625   3.246   0.040  1.00  0.00     0.031 A 
HETATM   19  C8  UNL     1       1.513   4.605   0.354  1.00  0.00     0.002 A 
HETATM   20  C9  UNL     1       0.337   5.289   0.067  1.00  0.00     0.000 A 
HETATM   21  C10 UNL     1      -0.719   4.612  -0.532  1.00  0.00     0.002 A 
HETATM   22  C11 UNL     1      -0.597   3.251  -0.844  1.00  0.00     0.031 A 
ENDBRANCH   4  17
BRANCH   1  23
HETATM   23  C4  UNL     1       2.825  -1.706  -0.981  1.00  0.00    -0.012 A 
HETATM   24  C3  UNL     1       2.765  -2.904  -1.702  1.00  0.00     0.015 A 
HETATM   25  C2  UNL     1       3.772  -3.863  -1.551  1.00  0.00     0.024 A 
HETATM   26  C1  UNL     1       4.837  -3.624  -0.683  1.00  0.00     0.034 A 
HETATM   27 CL1  UNL     1       6.072  -4.807  -0.499  1.00  0.00    -0.084 Cl
HETATM   28  C25 UNL     1       4.905  -2.433   0.037  1.00  0.00     0.024 A 
HETATM   29  C24 UNL     1       3.902  -1.473  -0.115  1.00  0.00     0.015 A 
ENDBRANCH   1  23
TORSDOF 3
