REMARK  4 active torsions:
REMARK  status: ('A' for Active; 'I' for Inactive)
REMARK    1  A    between atoms: C4_4  and  C5_5 
REMARK    2  A    between atoms: C5_5  and  C6_6 
REMARK    3  A    between atoms: C9_11  and  N2_12 
REMARK    4  A    between atoms: N2_12  and  C10_13 
ROOT
HETATM    1  C6  UNL     1       3.206   1.507  -0.279  1.00  0.00     0.086 A 
HETATM    2  N1  UNL     1       1.989   1.974  -0.067  1.00  0.00    -0.344 N 
ATOM      3  H1  UNL     1       1.725   2.941   0.123  1.00  0.00     0.167 HD
HETATM    4  C7  UNL     1       1.153   0.887  -0.155  1.00  0.00     0.062 A 
HETATM    5  C8  UNL     1      -0.241   0.812  -0.009  1.00  0.00     0.061 A 
HETATM    6  C9  UNL     1      -0.896  -0.429  -0.134  1.00  0.00     0.035 A 
HETATM    7  C19 UNL     1      -0.128  -1.564  -0.431  1.00  0.00     0.032 A 
HETATM    8  C20 UNL     1       1.268  -1.515  -0.582  1.00  0.00     0.034 A 
HETATM    9  C21 UNL     1       1.868  -0.267  -0.434  1.00  0.00     0.060 A 
HETATM   10  N7  UNL     1       3.170   0.150  -0.511  1.00  0.00    -0.344 N 
HETATM   11  H15 UNL     1       3.974  -0.436  -0.687  1.00  0.00     0.167 HD
ENDROOT
BRANCH   6  12
HETATM   12  N2  UNL     1      -2.299  -0.455  -0.003  1.00  0.00    -0.342 N 
HETATM   13  H7  UNL     1      -2.695   0.438   0.249  1.00  0.00     0.167 HD
BRANCH  12  14
HETATM   14  C10 UNL     1      -3.199  -1.511   0.179  1.00  0.00     0.123 A 
HETATM   15  N3  UNL     1      -2.791  -2.801   0.375  1.00  0.00    -0.338 N 
HETATM   16  C11 UNL     1      -3.704  -3.787   0.627  1.00  0.00     0.183 A 
ATOM     17  H3  UNL     1      -1.798  -3.030   0.333  1.00  0.00     0.168 HD
HETATM   18  N4  UNL     1      -5.051  -3.719   0.727  1.00  0.00    -0.337 N 
HETATM   19  C12 UNL     1      -5.486  -2.457   0.518  1.00  0.00     0.137 A 
ATOM     20  H4  UNL     1      -5.657  -4.513   0.933  1.00  0.00     0.168 HD
HETATM   21  N5  UNL     1      -6.756  -2.065   0.546  1.00  0.00    -0.278 N 
HETATM   22  C18 UNL     1      -4.598  -1.384   0.245  1.00  0.00     0.082 A 
HETATM   23  N6  UNL     1      -6.715  -0.740   0.265  1.00  0.00    -0.265 N 
ATOM     24  H5  UNL     1      -7.580  -2.636   0.737  1.00  0.00     0.189 HD
HETATM   25  C13 UNL     1      -7.817   0.116   0.193  1.00  0.00     0.116 A 
HETATM   26  C17 UNL     1      -5.401  -0.285   0.038  1.00  0.00     0.073 A 
HETATM   27  C14 UNL     1      -7.653   1.410  -0.119  1.00  0.00     0.019 A 
HETATM   28  C15 UNL     1      -6.317   1.893  -0.406  1.00  0.00     0.004 A 
HETATM   29  C16 UNL     1      -5.241   1.085  -0.337  1.00  0.00     0.032 A 
ENDBRANCH  12  14
ENDBRANCH   6  12
BRANCH   1  30
HETATM   30  C5  UNL     1       4.468   2.312  -0.296  1.00  0.00     0.115 C 
BRANCH  30  31
HETATM   31  C4  UNL     1       5.718   1.511  -0.005  1.00  0.00    -0.051 A 
HETATM   32  C3  UNL     1       6.573   1.120  -1.046  1.00  0.00     0.007 A 
HETATM   33  C2  UNL     1       7.708   0.353  -0.777  1.00  0.00     0.001 A 
HETATM   34  C1  UNL     1       7.997  -0.032   0.531  1.00  0.00     0.000 A 
HETATM   35  C23 UNL     1       7.153   0.350   1.573  1.00  0.00     0.001 A 
HETATM   36  C22 UNL     1       6.018   1.117   1.307  1.00  0.00     0.007 A 
ENDBRANCH  30  31
ENDBRANCH   1  30
TORSDOF 4
