REMARK  3 active torsions:
REMARK  status: ('A' for Active; 'I' for Inactive)
REMARK    1  A    between atoms: C2_2  and  C3_3 
REMARK       I    between atoms: C3_3  and  N1_5 
REMARK    2  A    between atoms: C10_17  and  N4_18 
REMARK    3  A    between atoms: N4_18  and  C11_19 
ROOT
HETATM    1  C3  UNL     1      -4.545   0.223   1.624  1.00  0.00     0.242 C 
HETATM    2  O1  UNL     1      -4.090   0.582   2.708  1.00  0.00    -0.268 OA
HETATM    3  N1  UNL     1      -3.959  -0.770   0.856  1.00  0.00    -0.344 N 
HETATM    4  C4  UNL     1      -2.772  -1.438   1.404  1.00  0.00     0.131 C 
HETATM    5  C5  UNL     1      -1.487  -0.752   0.910  1.00  0.00     0.060 C 
HETATM    6  C6  UNL     1      -1.551  -0.517  -0.578  1.00  0.00    -0.025 A 
HETATM    7  C7  UNL     1      -2.771  -0.588  -1.236  1.00  0.00     0.010 A 
HETATM    8  S1  UNL     1      -2.619  -0.351  -2.911  1.00  0.00    -0.074 SA
HETATM    9  C8  UNL     1      -0.935  -0.124  -2.785  1.00  0.00     0.090 A 
HETATM   10  N2  UNL     1      -0.214   0.108  -3.893  1.00  0.00    -0.346 N 
ATOM     11  H2  UNL     1      -0.612   0.155  -4.831  1.00  0.00     0.167 HD
HETATM   12  C9  UNL     1       1.080   0.269  -3.627  1.00  0.00     0.182 A 
HETATM   13  N3  UNL     1       1.673   0.237  -2.427  1.00  0.00    -0.338 N 
ATOM     14  H3  UNL     1       2.681   0.375  -2.351  1.00  0.00     0.168 HD
HETATM   15  C10 UNL     1       0.930   0.021  -1.314  1.00  0.00     0.120 A 
HETATM   16  C18 UNL     1      -0.462  -0.200  -1.480  1.00  0.00     0.049 A 
HETATM   17  C19 UNL     1      -4.107  -0.878  -0.604  1.00  0.00     0.172 C 
ENDROOT
BRANCH  15  18
HETATM   18  N4  UNL     1       1.523   0.060  -0.041  1.00  0.00    -0.342 N 
HETATM   19  H9  UNL     1       0.857   0.234   0.696  1.00  0.00     0.167 HD
BRANCH  18  20
HETATM   20  C11 UNL     1       2.864   0.171   0.370  1.00  0.00     0.034 A 
HETATM   21  C12 UNL     1       3.131   0.521   1.701  1.00  0.00     0.031 A 
HETATM   22  C13 UNL     1       4.442   0.639   2.169  1.00  0.00     0.022 A 
HETATM   23  C14 UNL     1       5.516   0.402   1.312  1.00  0.00     0.017 A 
HETATM   24 BR1  UNL     1       7.267   0.582   2.024  1.00  0.00    -0.051 Br
HETATM   25  C15 UNL     1       5.288   0.040  -0.021  1.00  0.00    -0.043 A 
HETATM   26  C16 UNL     1       6.409  -0.234  -0.985  1.00  0.00     0.049 C 
HETATM   27  C17 UNL     1       3.957  -0.073  -0.471  1.00  0.00     0.037 A 
ENDBRANCH  18  20
ENDBRANCH  15  18
BRANCH   1  28
HETATM   28  C2  UNL     1      -5.798   0.827   1.099  1.00  0.00     0.064 C 
HETATM   29  C1  UNL     1      -6.180   2.047   1.497  1.00  0.00     0.017 C 
ENDBRANCH   1  28
TORSDOF 3
