REMARK  9 active torsions:
REMARK  status: ('A' for Active; 'I' for Inactive)
REMARK       I    between atoms: N1_1  and  C1_2 
REMARK    1  A    between atoms: C1_2  and  O2_4 
REMARK    2  A    between atoms: O2_4  and  C2_5 
REMARK    3  A    between atoms: C4_8  and  C5_9 
REMARK    4  A    between atoms: C6_10  and  C7_11 
REMARK    5  A    between atoms: C11_19  and  N5_20 
REMARK    6  A    between atoms: N5_20  and  C12_21 
REMARK    7  A    between atoms: C15_24  and  O3_25 
REMARK    8  A    between atoms: O3_25  and  C16_26 
REMARK    9  A    between atoms: C16_26  and  C17_27 
ROOT
HETATM    1  C7  UNL     1      -3.039   1.096   0.050  1.00  0.00     0.061 A 
HETATM    2  C8  UNL     1      -2.657   2.392   0.305  1.00  0.00     0.059 A 
HETATM    3  C9  UNL     1      -1.246   2.571   0.218  1.00  0.00     0.056 A 
HETATM    4  N3  UNL     1      -0.598   3.742   0.423  1.00  0.00    -0.351 N 
ATOM      5  H3  UNL     1      -1.078   4.609   0.663  1.00  0.00     0.166 HD
HETATM    6  C10 UNL     1       0.726   3.658   0.283  1.00  0.00     0.182 A 
HETATM    7  N4  UNL     1       1.448   2.571  -0.027  1.00  0.00    -0.337 N 
ATOM      8  H4  UNL     1       2.463   2.632  -0.106  1.00  0.00     0.168 HD
HETATM    9  C11 UNL     1       0.816   1.392  -0.234  1.00  0.00     0.126 A 
HETATM   10  C25 UNL     1      -0.584   1.393  -0.107  1.00  0.00     0.077 A 
HETATM   11  S1  UNL     1      -1.703   0.096  -0.297  1.00  0.00    -0.075 SA
ENDROOT
BRANCH   9  12
HETATM   12  N5  UNL     1       1.506   0.217  -0.569  1.00  0.00    -0.341 N 
HETATM   13  H10 UNL     1       0.881  -0.568  -0.711  1.00  0.00     0.167 HD
BRANCH  12  14
HETATM   14  C12 UNL     1       2.869  -0.082  -0.724  1.00  0.00     0.035 A 
HETATM   15  C13 UNL     1       3.901   0.829  -0.486  1.00  0.00     0.032 A 
HETATM   16  C14 UNL     1       5.248   0.479  -0.671  1.00  0.00     0.041 A 
HETATM   17  C15 UNL     1       5.597  -0.796  -1.113  1.00  0.00     0.091 A 
HETATM   18  C23 UNL     1       4.570  -1.720  -1.343  1.00  0.00     0.069 A 
HETATM   19 CL1  UNL     1       4.913  -3.330  -1.879  1.00  0.00    -0.081 Cl
HETATM   20  C24 UNL     1       3.228  -1.366  -1.157  1.00  0.00     0.056 A 
BRANCH  17  21
HETATM   21  O3  UNL     1       6.880  -1.230  -1.308  1.00  0.00    -0.345 OA
BRANCH  21  22
HETATM   22  C16 UNL     1       7.919  -0.260  -1.456  1.00  0.00     0.214 C 
BRANCH  22  23
HETATM   23  C17 UNL     1       8.566   0.114  -0.142  1.00  0.00    -0.031 A 
HETATM   24  C18 UNL     1       9.106   1.399   0.034  1.00  0.00     0.009 A 
HETATM   25  C19 UNL     1       9.732   1.752   1.233  1.00  0.00     0.004 A 
HETATM   26  C20 UNL     1       9.834   0.821   2.264  1.00  0.00     0.042 A 
HETATM   27  C21 UNL     1       9.315  -0.456   2.087  1.00  0.00     0.117 A 
HETATM   28  F1  UNL     1       9.422  -1.353   3.076  1.00  0.00    -0.206 F 
HETATM   29  C22 UNL     1       8.691  -0.818   0.898  1.00  0.00     0.051 A 
ENDBRANCH  22  23
ENDBRANCH  21  22
ENDBRANCH  17  21
ENDBRANCH  12  14
ENDBRANCH   9  12
BRANCH   1  30
HETATM   30  C6  UNL     1      -4.384   0.625   0.068  1.00  0.00    -0.057 C 
HETATM   31  C5  UNL     1      -5.517   0.228   0.080  1.00  0.00    -0.065 C 
BRANCH  31  32
HETATM   32  C4  UNL     1      -6.896  -0.259   0.094  1.00  0.00     0.301 C 
HETATM   33  N2  UNL     1      -7.759   0.598  -0.715  1.00  0.00     0.102 N 
HETATM   34  C3  UNL     1      -8.965  -0.197  -0.986  1.00  0.00     0.303 C 
HETATM   35  H6  UNL     1      -7.991   1.452  -0.212  1.00  0.00     0.317 HD
HETATM   36  C2  UNL     1      -8.534  -1.670  -0.912  1.00  0.00     0.164 C 
HETATM   37  C26 UNL     1      -7.045  -1.611  -0.588  1.00  0.00     0.083 C 
BRANCH  36  38
HETATM   38  O2  UNL     1      -9.192  -2.353   0.171  1.00  0.00    -0.297 OA
BRANCH  38  39
HETATM   39  C1  UNL     1     -10.489  -2.655  -0.059  1.00  0.00     0.358 C 
HETATM   40  N1  UNL     1     -11.004  -3.313   1.001  1.00  0.00    -0.346 N 
HETATM   41  H1  UNL     1     -10.403  -3.587   1.762  1.00  0.00     0.161 HD
HETATM   42  H2  UNL     1     -11.946  -3.669   0.939  1.00  0.00     0.161 HD
HETATM   43  O1  UNL     1     -11.126  -2.385  -1.064  1.00  0.00    -0.239 OA
ENDBRANCH  38  39
ENDBRANCH  36  38
ENDBRANCH  31  32
ENDBRANCH   1  30
TORSDOF 9
