REMARK  4 active torsions:
REMARK  status: ('A' for Active; 'I' for Inactive)
REMARK       I    between atoms: C1_2  and  N1_3 
REMARK       I    between atoms: C1_2  and  N3_15 
REMARK    1  A    between atoms: N1_3  and  N2_4 
REMARK    2  A    between atoms: C2_6  and  C3_7 
REMARK    3  A    between atoms: C13_24  and  N6_25 
REMARK    4  A    between atoms: N6_25  and  C14_26 
ROOT
HETATM    1  O1  UNL     1       2.559  -2.100  -0.781  1.00  0.00    -0.245 OA
HETATM    2  C1  UNL     1       1.638  -1.295  -0.653  1.00  0.00     0.337 C 
HETATM    3  N1  UNL     1       1.826   0.061  -0.394  1.00  0.00    -0.252 N 
HETATM    4  N3  UNL     1       0.301  -1.687  -0.731  1.00  0.00    -0.328 N 
HETATM    5  C9  UNL     1      -0.004  -3.044  -1.179  1.00  0.00     0.134 C 
HETATM    6  C10 UNL     1      -1.017  -3.700  -0.253  1.00  0.00     0.077 C 
HETATM    7  C11 UNL     1      -2.241  -2.836  -0.120  1.00  0.00     0.023 A 
HETATM    8  N4  UNL     1      -3.394  -3.465   0.179  1.00  0.00    -0.355 N 
ATOM      9  H4  UNL     1      -3.446  -4.478   0.283  1.00  0.00     0.166 HD
HETATM   10  C12 UNL     1      -4.465  -2.681   0.331  1.00  0.00     0.182 A 
HETATM   11  N5  UNL     1      -4.489  -1.350   0.208  1.00  0.00    -0.338 N 
ATOM     12  H5  UNL     1      -5.351  -0.820   0.338  1.00  0.00     0.168 HD
HETATM   13  C13 UNL     1      -3.329  -0.738  -0.095  1.00  0.00     0.116 A 
HETATM   14  C20 UNL     1      -2.148  -1.458  -0.265  1.00  0.00     0.026 A 
HETATM   15  C21 UNL     1      -0.837  -0.783  -0.551  1.00  0.00     0.172 C 
HETATM   16  H1  UNL     1       1.168   0.675  -0.856  1.00  0.00     0.191 HD
ENDROOT
BRANCH   3  17
HETATM   17  N2  UNL     1       3.068   0.650  -0.322  1.00  0.00    -0.307 N 
HETATM   18  C2  UNL     1       3.967   0.039   0.382  1.00  0.00     0.120 C 
ATOM     19  H2  UNL     1       3.271   1.527  -0.801  1.00  0.00     0.186 HD
BRANCH  18  20
HETATM   20  C3  UNL     1       5.366   0.506   0.507  1.00  0.00     0.003 A 
HETATM   21  C4  UNL     1       6.278  -0.452   0.986  1.00  0.00     0.017 A 
HETATM   22  C5  UNL     1       7.627  -0.131   1.135  1.00  0.00     0.043 A 
HETATM   23  C6  UNL     1       8.064   1.145   0.807  1.00  0.00     0.118 A 
HETATM   24  F1  UNL     1       9.359   1.455   0.950  1.00  0.00    -0.206 F 
HETATM   25  C7  UNL     1       7.179   2.107   0.338  1.00  0.00     0.066 A 
HETATM   26  C8  UNL     1       5.823   1.794   0.186  1.00  0.00     0.048 A 
HETATM   27 CL1  UNL     1       4.803   3.078  -0.358  1.00  0.00    -0.083 Cl
ENDBRANCH  18  20
ENDBRANCH   3  17
BRANCH  13  28
HETATM   28  N6  UNL     1      -3.306   0.669  -0.275  1.00  0.00    -0.342 N 
HETATM   29  H11 UNL     1      -3.017   0.873  -1.227  1.00  0.00     0.167 HD
BRANCH  28  30
HETATM   30  C14 UNL     1      -4.262   1.615   0.170  1.00  0.00     0.034 A 
HETATM   31  C15 UNL     1      -5.031   1.423   1.325  1.00  0.00     0.029 A 
HETATM   32  C16 UNL     1      -5.911   2.409   1.781  1.00  0.00     0.004 A 
HETATM   33  C17 UNL     1      -6.017   3.619   1.101  1.00  0.00     0.019 A 
HETATM   34  C18 UNL     1      -5.230   3.838  -0.025  1.00  0.00     0.013 A 
HETATM   35 BR1  UNL     1      -5.345   5.489  -0.941  1.00  0.00    -0.051 Br
HETATM   36  C19 UNL     1      -4.349   2.854  -0.483  1.00  0.00     0.048 A 
ENDBRANCH  28  30
ENDBRANCH  13  28
TORSDOF 4
