REMARK  7 active torsions:
REMARK  status: ('A' for Active; 'I' for Inactive)
REMARK    1  A    between atoms: O1_2  and  C2_3 
REMARK    2  A    between atoms: C5_6  and  C6_7 
REMARK    3  A    between atoms: N1_8  and  C7_10 
REMARK    4  A    between atoms: C15_24  and  N5_25 
REMARK    5  A    between atoms: N5_25  and  C16_26 
REMARK    6  A    between atoms: C22_32  and  N6_33 
REMARK    7  A    between atoms: C24_36  and  O2_37 
ROOT
HETATM    1  C7  UNL     1      -0.564   1.353   2.034  1.00  0.00     0.707 A 
HETATM    2  N2  UNL     1      -1.089   1.552   3.234  1.00  0.00    -0.130 N 
ATOM      3  H2  UNL     1      -0.818   1.063   4.087  1.00  0.00     0.205 HD
HETATM    4  N3  UNL     1      -2.057   2.523   3.146  1.00  0.00    -0.269 N 
ATOM      5  H3  UNL     1      -2.627   2.880   3.913  1.00  0.00     0.189 HD
HETATM    6  C8  UNL     1      -2.111   2.905   1.892  1.00  0.00     0.159 A 
HETATM    7  C9  UNL     1      -2.934   3.904   1.249  1.00  0.00     0.037 A 
HETATM    8  C10 UNL     1      -3.890   4.655   1.937  1.00  0.00     0.017 A 
HETATM    9  C11 UNL     1      -4.652   5.597   1.245  1.00  0.00     0.001 A 
HETATM   10  C12 UNL     1      -4.457   5.786  -0.123  1.00  0.00     0.002 A 
HETATM   11  C13 UNL     1      -3.498   5.033  -0.807  1.00  0.00     0.030 A 
HETATM   12  C14 UNL     1      -2.728   4.087  -0.129  1.00  0.00     0.048 A 
HETATM   13  N4  UNL     1      -1.772   3.336  -0.852  1.00  0.00    -0.331 N 
ATOM     14  H4  UNL     1      -1.630   3.516  -1.846  1.00  0.00     0.168 HD
HETATM   15  C15 UNL     1      -1.066   2.407  -0.247  1.00  0.00     0.187 A 
HETATM   16  N7  UNL     1      -1.208   2.194   1.139  1.00  0.00    -0.103 N 
ENDROOT
BRANCH   1  17
HETATM   17  N1  UNL     1       0.412   0.498   1.641  1.00  0.00    -0.199 N 
HETATM   18  C6  UNL     1       0.781  -0.381   2.514  1.00  0.00     0.117 C 
ATOM     19  H1  UNL     1       0.830   0.546   0.712  1.00  0.00     0.183 HD
BRANCH  18  20
HETATM   20  C5  UNL     1       1.806  -1.395   2.190  1.00  0.00    -0.017 A 
HETATM   21  C4  UNL     1       2.422  -1.415   0.936  1.00  0.00     0.016 A 
HETATM   22  C3  UNL     1       3.383  -2.389   0.634  1.00  0.00     0.040 A 
HETATM   23  C2  UNL     1       3.725  -3.349   1.589  1.00  0.00     0.101 A 
HETATM   24  C24 UNL     1       3.092  -3.312   2.838  1.00  0.00     0.099 A 
HETATM   25  C23 UNL     1       2.139  -2.349   3.151  1.00  0.00     0.052 A 
BRANCH  23  26
HETATM   26  O1  UNL     1       4.641  -4.358   1.433  1.00  0.00    -0.353 OA
HETATM   27  C1  UNL     1       5.269  -4.450   0.158  1.00  0.00     0.210 C 
ENDBRANCH  23  26
BRANCH  24  28
HETATM   28  O2  UNL     1       3.403  -4.243   3.791  1.00  0.00    -0.358 OA
HETATM   29  H21 UNL     1       4.087  -4.809   3.383  1.00  0.00     0.217 HD
ENDBRANCH  24  28
ENDBRANCH  18  20
ENDBRANCH   1  17
BRANCH  15  30
HETATM   30  N5  UNL     1      -0.143   1.690  -0.974  1.00  0.00    -0.228 NA
HETATM   31  H11 UNL     1       0.213   2.240  -1.759  1.00  0.00     0.136 HD
BRANCH  30  32
HETATM   32  C16 UNL     1      -0.470   0.431  -1.576  1.00  0.00     0.036 A 
HETATM   33  C17 UNL     1      -1.325  -0.505  -0.985  1.00  0.00     0.026 A 
HETATM   34  C18 UNL     1      -1.540  -1.750  -1.586  1.00  0.00     0.009 A 
HETATM   35  C19 UNL     1      -0.900  -2.085  -2.783  1.00  0.00    -0.060 A 
HETATM   36  C20 UNL     1      -1.172  -3.402  -3.452  1.00  0.00     0.048 C 
HETATM   37  C21 UNL     1      -0.047  -1.150  -3.384  1.00  0.00     0.032 A 
HETATM   38  C22 UNL     1       0.211   0.081  -2.765  1.00  0.00     0.028 A 
BRANCH  38  39
HETATM   39  N6  UNL     1       0.941   1.086  -3.460  1.00  0.00    -0.301 NA
HETATM   40  H18 UNL     1       0.296   1.620  -4.043  1.00  0.00     0.124 HD
HETATM   41  H19 UNL     1       1.639   0.662  -4.069  1.00  0.00     0.124 HD
ENDBRANCH  38  39
ENDBRANCH  30  32
ENDBRANCH  15  30
TORSDOF 7
