REMARK  2 active torsions:
REMARK  status: ('A' for Active; 'I' for Inactive)
REMARK    1  A    between atoms: C5_6  and  N2_7 
REMARK    2  A    between atoms: N2_7  and  C6_8 
ROOT
HETATM    1  N1  UNL     1       7.103  -0.649  -0.493  1.00  0.00    -0.191 NA
HETATM    2  C1  UNL     1       5.963  -0.473  -0.370  1.00  0.00     0.099 C 
HETATM    3  C2  UNL     1       4.556  -0.246  -0.215  1.00  0.00     0.044 A 
HETATM    4  C3  UNL     1       3.634  -1.071  -0.861  1.00  0.00     0.025 A 
HETATM    5  C4  UNL     1       2.261  -0.845  -0.710  1.00  0.00     0.031 A 
HETATM    6  C5  UNL     1       1.782   0.187   0.107  1.00  0.00     0.033 A 
HETATM    7  C14 UNL     1       2.722   1.031   0.719  1.00  0.00     0.031 A 
HETATM    8  C15 UNL     1       4.096   0.812   0.572  1.00  0.00     0.025 A 
ENDROOT
BRANCH   6   9
HETATM    9  N2  UNL     1       0.408   0.488   0.232  1.00  0.00    -0.341 N 
HETATM   10  H3  UNL     1       0.230   1.123   1.004  1.00  0.00     0.167 HD
BRANCH   9  11
HETATM   11  C6  UNL     1      -0.699  -0.400   0.122  1.00  0.00     0.131 A 
HETATM   12  N3  UNL     1      -0.503  -1.740   0.130  1.00  0.00    -0.285 N 
HETATM   13  N4  UNL     1      -1.552  -2.610   0.060  1.00  0.00    -0.309 N 
ATOM     14  H3  UNL     1       0.447  -2.106   0.190  1.00  0.00     0.188 HD
HETATM   15  C7  UNL     1      -2.802  -2.123  -0.020  1.00  0.00     0.119 A 
ATOM     16  H4  UNL     1      -1.389  -3.617   0.068  1.00  0.00     0.186 HD
HETATM   17  C8  UNL     1      -3.086  -0.765  -0.044  1.00  0.00    -0.005 A 
HETATM   18  C9  UNL     1      -4.408  -0.290  -0.135  1.00  0.00     0.014 A 
HETATM   19  C13 UNL     1      -2.005   0.138   0.021  1.00  0.00     0.021 A 
HETATM   20  C10 UNL     1      -4.670   1.078  -0.171  1.00  0.00     0.001 A 
HETATM   21  C11 UNL     1      -3.618   1.985  -0.123  1.00  0.00     0.001 A 
HETATM   22  C12 UNL     1      -2.303   1.523  -0.031  1.00  0.00     0.016 A 
ENDBRANCH   9  11
ENDBRANCH   6   9
TORSDOF 2
