REMARK  3 active torsions:
REMARK  status: ('A' for Active; 'I' for Inactive)
REMARK    1  A    between atoms: N1_1  and  C1_2 
REMARK    2  A    between atoms: C2_5  and  N3_6 
REMARK    3  A    between atoms: N3_6  and  C3_7 
ROOT
HETATM    1  C1  UNL     1       0.238   2.442  -0.401  1.00  0.00     0.156 A 
HETATM    2  N2  UNL     1      -0.766   1.587  -0.130  1.00  0.00    -0.318 N 
ATOM      3  H2  UNL     1      -1.733   1.912  -0.113  1.00  0.00     0.170 HD
HETATM    4  C2  UNL     1      -0.474   0.295   0.118  1.00  0.00     0.117 A 
HETATM    5  C9  UNL     1       0.829  -0.113   0.089  1.00  0.00     0.018 A 
HETATM    6  C10 UNL     1       1.786   0.851  -0.185  1.00  0.00     0.055 A 
HETATM    7  N4  UNL     1       1.536   2.137  -0.423  1.00  0.00    -0.332 N 
ATOM      8  H4  UNL     1       2.268   2.824  -0.605  1.00  0.00     0.168 HD
HETATM    9  C11 UNL     1       3.095   0.243  -0.174  1.00  0.00    -0.002 A 
HETATM   10  C12 UNL     1       4.349   0.787  -0.385  1.00  0.00     0.014 A 
HETATM   11  C13 UNL     1       5.457  -0.062  -0.310  1.00  0.00     0.001 A 
HETATM   12  C14 UNL     1       5.300  -1.431  -0.030  1.00  0.00     0.001 A 
HETATM   13  C15 UNL     1       4.032  -1.981   0.181  1.00  0.00     0.008 A 
HETATM   14  C16 UNL     1       2.941  -1.133   0.106  1.00  0.00    -0.041 A 
HETATM   15  C17 UNL     1       1.470  -1.459   0.288  1.00  0.00     0.084 A 
ENDROOT
BRANCH   4  16
HETATM   16  N3  UNL     1      -1.485  -0.652   0.395  1.00  0.00    -0.342 N 
HETATM   17  H3  UNL     1      -1.247  -1.172   1.233  1.00  0.00     0.167 HD
BRANCH  16  18
HETATM   18  C3  UNL     1      -2.884  -0.514   0.245  1.00  0.00     0.035 A 
HETATM   19  C4  UNL     1      -3.465   0.338  -0.703  1.00  0.00     0.029 A 
HETATM   20  C5  UNL     1      -4.853   0.402  -0.868  1.00  0.00     0.004 A 
HETATM   21  C6  UNL     1      -5.684  -0.407  -0.098  1.00  0.00     0.024 A 
HETATM   22  C7  UNL     1      -5.120  -1.283   0.823  1.00  0.00     0.036 A 
HETATM   23 CL1  UNL     1      -6.138  -2.304   1.764  1.00  0.00    -0.084 Cl
HETATM   24  C8  UNL     1      -3.734  -1.348   0.988  1.00  0.00     0.053 A 
ENDBRANCH  16  18
ENDBRANCH   4  16
BRANCH   1  25
HETATM   25  N1  UNL     1      -0.106   3.759  -0.628  1.00  0.00    -0.274 NA
HETATM   26  H1  UNL     1      -0.991   3.959  -0.183  1.00  0.00     0.127 HD
HETATM   27  H2  UNL     1       0.676   4.358  -0.402  1.00  0.00     0.127 HD
ENDBRANCH   1  25
TORSDOF 3
