REMARK  3 active torsions:
REMARK  status: ('A' for Active; 'I' for Inactive)
REMARK    1  A    between atoms: C4_5  and  C5_6 
REMARK    2  A    between atoms: N2_9  and  C6_10 
REMARK    3  A    between atoms: C12_16  and  C13_17 
ROOT
HETATM    1  C5  UNL     1       1.788   0.892   0.140  1.00  0.00     0.038 C 
HETATM    2  N1  UNL     1       1.219   0.962   1.304  1.00  0.00    -0.301 N 
ATOM      3  H1  UNL     1       1.686   1.122   2.197  1.00  0.00     0.187 HD
HETATM    4  N2  UNL     1      -0.121   0.781   1.112  1.00  0.00    -0.283 N 
HETATM    5  C12 UNL     1      -0.472   0.492  -0.283  1.00  0.00     0.148 C 
HETATM    6  C23 UNL     1       0.850   0.714  -1.021  1.00  0.00     0.091 C 
ENDROOT
BRANCH   5   7
HETATM    7  C13 UNL     1      -0.987  -0.928  -0.522  1.00  0.00    -0.022 A 
HETATM    8  C14 UNL     1      -0.655  -1.954   0.387  1.00  0.00     0.010 A 
HETATM    9  C15 UNL     1      -1.094  -3.258   0.194  1.00  0.00     0.002 A 
HETATM   10  C16 UNL     1      -1.863  -3.570  -0.920  1.00  0.00     0.012 A 
HETATM   11  C17 UNL     1      -2.200  -2.587  -1.860  1.00  0.00    -0.025 A 
HETATM   12  C18 UNL     1      -2.969  -2.937  -2.982  1.00  0.00     0.012 A 
HETATM   13  C22 UNL     1      -1.762  -1.248  -1.680  1.00  0.00    -0.018 A 
HETATM   14  C19 UNL     1      -3.314  -1.989  -3.942  1.00  0.00     0.001 A 
HETATM   15  C20 UNL     1      -2.892  -0.677  -3.791  1.00  0.00     0.001 A 
HETATM   16  C21 UNL     1      -2.127  -0.312  -2.679  1.00  0.00     0.013 A 
ENDBRANCH   5   7
BRANCH   4  17
HETATM   17  C6  UNL     1      -1.033   1.090   2.124  1.00  0.00     0.051 A 
HETATM   18  C7  UNL     1      -0.588   1.501   3.392  1.00  0.00     0.031 A 
HETATM   19  C8  UNL     1      -1.480   1.813   4.425  1.00  0.00     0.002 A 
HETATM   20  C9  UNL     1      -2.850   1.714   4.213  1.00  0.00     0.000 A 
HETATM   21  C10 UNL     1      -3.322   1.303   2.972  1.00  0.00     0.002 A 
HETATM   22  C11 UNL     1      -2.423   0.994   1.943  1.00  0.00     0.031 A 
ENDBRANCH   4  17
BRANCH   1  23
HETATM   23  C4  UNL     1       3.253   1.014  -0.051  1.00  0.00    -0.012 A 
HETATM   24  C3  UNL     1       3.830   1.008  -1.326  1.00  0.00     0.015 A 
HETATM   25  C2  UNL     1       5.217   1.125  -1.468  1.00  0.00     0.024 A 
HETATM   26  C1  UNL     1       6.025   1.249  -0.339  1.00  0.00     0.034 A 
HETATM   27 CL1  UNL     1       7.729   1.393  -0.520  1.00  0.00    -0.084 Cl
HETATM   28  C25 UNL     1       5.460   1.257   0.934  1.00  0.00     0.024 A 
HETATM   29  C24 UNL     1       4.075   1.140   1.078  1.00  0.00     0.015 A 
ENDBRANCH   1  23
TORSDOF 3
