REMARK  6 active torsions:
REMARK  status: ('A' for Active; 'I' for Inactive)
REMARK    1  A    between atoms: O1_1  and  C1_2 
REMARK    2  A    between atoms: C1_2  and  C2_3 
REMARK    3  A    between atoms: C6_12  and  N4_13 
REMARK    4  A    between atoms: N4_13  and  C7_14 
REMARK    5  A    between atoms: N6_22  and  C13_23 
REMARK    6  A    between atoms: C13_23  and  C14_24 
ROOT
HETATM    1  C7  UNL     1      -0.887  -0.150  -0.335  1.00  0.00     0.034 A 
HETATM    2  C8  UNL     1      -0.110  -1.002   0.470  1.00  0.00     0.032 A 
HETATM    3  C9  UNL     1       1.229  -1.305   0.180  1.00  0.00     0.034 A 
HETATM    4  C10 UNL     1       1.785  -0.717  -0.960  1.00  0.00     0.062 A 
HETATM    5  C11 UNL     1       1.056   0.138  -1.779  1.00  0.00     0.011 A 
HETATM    6  C12 UNL     1       1.958   0.516  -2.796  1.00  0.00     0.121 A 
HETATM    7  N5  UNL     1       3.159  -0.048  -2.659  1.00  0.00    -0.308 N 
ATOM      8  H5  UNL     1       3.976   0.052  -3.261  1.00  0.00     0.186 HD
HETATM    9  N6  UNL     1       3.036  -0.785  -1.531  1.00  0.00    -0.288 N 
HETATM   10  C20 UNL     1      -0.288   0.425  -1.465  1.00  0.00     0.044 A 
ENDROOT
BRANCH   1  11
HETATM   11  N4  UNL     1      -2.224   0.080   0.044  1.00  0.00    -0.341 N 
HETATM   12  H7  UNL     1      -2.477  -0.349   0.934  1.00  0.00     0.167 HD
BRANCH  11  13
HETATM   13  C6  UNL     1      -3.281   0.603  -0.674  1.00  0.00     0.136 A 
HETATM   14  N3  UNL     1      -3.198   0.905  -1.936  1.00  0.00    -0.336 N 
HETATM   15  C5  UNL     1      -4.293   1.379  -2.608  1.00  0.00     0.199 A 
ATOM     16  H3  UNL     1      -2.312   0.788  -2.428  1.00  0.00     0.168 HD
HETATM   17  N2  UNL     1      -5.479   1.575  -2.128  1.00  0.00    -0.289 N 
HETATM   18  N1  UNL     1      -5.581   1.282  -0.827  1.00  0.00    -0.262 N 
ATOM     19  H2  UNL     1      -6.259   1.919  -2.687  1.00  0.00     0.188 HD
HETATM   20  C4  UNL     1      -6.716   1.406  -0.075  1.00  0.00     0.117 A 
HETATM   21  C21 UNL     1      -4.563   0.819  -0.045  1.00  0.00     0.108 A 
HETATM   22  C3  UNL     1      -6.417   1.041   1.218  1.00  0.00     0.031 A 
HETATM   23  C2  UNL     1      -5.039   0.674   1.255  1.00  0.00    -0.001 A 
BRANCH  23  24
HETATM   24  C1  UNL     1      -4.291   0.244   2.468  1.00  0.00     0.205 C 
BRANCH  24  25
HETATM   25  O1  UNL     1      -3.555  -0.951   2.213  1.00  0.00    -0.396 OA
HETATM   26  H1  UNL     1      -4.227  -1.635   2.028  1.00  0.00     0.209 HD
ENDBRANCH  24  25
ENDBRANCH  23  24
ENDBRANCH  11  13
ENDBRANCH   1  11
BRANCH   9  27
HETATM   27  C13 UNL     1       4.166  -1.586  -1.077  1.00  0.00     0.187 C 
BRANCH  27  28
HETATM   28  C14 UNL     1       4.893  -0.945   0.080  1.00  0.00    -0.035 A 
HETATM   29  C15 UNL     1       4.969  -1.591   1.325  1.00  0.00     0.009 A 
HETATM   30  C16 UNL     1       5.653  -1.002   2.393  1.00  0.00     0.004 A 
HETATM   31  C17 UNL     1       6.274   0.234   2.226  1.00  0.00     0.042 A 
HETATM   32  C18 UNL     1       6.207   0.873   0.994  1.00  0.00     0.117 A 
HETATM   33  F1  UNL     1       6.811   2.057   0.833  1.00  0.00    -0.206 F 
HETATM   34  C19 UNL     1       5.528   0.298  -0.076  1.00  0.00     0.051 A 
ENDBRANCH  27  28
ENDBRANCH   9  27
TORSDOF 6
