REMARK  2 active torsions:
REMARK  status: ('A' for Active; 'I' for Inactive)
REMARK    1  A    between atoms: C6_6  and  N1_7 
REMARK    2  A    between atoms: N1_7  and  C7_8 
ROOT
HETATM    1  C7  UNL     1       0.389   0.553  -0.376  1.00  0.00     0.121 A 
HETATM    2  N2  UNL     1      -0.090   1.483  -1.245  1.00  0.00    -0.338 N 
ATOM      3  H2  UNL     1      -1.090   1.534  -1.440  1.00  0.00     0.168 HD
HETATM    4  C8  UNL     1       0.759   2.334  -1.846  1.00  0.00     0.183 A 
HETATM    5  N3  UNL     1       2.089   2.405  -1.707  1.00  0.00    -0.338 N 
ATOM      6  H3  UNL     1       2.684   3.076  -2.192  1.00  0.00     0.168 HD
HETATM    7  C9  UNL     1       2.535   1.480  -0.848  1.00  0.00     0.121 A 
HETATM    8  N4  UNL     1       3.849   1.325  -0.518  1.00  0.00    -0.345 N 
HETATM    9  C10 UNL     1       3.995   0.299   0.381  1.00  0.00     0.014 A 
HETATM   10  C11 UNL     1       5.331  -0.083   0.907  1.00  0.00     0.068 C 
HETATM   11  C12 UNL     1       2.731  -0.222   0.635  1.00  0.00    -0.022 A 
HETATM   12  C13 UNL     1       2.426  -1.354   1.552  1.00  0.00     0.051 C 
HETATM   13  C14 UNL     1       1.790   0.538  -0.154  1.00  0.00     0.060 A 
HETATM   14  H9  UNL     1       4.588   1.899  -0.898  1.00  0.00     0.167 HD
ENDROOT
BRANCH   1  15
HETATM   15  N1  UNL     1      -0.470  -0.345   0.275  1.00  0.00    -0.342 N 
HETATM   16  H7  UNL     1       0.013  -0.956   0.913  1.00  0.00     0.167 HD
BRANCH  15  17
HETATM   17  C6  UNL     1      -1.859  -0.558   0.227  1.00  0.00     0.034 A 
HETATM   18  C5  UNL     1      -2.412  -1.532   1.076  1.00  0.00     0.029 A 
HETATM   19  C4  UNL     1      -3.783  -1.801   1.081  1.00  0.00     0.003 A 
HETATM   20  C3  UNL     1      -4.634  -1.094   0.237  1.00  0.00     0.007 A 
HETATM   21  C2  UNL     1      -4.118  -0.108  -0.608  1.00  0.00    -0.060 A 
HETATM   22  C1  UNL     1      -5.018   0.639  -1.547  1.00  0.00     0.048 C 
HETATM   23  C15 UNL     1      -2.733   0.140  -0.612  1.00  0.00     0.036 A 
ENDBRANCH  15  17
ENDBRANCH   1  15
TORSDOF 2
