REMARK  6 active torsions:
REMARK  status: ('A' for Active; 'I' for Inactive)
REMARK    1  A    between atoms: C1_2  and  O2_3 
REMARK    2  A    between atoms: C1_2  and  C2_4 
REMARK    3  A    between atoms: C2_4  and  C10_13 
REMARK    4  A    between atoms: C3_5  and  C4_6 
REMARK    5  A    between atoms: C7_9  and  O3_10 
REMARK    6  A    between atoms: C10_13  and  O5_15 
ROOT
HETATM    1  C2  UNL     1      -1.988  -0.308   0.210  1.00  0.00     0.111 C 
HETATM    2  C3  UNL     1      -0.970  -0.971  -0.375  1.00  0.00     0.036 C 
ENDROOT
BRANCH   1   3
HETATM    3  C1  UNL     1      -3.301  -0.968   0.245  1.00  0.00     0.183 C 
HETATM    4  O1  UNL     1      -3.604  -2.008  -0.317  1.00  0.00    -0.646 OA
BRANCH   3   5
HETATM    5  O2  UNL     1      -4.193  -0.321   1.013  1.00  0.00    -0.772 OA
HETATM    6  H1  UNL     1      -5.012  -0.856   0.941  1.00  0.00     0.167 HD
ENDBRANCH   3   5
ENDBRANCH   1   3
BRANCH   1   7
HETATM    7  C10 UNL     1      -1.812   1.042   0.756  1.00  0.00     0.183 C 
HETATM    8  O4  UNL     1      -2.322   2.061   0.327  1.00  0.00    -0.646 OA
BRANCH   7   9
HETATM    9  O5  UNL     1      -0.993   1.052   1.824  1.00  0.00    -0.772 OA
HETATM   10  H8  UNL     1      -0.940   1.998   2.074  1.00  0.00     0.167 HD
ENDBRANCH   7   9
ENDBRANCH   1   7
BRANCH   2  11
HETATM   11  C4  UNL     1       0.394  -0.461  -0.562  1.00  0.00    -0.035 A 
HETATM   12  C5  UNL     1       0.645   0.671  -1.347  1.00  0.00     0.014 A 
HETATM   13  C6  UNL     1       1.952   1.130  -1.521  1.00  0.00     0.037 A 
HETATM   14  C7  UNL     1       3.006   0.453  -0.917  1.00  0.00     0.065 A 
HETATM   15  C8  UNL     1       2.775  -0.679  -0.143  1.00  0.00     0.037 A 
HETATM   16  C9  UNL     1       1.467  -1.138   0.031  1.00  0.00     0.014 A 
BRANCH  14  17
HETATM   17  O3  UNL     1       4.265   0.936  -1.113  1.00  0.00    -0.361 OA
HETATM   18  H5  UNL     1       4.894   0.365  -0.642  1.00  0.00     0.217 HD
ENDBRANCH  14  17
ENDBRANCH   2  11
TORSDOF 6
