REMARK  3 active torsions:
REMARK  status: ('A' for Active; 'I' for Inactive)
REMARK    1  A    between atoms: C4_5  and  C5_6 
REMARK    2  A    between atoms: N2_9  and  C6_10 
REMARK    3  A    between atoms: C12_16  and  C13_17 
ROOT
HETATM    1  C5  UNL     1       1.808  -0.557  -1.113  1.00  0.00     0.038 C 
HETATM    2  N1  UNL     1       1.849   0.603  -0.530  1.00  0.00    -0.301 N 
ATOM      3  H1  UNL     1       2.616   0.973   0.032  1.00  0.00     0.187 HD
HETATM    4  N2  UNL     1       0.670   1.235  -0.811  1.00  0.00    -0.283 N 
HETATM    5  C12 UNL     1      -0.287   0.378  -1.512  1.00  0.00     0.147 C 
HETATM    6  C23 UNL     1       0.576  -0.812  -1.936  1.00  0.00     0.091 C 
ENDROOT
BRANCH   5   7
HETATM    7  C13 UNL     1      -1.452  -0.080  -0.646  1.00  0.00    -0.032 A 
HETATM    8  C14 UNL     1      -2.689  -0.354  -1.246  1.00  0.00     0.010 A 
HETATM    9  C15 UNL     1      -3.770  -0.801  -0.481  1.00  0.00     0.013 A 
HETATM   10  C16 UNL     1      -3.641  -0.992   0.902  1.00  0.00    -0.026 A 
HETATM   11  C17 UNL     1      -4.718  -1.439   1.685  1.00  0.00     0.012 A 
HETATM   12  C21 UNL     1      -2.400  -0.726   1.521  1.00  0.00    -0.025 A 
HETATM   13  C18 UNL     1      -4.573  -1.621   3.061  1.00  0.00     0.001 A 
HETATM   14  C19 UNL     1      -3.350  -1.358   3.671  1.00  0.00     0.001 A 
HETATM   15  C20 UNL     1      -2.270  -0.914   2.907  1.00  0.00     0.012 A 
HETATM   16  C22 UNL     1      -1.322  -0.278   0.739  1.00  0.00     0.021 A 
ENDBRANCH   5   7
BRANCH   4  17
HETATM   17  C6  UNL     1       0.475   2.573  -0.471  1.00  0.00     0.051 A 
HETATM   18  C7  UNL     1       1.491   3.311   0.161  1.00  0.00     0.031 A 
HETATM   19  C8  UNL     1       1.322   4.655   0.513  1.00  0.00     0.002 A 
HETATM   20  C9  UNL     1       0.121   5.298   0.240  1.00  0.00     0.000 A 
HETATM   21  C10 UNL     1      -0.904   4.597  -0.384  1.00  0.00     0.002 A 
HETATM   22  C11 UNL     1      -0.726   3.252  -0.735  1.00  0.00     0.031 A 
ENDBRANCH   4  17
BRANCH   1  23
HETATM   23  C4  UNL     1       2.899  -1.553  -1.008  1.00  0.00    -0.012 A 
HETATM   24  C3  UNL     1       2.888  -2.734  -1.760  1.00  0.00     0.015 A 
HETATM   25  C2  UNL     1       3.933  -3.655  -1.633  1.00  0.00     0.020 A 
HETATM   26  C1  UNL     1       4.987  -3.395  -0.758  1.00  0.00     0.011 A 
HETATM   27 BR1  UNL     1       6.398  -4.641  -0.592  1.00  0.00    -0.051 Br
HETATM   28  C25 UNL     1       5.008  -2.222  -0.007  1.00  0.00     0.020 A 
HETATM   29  C24 UNL     1       3.964  -1.301  -0.133  1.00  0.00     0.015 A 
ENDBRANCH   1  23
TORSDOF 3
