REMARK  3 active torsions:
REMARK  status: ('A' for Active; 'I' for Inactive)
REMARK    1  A    between atoms: C4_5  and  C5_6 
REMARK    2  A    between atoms: N2_9  and  C6_10 
REMARK    3  A    between atoms: C12_16  and  C13_17 
ROOT
HETATM    1  C5  UNL     1       1.828  -0.689  -1.017  1.00  0.00     0.038 C 
HETATM    2  N1  UNL     1       1.904   0.482  -0.461  1.00  0.00    -0.301 N 
ATOM      3  H1  UNL     1       2.672   0.832   0.111  1.00  0.00     0.187 HD
HETATM    4  N2  UNL     1       0.762   1.157  -0.786  1.00  0.00    -0.283 N 
HETATM    5  C12 UNL     1      -0.208   0.331  -1.508  1.00  0.00     0.147 C 
HETATM    6  C23 UNL     1       0.608  -0.913  -1.866  1.00  0.00     0.091 C 
ENDROOT
BRANCH   5   7
HETATM    7  C13 UNL     1      -1.429  -0.043  -0.681  1.00  0.00    -0.032 A 
HETATM    8  C14 UNL     1      -2.654  -0.268  -1.327  1.00  0.00     0.010 A 
HETATM    9  C15 UNL     1      -3.787  -0.637  -0.599  1.00  0.00     0.013 A 
HETATM   10  C16 UNL     1      -3.726  -0.795   0.793  1.00  0.00    -0.026 A 
HETATM   11  C17 UNL     1      -4.859  -1.159   1.540  1.00  0.00     0.012 A 
HETATM   12  C21 UNL     1      -2.499  -0.580   1.459  1.00  0.00    -0.025 A 
HETATM   13  C18 UNL     1      -4.782  -1.309   2.925  1.00  0.00     0.001 A 
HETATM   14  C19 UNL     1      -3.573  -1.097   3.581  1.00  0.00     0.001 A 
HETATM   15  C20 UNL     1      -2.438  -0.734   2.852  1.00  0.00     0.012 A 
HETATM   16  C22 UNL     1      -1.367  -0.212   0.713  1.00  0.00     0.021 A 
ENDBRANCH   5   7
BRANCH   4  17
HETATM   17  C6  UNL     1       0.628   2.516  -0.504  1.00  0.00     0.051 A 
HETATM   18  C7  UNL     1       1.662   3.226   0.131  1.00  0.00     0.031 A 
HETATM   19  C8  UNL     1       1.553   4.588   0.429  1.00  0.00     0.002 A 
HETATM   20  C9  UNL     1       0.395   5.281   0.097  1.00  0.00     0.000 A 
HETATM   21  C10 UNL     1      -0.647   4.608  -0.531  1.00  0.00     0.002 A 
HETATM   22  C11 UNL     1      -0.529   3.244  -0.827  1.00  0.00     0.031 A 
ENDBRANCH   4  17
BRANCH   1  23
HETATM   23  C4  UNL     1       2.875  -1.726  -0.860  1.00  0.00    -0.012 A 
HETATM   24  C3  UNL     1       2.825  -2.931  -1.574  1.00  0.00     0.016 A 
HETATM   25  C2  UNL     1       3.829  -3.887  -1.398  1.00  0.00     0.043 A 
HETATM   26  C1  UNL     1       4.876  -3.635  -0.518  1.00  0.00     0.116 A 
HETATM   27  F1  UNL     1       5.838  -4.553  -0.357  1.00  0.00    -0.206 F 
HETATM   28  C25 UNL     1       4.941  -2.443   0.193  1.00  0.00     0.043 A 
HETATM   29  C24 UNL     1       3.939  -1.486   0.022  1.00  0.00     0.016 A 
ENDBRANCH   1  23
TORSDOF 3
