REMARK  9 active torsions:
REMARK  status: ('A' for Active; 'I' for Inactive)
REMARK    1  A    between atoms: O1_1  and  C1_2 
REMARK    2  A    between atoms: C1_2  and  C2_3 
REMARK    3  A    between atoms: C2_3  and  N1_4 
REMARK    4  A    between atoms: N1_4  and  C3_5 
REMARK    5  A    between atoms: C3_5  and  C4_6 
REMARK    6  A    between atoms: C8_15  and  N5_16 
REMARK    7  A    between atoms: N5_16  and  C9_17 
REMARK    8  A    between atoms: N7_25  and  C15_26 
REMARK    9  A    between atoms: C15_26  and  C16_27 
ROOT
HETATM    1  N5  UNL     1      -1.559  -1.061  -0.329  1.00  0.00    -0.341 N 
HETATM    2  H12 UNL     1      -2.202  -0.279  -0.552  1.00  0.00     0.167 HD
ENDROOT
BRANCH   1   3
HETATM    3  C8  UNL     1      -2.149  -2.133   0.306  1.00  0.00     0.136 A 
HETATM    4  N4  UNL     1      -1.465  -3.111   0.824  1.00  0.00    -0.336 N 
HETATM    5  C7  UNL     1      -2.093  -4.139   1.469  1.00  0.00     0.199 A 
ATOM      6  H4  UNL     1      -0.448  -3.110   0.748  1.00  0.00     0.168 HD
HETATM    7  N3  UNL     1      -3.363  -4.277   1.652  1.00  0.00    -0.289 N 
HETATM    8  N2  UNL     1      -4.088  -3.293   1.109  1.00  0.00    -0.263 N 
ATOM      9  H3  UNL     1      -3.774  -5.060   2.161  1.00  0.00     0.188 HD
HETATM   10  C6  UNL     1      -5.448  -3.212   1.153  1.00  0.00     0.117 A 
HETATM   11  C23 UNL     1      -3.585  -2.228   0.420  1.00  0.00     0.108 A 
HETATM   12  C5  UNL     1      -5.832  -2.097   0.450  1.00  0.00     0.030 A 
HETATM   13  C4  UNL     1      -4.652  -1.466  -0.049  1.00  0.00     0.004 A 
BRANCH  13  14
HETATM   14  C3  UNL     1      -4.661  -0.244  -0.912  1.00  0.00     0.310 C 
BRANCH  14  15
HETATM   15  N1  UNL     1      -3.776   0.771  -0.325  1.00  0.00     0.089 N 
HETATM   16  H6  UNL     1      -3.874   0.728   0.691  1.00  0.00     0.316 HD
BRANCH  15  17
HETATM   17  C2  UNL     1      -4.236   2.110  -0.715  1.00  0.00     0.295 C 
BRANCH  17  18
HETATM   18  C1  UNL     1      -3.243   3.215  -0.318  1.00  0.00     0.194 C 
BRANCH  18  19
HETATM   19  O1  UNL     1      -3.814   4.512  -0.555  1.00  0.00    -0.399 OA
HETATM   20  H1  UNL     1      -4.170   4.518  -1.469  1.00  0.00     0.209 HD
ENDBRANCH  18  19
ENDBRANCH  17  18
ENDBRANCH  15  17
ENDBRANCH  14  15
ENDBRANCH  13  14
ENDBRANCH   1   3
BRANCH   1  21
HETATM   21  C9  UNL     1      -0.200  -0.715  -0.472  1.00  0.00     0.034 A 
HETATM   22  C10 UNL     1       0.851  -1.373   0.179  1.00  0.00     0.032 A 
HETATM   23  C11 UNL     1       2.199  -1.059  -0.049  1.00  0.00     0.034 A 
HETATM   24  C12 UNL     1       2.477  -0.051  -0.978  1.00  0.00     0.062 A 
HETATM   25  C13 UNL     1       1.469   0.628  -1.652  1.00  0.00     0.011 A 
HETATM   26  N7  UNL     1       3.655   0.486  -1.449  1.00  0.00    -0.288 N 
HETATM   27  C14 UNL     1       2.148   1.549  -2.484  1.00  0.00     0.121 A 
HETATM   28  C22 UNL     1       0.124   0.286  -1.404  1.00  0.00     0.044 A 
HETATM   29  N6  UNL     1       3.476   1.475  -2.368  1.00  0.00    -0.308 N 
ATOM     30  H6  UNL     1       4.185   2.026  -2.851  1.00  0.00     0.186 HD
BRANCH  26  31
HETATM   31  C15 UNL     1       5.007   0.045  -1.128  1.00  0.00     0.187 C 
BRANCH  31  32
HETATM   32  C16 UNL     1       5.478   0.555   0.211  1.00  0.00    -0.035 A 
HETATM   33  C17 UNL     1       5.535   1.934   0.491  1.00  0.00     0.009 A 
HETATM   34  C18 UNL     1       6.012   2.404   1.717  1.00  0.00     0.004 A 
HETATM   35  C19 UNL     1       6.459   1.501   2.670  1.00  0.00     0.042 A 
HETATM   36  C20 UNL     1       6.424   0.136   2.388  1.00  0.00     0.117 A 
HETATM   37  F1  UNL     1       6.920  -0.748   3.280  1.00  0.00    -0.206 F 
HETATM   38  C21 UNL     1       5.939  -0.341   1.174  1.00  0.00     0.051 A 
ENDBRANCH  31  32
ENDBRANCH  26  31
ENDBRANCH   1  21
TORSDOF 9
