REMARK  2 active torsions:
REMARK  status: ('A' for Active; 'I' for Inactive)
REMARK    1  A    between atoms: C4_5  and  N1_6 
REMARK    2  A    between atoms: N1_6  and  C5_7 
ROOT
HETATM    1  C5  UNL     1      -0.481  -0.400   0.097  1.00  0.00     0.131 A 
HETATM    2  N2  UNL     1      -0.424  -1.739  -0.092  1.00  0.00    -0.285 N 
ATOM      3  H2  UNL     1       0.484  -2.203  -0.109  1.00  0.00     0.188 HD
HETATM    4  N3  UNL     1      -1.557  -2.482  -0.260  1.00  0.00    -0.309 N 
ATOM      5  H3  UNL     1      -1.498  -3.490  -0.401  1.00  0.00     0.186 HD
HETATM    6  C6  UNL     1      -2.752  -1.866  -0.237  1.00  0.00     0.119 A 
HETATM    7  C7  UNL     1      -2.895  -0.498  -0.057  1.00  0.00    -0.005 A 
HETATM    8  C8  UNL     1      -4.163   0.114  -0.045  1.00  0.00     0.014 A 
HETATM    9  C9  UNL     1      -4.285   1.492   0.123  1.00  0.00     0.001 A 
HETATM   10  C10 UNL     1      -3.146   2.273   0.273  1.00  0.00     0.001 A 
HETATM   11  C11 UNL     1      -1.883   1.674   0.264  1.00  0.00     0.016 A 
HETATM   12  C12 UNL     1      -1.728   0.274   0.108  1.00  0.00     0.021 A 
ENDROOT
BRANCH   1  13
HETATM   13  N1  UNL     1       0.710   0.350   0.305  1.00  0.00    -0.341 N 
HETATM   14  H3  UNL     1       0.608   0.879   1.165  1.00  0.00     0.167 HD
BRANCH  13  15
HETATM   15  C4  UNL     1       2.046  -0.061   0.103  1.00  0.00     0.033 A 
HETATM   16  C3  UNL     1       2.411  -1.009  -0.864  1.00  0.00     0.032 A 
HETATM   17  C2  UNL     1       3.752  -1.338  -1.082  1.00  0.00     0.044 A 
HETATM   18  C1  UNL     1       4.741  -0.698  -0.349  1.00  0.00     0.116 A 
HETATM   19  F1  UNL     1       6.027  -1.008  -0.559  1.00  0.00    -0.206 F 
HETATM   20  C14 UNL     1       4.415   0.272   0.588  1.00  0.00     0.044 A 
HETATM   21  C13 UNL     1       3.072   0.597   0.803  1.00  0.00     0.032 A 
ENDBRANCH  13  15
ENDBRANCH   1  13
TORSDOF 2
