REMARK  5 active torsions:
REMARK  status: ('A' for Active; 'I' for Inactive)
REMARK    1  A    between atoms: O1_1  and  C1_2 
REMARK    2  A    between atoms: C1_2  and  C2_3 
REMARK    3  A    between atoms: C5_6  and  C6_7 
REMARK    4  A    between atoms: C9_10  and  N1_11 
REMARK    5  A    between atoms: N1_11  and  C10_12 
ROOT
HETATM    1  C6  UNL     1      -1.404  -1.007   0.716  1.00  0.00     0.018 A 
HETATM    2  C7  UNL     1      -0.229  -0.388   0.328  1.00  0.00     0.038 A 
HETATM    3  C8  UNL     1       0.951  -1.006   0.872  1.00  0.00     0.043 A 
HETATM    4  C9  UNL     1       2.334  -0.724   0.761  1.00  0.00     0.119 A 
HETATM    5  N2  UNL     1       3.193  -1.535   1.424  1.00  0.00    -0.338 N 
ATOM      6  H2  UNL     1       4.198  -1.370   1.371  1.00  0.00     0.168 HD
HETATM    7  C16 UNL     1       2.715  -2.556   2.150  1.00  0.00     0.182 A 
HETATM    8  N3  UNL     1       1.440  -2.905   2.320  1.00  0.00    -0.346 N 
ATOM      9  H3  UNL     1       1.137  -3.696   2.888  1.00  0.00     0.167 HD
HETATM   10  C17 UNL     1       0.602  -2.093   1.656  1.00  0.00     0.089 A 
HETATM   11  S1  UNL     1      -1.078  -2.351   1.728  1.00  0.00    -0.071 SA
ENDROOT
BRANCH   1  12
HETATM   12  C5  UNL     1      -2.784  -0.664   0.347  1.00  0.00    -0.019 A 
HETATM   13  C4  UNL     1      -3.812  -0.626   1.299  1.00  0.00     0.013 A 
HETATM   14  C3  UNL     1      -5.117  -0.282   0.930  1.00  0.00     0.010 A 
HETATM   15  C2  UNL     1      -5.429   0.030  -0.401  1.00  0.00    -0.035 A 
HETATM   16  C19 UNL     1      -4.399   0.006  -1.349  1.00  0.00     0.010 A 
HETATM   17  C18 UNL     1      -3.094  -0.339  -0.980  1.00  0.00     0.013 A 
BRANCH  15  18
HETATM   18  C1  UNL     1      -6.842   0.418  -0.756  1.00  0.00     0.202 C 
BRANCH  18  19
HETATM   19  O1  UNL     1      -7.055   0.418  -2.161  1.00  0.00    -0.396 OA
HETATM   20  H1  UNL     1      -7.991   0.638  -2.300  1.00  0.00     0.209 HD
ENDBRANCH  18  19
ENDBRANCH  15  18
ENDBRANCH   1  12
BRANCH   4  21
HETATM   21  N1  UNL     1       2.788   0.360  -0.007  1.00  0.00    -0.342 N 
HETATM   22  H7  UNL     1       2.041   0.891  -0.430  1.00  0.00     0.167 HD
BRANCH  21  23
HETATM   23  C10 UNL     1       4.071   0.851  -0.308  1.00  0.00     0.033 A 
HETATM   24  C11 UNL     1       5.261   0.259   0.125  1.00  0.00     0.029 A 
HETATM   25  C12 UNL     1       6.507   0.805  -0.208  1.00  0.00     0.002 A 
HETATM   26  C13 UNL     1       6.584   1.958  -0.982  1.00  0.00     0.000 A 
HETATM   27  C14 UNL     1       5.414   2.566  -1.423  1.00  0.00     0.002 A 
HETATM   28  C15 UNL     1       4.173   2.017  -1.088  1.00  0.00     0.029 A 
ENDBRANCH  21  23
ENDBRANCH   4  21
TORSDOF 5
