REMARK  4 active torsions:
REMARK  status: ('A' for Active; 'I' for Inactive)
REMARK    1  A    between atoms: N1_1  and  C1_2 
REMARK    2  A    between atoms: C1_2  and  N2_4 
REMARK    3  A    between atoms: C2_7  and  C3_8 
REMARK    4  A    between atoms: C10_15  and  C11_16 
ROOT
HETATM    1  N2  UNL     1      -0.389   1.557  -1.331  1.00  0.00    -0.258 N 
HETATM    2  N3  UNL     1      -1.607   0.910  -1.447  1.00  0.00    -0.299 N 
ATOM      3  H3  UNL     1      -2.217   0.904  -2.264  1.00  0.00     0.187 HD
HETATM    4  C2  UNL     1      -1.823   0.311  -0.313  1.00  0.00     0.038 C 
HETATM    5  C9  UNL     1      -0.791   0.567   0.755  1.00  0.00     0.091 C 
HETATM    6  C10 UNL     1       0.304   1.232  -0.072  1.00  0.00     0.150 C 
ENDROOT
BRANCH   6   7
HETATM    7  C11 UNL     1       1.505   0.298  -0.224  1.00  0.00    -0.022 A 
HETATM    8  C12 UNL     1       1.585  -0.563  -1.338  1.00  0.00     0.010 A 
HETATM    9  C13 UNL     1       2.651  -1.441  -1.493  1.00  0.00     0.002 A 
HETATM   10  C14 UNL     1       3.653  -1.490  -0.531  1.00  0.00     0.012 A 
HETATM   11  C15 UNL     1       3.604  -0.666   0.601  1.00  0.00    -0.025 A 
HETATM   12  C16 UNL     1       4.626  -0.747   1.562  1.00  0.00     0.012 A 
HETATM   13  C20 UNL     1       2.525   0.240   0.776  1.00  0.00    -0.018 A 
HETATM   14  C17 UNL     1       4.604   0.049   2.703  1.00  0.00     0.001 A 
HETATM   15  C18 UNL     1       3.558   0.938   2.899  1.00  0.00     0.001 A 
HETATM   16  C19 UNL     1       2.535   1.032   1.951  1.00  0.00     0.013 A 
ENDBRANCH   6   7
BRANCH   1  17
HETATM   17  C1  UNL     1       0.025   2.439  -2.315  1.00  0.00     0.187 C 
HETATM   18  S1  UNL     1       1.395   3.386  -2.306  1.00  0.00    -0.040 SA
BRANCH  17  19
HETATM   19  N1  UNL     1      -0.822   2.503  -3.382  1.00  0.00    -0.375 N 
HETATM   20  H1  UNL     1      -0.687   3.190  -4.109  1.00  0.00     0.158 HD
HETATM   21  H2  UNL     1      -1.709   2.025  -3.276  1.00  0.00     0.158 HD
ENDBRANCH  17  19
ENDBRANCH   1  17
BRANCH   4  22
HETATM   22  C3  UNL     1      -3.018  -0.527  -0.055  1.00  0.00    -0.012 A 
HETATM   23  C4  UNL     1      -3.891  -0.807  -1.114  1.00  0.00     0.013 A 
HETATM   24  C5  UNL     1      -5.025  -1.594  -0.901  1.00  0.00     0.001 A 
HETATM   25  C6  UNL     1      -5.292  -2.102   0.368  1.00  0.00     0.000 A 
HETATM   26  C7  UNL     1      -4.428  -1.825   1.427  1.00  0.00     0.001 A 
HETATM   27  C8  UNL     1      -3.292  -1.038   1.218  1.00  0.00     0.013 A 
ENDBRANCH   4  22
TORSDOF 4
