REMARK  5 active torsions:
REMARK  status: ('A' for Active; 'I' for Inactive)
REMARK    1  A    between atoms: C2_3  and  C10_13 
REMARK    2  A    between atoms: C3_4  and  C4_5 
REMARK    3  A    between atoms: C7_8  and  O1_9 
REMARK    4  A    between atoms: C8_10  and  O2_11 
REMARK    5  A    between atoms: C10_13  and  O4_15 
ROOT
HETATM    1  N1  UNL     1      -1.001  -3.036   0.889  1.00  0.00    -0.191 NA
HETATM    2  C1  UNL     1      -1.538  -2.068   0.537  1.00  0.00     0.106 C 
HETATM    3  C2  UNL     1      -2.148  -0.869   0.072  1.00  0.00     0.118 C 
HETATM    4  C3  UNL     1      -1.454   0.262  -0.173  1.00  0.00     0.041 C 
ENDROOT
BRANCH   3   5
HETATM    5  C10 UNL     1      -3.614  -0.913  -0.128  1.00  0.00     0.187 C 
HETATM    6  O3  UNL     1      -4.326  -1.886   0.046  1.00  0.00    -0.645 OA
BRANCH   5   7
HETATM    7  O4  UNL     1      -4.150   0.251  -0.540  1.00  0.00    -0.772 OA
HETATM    8  H7  UNL     1      -5.109   0.056  -0.621  1.00  0.00     0.167 HD
ENDBRANCH   5   7
ENDBRANCH   3   5
BRANCH   4   9
HETATM    9  C4  UNL     1      -0.004   0.461  -0.007  1.00  0.00    -0.032 A 
HETATM   10  C5  UNL     1       0.436   1.576   0.726  1.00  0.00     0.014 A 
HETATM   11  C6  UNL     1       1.801   1.829   0.887  1.00  0.00     0.040 A 
HETATM   12  C7  UNL     1       2.720   0.969   0.311  1.00  0.00     0.098 A 
HETATM   13  C8  UNL     1       2.298  -0.135  -0.424  1.00  0.00     0.099 A 
HETATM   14  C9  UNL     1       0.941  -0.390  -0.600  1.00  0.00     0.051 A 
BRANCH  12  15
HETATM   15  O1  UNL     1       4.054   1.213   0.470  1.00  0.00    -0.358 OA
HETATM   16  H4  UNL     1       4.496   0.486  -0.011  1.00  0.00     0.217 HD
ENDBRANCH  12  15
BRANCH  13  17
HETATM   17  O2  UNL     1       3.261  -0.945  -0.962  1.00  0.00    -0.358 OA
HETATM   18  H5  UNL     1       2.825  -1.728  -1.340  1.00  0.00     0.217 HD
ENDBRANCH  13  17
ENDBRANCH   4   9
TORSDOF 5
