REMARK  3 active torsions:
REMARK  status: ('A' for Active; 'I' for Inactive)
REMARK    1  A    between atoms: C5_5  and  N1_6 
REMARK    2  A    between atoms: N1_6  and  C6_7 
REMARK    3  A    between atoms: C14_20  and  O1_21 
ROOT
HETATM    1  C6  UNL     1       0.999   0.025   0.028  1.00  0.00     0.136 A 
HETATM    2  N2  UNL     1       1.003   0.305   1.297  1.00  0.00    -0.336 N 
ATOM      3  H2  UNL     1       0.124   0.495   1.778  1.00  0.00     0.168 HD
HETATM    4  C7  UNL     1       2.183   0.346   1.991  1.00  0.00     0.199 A 
HETATM    5  N3  UNL     1       3.373   0.136   1.524  1.00  0.00    -0.289 N 
ATOM      6  H3  UNL     1       4.215   0.184   2.097  1.00  0.00     0.188 HD
HETATM    7  N4  UNL     1       3.391  -0.151   0.214  1.00  0.00    -0.256 N 
HETATM    8  C8  UNL     1       4.509  -0.417  -0.540  1.00  0.00     0.031 A 
HETATM    9  C9  UNL     1       5.872  -0.411   0.048  1.00  0.00     0.070 C 
HETATM   10  C10 UNL     1       4.092  -0.664  -1.835  1.00  0.00     0.029 A 
HETATM   11  C11 UNL     1       2.682  -0.542  -1.858  1.00  0.00     0.037 A 
HETATM   12  C12 UNL     1       2.282  -0.223  -0.576  1.00  0.00     0.100 A 
ENDROOT
BRANCH   1  13
HETATM   13  N1  UNL     1      -0.147  -0.026  -0.740  1.00  0.00    -0.340 N 
HETATM   14  H6  UNL     1      -0.006  -0.202  -1.724  1.00  0.00     0.167 HD
BRANCH  13  15
HETATM   15  C5  UNL     1      -1.503   0.064  -0.373  1.00  0.00     0.036 A 
HETATM   16  C4  UNL     1      -2.460   0.166  -1.396  1.00  0.00     0.030 A 
HETATM   17  C3  UNL     1      -3.827   0.282  -1.114  1.00  0.00     0.012 A 
HETATM   18  C2  UNL     1      -4.284   0.305   0.208  1.00  0.00    -0.029 A 
HETATM   19  C1  UNL     1      -5.754   0.430   0.481  1.00  0.00     0.051 C 
HETATM   20  C14 UNL     1      -3.334   0.214   1.228  1.00  0.00     0.073 A 
HETATM   21  C13 UNL     1      -1.968   0.099   0.944  1.00  0.00     0.066 A 
BRANCH  20  22
HETATM   22  O1  UNL     1      -3.670   0.228   2.553  1.00  0.00    -0.360 OA
HETATM   23  H14 UNL     1      -4.629   0.335   2.643  1.00  0.00     0.217 HD
ENDBRANCH  20  22
ENDBRANCH  13  15
ENDBRANCH   1  13
TORSDOF 3
