REMARK  9 active torsions:
REMARK  status: ('A' for Active; 'I' for Inactive)
REMARK    1  A    between atoms: O1_1  and  C1_2 
REMARK    2  A    between atoms: C1_2  and  C2_3 
REMARK    3  A    between atoms: C6_7  and  C7_8 
REMARK    4  A    between atoms: C8_9  and  C9_10 
REMARK    5  A    between atoms: C12_17  and  N3_18 
REMARK    6  A    between atoms: N3_18  and  C13_19 
REMARK    7  A    between atoms: C16_22  and  O2_23 
REMARK    8  A    between atoms: O2_23  and  C17_24 
REMARK    9  A    between atoms: C17_24  and  C18_25 
ROOT
HETATM    1  C9  UNL     1      -2.651   3.654  -0.856  1.00  0.00     0.077 A 
HETATM    2  C10 UNL     1      -2.962   4.914  -1.326  1.00  0.00     0.113 A 
HETATM    3  N1  UNL     1      -2.047   5.791  -1.780  1.00  0.00    -0.361 N 
ATOM      4  H1  UNL     1      -2.301   6.719  -2.119  1.00  0.00     0.166 HD
HETATM    5  C11 UNL     1      -0.781   5.358  -1.755  1.00  0.00     0.181 A 
HETATM    6  N2  UNL     1      -0.363   4.158  -1.324  1.00  0.00    -0.337 N 
ATOM      7  H2  UNL     1       0.625   3.903  -1.342  1.00  0.00     0.168 HD
HETATM    8  C12 UNL     1      -1.299   3.301  -0.866  1.00  0.00     0.127 A 
ENDROOT
BRANCH   8   9
HETATM    9  N3  UNL     1      -0.926   2.004  -0.422  1.00  0.00    -0.341 N 
HETATM   10  H9  UNL     1      -1.463   1.750   0.402  1.00  0.00     0.167 HD
BRANCH   9  11
HETATM   11  C13 UNL     1       0.317   1.341  -0.472  1.00  0.00     0.035 A 
HETATM   12  C14 UNL     1       0.510   0.219   0.348  1.00  0.00     0.032 A 
HETATM   13  C15 UNL     1       1.700  -0.520   0.315  1.00  0.00     0.041 A 
HETATM   14  C16 UNL     1       2.725  -0.167  -0.563  1.00  0.00     0.091 A 
HETATM   15  C24 UNL     1       2.526   0.933  -1.411  1.00  0.00     0.069 A 
HETATM   16 CL1  UNL     1       3.740   1.419  -2.547  1.00  0.00    -0.081 Cl
HETATM   17  C25 UNL     1       1.332   1.666  -1.374  1.00  0.00     0.056 A 
BRANCH  14  18
HETATM   18  O2  UNL     1       3.925  -0.818  -0.665  1.00  0.00    -0.345 OA
BRANCH  18  19
HETATM   19  C17 UNL     1       4.117  -1.990   0.126  1.00  0.00     0.214 C 
BRANCH  19  20
HETATM   20  C18 UNL     1       5.471  -2.587  -0.181  1.00  0.00    -0.031 A 
HETATM   21  C19 UNL     1       5.911  -2.733  -1.507  1.00  0.00     0.009 A 
HETATM   22  C20 UNL     1       7.150  -3.317  -1.789  1.00  0.00     0.004 A 
HETATM   23  C21 UNL     1       7.960  -3.769  -0.749  1.00  0.00     0.042 A 
HETATM   24  C22 UNL     1       7.523  -3.634   0.564  1.00  0.00     0.117 A 
HETATM   25  F1  UNL     1       8.296  -4.076   1.565  1.00  0.00    -0.206 F 
HETATM   26  C23 UNL     1       6.291  -3.055   0.857  1.00  0.00     0.051 A 
ENDBRANCH  19  20
ENDBRANCH  18  19
ENDBRANCH  14  18
ENDBRANCH   9  11
ENDBRANCH   8   9
BRANCH   1  27
HETATM   27  C8  UNL     1      -3.680   2.781  -0.377  1.00  0.00    -0.055 C 
HETATM   28  C7  UNL     1      -4.492   2.009   0.056  1.00  0.00    -0.043 C 
BRANCH  28  29
HETATM   29  C6  UNL     1      -5.393   1.045   0.597  1.00  0.00     0.087 A 
HETATM   30  C5  UNL     1      -6.766   1.222   0.547  1.00  0.00     0.039 A 
HETATM   31  C4  UNL     1      -7.572   0.232   1.101  1.00  0.00     0.005 A 
HETATM   32  C3  UNL     1      -6.980  -0.891   1.678  1.00  0.00     0.027 A 
HETATM   33  C2  UNL     1      -5.591  -0.986   1.684  1.00  0.00     0.033 A 
HETATM   34  N4  UNL     1      -4.785  -0.027   1.152  1.00  0.00    -0.351 N 
ATOM     35  H4  UNL     1      -3.769  -0.113   1.171  1.00  0.00     0.166 HD
BRANCH  33  36
HETATM   36  C1  UNL     1      -4.906  -2.192   2.290  1.00  0.00     0.221 C 
BRANCH  36  37
HETATM   37  O1  UNL     1      -3.484  -2.066   2.208  1.00  0.00    -0.395 OA
HETATM   38  H1  UNL     1      -3.341  -1.221   1.732  1.00  0.00     0.209 HD
ENDBRANCH  36  37
ENDBRANCH  33  36
ENDBRANCH  28  29
ENDBRANCH   1  27
TORSDOF 9
