REMARK  8 active torsions:
REMARK  status: ('A' for Active; 'I' for Inactive)
REMARK    1  A    between atoms: C2_2  and  C3_3 
REMARK       I    between atoms: C3_3  and  N1_5 
REMARK    2  A    between atoms: N1_5  and  C4_6 
REMARK    3  A    between atoms: C7_9  and  O2_10 
REMARK    4  A    between atoms: C9_12  and  N2_13 
REMARK    5  A    between atoms: N2_13  and  C10_14 
REMARK    6  A    between atoms: C12_16  and  C13_17 
REMARK    7  A    between atoms: C14_18  and  C15_19 
REMARK    8  A    between atoms: C21_28  and  S1_29 
ROOT
HETATM    1  C10 UNL     1       0.611  -0.691  -0.641  1.00  0.00     0.106 A 
HETATM    2  C11 UNL     1      -0.719  -1.002  -0.368  1.00  0.00     0.062 A 
HETATM    3  C12 UNL     1      -1.739  -0.227  -0.926  1.00  0.00    -0.002 A 
HETATM    4  C24 UNL     1      -1.402   0.848  -1.741  1.00  0.00     0.031 A 
HETATM    5  C25 UNL     1      -0.061   1.090  -1.965  1.00  0.00     0.090 A 
HETATM    6  N5  UNL     1       0.934   0.343  -1.443  1.00  0.00    -0.352 N 
ATOM      7  H5  UNL     1       1.910   0.556  -1.651  1.00  0.00     0.166 HD
ENDROOT
BRANCH   1   8
HETATM    8  N2  UNL     1       1.608  -1.481  -0.030  1.00  0.00    -0.340 N 
HETATM    9  H10 UNL     1       1.439  -2.469  -0.201  1.00  0.00     0.167 HD
BRANCH   8  10
HETATM   10  C9  UNL     1       3.011  -1.252  -0.005  1.00  0.00     0.069 A 
HETATM   11  C7  UNL     1       3.876  -2.369   0.004  1.00  0.00     0.095 A 
HETATM   12  C6  UNL     1       5.255  -2.177   0.077  1.00  0.00     0.041 A 
HETATM   13  C5  UNL     1       5.777  -0.883   0.164  1.00  0.00     0.032 A 
HETATM   14  C4  UNL     1       4.935   0.235   0.187  1.00  0.00     0.037 A 
HETATM   15  C26 UNL     1       3.554   0.040   0.108  1.00  0.00     0.062 A 
BRANCH  11  16
HETATM   16  O2  UNL     1       3.250  -3.593  -0.077  1.00  0.00    -0.354 OA
HETATM   17  C8  UNL     1       4.082  -4.745  -0.034  1.00  0.00     0.210 C 
ENDBRANCH  11  16
BRANCH  14  18
HETATM   18  N1  UNL     1       5.555   1.497   0.307  1.00  0.00    -0.324 N 
HETATM   19  C3  UNL     1       4.949   2.732   0.351  1.00  0.00     0.244 C 
HETATM   20  O1  UNL     1       3.760   2.995   0.240  1.00  0.00    -0.268 OA
HETATM   21  H4  UNL     1       6.564   1.490   0.331  1.00  0.00     0.169 HD
BRANCH  19  22
HETATM   22  C2  UNL     1       5.906   3.865   0.498  1.00  0.00     0.064 C 
HETATM   23  C1  UNL     1       7.025   3.838   1.235  1.00  0.00     0.017 C 
ENDBRANCH  19  22
ENDBRANCH  14  18
ENDBRANCH   8  10
ENDBRANCH   1   8
BRANCH   3  24
HETATM   24  C13 UNL     1      -3.139  -0.523  -0.635  1.00  0.00     0.074 A 
HETATM   25  C14 UNL     1      -4.106   0.187   0.071  1.00  0.00     0.072 A 
HETATM   26  N3  UNL     1      -5.316  -0.469   0.044  1.00  0.00    -0.334 N 
HETATM   27  C21 UNL     1      -5.105  -1.565  -0.639  1.00  0.00     0.146 A 
ATOM     28  H3  UNL     1      -6.193  -0.165   0.467  1.00  0.00     0.168 HD
HETATM   29  N4  UNL     1      -3.817  -1.638  -1.103  1.00  0.00    -0.329 N 
HETATM   30  C23 UNL     1      -3.282  -2.675  -1.956  1.00  0.00     0.158 C 
BRANCH  25  31
HETATM   31  C15 UNL     1      -3.954   1.468   0.748  1.00  0.00    -0.007 A 
HETATM   32  C16 UNL     1      -2.786   1.815   1.442  1.00  0.00     0.017 A 
HETATM   33  C17 UNL     1      -2.681   3.056   2.078  1.00  0.00     0.043 A 
HETATM   34  C18 UNL     1      -3.748   3.944   2.030  1.00  0.00     0.116 A 
HETATM   35  F1  UNL     1      -3.646   5.132   2.640  1.00  0.00    -0.206 F 
HETATM   36  C19 UNL     1      -4.921   3.615   1.364  1.00  0.00     0.043 A 
HETATM   37  C20 UNL     1      -5.024   2.377   0.726  1.00  0.00     0.017 A 
ENDBRANCH  25  31
BRANCH  27  38
HETATM   38  S1  UNL     1      -6.289  -2.795  -0.937  1.00  0.00    -0.098 SA
HETATM   39  C22 UNL     1      -7.702  -2.119  -0.036  1.00  0.00     0.099 C 
ENDBRANCH  27  38
ENDBRANCH   3  24
TORSDOF 8
