REMARK  6 active torsions:
REMARK  status: ('A' for Active; 'I' for Inactive)
REMARK    1  A    between atoms: C2_2  and  C3_3 
REMARK       I    between atoms: C3_3  and  N1_5 
REMARK    2  A    between atoms: N1_5  and  C4_6 
REMARK    3  A    between atoms: C9_15  and  N4_16 
REMARK    4  A    between atoms: N4_16  and  C10_17 
REMARK    5  A    between atoms: C13_20  and  O2_21 
REMARK    6  A    between atoms: O2_21  and  C14_22 
ROOT
HETATM    1  C4  UNL     1      -4.753   0.798   0.270  1.00  0.00     0.036 A 
HETATM    2  C5  UNL     1      -5.130   2.039   0.778  1.00  0.00     0.032 A 
HETATM    3  C6  UNL     1      -4.161   2.947   1.218  1.00  0.00     0.033 A 
HETATM    4  C7  UNL     1      -2.806   2.655   1.170  1.00  0.00     0.047 A 
HETATM    5  N2  UNL     1      -1.944   3.574   1.609  1.00  0.00    -0.352 N 
ATOM      6  H2  UNL     1      -2.258   4.470   1.981  1.00  0.00     0.166 HD
HETATM    7  C8  UNL     1      -0.647   3.259   1.536  1.00  0.00     0.182 A 
HETATM    8  N3  UNL     1      -0.138   2.115   1.075  1.00  0.00    -0.338 N 
ATOM      9  H3  UNL     1       0.869   1.952   1.050  1.00  0.00     0.168 HD
HETATM   10  C9  UNL     1      -1.012   1.186   0.644  1.00  0.00     0.119 A 
HETATM   11  C22 UNL     1      -2.405   1.413   0.661  1.00  0.00     0.037 A 
HETATM   12  C23 UNL     1      -3.393   0.495   0.206  1.00  0.00     0.047 A 
ENDROOT
BRANCH  10  13
HETATM   13  N4  UNL     1      -0.526  -0.055   0.151  1.00  0.00    -0.342 N 
HETATM   14  H8  UNL     1      -1.036  -0.816   0.587  1.00  0.00     0.167 HD
BRANCH  13  15
HETATM   15  C10 UNL     1       0.795  -0.434  -0.174  1.00  0.00     0.033 A 
HETATM   16  C11 UNL     1       1.115  -1.801  -0.214  1.00  0.00     0.032 A 
HETATM   17  C12 UNL     1       2.392  -2.235  -0.585  1.00  0.00     0.039 A 
HETATM   18  C13 UNL     1       3.367  -1.305  -0.931  1.00  0.00     0.076 A 
HETATM   19  C20 UNL     1       3.053   0.053  -0.957  1.00  0.00     0.039 A 
HETATM   20  C21 UNL     1       1.773   0.480  -0.585  1.00  0.00     0.032 A 
BRANCH  18  21
HETATM   21  O2  UNL     1       4.593  -1.796  -1.318  1.00  0.00    -0.311 OA
BRANCH  21  22
HETATM   22  C14 UNL     1       5.713  -1.175  -0.812  1.00  0.00     0.076 A 
HETATM   23  C15 UNL     1       6.753  -0.924  -1.706  1.00  0.00     0.037 A 
HETATM   24  C16 UNL     1       7.932  -0.329  -1.254  1.00  0.00     0.003 A 
HETATM   25  C17 UNL     1       8.073  -0.001   0.095  1.00  0.00     0.000 A 
HETATM   26  C18 UNL     1       7.040  -0.273   0.993  1.00  0.00     0.003 A 
HETATM   27  C19 UNL     1       5.861  -0.868   0.543  1.00  0.00     0.037 A 
ENDBRANCH  21  22
ENDBRANCH  18  21
ENDBRANCH  13  15
ENDBRANCH  10  13
BRANCH   1  28
HETATM   28  N1  UNL     1      -5.779  -0.074  -0.145  1.00  0.00    -0.324 N 
HETATM   29  C3  UNL     1      -5.642  -1.352  -0.637  1.00  0.00     0.244 C 
HETATM   30  O1  UNL     1      -4.602  -1.965  -0.841  1.00  0.00    -0.268 OA
HETATM   31  H4  UNL     1      -6.719   0.295  -0.093  1.00  0.00     0.169 HD
BRANCH  29  32
HETATM   32  C2  UNL     1      -6.931  -2.011  -0.993  1.00  0.00     0.064 C 
HETATM   33  C1  UNL     1      -8.088  -1.852  -0.336  1.00  0.00     0.017 C 
ENDBRANCH  29  32
ENDBRANCH   1  28
TORSDOF 6
