REMARK  5 active torsions:
REMARK  status: ('A' for Active; 'I' for Inactive)
REMARK    1  A    between atoms: C2_2  and  C3_3 
REMARK    2  A    between atoms: C3_3  and  C4_5 
REMARK    3  A    between atoms: C4_5  and  C5_6 
REMARK    4  A    between atoms: C8_9  and  N1_10 
REMARK    5  A    between atoms: N1_10  and  C9_11 
ROOT
HETATM    1  C5  UNL     1       2.689   0.142   0.744  1.00  0.00     0.017 A 
HETATM    2  C6  UNL     1       1.312   0.284   0.604  1.00  0.00     0.043 A 
HETATM    3  C7  UNL     1       0.446  -0.734   1.077  1.00  0.00     0.038 A 
HETATM    4  C8  UNL     1      -0.961  -0.711   0.995  1.00  0.00     0.119 A 
HETATM    5  N2  UNL     1      -1.714  -1.733   1.442  1.00  0.00    -0.338 N 
ATOM      6  H2  UNL     1      -2.731  -1.716   1.368  1.00  0.00     0.168 HD
HETATM    7  C15 UNL     1      -1.073  -2.770   1.987  1.00  0.00     0.182 A 
HETATM    8  N3  UNL     1       0.249  -2.891   2.128  1.00  0.00    -0.350 N 
ATOM      9  H3  UNL     1       0.670  -3.712   2.563  1.00  0.00     0.166 HD
HETATM   10  C16 UNL     1       0.993  -1.875   1.667  1.00  0.00     0.062 A 
HETATM   11  C17 UNL     1       2.375  -1.910   1.758  1.00  0.00     0.118 A 
HETATM   12  N4  UNL     1       3.233  -0.948   1.323  1.00  0.00    -0.367 N 
ATOM     13  H4  UNL     1       4.243  -1.047   1.430  1.00  0.00     0.165 HD
ENDROOT
BRANCH   4  14
HETATM   14  N1  UNL     1      -1.595   0.429   0.430  1.00  0.00    -0.342 N 
HETATM   15  H7  UNL     1      -1.262   1.263   0.903  1.00  0.00     0.167 HD
BRANCH  14  16
HETATM   16  C9  UNL     1      -2.937   0.575   0.008  1.00  0.00     0.034 A 
HETATM   17  C10 UNL     1      -3.705  -0.498  -0.463  1.00  0.00     0.029 A 
HETATM   18  C11 UNL     1      -5.007  -0.305  -0.936  1.00  0.00     0.004 A 
HETATM   19  C12 UNL     1      -5.555   0.974  -0.968  1.00  0.00     0.019 A 
HETATM   20  C13 UNL     1      -4.791   2.054  -0.538  1.00  0.00     0.013 A 
HETATM   21 BR1  UNL     1      -5.516   3.799  -0.602  1.00  0.00    -0.051 Br
HETATM   22  C14 UNL     1      -3.490   1.863  -0.066  1.00  0.00     0.048 A 
ENDBRANCH  14  16
ENDBRANCH   4  14
BRANCH   1  23
HETATM   23  C4  UNL     1       3.635   1.206   0.262  1.00  0.00     0.140 C 
BRANCH  23  24
HETATM   24  C3  UNL     1       3.556   1.409  -1.233  1.00  0.00     0.154 C 
HETATM   25  O1  UNL     1       2.828   2.279  -1.719  1.00  0.00    -0.293 OA
BRANCH  24  26
HETATM   26  C2  UNL     1       4.343   0.552  -2.163  1.00  0.00     0.040 C 
HETATM   27  C1  UNL     1       5.086  -0.503  -1.809  1.00  0.00     0.015 C 
ENDBRANCH  24  26
ENDBRANCH  23  24
ENDBRANCH   1  23
TORSDOF 5
