REMARK  8 active torsions:
REMARK  status: ('A' for Active; 'I' for Inactive)
REMARK    1  A    between atoms: C2_2  and  C3_3 
REMARK       I    between atoms: C3_3  and  N1_5 
REMARK    2  A    between atoms: N1_5  and  C4_6 
REMARK    3  A    between atoms: C7_9  and  O2_10 
REMARK    4  A    between atoms: C9_12  and  N2_13 
REMARK    5  A    between atoms: N2_13  and  C10_14 
REMARK    6  A    between atoms: C12_16  and  C13_17 
REMARK    7  A    between atoms: C14_20  and  S1_21 
REMARK    8  A    between atoms: C17_25  and  C18_26 
ROOT
HETATM    1  C10 UNL     1      -0.431   0.308   0.055  1.00  0.00     0.106 A 
HETATM    2  C11 UNL     1       0.895   0.364  -0.372  1.00  0.00     0.062 A 
HETATM    3  C12 UNL     1       1.677   1.480  -0.068  1.00  0.00    -0.002 A 
HETATM    4  C24 UNL     1       1.092   2.537   0.623  1.00  0.00     0.031 A 
HETATM    5  C25 UNL     1      -0.230   2.416   0.998  1.00  0.00     0.090 A 
HETATM    6  N5  UNL     1      -0.993   1.334   0.729  1.00  0.00    -0.352 N 
ATOM      7  H5  UNL     1      -1.968   1.293   1.027  1.00  0.00     0.166 HD
ENDROOT
BRANCH   1   8
HETATM    8  N2  UNL     1      -1.172  -0.844  -0.278  1.00  0.00    -0.340 N 
HETATM    9  H10 UNL     1      -0.628  -1.694  -0.144  1.00  0.00     0.167 HD
BRANCH   8  10
HETATM   10  C9  UNL     1      -2.545  -1.119  -0.075  1.00  0.00     0.069 A 
HETATM   11  C7  UNL     1      -2.955  -2.455   0.086  1.00  0.00     0.095 A 
HETATM   12  C6  UNL     1      -4.306  -2.780   0.198  1.00  0.00     0.041 A 
HETATM   13  C5  UNL     1      -5.270  -1.768   0.188  1.00  0.00     0.032 A 
HETATM   14  C4  UNL     1      -4.889  -0.433   0.053  1.00  0.00     0.037 A 
HETATM   15  C26 UNL     1      -3.528  -0.122  -0.093  1.00  0.00     0.062 A 
BRANCH  11  16
HETATM   16  O2  UNL     1      -1.974  -3.422   0.083  1.00  0.00    -0.354 OA
HETATM   17  C8  UNL     1      -2.018  -4.222   1.267  1.00  0.00     0.210 C 
ENDBRANCH  11  16
BRANCH  14  18
HETATM   18  N1  UNL     1      -5.793   0.650   0.054  1.00  0.00    -0.324 N 
HETATM   19  C3  UNL     1      -7.168   0.597   0.154  1.00  0.00     0.244 C 
HETATM   20  O1  UNL     1      -7.869  -0.402   0.232  1.00  0.00    -0.268 OA
HETATM   21  H4  UNL     1      -5.365   1.563  -0.025  1.00  0.00     0.169 HD
BRANCH  19  22
HETATM   22  C2  UNL     1      -7.772   1.963   0.160  1.00  0.00     0.064 C 
HETATM   23  C1  UNL     1      -9.101   2.123   0.181  1.00  0.00     0.017 C 
ENDBRANCH  19  22
ENDBRANCH  14  18
ENDBRANCH   8  10
ENDBRANCH   1   8
BRANCH   3  24
HETATM   24  C13 UNL     1       3.071   1.575  -0.462  1.00  0.00     0.072 A 
HETATM   25  N3  UNL     1       3.610   2.752  -0.923  1.00  0.00    -0.334 N 
HETATM   26  C14 UNL     1       4.868   2.483  -1.174  1.00  0.00     0.146 A 
ATOM     27  H3  UNL     1       3.133   3.645  -1.044  1.00  0.00     0.168 HD
HETATM   28  N4  UNL     1       5.190   1.190  -0.846  1.00  0.00    -0.329 N 
HETATM   29  C16 UNL     1       6.507   0.598  -0.914  1.00  0.00     0.158 C 
HETATM   30  C17 UNL     1       4.030   0.568  -0.410  1.00  0.00     0.074 A 
BRANCH  26  31
HETATM   31  S1  UNL     1       6.010   3.606  -1.836  1.00  0.00    -0.098 SA
HETATM   32  C15 UNL     1       4.925   5.008  -2.190  1.00  0.00     0.099 C 
ENDBRANCH  26  31
BRANCH  30  33
HETATM   33  C18 UNL     1       3.949  -0.818   0.045  1.00  0.00    -0.007 A 
HETATM   34  C19 UNL     1       3.648  -1.101   1.384  1.00  0.00     0.017 A 
HETATM   35  C20 UNL     1       3.535  -2.424   1.814  1.00  0.00     0.043 A 
HETATM   36  C21 UNL     1       3.721  -3.458   0.905  1.00  0.00     0.116 A 
HETATM   37  F1  UNL     1       3.601  -4.726   1.315  1.00  0.00    -0.206 F 
HETATM   38  C22 UNL     1       4.020  -3.196  -0.426  1.00  0.00     0.043 A 
HETATM   39  C23 UNL     1       4.132  -1.874  -0.859  1.00  0.00     0.017 A 
ENDBRANCH  30  33
ENDBRANCH   3  24
TORSDOF 8
