REMARK  4 active torsions:
REMARK  status: ('A' for Active; 'I' for Inactive)
REMARK    1  A    between atoms: N1_1  and  C1_2 
REMARK    2  A    between atoms: C1_2  and  N2_4 
REMARK    3  A    between atoms: C2_7  and  C3_8 
REMARK    4  A    between atoms: C10_16  and  C11_17 
ROOT
HETATM    1  N2  UNL     1      -0.300   1.946   0.710  1.00  0.00    -0.258 N 
HETATM    2  N3  UNL     1      -1.629   1.578   0.596  1.00  0.00    -0.299 N 
ATOM      3  H3  UNL     1      -2.418   2.197   0.410  1.00  0.00     0.187 HD
HETATM    4  C2  UNL     1      -1.677   0.291   0.772  1.00  0.00     0.038 C 
HETATM    5  C9  UNL     1      -0.364  -0.360   1.123  1.00  0.00     0.091 C 
HETATM    6  C10 UNL     1       0.599   0.783   0.822  1.00  0.00     0.150 C 
ENDROOT
BRANCH   6   7
HETATM    7  C11 UNL     1       1.415   0.480  -0.435  1.00  0.00    -0.022 A 
HETATM    8  C12 UNL     1       0.958   0.926  -1.692  1.00  0.00     0.010 A 
HETATM    9  C13 UNL     1       1.663   0.644  -2.856  1.00  0.00     0.002 A 
HETATM   10  C14 UNL     1       2.834  -0.101  -2.793  1.00  0.00     0.012 A 
HETATM   11  C15 UNL     1       3.315  -0.581  -1.568  1.00  0.00    -0.025 A 
HETATM   12  C16 UNL     1       4.495  -1.343  -1.537  1.00  0.00     0.012 A 
HETATM   13  C20 UNL     1       2.611  -0.301  -0.367  1.00  0.00    -0.018 A 
HETATM   14  C17 UNL     1       4.998  -1.842  -0.339  1.00  0.00     0.001 A 
HETATM   15  C18 UNL     1       4.325  -1.586   0.846  1.00  0.00     0.001 A 
HETATM   16  C19 UNL     1       3.151  -0.828   0.833  1.00  0.00     0.013 A 
ENDBRANCH   6   7
BRANCH   1  17
HETATM   17  C1  UNL     1       0.050   3.285   0.757  1.00  0.00     0.187 C 
HETATM   18  S1  UNL     1       1.572   3.920   0.992  1.00  0.00    -0.040 SA
BRANCH  17  19
HETATM   19  N1  UNL     1      -1.007   4.132   0.592  1.00  0.00    -0.375 N 
HETATM   20  H1  UNL     1      -1.926   3.706   0.599  1.00  0.00     0.158 HD
HETATM   21  H2  UNL     1      -0.895   5.127   0.715  1.00  0.00     0.158 HD
ENDBRANCH  17  19
ENDBRANCH   1  17
BRANCH   4  22
HETATM   22  C3  UNL     1      -2.935  -0.489   0.685  1.00  0.00    -0.012 A 
HETATM   23  C4  UNL     1      -4.105   0.157   0.258  1.00  0.00     0.016 A 
HETATM   24  C5  UNL     1      -5.305  -0.551   0.166  1.00  0.00     0.043 A 
HETATM   25  C6  UNL     1      -5.332  -1.899   0.502  1.00  0.00     0.116 A 
HETATM   26  F1  UNL     1      -6.482  -2.579   0.414  1.00  0.00    -0.206 F 
HETATM   27  C7  UNL     1      -4.181  -2.553   0.928  1.00  0.00     0.043 A 
HETATM   28  C8  UNL     1      -2.978  -1.848   1.021  1.00  0.00     0.016 A 
ENDBRANCH   4  22
TORSDOF 4
