REMARK  3 active torsions:
REMARK  status: ('A' for Active; 'I' for Inactive)
REMARK    1  A    between atoms: N1_1  and  C1_2 
REMARK    2  A    between atoms: C2_5  and  N3_6 
REMARK    3  A    between atoms: N3_6  and  C3_7 
ROOT
HETATM    1  C1  UNL     1       0.240   2.458  -0.321  1.00  0.00     0.156 A 
HETATM    2  N2  UNL     1      -0.765   1.592  -0.090  1.00  0.00    -0.318 N 
ATOM      3  H2  UNL     1      -1.733   1.914  -0.074  1.00  0.00     0.170 HD
HETATM    4  C2  UNL     1      -0.473   0.294   0.119  1.00  0.00     0.117 A 
HETATM    5  C9  UNL     1       0.831  -0.110   0.091  1.00  0.00     0.018 A 
HETATM    6  C10 UNL     1       1.789   0.864  -0.141  1.00  0.00     0.055 A 
HETATM    7  N4  UNL     1       1.539   2.157  -0.338  1.00  0.00    -0.332 N 
ATOM      8  H4  UNL     1       2.271   2.851  -0.488  1.00  0.00     0.168 HD
HETATM    9  C11 UNL     1       3.099   0.258  -0.135  1.00  0.00    -0.002 A 
HETATM   10  C12 UNL     1       4.354   0.812  -0.313  1.00  0.00     0.014 A 
HETATM   11  C13 UNL     1       5.463  -0.037  -0.254  1.00  0.00     0.001 A 
HETATM   12  C14 UNL     1       5.306  -1.415  -0.021  1.00  0.00     0.001 A 
HETATM   13  C15 UNL     1       4.037  -1.974   0.158  1.00  0.00     0.008 A 
HETATM   14  C16 UNL     1       2.945  -1.127   0.099  1.00  0.00    -0.041 A 
HETATM   15  C17 UNL     1       1.473  -1.461   0.252  1.00  0.00     0.084 A 
ENDROOT
BRANCH   4  16
HETATM   16  N3  UNL     1      -1.485  -0.665   0.354  1.00  0.00    -0.342 N 
HETATM   17  H3  UNL     1      -1.254  -1.210   1.177  1.00  0.00     0.167 HD
BRANCH  16  18
HETATM   18  C3  UNL     1      -2.882  -0.525   0.194  1.00  0.00     0.034 A 
HETATM   19  C4  UNL     1      -3.456   0.357  -0.731  1.00  0.00     0.029 A 
HETATM   20  C5  UNL     1      -4.842   0.423  -0.907  1.00  0.00     0.004 A 
HETATM   21  C6  UNL     1      -5.680  -0.414  -0.175  1.00  0.00     0.019 A 
HETATM   22  C7  UNL     1      -5.122  -1.320   0.721  1.00  0.00     0.013 A 
HETATM   23 BR1  UNL     1      -6.248  -2.480   1.703  1.00  0.00    -0.051 Br
HETATM   24  C8  UNL     1      -3.737  -1.387   0.898  1.00  0.00     0.048 A 
ENDBRANCH  16  18
ENDBRANCH   4  16
BRANCH   1  25
HETATM   25  N1  UNL     1      -0.105   3.781  -0.508  1.00  0.00    -0.274 NA
HETATM   26  H1  UNL     1      -0.996   3.964  -0.068  1.00  0.00     0.127 HD
HETATM   27  H2  UNL     1       0.672   4.374  -0.253  1.00  0.00     0.127 HD
ENDBRANCH   1  25
TORSDOF 3
