REMARK  2 active torsions:
REMARK  status: ('A' for Active; 'I' for Inactive)
REMARK    1  A    between atoms: C6_6  and  N1_7 
REMARK    2  A    between atoms: N1_7  and  C7_8 
ROOT
HETATM    1  C7  UNL     1       1.125  -0.493   0.087  1.00  0.00     0.119 A 
HETATM    2  N2  UNL     1       1.071  -1.817  -0.144  1.00  0.00    -0.338 N 
ATOM      3  H2  UNL     1       0.181  -2.309  -0.225  1.00  0.00     0.168 HD
HETATM    4  C8  UNL     1       2.236  -2.458  -0.262  1.00  0.00     0.182 A 
HETATM    5  N3  UNL     1       3.453  -1.911  -0.173  1.00  0.00    -0.352 N 
ATOM      6  H3  UNL     1       4.301  -2.471  -0.264  1.00  0.00     0.166 HD
HETATM    7  C9  UNL     1       3.502  -0.594   0.041  1.00  0.00     0.047 A 
HETATM    8  C10 UNL     1       4.747   0.017   0.130  1.00  0.00     0.030 A 
HETATM    9  C11 UNL     1       4.884   1.392   0.343  1.00  0.00     0.002 A 
HETATM   10  C12 UNL     1       3.752   2.185   0.466  1.00  0.00     0.001 A 
HETATM   11  C13 UNL     1       2.493   1.595   0.383  1.00  0.00     0.017 A 
HETATM   12  C14 UNL     1       2.352   0.197   0.179  1.00  0.00     0.035 A 
ENDROOT
BRANCH   1  13
HETATM   13  N1  UNL     1      -0.083   0.237   0.264  1.00  0.00    -0.342 N 
HETATM   14  H7  UNL     1      -0.033   0.733   1.147  1.00  0.00     0.167 HD
BRANCH  13  15
HETATM   15  C6  UNL     1      -1.407  -0.165  -0.023  1.00  0.00     0.034 A 
HETATM   16  C5  UNL     1      -1.721  -1.070  -1.042  1.00  0.00     0.029 A 
HETATM   17  C4  UNL     1      -3.049  -1.382  -1.345  1.00  0.00     0.003 A 
HETATM   18  C3  UNL     1      -4.089  -0.775  -0.644  1.00  0.00     0.007 A 
HETATM   19  C2  UNL     1      -3.808   0.151   0.363  1.00  0.00    -0.060 A 
HETATM   20  C1  UNL     1      -4.922   0.850   1.085  1.00  0.00     0.048 C 
HETATM   21  C15 UNL     1      -2.470   0.466   0.647  1.00  0.00     0.036 A 
ENDBRANCH  13  15
ENDBRANCH   1  13
TORSDOF 2
