REMARK  4 active torsions:
REMARK  status: ('A' for Active; 'I' for Inactive)
REMARK    1  A    between atoms: N1_1  and  C1_2 
REMARK    2  A    between atoms: C1_2  and  N2_4 
REMARK    3  A    between atoms: C2_7  and  C3_8 
REMARK    4  A    between atoms: C10_17  and  C11_18 
ROOT
HETATM    1  N2  UNL     1      -0.280  -2.052  -0.329  1.00  0.00    -0.258 N 
HETATM    2  N3  UNL     1      -1.536  -1.746   0.165  1.00  0.00    -0.299 N 
ATOM      3  H3  UNL     1      -2.156  -2.370   0.681  1.00  0.00     0.187 HD
HETATM    4  C2  UNL     1      -1.772  -0.509  -0.156  1.00  0.00     0.038 C 
HETATM    5  C9  UNL     1      -0.715   0.148  -1.004  1.00  0.00     0.091 C 
HETATM    6  C10 UNL     1       0.411  -0.873  -0.880  1.00  0.00     0.150 C 
ENDROOT
BRANCH   6   7
HETATM    7  C11 UNL     1       1.538  -0.322  -0.005  1.00  0.00    -0.022 A 
HETATM    8  C12 UNL     1       1.548  -0.593   1.378  1.00  0.00     0.010 A 
HETATM    9  C13 UNL     1       2.543  -0.084   2.205  1.00  0.00     0.002 A 
HETATM   10  C14 UNL     1       3.543   0.719   1.669  1.00  0.00     0.012 A 
HETATM   11  C15 UNL     1       3.562   1.028   0.303  1.00  0.00    -0.025 A 
HETATM   12  C16 UNL     1       4.580   1.852  -0.206  1.00  0.00     0.012 A 
HETATM   13  C20 UNL     1       2.557   0.515  -0.558  1.00  0.00    -0.018 A 
HETATM   14  C17 UNL     1       4.627   2.186  -1.557  1.00  0.00     0.001 A 
HETATM   15  C18 UNL     1       3.653   1.699  -2.417  1.00  0.00     0.001 A 
HETATM   16  C19 UNL     1       2.635   0.878  -1.926  1.00  0.00     0.013 A 
ENDBRANCH   6   7
BRANCH   1  17
HETATM   17  C1  UNL     1       0.177  -3.359  -0.307  1.00  0.00     0.187 C 
HETATM   18  S1  UNL     1       1.608  -3.934  -0.936  1.00  0.00    -0.040 SA
BRANCH  17  19
HETATM   19  N1  UNL     1      -0.678  -4.228   0.303  1.00  0.00    -0.375 N 
HETATM   20  H1  UNL     1      -1.587  -3.864   0.560  1.00  0.00     0.158 HD
HETATM   21  H2  UNL     1      -0.499  -5.221   0.302  1.00  0.00     0.158 HD
ENDBRANCH  17  19
ENDBRANCH   1  17
BRANCH   4  22
HETATM   22  C3  UNL     1      -3.013   0.201   0.236  1.00  0.00    -0.010 A 
HETATM   23  C4  UNL     1      -3.305   1.481  -0.243  1.00  0.00     0.015 A 
HETATM   24  C5  UNL     1      -4.485   2.122   0.148  1.00  0.00     0.026 A 
HETATM   25  C6  UNL     1      -5.379   1.489   1.016  1.00  0.00     0.055 A 
HETATM   26 CL1  UNL     1      -6.815   2.342   1.454  1.00  0.00    -0.083 Cl
HETATM   27  C7  UNL     1      -5.090   0.207   1.496  1.00  0.00     0.056 A 
HETATM   28 CL2  UNL     1      -6.146  -0.638   2.571  1.00  0.00    -0.083 Cl
HETATM   29  C8  UNL     1      -3.910  -0.434   1.105  1.00  0.00     0.039 A 
ENDBRANCH   4  22
TORSDOF 4
