REMARK  4 active torsions:
REMARK  status: ('A' for Active; 'I' for Inactive)
REMARK    1  A    between atoms: N1_1  and  C1_2 
REMARK    2  A    between atoms: C1_2  and  N2_4 
REMARK    3  A    between atoms: C2_7  and  C3_8 
REMARK    4  A    between atoms: C10_16  and  C11_17 
ROOT
HETATM    1  N2  UNL     1      -0.634   2.173  -0.175  1.00  0.00    -0.258 N 
HETATM    2  N3  UNL     1      -1.706   1.500   0.386  1.00  0.00    -0.299 N 
ATOM      3  H3  UNL     1      -2.177   1.729   1.261  1.00  0.00     0.187 HD
HETATM    4  C2  UNL     1      -1.996   0.520  -0.418  1.00  0.00     0.038 C 
HETATM    5  C9  UNL     1      -1.180   0.463  -1.683  1.00  0.00     0.091 C 
HETATM    6  C10 UNL     1      -0.093   1.480  -1.354  1.00  0.00     0.149 C 
ENDROOT
BRANCH   6   7
HETATM    7  C11 UNL     1       1.241   0.796  -1.101  1.00  0.00    -0.032 A 
HETATM    8  C12 UNL     1       2.229   0.819  -2.094  1.00  0.00     0.010 A 
HETATM    9  C13 UNL     1       3.452   0.171  -1.899  1.00  0.00     0.013 A 
HETATM   10  C14 UNL     1       3.716  -0.522  -0.708  1.00  0.00    -0.026 A 
HETATM   11  C15 UNL     1       4.939  -1.179  -0.498  1.00  0.00     0.012 A 
HETATM   12  C19 UNL     1       2.730  -0.556   0.302  1.00  0.00    -0.025 A 
HETATM   13  C16 UNL     1       5.186  -1.862   0.694  1.00  0.00     0.001 A 
HETATM   14  C17 UNL     1       4.215  -1.896   1.690  1.00  0.00     0.001 A 
HETATM   15  C18 UNL     1       2.995  -1.247   1.496  1.00  0.00     0.012 A 
HETATM   16  C20 UNL     1       1.506   0.101   0.093  1.00  0.00     0.021 A 
ENDBRANCH   6   7
BRANCH   1  17
HETATM   17  C1  UNL     1      -0.203   3.372   0.363  1.00  0.00     0.187 C 
HETATM   18  S1  UNL     1       1.026   4.346  -0.200  1.00  0.00    -0.040 SA
BRANCH  17  19
HETATM   19  N1  UNL     1      -0.911   3.764   1.462  1.00  0.00    -0.375 N 
HETATM   20  H1  UNL     1      -0.628   4.569   2.000  1.00  0.00     0.158 HD
HETATM   21  H2  UNL     1      -1.566   3.090   1.838  1.00  0.00     0.158 HD
ENDBRANCH  17  19
ENDBRANCH   1  17
BRANCH   4  22
HETATM   22  C3  UNL     1      -3.079  -0.455  -0.144  1.00  0.00    -0.012 A 
HETATM   23  C4  UNL     1      -3.441  -1.429  -1.084  1.00  0.00     0.016 A 
HETATM   24  C5  UNL     1      -4.467  -2.333  -0.792  1.00  0.00     0.043 A 
HETATM   25  C6  UNL     1      -5.123  -2.260   0.432  1.00  0.00     0.116 A 
HETATM   26  F1  UNL     1      -6.105  -3.129   0.706  1.00  0.00    -0.206 F 
HETATM   27  C7  UNL     1      -4.776  -1.298   1.372  1.00  0.00     0.043 A 
HETATM   28  C8  UNL     1      -3.753  -0.393   1.085  1.00  0.00     0.016 A 
ENDBRANCH   4  22
TORSDOF 4
