REMARK  3 active torsions:
REMARK  status: ('A' for Active; 'I' for Inactive)
REMARK    1  A    between atoms: C5_5  and  N1_6 
REMARK    2  A    between atoms: N1_6  and  C6_7 
REMARK    3  A    between atoms: C15_21  and  O1_22 
ROOT
HETATM    1  C6  UNL     1      -0.689  -0.133  -0.936  1.00  0.00     0.136 A 
HETATM    2  N2  UNL     1      -0.336  -0.091  -2.188  1.00  0.00    -0.336 N 
ATOM      3  H2  UNL     1       0.652  -0.031  -2.434  1.00  0.00     0.168 HD
HETATM    4  C7  UNL     1      -1.281  -0.127  -3.176  1.00  0.00     0.199 A 
HETATM    5  N3  UNL     1      -2.563  -0.211  -3.024  1.00  0.00    -0.289 N 
ATOM      6  H3  UNL     1      -3.218  -0.244  -3.805  1.00  0.00     0.188 HD
HETATM    7  N4  UNL     1      -2.946  -0.251  -1.742  1.00  0.00    -0.262 N 
HETATM    8  C8  UNL     1      -4.239  -0.337  -1.316  1.00  0.00     0.124 A 
HETATM    9  C9  UNL     1      -4.255  -0.321   0.064  1.00  0.00    -0.036 A 
HETATM   10  C10 UNL     1      -5.468  -0.384   0.923  1.00  0.00     0.050 C 
HETATM   11  C11 UNL     1      -2.887  -0.222   0.491  1.00  0.00    -0.022 A 
HETATM   12  C12 UNL     1      -2.434  -0.146   1.908  1.00  0.00     0.051 C 
HETATM   13  C13 UNL     1      -2.108  -0.205  -0.664  1.00  0.00     0.106 A 
ENDROOT
BRANCH   1  14
HETATM   14  N1  UNL     1       0.237  -0.141   0.088  1.00  0.00    -0.340 N 
HETATM   15  H6  UNL     1      -0.116  -0.371   1.002  1.00  0.00     0.167 HD
BRANCH  14  16
HETATM   16  C5  UNL     1       1.624   0.104   0.062  1.00  0.00     0.036 A 
HETATM   17  C4  UNL     1       2.293   0.693  -1.015  1.00  0.00     0.030 A 
HETATM   18  C3  UNL     1       3.679   0.893  -0.991  1.00  0.00     0.012 A 
HETATM   19  C2  UNL     1       4.438   0.499   0.115  1.00  0.00    -0.029 A 
HETATM   20  C1  UNL     1       5.923   0.710   0.136  1.00  0.00     0.051 C 
HETATM   21  C15 UNL     1       3.778  -0.100   1.188  1.00  0.00     0.073 A 
HETATM   22  C14 UNL     1       2.395  -0.297   1.166  1.00  0.00     0.066 A 
BRANCH  21  23
HETATM   23  O1  UNL     1       4.517  -0.496   2.268  1.00  0.00    -0.360 OA
HETATM   24  H16 UNL     1       3.933  -0.927   2.912  1.00  0.00     0.217 HD
ENDBRANCH  21  23
ENDBRANCH  14  16
ENDBRANCH   1  14
TORSDOF 3
