REMARK  9 active torsions:
REMARK  status: ('A' for Active; 'I' for Inactive)
REMARK    1  A    between atoms: C1_2  and  O2_3 
REMARK    2  A    between atoms: C1_2  and  C2_4 
REMARK    3  A    between atoms: C2_4  and  O3_5 
REMARK    4  A    between atoms: O3_5  and  C3_6 
REMARK    5  A    between atoms: C3_6  and  C4_7 
REMARK    6  A    between atoms: C8_16  and  N4_17 
REMARK    7  A    between atoms: N4_17  and  C9_18 
REMARK    8  A    between atoms: N6_26  and  C15_27 
REMARK    9  A    between atoms: C15_27  and  C16_28 
ROOT
HETATM    1  N4  UNL     1       1.195   0.331   2.094  1.00  0.00    -0.243 NA
HETATM    2  H9  UNL     1       0.775   0.720   2.936  1.00  0.00     0.135 HD
ENDROOT
BRANCH   1   3
HETATM    3  C8  UNL     1       2.129  -0.616   2.452  1.00  0.00     0.115 A 
HETATM    4  N3  UNL     1       2.151  -0.969   3.707  1.00  0.00    -0.340 N 
HETATM    5  C7  UNL     1       3.027  -1.943   4.114  1.00  0.00     0.199 A 
ATOM      6  H3  UNL     1       1.524  -0.526   4.378  1.00  0.00     0.167 HD
HETATM    7  N2  UNL     1       3.877  -2.585   3.377  1.00  0.00    -0.289 N 
HETATM    8  N1  UNL     1       3.885  -2.195   2.095  1.00  0.00    -0.263 N 
ATOM      9  H2  UNL     1       4.484  -3.320   3.739  1.00  0.00     0.188 HD
HETATM   10  C6  UNL     1       4.699  -2.698   1.121  1.00  0.00     0.117 A 
HETATM   11  C23 UNL     1       3.092  -1.216   1.570  1.00  0.00     0.102 A 
HETATM   12  C5  UNL     1       4.465  -1.992  -0.036  1.00  0.00     0.031 A 
HETATM   13  C4  UNL     1       3.465  -1.011   0.246  1.00  0.00    -0.001 A 
BRANCH  13  14
HETATM   14  C3  UNL     1       2.957   0.011  -0.724  1.00  0.00     0.209 C 
BRANCH  14  15
HETATM   15  O3  UNL     1       3.967   0.448  -1.640  1.00  0.00    -0.376 OA
BRANCH  15  16
HETATM   16  C2  UNL     1       4.828   1.429  -1.072  1.00  0.00     0.277 C 
BRANCH  16  17
HETATM   17  C1  UNL     1       5.952   1.817  -2.019  1.00  0.00     0.164 C 
HETATM   18  O1  UNL     1       6.188   1.379  -3.133  1.00  0.00    -0.648 OA
BRANCH  17  19
HETATM   19  O2  UNL     1       6.750   2.773  -1.490  1.00  0.00    -0.775 OA
HETATM   20  H1  UNL     1       7.422   2.917  -2.189  1.00  0.00     0.167 HD
ENDBRANCH  17  19
ENDBRANCH  16  17
ENDBRANCH  15  16
ENDBRANCH  14  15
ENDBRANCH  13  14
ENDBRANCH   1   3
BRANCH   1  21
HETATM   21  C9  UNL     1       0.143   0.091   1.167  1.00  0.00     0.015 A 
HETATM   22  C10 UNL     1      -0.648   1.184   0.781  1.00  0.00     0.026 A 
HETATM   23  C11 UNL     1      -1.704   1.053  -0.130  1.00  0.00     0.034 A 
HETATM   24  C12 UNL     1      -1.952  -0.223  -0.647  1.00  0.00     0.062 A 
HETATM   25  C13 UNL     1      -1.193  -1.331  -0.283  1.00  0.00     0.011 A 
HETATM   26  N6  UNL     1      -2.888  -0.704  -1.535  1.00  0.00    -0.288 N 
HETATM   27  C14 UNL     1      -1.753  -2.405  -1.007  1.00  0.00     0.121 A 
HETATM   28  C22 UNL     1      -0.135  -1.178   0.635  1.00  0.00     0.039 A 
HETATM   29  N5  UNL     1      -2.779  -2.032  -1.774  1.00  0.00    -0.308 N 
ATOM     30  H5  UNL     1      -3.347  -2.610  -2.394  1.00  0.00     0.186 HD
BRANCH  26  31
HETATM   31  C15 UNL     1      -3.910   0.064  -2.238  1.00  0.00     0.187 C 
BRANCH  31  32
HETATM   32  C16 UNL     1      -5.084   0.397  -1.349  1.00  0.00    -0.035 A 
HETATM   33  C17 UNL     1      -5.862  -0.622  -0.773  1.00  0.00     0.009 A 
HETATM   34  C18 UNL     1      -6.955  -0.314   0.042  1.00  0.00     0.004 A 
HETATM   35  C19 UNL     1      -7.286   1.017   0.286  1.00  0.00     0.042 A 
HETATM   36  C20 UNL     1      -6.525   2.026  -0.289  1.00  0.00     0.117 A 
HETATM   37  F1  UNL     1      -6.845   3.307  -0.059  1.00  0.00    -0.206 F 
HETATM   38  C21 UNL     1      -5.435   1.732  -1.103  1.00  0.00     0.051 A 
ENDBRANCH  31  32
ENDBRANCH  26  31
ENDBRANCH   1  21
TORSDOF 9
