REMARK  3 active torsions:
REMARK  status: ('A' for Active; 'I' for Inactive)
REMARK    1  A    between atoms: O1_1  and  C1_2 
REMARK    2  A    between atoms: C4_5  and  N1_6 
REMARK    3  A    between atoms: N1_6  and  C5_7 
ROOT
HETATM    1  C5  UNL     1       0.064   1.120   0.562  1.00  0.00     0.135 A 
HETATM    2  N2  UNL     1       0.727   2.187   1.085  1.00  0.00    -0.270 N 
ATOM      3  H2  UNL     1       1.747   2.178   1.071  1.00  0.00     0.190 HD
HETATM    4  N3  UNL     1       0.113   3.239   1.613  1.00  0.00    -0.240 N 
ATOM      5  H3  UNL     1       0.681   4.001   1.982  1.00  0.00     0.208 HD
HETATM    6  N4  UNL     1      -1.140   3.336   1.678  1.00  0.00    -0.279 N 
ATOM      7  H4  UNL     1      -1.586   4.154   2.093  1.00  0.00     0.189 HD
HETATM    8  C6  UNL     1      -1.865   2.326   1.183  1.00  0.00     0.105 A 
HETATM    9  S1  UNL     1      -3.581   2.356   1.224  1.00  0.00    -0.074 SA
HETATM   10  C7  UNL     1      -3.637   0.864   0.475  1.00  0.00    -0.008 A 
HETATM   11  C8  UNL     1      -2.407   0.333   0.187  1.00  0.00    -0.028 A 
HETATM   12  C9  UNL     1      -1.340   1.179   0.603  1.00  0.00     0.052 A 
HETATM   13  C10 UNL     1      -2.550  -0.988  -0.477  1.00  0.00     0.041 C 
HETATM   14  C11 UNL     1      -4.064  -1.015  -0.856  1.00  0.00     0.010 C 
HETATM   15  C12 UNL     1      -4.780   0.014   0.069  1.00  0.00     0.047 C 
ENDROOT
BRANCH   1  16
HETATM   16  N1  UNL     1       0.733   0.011   0.017  1.00  0.00    -0.341 N 
HETATM   17  H4  UNL     1       0.108  -0.717  -0.296  1.00  0.00     0.167 HD
BRANCH  16  18
HETATM   18  C4  UNL     1       2.094  -0.288  -0.162  1.00  0.00     0.033 A 
HETATM   19  C3  UNL     1       3.140   0.580   0.170  1.00  0.00     0.032 A 
HETATM   20  C2  UNL     1       4.479   0.219  -0.031  1.00  0.00     0.039 A 
HETATM   21  C1  UNL     1       4.781  -1.024  -0.570  1.00  0.00     0.065 A 
HETATM   22  C14 UNL     1       3.768  -1.907  -0.910  1.00  0.00     0.039 A 
HETATM   23  C13 UNL     1       2.435  -1.540  -0.706  1.00  0.00     0.032 A 
BRANCH  21  24
HETATM   24  O1  UNL     1       6.068  -1.416  -0.783  1.00  0.00    -0.361 OA
HETATM   25  H1  UNL     1       6.659  -0.700  -0.496  1.00  0.00     0.217 HD
ENDBRANCH  21  24
ENDBRANCH  16  18
ENDBRANCH   1  16
TORSDOF 3
