REMARK  4 active torsions:
REMARK  status: ('A' for Active; 'I' for Inactive)
REMARK    1  A    between atoms: O1_1  and  C1_2 
REMARK    2  A    between atoms: C4_5  and  C5_6 
REMARK    3  A    between atoms: N1_7  and  N2_9 
REMARK    4  A    between atoms: N2_9  and  C6_10 
ROOT
HETATM    1  C6  UNL     1      -1.322   0.440  -0.742  1.00  0.00     0.706 A 
HETATM    2  N3  UNL     1      -1.655  -0.136   0.388  1.00  0.00    -0.189 N 
ATOM      3  H3  UNL     1      -0.925  -0.486   1.009  1.00  0.00     0.184 HD
HETATM    4  C7  UNL     1      -3.013  -0.279   0.758  1.00  0.00     0.063 A 
HETATM    5  C8  UNL     1      -3.322  -0.898   1.969  1.00  0.00     0.031 A 
HETATM    6  C9  UNL     1      -4.654  -1.054   2.365  1.00  0.00     0.002 A 
HETATM    7  C10 UNL     1      -5.688  -0.591   1.549  1.00  0.00     0.001 A 
HETATM    8  C11 UNL     1      -5.396   0.030   0.335  1.00  0.00     0.017 A 
HETATM    9  C12 UNL     1      -4.064   0.184  -0.055  1.00  0.00     0.038 A 
HETATM   10  C13 UNL     1      -3.673   0.814  -1.293  1.00  0.00     0.157 A 
HETATM   11  N4  UNL     1      -4.388   1.345  -2.262  1.00  0.00    -0.283 N 
ATOM     12  H4  UNL     1      -5.406   1.402  -2.299  1.00  0.00     0.188 HD
HETATM   13  N5  UNL     1      -3.511   1.810  -3.218  1.00  0.00    -0.293 N 
ATOM     14  H5  UNL     1      -3.762   2.274  -4.091  1.00  0.00     0.187 HD
HETATM   15  C14 UNL     1      -2.292   1.548  -2.801  1.00  0.00     0.225 A 
HETATM   16  N6  UNL     1      -2.337   0.919  -1.590  1.00  0.00    -0.124 N 
ENDROOT
BRANCH   1  17
HETATM   17  N2  UNL     1      -0.002   0.602  -1.148  1.00  0.00    -0.132 N 
HETATM   18  H5  UNL     1       0.183   1.057  -2.035  1.00  0.00     0.205 HD
BRANCH  17  19
HETATM   19  N1  UNL     1       1.064   0.177  -0.408  1.00  0.00    -0.297 N 
HETATM   20  C5  UNL     1       2.234   0.397  -0.914  1.00  0.00     0.119 C 
ATOM     21  H1  UNL     1       0.945  -0.287   0.492  1.00  0.00     0.186 HD
BRANCH  20  22
HETATM   22  C4  UNL     1       3.470  -0.012  -0.216  1.00  0.00    -0.019 A 
HETATM   23  C3  UNL     1       4.706   0.255  -0.817  1.00  0.00     0.015 A 
HETATM   24  C2  UNL     1       5.887  -0.123  -0.174  1.00  0.00     0.037 A 
HETATM   25  C1  UNL     1       5.820  -0.764   1.061  1.00  0.00     0.065 A 
HETATM   26  C16 UNL     1       4.595  -1.032   1.663  1.00  0.00     0.037 A 
HETATM   27  C15 UNL     1       3.413  -0.655   1.024  1.00  0.00     0.015 A 
BRANCH  25  28
HETATM   28  O1  UNL     1       6.948  -1.150   1.722  1.00  0.00    -0.361 OA
HETATM   29  H1  UNL     1       7.725  -0.904   1.194  1.00  0.00     0.217 HD
ENDBRANCH  25  28
ENDBRANCH  20  22
ENDBRANCH  17  19
ENDBRANCH   1  17
TORSDOF 4
