REMARK  3 active torsions:
REMARK  status: ('A' for Active; 'I' for Inactive)
REMARK    1  A    between atoms: N1_1  and  C1_2 
REMARK    2  A    between atoms: C6_11  and  N4_12 
REMARK    3  A    between atoms: N4_12  and  C7_13 
ROOT
HETATM    1  C1  UNL     1       4.287  -0.232   0.496  1.00  0.00     0.006 A 
HETATM    2  C2  UNL     1       4.732  -1.220  -0.374  1.00  0.00     0.025 A 
HETATM    3  C3  UNL     1       3.874  -1.754  -1.342  1.00  0.00     0.032 A 
HETATM    4  C4  UNL     1       2.551  -1.354  -1.449  1.00  0.00     0.046 A 
HETATM    5  N2  UNL     1       1.787  -1.915  -2.390  1.00  0.00    -0.352 N 
ATOM      6  H2  UNL     1       2.159  -2.608  -3.039  1.00  0.00     0.166 HD
HETATM    7  C5  UNL     1       0.509  -1.521  -2.438  1.00  0.00     0.182 A 
HETATM    8  N3  UNL     1      -0.065  -0.611  -1.649  1.00  0.00    -0.342 N 
ATOM      9  H3  UNL     1      -1.048  -0.359  -1.751  1.00  0.00     0.167 HD
HETATM   10  C6  UNL     1       0.715  -0.042  -0.712  1.00  0.00     0.098 A 
HETATM   11  C17 UNL     1       2.070  -0.391  -0.553  1.00  0.00     0.031 A 
HETATM   12  C18 UNL     1       2.944   0.139   0.436  1.00  0.00     0.040 A 
ENDROOT
BRANCH  10  13
HETATM   13  N4  UNL     1       0.151   0.947   0.148  1.00  0.00    -0.244 NA
HETATM   14  H6  UNL     1       0.721   1.782   0.055  1.00  0.00     0.135 HD
BRANCH  13  15
HETATM   15  C7  UNL     1      -1.232   1.296   0.153  1.00  0.00     0.025 A 
HETATM   16  C8  UNL     1      -1.606   2.540  -0.384  1.00  0.00     0.025 A 
HETATM   17  C9  UNL     1      -2.944   2.915  -0.447  1.00  0.00     0.003 A 
HETATM   18  C10 UNL     1      -3.929   2.051   0.021  1.00  0.00     0.012 A 
HETATM   19  C11 UNL     1      -3.594   0.800   0.561  1.00  0.00    -0.024 A 
HETATM   20  C12 UNL     1      -4.602  -0.058   1.034  1.00  0.00     0.012 A 
HETATM   21  C16 UNL     1      -2.234   0.404   0.634  1.00  0.00    -0.004 A 
HETATM   22  C13 UNL     1      -4.289  -1.300   1.585  1.00  0.00     0.001 A 
HETATM   23  C14 UNL     1      -2.962  -1.699   1.674  1.00  0.00     0.001 A 
HETATM   24  C15 UNL     1      -1.950  -0.857   1.207  1.00  0.00     0.014 A 
ENDBRANCH  13  15
ENDBRANCH  10  13
BRANCH   1  25
HETATM   25  N1  UNL     1       5.097   0.206   1.545  1.00  0.00    -0.303 NA
HETATM   26  H1  UNL     1       4.836   1.104   1.939  1.00  0.00     0.124 HD
HETATM   27  H2  UNL     1       6.094   0.139   1.362  1.00  0.00     0.124 HD
ENDBRANCH   1  25
TORSDOF 3
