REMARK  3 active torsions:
REMARK  status: ('A' for Active; 'I' for Inactive)
REMARK    1  A    between atoms: C4_5  and  C5_6 
REMARK    2  A    between atoms: N2_9  and  C6_10 
REMARK    3  A    between atoms: C12_16  and  C13_17 
ROOT
HETATM    1  C5  UNL     1       1.958  -0.154  -0.375  1.00  0.00     0.038 C 
HETATM    2  N1  UNL     1       1.497  -1.356  -0.217  1.00  0.00    -0.301 N 
ATOM      3  H1  UNL     1       1.933  -2.219  -0.542  1.00  0.00     0.187 HD
HETATM    4  N2  UNL     1       0.319  -1.252   0.466  1.00  0.00    -0.283 N 
HETATM    5  C12 UNL     1      -0.089   0.137   0.709  1.00  0.00     0.148 C 
HETATM    6  C23 UNL     1       1.142   0.933   0.267  1.00  0.00     0.091 C 
ENDROOT
BRANCH   5   7
HETATM    7  C13 UNL     1      -1.323   0.579  -0.078  1.00  0.00    -0.022 A 
HETATM    8  C14 UNL     1      -1.687  -0.110  -1.253  1.00  0.00     0.010 A 
HETATM    9  C15 UNL     1      -2.795   0.275  -2.000  1.00  0.00     0.002 A 
HETATM   10  C16 UNL     1      -3.557   1.364  -1.595  1.00  0.00     0.012 A 
HETATM   11  C17 UNL     1      -3.221   2.089  -0.444  1.00  0.00    -0.025 A 
HETATM   12  C18 UNL     1      -4.004   3.193  -0.068  1.00  0.00     0.012 A 
HETATM   13  C22 UNL     1      -2.093   1.711   0.333  1.00  0.00    -0.018 A 
HETATM   14  C19 UNL     1      -3.694   3.942   1.064  1.00  0.00     0.001 A 
HETATM   15  C20 UNL     1      -2.594   3.597   1.835  1.00  0.00     0.001 A 
HETATM   16  C21 UNL     1      -1.806   2.500   1.475  1.00  0.00     0.013 A 
ENDBRANCH   5   7
BRANCH   4  17
HETATM   17  C6  UNL     1      -0.277  -2.378   1.038  1.00  0.00     0.051 A 
HETATM   18  C7  UNL     1       0.278  -3.657   0.855  1.00  0.00     0.031 A 
HETATM   19  C8  UNL     1      -0.301  -4.802   1.413  1.00  0.00     0.002 A 
HETATM   20  C9  UNL     1      -1.461  -4.695   2.171  1.00  0.00     0.000 A 
HETATM   21  C10 UNL     1      -2.039  -3.445   2.365  1.00  0.00     0.002 A 
HETATM   22  C11 UNL     1      -1.452  -2.303   1.803  1.00  0.00     0.031 A 
ENDBRANCH   4  17
BRANCH   1  23
HETATM   23  C4  UNL     1       3.215   0.135  -1.104  1.00  0.00    -0.010 A 
HETATM   24  C3  UNL     1       3.896  -0.921  -1.723  1.00  0.00     0.015 A 
HETATM   25  C2  UNL     1       5.085  -0.684  -2.418  1.00  0.00     0.026 A 
HETATM   26  C1  UNL     1       5.603   0.610  -2.499  1.00  0.00     0.055 A 
HETATM   27 CL1  UNL     1       7.076   0.835  -3.372  1.00  0.00    -0.083 Cl
HETATM   28  C25 UNL     1       4.927   1.668  -1.880  1.00  0.00     0.056 A 
HETATM   29  C24 UNL     1       3.735   1.431  -1.183  1.00  0.00     0.039 A 
HETATM   30 CL2  UNL     1       5.509   3.295  -1.934  1.00  0.00    -0.083 Cl
ENDBRANCH   1  23
TORSDOF 3
