REMARK  4 active torsions:
REMARK  status: ('A' for Active; 'I' for Inactive)
REMARK    1  A    between atoms: N1_1  and  C1_2 
REMARK    2  A    between atoms: C1_2  and  N2_4 
REMARK    3  A    between atoms: C2_7  and  C3_8 
REMARK    4  A    between atoms: C10_16  and  C11_17 
ROOT
HETATM    1  N2  UNL     1      -0.333  -1.502   1.426  1.00  0.00    -0.258 N 
HETATM    2  N3  UNL     1      -1.649  -1.116   1.236  1.00  0.00    -0.299 N 
ATOM      3  H3  UNL     1      -2.404  -1.168   1.920  1.00  0.00     0.187 HD
HETATM    4  C2  UNL     1      -1.736  -0.674   0.016  1.00  0.00     0.038 C 
HETATM    5  C9  UNL     1      -0.479  -0.799  -0.805  1.00  0.00     0.091 C 
HETATM    6  C10 UNL     1       0.529  -1.143   0.286  1.00  0.00     0.150 C 
ENDROOT
BRANCH   6   7
HETATM    7  C11 UNL     1       1.469   0.037   0.538  1.00  0.00    -0.022 A 
HETATM    8  C12 UNL     1       1.155   0.981   1.537  1.00  0.00     0.010 A 
HETATM    9  C13 UNL     1       1.975   2.079   1.773  1.00  0.00     0.002 A 
HETATM   10  C14 UNL     1       3.119   2.265   1.007  1.00  0.00     0.012 A 
HETATM   11  C15 UNL     1       3.459   1.362  -0.008  1.00  0.00    -0.025 A 
HETATM   12  C16 UNL     1       4.616   1.584  -0.774  1.00  0.00     0.012 A 
HETATM   13  C20 UNL     1       2.637   0.232  -0.263  1.00  0.00    -0.018 A 
HETATM   14  C17 UNL     1       4.981   0.712  -1.796  1.00  0.00     0.001 A 
HETATM   15  C18 UNL     1       4.191  -0.396  -2.066  1.00  0.00     0.001 A 
HETATM   16  C19 UNL     1       3.037  -0.631  -1.312  1.00  0.00     0.013 A 
ENDBRANCH   6   7
BRANCH   1  17
HETATM   17  C1  UNL     1       0.031  -2.190   2.570  1.00  0.00     0.187 C 
HETATM   18  S1  UNL     1       1.530  -2.822   2.931  1.00  0.00    -0.040 SA
BRANCH  17  19
HETATM   19  N1  UNL     1      -0.988  -2.342   3.465  1.00  0.00    -0.375 N 
HETATM   20  H1  UNL     1      -1.909  -2.072   3.143  1.00  0.00     0.158 HD
HETATM   21  H2  UNL     1      -0.873  -2.918   4.285  1.00  0.00     0.158 HD
ENDBRANCH  17  19
ENDBRANCH   1  17
BRANCH   4  22
HETATM   22  C3  UNL     1      -2.990  -0.129  -0.556  1.00  0.00    -0.012 A 
HETATM   23  C4  UNL     1      -4.097   0.053   0.284  1.00  0.00     0.015 A 
HETATM   24  C5  UNL     1      -5.293   0.566  -0.225  1.00  0.00     0.024 A 
HETATM   25  C6  UNL     1      -5.385   0.895  -1.575  1.00  0.00     0.034 A 
HETATM   26 CL1  UNL     1      -6.856   1.526  -2.204  1.00  0.00    -0.084 Cl
HETATM   27  C7  UNL     1      -4.291   0.716  -2.420  1.00  0.00     0.024 A 
HETATM   28  C8  UNL     1      -3.092   0.204  -1.912  1.00  0.00     0.015 A 
ENDBRANCH   4  22
TORSDOF 4
