REMARK  10 active torsions:
REMARK  status: ('A' for Active; 'I' for Inactive)
REMARK    1  A    between atoms: C1_2  and  C2_3 
REMARK       I    between atoms: C1_2  and  N1_5 
REMARK    2  A    between atoms: C2_3  and  O2_4 
REMARK    3  A    between atoms: C6_9  and  C7_10 
REMARK    4  A    between atoms: C7_10  and  O3_11 
REMARK    5  A    between atoms: O3_11  and  C8_12 
REMARK    6  A    between atoms: C14_22  and  N4_23 
REMARK    7  A    between atoms: N4_23  and  C15_24 
REMARK    8  A    between atoms: C18_27  and  O4_28 
REMARK    9  A    between atoms: O4_28  and  C19_29 
REMARK   10  A    between atoms: C19_29  and  C20_30 
ROOT
HETATM    1  C8  UNL     1      -2.056  -1.543   2.334  1.00  0.00     0.085 A 
HETATM    2  C9  UNL     1      -3.208  -2.049   2.943  1.00  0.00     0.038 A 
HETATM    3  C10 UNL     1      -3.343  -3.418   3.127  1.00  0.00     0.005 A 
HETATM    4  C11 UNL     1      -2.324  -4.274   2.715  1.00  0.00     0.030 A 
HETATM    5  C12 UNL     1      -1.161  -3.803   2.124  1.00  0.00     0.049 A 
HETATM    6  N2  UNL     1      -0.244  -4.710   1.780  1.00  0.00    -0.351 N 
ATOM      7  H2  UNL     1      -0.389  -5.706   1.945  1.00  0.00     0.166 HD
HETATM    8  C13 UNL     1       0.871  -4.250   1.210  1.00  0.00     0.182 A 
HETATM    9  N3  UNL     1       1.148  -2.973   0.944  1.00  0.00    -0.338 N 
ATOM     10  H3  UNL     1       2.022  -2.701   0.494  1.00  0.00     0.168 HD
HETATM   11  C14 UNL     1       0.224  -2.059   1.295  1.00  0.00     0.122 A 
HETATM   12  C27 UNL     1      -1.002  -2.422   1.918  1.00  0.00     0.068 A 
ENDROOT
BRANCH  11  13
HETATM   13  N4  UNL     1       0.448  -0.695   0.976  1.00  0.00    -0.342 N 
HETATM   14  H17 UNL     1      -0.013  -0.105   1.666  1.00  0.00     0.167 HD
BRANCH  13  15
HETATM   15  C15 UNL     1       1.470  -0.036   0.270  1.00  0.00     0.035 A 
HETATM   16  C16 UNL     1       2.396  -0.681  -0.551  1.00  0.00     0.032 A 
HETATM   17  C17 UNL     1       3.357   0.035  -1.282  1.00  0.00     0.041 A 
HETATM   18  C18 UNL     1       3.399   1.428  -1.228  1.00  0.00     0.091 A 
HETATM   19  C25 UNL     1       2.453   2.085  -0.431  1.00  0.00     0.069 A 
HETATM   20 CL1  UNL     1       2.416   3.812  -0.314  1.00  0.00    -0.081 Cl
HETATM   21  C26 UNL     1       1.501   1.364   0.300  1.00  0.00     0.056 A 
BRANCH  18  22
HETATM   22  O4  UNL     1       4.293   2.217  -1.900  1.00  0.00    -0.344 OA
BRANCH  22  23
HETATM   23  C19 UNL     1       5.329   1.599  -2.672  1.00  0.00     0.232 C 
BRANCH  23  24
HETATM   24  C20 UNL     1       6.459   1.052  -1.829  1.00  0.00     0.033 A 
HETATM   25  C21 UNL     1       6.993   1.804  -0.783  1.00  0.00     0.027 A 
HETATM   26  C22 UNL     1       8.032   1.268  -0.029  1.00  0.00     0.003 A 
HETATM   27  C23 UNL     1       8.515   0.003  -0.340  1.00  0.00     0.017 A 
HETATM   28  C24 UNL     1       7.939  -0.675  -1.400  1.00  0.00     0.088 A 
HETATM   29  N5  UNL     1       6.928  -0.182  -2.149  1.00  0.00    -0.367 N 
ATOM     30  H5  UNL     1       6.533  -0.715  -2.924  1.00  0.00     0.165 HD
ENDBRANCH  23  24
ENDBRANCH  22  23
ENDBRANCH  18  22
ENDBRANCH  13  15
ENDBRANCH  11  13
BRANCH   1  31
HETATM   31  O3  UNL     1      -1.848  -0.192   2.165  1.00  0.00    -0.348 OA
BRANCH  31  32
HETATM   32  C7  UNL     1      -2.995   0.623   1.879  1.00  0.00     0.201 C 
BRANCH  32  33
HETATM   33  C6  UNL     1      -3.561   0.370   0.469  1.00  0.00     0.111 C 
HETATM   34  N1  UNL     1      -4.681   1.239   0.096  1.00  0.00    -0.344 N 
HETATM   35  C1  UNL     1      -5.865   1.239   0.800  1.00  0.00     0.243 C 
HETATM   36  C3  UNL     1      -4.467   1.853  -1.206  1.00  0.00     0.126 C 
HETATM   37  O1  UNL     1      -6.033   0.561   1.818  1.00  0.00    -0.271 OA
HETATM   38  C4  UNL     1      -3.339   1.043  -1.824  1.00  0.00     0.022 C 
HETATM   39  C5  UNL     1      -2.507   0.637  -0.617  1.00  0.00     0.029 C 
BRANCH  35  40
HETATM   40  C2  UNL     1      -6.991   2.145   0.291  1.00  0.00     0.267 C 
BRANCH  40  41
HETATM   41  O2  UNL     1      -8.093   2.171   1.192  1.00  0.00    -0.392 OA
HETATM   42  H3  UNL     1      -7.865   1.542   1.908  1.00  0.00     0.210 HD
ENDBRANCH  40  41
ENDBRANCH  35  40
ENDBRANCH  32  33
ENDBRANCH  31  32
ENDBRANCH   1  31
TORSDOF 10
