REMARK  3 active torsions:
REMARK  status: ('A' for Active; 'I' for Inactive)
REMARK    1  A    between atoms: O1_1  and  C1_2 
REMARK    2  A    between atoms: C5_6  and  N1_7 
REMARK    3  A    between atoms: N1_7  and  C6_8 
ROOT
HETATM    1  C1  UNL     1      -4.348   0.319   0.112  1.00  0.00     0.067 A 
HETATM    2  C2  UNL     1      -3.493   1.406   0.164  1.00  0.00     0.037 A 
HETATM    3  C3  UNL     1      -2.121   1.195   0.049  1.00  0.00     0.020 A 
HETATM    4  C4  UNL     1      -1.600  -0.114  -0.124  1.00  0.00     0.035 A 
HETATM    5  C5  UNL     1      -0.233  -0.435  -0.257  1.00  0.00     0.119 A 
HETATM    6  N2  UNL     1       0.189  -1.705  -0.385  1.00  0.00    -0.338 N 
ATOM      7  H2  UNL     1       1.180  -1.932  -0.466  1.00  0.00     0.168 HD
HETATM    8  C12 UNL     1      -0.749  -2.656  -0.401  1.00  0.00     0.182 A 
HETATM    9  N3  UNL     1      -2.069  -2.466  -0.303  1.00  0.00    -0.351 N 
ATOM     10  H3  UNL     1      -2.726  -3.246  -0.334  1.00  0.00     0.166 HD
HETATM   11  C13 UNL     1      -2.484  -1.204  -0.162  1.00  0.00     0.049 A 
HETATM   12  C14 UNL     1      -3.849  -0.971  -0.047  1.00  0.00     0.067 A 
ENDROOT
BRANCH   5  13
HETATM   13  N1  UNL     1       0.719   0.621  -0.272  1.00  0.00    -0.342 N 
HETATM   14  H4  UNL     1       0.449   1.290  -0.986  1.00  0.00     0.167 HD
BRANCH  13  15
HETATM   15  C6  UNL     1       2.125   0.538  -0.145  1.00  0.00     0.034 A 
HETATM   16  C7  UNL     1       2.918   1.570  -0.673  1.00  0.00     0.029 A 
HETATM   17  C8  UNL     1       4.307   1.568  -0.520  1.00  0.00     0.004 A 
HETATM   18  C9  UNL     1       4.926   0.542   0.188  1.00  0.00     0.019 A 
HETATM   19  C10 UNL     1       4.148  -0.468   0.749  1.00  0.00     0.013 A 
HETATM   20 BR1  UNL     1       4.981  -1.848   1.738  1.00  0.00    -0.051 Br
HETATM   21  C11 UNL     1       2.760  -0.465   0.597  1.00  0.00     0.048 A 
ENDBRANCH  13  15
ENDBRANCH   5  13
BRANCH   1  22
HETATM   22  O1  UNL     1      -5.685   0.557   0.226  1.00  0.00    -0.361 OA
HETATM   23  H1  UNL     1      -6.161  -0.290   0.189  1.00  0.00     0.217 HD
ENDBRANCH   1  22
TORSDOF 3
