REMARK  3 active torsions:
REMARK  status: ('A' for Active; 'I' for Inactive)
REMARK    1  A    between atoms: N1_1  and  C1_2 
REMARK    2  A    between atoms: C2_5  and  N3_6 
REMARK    3  A    between atoms: N3_6  and  C3_7 
ROOT
HETATM    1  C1  UNL     1       1.157  -2.963  -0.780  1.00  0.00     0.156 A 
HETATM    2  N2  UNL     1      -0.063  -2.797  -0.235  1.00  0.00    -0.323 N 
ATOM      3  H2  UNL     1      -0.725  -3.572  -0.187  1.00  0.00     0.169 HD
HETATM    4  C2  UNL     1      -0.386  -1.580   0.245  1.00  0.00     0.096 A 
HETATM    5  C9  UNL     1       0.523  -0.564   0.217  1.00  0.00     0.012 A 
HETATM    6  C10 UNL     1       1.756  -0.856  -0.342  1.00  0.00     0.055 A 
HETATM    7  N4  UNL     1       2.113  -2.035  -0.851  1.00  0.00    -0.332 N 
ATOM      8  H4  UNL     1       3.032  -2.211  -1.257  1.00  0.00     0.168 HD
HETATM    9  C11 UNL     1       2.607   0.308  -0.260  1.00  0.00    -0.002 A 
HETATM   10  C12 UNL     1       3.909   0.511  -0.680  1.00  0.00     0.014 A 
HETATM   11  C13 UNL     1       4.485   1.765  -0.458  1.00  0.00     0.001 A 
HETATM   12  C14 UNL     1       3.760   2.791   0.176  1.00  0.00     0.001 A 
HETATM   13  C15 UNL     1       2.444   2.584   0.599  1.00  0.00     0.008 A 
HETATM   14  C16 UNL     1       1.882   1.340   0.375  1.00  0.00    -0.041 A 
HETATM   15  C17 UNL     1       0.487   0.850   0.726  1.00  0.00     0.083 A 
ENDROOT
BRANCH   4  16
HETATM   16  N3  UNL     1      -1.662  -1.444   0.815  1.00  0.00    -0.245 NA
HETATM   17  H3  UNL     1      -2.100  -2.359   0.692  1.00  0.00     0.135 HD
BRANCH  16  18
HETATM   18  C3  UNL     1      -2.613  -0.445   0.498  1.00  0.00     0.013 A 
HETATM   19  C4  UNL     1      -3.597  -0.137   1.445  1.00  0.00     0.024 A 
HETATM   20  C5  UNL     1      -4.600   0.792   1.157  1.00  0.00     0.002 A 
HETATM   21  C6  UNL     1      -4.645   1.402  -0.094  1.00  0.00     0.000 A 
HETATM   22  C7  UNL     1      -3.694   1.076  -1.059  1.00  0.00     0.002 A 
HETATM   23  C8  UNL     1      -2.692   0.148  -0.769  1.00  0.00     0.024 A 
ENDBRANCH  16  18
ENDBRANCH   4  16
BRANCH   1  24
HETATM   24  N1  UNL     1       1.463  -4.218  -1.265  1.00  0.00    -0.274 NA
HETATM   25  H1  UNL     1       0.902  -4.914  -0.796  1.00  0.00     0.127 HD
HETATM   26  H2  UNL     1       2.465  -4.347  -1.258  1.00  0.00     0.127 HD
ENDBRANCH   1  24
TORSDOF 3
