REMARK  4 active torsions:
REMARK  status: ('A' for Active; 'I' for Inactive)
REMARK    1  A    between atoms: N1_1  and  C1_2 
REMARK    2  A    between atoms: C1_2  and  N2_4 
REMARK    3  A    between atoms: C2_7  and  C3_8 
REMARK    4  A    between atoms: C10_17  and  C11_18 
ROOT
HETATM    1  N2  UNL     1      -0.945  -1.176  -1.630  1.00  0.00    -0.258 N 
HETATM    2  N3  UNL     1      -2.137  -1.185  -0.941  1.00  0.00    -0.299 N 
ATOM      3  H3  UNL     1      -2.785  -1.969  -0.869  1.00  0.00     0.187 HD
HETATM    4  C2  UNL     1      -2.286  -0.015  -0.400  1.00  0.00     0.038 C 
HETATM    5  C9  UNL     1      -1.207   0.982  -0.721  1.00  0.00     0.091 C 
HETATM    6  C10 UNL     1      -0.204   0.078  -1.428  1.00  0.00     0.149 C 
ENDROOT
BRANCH   6   7
HETATM    7  C11 UNL     1       1.065  -0.090  -0.607  1.00  0.00    -0.032 A 
HETATM    8  C12 UNL     1       1.138  -0.987   0.468  1.00  0.00     0.010 A 
HETATM    9  C13 UNL     1       2.314  -1.113   1.210  1.00  0.00     0.013 A 
HETATM   10  C14 UNL     1       3.444  -0.342   0.902  1.00  0.00    -0.026 A 
HETATM   11  C15 UNL     1       4.633  -0.459   1.640  1.00  0.00     0.012 A 
HETATM   12  C19 UNL     1       3.384   0.573  -0.172  1.00  0.00    -0.025 A 
HETATM   13  C16 UNL     1       5.749   0.317   1.322  1.00  0.00     0.001 A 
HETATM   14  C17 UNL     1       5.690   1.219   0.264  1.00  0.00     0.001 A 
HETATM   15  C18 UNL     1       4.515   1.347  -0.479  1.00  0.00     0.012 A 
HETATM   16  C20 UNL     1       2.194   0.689  -0.911  1.00  0.00     0.021 A 
ENDBRANCH   6   7
BRANCH   1  17
HETATM   17  C1  UNL     1      -0.602  -2.222  -2.465  1.00  0.00     0.187 C 
HETATM   18  S1  UNL     1      -1.540  -3.563  -2.813  1.00  0.00    -0.040 SA
BRANCH  17  19
HETATM   19  N1  UNL     1       0.609  -2.125  -3.088  1.00  0.00    -0.375 N 
HETATM   20  H1  UNL     1       0.870  -2.953  -3.613  1.00  0.00     0.158 HD
HETATM   21  H2  UNL     1       1.377  -1.720  -2.568  1.00  0.00     0.158 HD
ENDBRANCH  17  19
ENDBRANCH   1  17
BRANCH   4  22
HETATM   22  C3  UNL     1      -3.454   0.335   0.442  1.00  0.00    -0.010 A 
HETATM   23  C4  UNL     1      -4.406  -0.654   0.722  1.00  0.00     0.015 A 
HETATM   24  C5  UNL     1      -5.520  -0.360   1.513  1.00  0.00     0.026 A 
HETATM   25  C6  UNL     1      -5.692   0.926   2.030  1.00  0.00     0.055 A 
HETATM   26 CL1  UNL     1      -7.088   1.225   3.000  1.00  0.00    -0.083 Cl
HETATM   27  C7  UNL     1      -4.744   1.917   1.750  1.00  0.00     0.056 A 
HETATM   28 CL2  UNL     1      -4.890   3.531   2.353  1.00  0.00    -0.083 Cl
HETATM   29  C8  UNL     1      -3.627   1.623   0.957  1.00  0.00     0.039 A 
ENDBRANCH   4  22
TORSDOF 4
