REMARK  3 active torsions:
REMARK  status: ('A' for Active; 'I' for Inactive)
REMARK    1  A    between atoms: C4_5  and  C5_6 
REMARK    2  A    between atoms: N2_9  and  C6_10 
REMARK    3  A    between atoms: C12_16  and  C13_17 
ROOT
HETATM    1  C5  UNL     1      -2.032  -0.909   0.347  1.00  0.00     0.038 C 
HETATM    2  N1  UNL     1      -2.147   0.383   0.320  1.00  0.00    -0.301 N 
ATOM      3  H1  UNL     1      -2.951   0.913  -0.016  1.00  0.00     0.187 HD
HETATM    4  N2  UNL     1      -0.988   0.901   0.826  1.00  0.00    -0.283 N 
HETATM    5  C12 UNL     1       0.024  -0.118   1.108  1.00  0.00     0.147 C 
HETATM    6  C23 UNL     1      -0.759  -1.425   0.958  1.00  0.00     0.091 C 
ENDROOT
BRANCH   5   7
HETATM    7  C13 UNL     1       1.207  -0.087   0.150  1.00  0.00    -0.032 A 
HETATM    8  C14 UNL     1       1.080   0.333  -1.181  1.00  0.00     0.010 A 
HETATM    9  C15 UNL     1       2.181   0.323  -2.040  1.00  0.00     0.013 A 
HETATM   10  C16 UNL     1       3.436  -0.115  -1.595  1.00  0.00    -0.026 A 
HETATM   11  C17 UNL     1       4.551  -0.130  -2.448  1.00  0.00     0.012 A 
HETATM   12  C21 UNL     1       3.581  -0.549  -0.259  1.00  0.00    -0.025 A 
HETATM   13  C18 UNL     1       5.794  -0.570  -1.990  1.00  0.00     0.001 A 
HETATM   14  C19 UNL     1       5.937  -0.999  -0.674  1.00  0.00     0.001 A 
HETATM   15  C20 UNL     1       4.839  -0.989   0.187  1.00  0.00     0.012 A 
HETATM   16  C22 UNL     1       2.464  -0.532   0.595  1.00  0.00     0.021 A 
ENDBRANCH   5   7
BRANCH   4  17
HETATM   17  C6  UNL     1      -0.883   2.259   1.129  1.00  0.00     0.051 A 
HETATM   18  C7  UNL     1       0.279   2.822   1.681  1.00  0.00     0.031 A 
HETATM   19  C8  UNL     1       0.367   4.188   1.976  1.00  0.00     0.002 A 
HETATM   20  C9  UNL     1      -0.712   5.029   1.726  1.00  0.00     0.000 A 
HETATM   21  C10 UNL     1      -1.876   4.502   1.178  1.00  0.00     0.002 A 
HETATM   22  C11 UNL     1      -1.954   3.136   0.884  1.00  0.00     0.031 A 
ENDBRANCH   4  17
BRANCH   1  23
HETATM   23  C4  UNL     1      -3.090  -1.819  -0.151  1.00  0.00    -0.010 A 
HETATM   24  C3  UNL     1      -4.222  -1.269  -0.765  1.00  0.00     0.015 A 
HETATM   25  C2  UNL     1      -5.238  -2.099  -1.247  1.00  0.00     0.026 A 
HETATM   26  C1  UNL     1      -5.131  -3.486  -1.117  1.00  0.00     0.055 A 
HETATM   27 CL1  UNL     1      -6.421  -4.455  -1.733  1.00  0.00    -0.083 Cl
HETATM   28  C25 UNL     1      -4.001  -4.039  -0.502  1.00  0.00     0.056 A 
HETATM   29  C24 UNL     1      -2.982  -3.207  -0.020  1.00  0.00     0.039 A 
HETATM   30 CL2  UNL     1      -3.800  -5.744  -0.304  1.00  0.00    -0.083 Cl
ENDBRANCH   1  23
TORSDOF 3
