REMARK  8 active torsions:
REMARK  status: ('A' for Active; 'I' for Inactive)
REMARK    1  A    between atoms: C2_2  and  C3_3 
REMARK    2  A    between atoms: C3_3  and  O1_4 
REMARK    3  A    between atoms: O1_4  and  C4_5 
REMARK    4  A    between atoms: C9_14  and  N3_15 
REMARK    5  A    between atoms: N3_15  and  C10_16 
REMARK    6  A    between atoms: C13_19  and  O2_20 
REMARK    7  A    between atoms: O2_20  and  C14_21 
REMARK    8  A    between atoms: C14_21  and  C15_22 
ROOT
HETATM    1  C4  UNL     1      -4.853  -0.462   0.003  1.00  0.00     0.070 A 
HETATM    2  C5  UNL     1      -5.679  -1.538  -0.288  1.00  0.00     0.039 A 
HETATM    3  C6  UNL     1      -5.117  -2.781  -0.607  1.00  0.00     0.033 A 
HETATM    4  C7  UNL     1      -3.743  -2.985  -0.639  1.00  0.00     0.047 A 
HETATM    5  N1  UNL     1      -3.287  -4.198  -0.959  1.00  0.00    -0.352 N 
ATOM      6  H1  UNL     1      -3.919  -4.970  -1.172  1.00  0.00     0.166 HD
HETATM    7  C8  UNL     1      -1.959  -4.349  -0.986  1.00  0.00     0.182 A 
HETATM    8  N2  UNL     1      -1.052  -3.408  -0.713  1.00  0.00    -0.338 N 
ATOM      9  H2  UNL     1      -0.052  -3.603  -0.756  1.00  0.00     0.168 HD
HETATM   10  C9  UNL     1      -1.517  -2.191  -0.378  1.00  0.00     0.119 A 
HETATM   11  C23 UNL     1      -2.899  -1.911  -0.335  1.00  0.00     0.037 A 
HETATM   12  C24 UNL     1      -3.470  -0.649  -0.024  1.00  0.00     0.054 A 
ENDROOT
BRANCH  10  13
HETATM   13  N3  UNL     1      -0.599  -1.158  -0.043  1.00  0.00    -0.342 N 
HETATM   14  H9  UNL     1      -0.857  -0.770   0.858  1.00  0.00     0.167 HD
BRANCH  13  15
HETATM   15  C10 UNL     1       0.798  -1.119  -0.243  1.00  0.00     0.033 A 
HETATM   16  C11 UNL     1       1.576  -0.267   0.555  1.00  0.00     0.032 A 
HETATM   17  C12 UNL     1       2.958  -0.142   0.359  1.00  0.00     0.039 A 
HETATM   18  C13 UNL     1       3.587  -0.856  -0.657  1.00  0.00     0.069 A 
HETATM   19  C21 UNL     1       2.816  -1.666  -1.489  1.00  0.00     0.039 A 
HETATM   20  C22 UNL     1       1.436  -1.790  -1.289  1.00  0.00     0.032 A 
BRANCH  18  21
HETATM   21  O2  UNL     1       4.918  -0.814  -0.965  1.00  0.00    -0.347 OA
BRANCH  21  22
HETATM   22  C14 UNL     1       5.821  -0.325   0.030  1.00  0.00     0.214 C 
BRANCH  22  23
HETATM   23  C15 UNL     1       6.041   1.171  -0.032  1.00  0.00    -0.034 A 
HETATM   24  C16 UNL     1       5.916   1.881  -1.235  1.00  0.00     0.009 A 
HETATM   25  C17 UNL     1       6.149   3.256  -1.276  1.00  0.00     0.001 A 
HETATM   26  C18 UNL     1       6.523   3.936  -0.119  1.00  0.00     0.000 A 
HETATM   27  C19 UNL     1       6.667   3.241   1.080  1.00  0.00     0.001 A 
HETATM   28  C20 UNL     1       6.433   1.865   1.123  1.00  0.00     0.009 A 
ENDBRANCH  22  23
ENDBRANCH  21  22
ENDBRANCH  18  21
ENDBRANCH  13  15
ENDBRANCH  10  13
BRANCH   1  29
HETATM   29  O1  UNL     1      -5.253   0.804   0.324  1.00  0.00    -0.347 OA
BRANCH  29  30
HETATM   30  C3  UNL     1      -6.657   1.057   0.349  1.00  0.00     0.202 C 
BRANCH  30  31
HETATM   31  C2  UNL     1      -6.844   2.505   0.686  1.00  0.00    -0.011 C 
HETATM   32  C1  UNL     1      -7.566   2.965   1.716  1.00  0.00     0.009 C 
ENDBRANCH  30  31
ENDBRANCH  29  30
ENDBRANCH   1  29
TORSDOF 8
