REMARK  3 active torsions:
REMARK  status: ('A' for Active; 'I' for Inactive)
REMARK    1  A    between atoms: C4_4  and  C5_5 
REMARK    2  A    between atoms: N2_8  and  C6_9 
REMARK    3  A    between atoms: C12_15  and  C13_16 
ROOT
HETATM    1  C5  UNL     1       2.121  -0.810   0.055  1.00  0.00     0.038 C 
HETATM    2  N1  UNL     1       2.164   0.394   0.538  1.00  0.00    -0.301 N 
ATOM      3  H1  UNL     1       2.861   0.761   1.186  1.00  0.00     0.187 HD
HETATM    4  N2  UNL     1       1.103   1.079   0.017  1.00  0.00    -0.283 N 
HETATM    5  C12 UNL     1       0.222   0.241  -0.799  1.00  0.00     0.147 C 
HETATM    6  C23 UNL     1       1.016  -1.060  -0.934  1.00  0.00     0.091 C 
ENDROOT
BRANCH   5   7
HETATM    7  C13 UNL     1      -1.135  -0.019  -0.161  1.00  0.00    -0.032 A 
HETATM    8  C14 UNL     1      -1.302  -0.103   1.228  1.00  0.00     0.010 A 
HETATM    9  C15 UNL     1      -2.557  -0.368   1.781  1.00  0.00     0.013 A 
HETATM   10  C16 UNL     1      -3.677  -0.565   0.961  1.00  0.00    -0.026 A 
HETATM   11  C17 UNL     1      -4.944  -0.833   1.503  1.00  0.00     0.012 A 
HETATM   12  C21 UNL     1      -3.525  -0.492  -0.442  1.00  0.00    -0.025 A 
HETATM   13  C18 UNL     1      -6.049  -1.027   0.673  1.00  0.00     0.001 A 
HETATM   14  C19 UNL     1      -5.900  -0.957  -0.709  1.00  0.00     0.001 A 
HETATM   15  C20 UNL     1      -4.647  -0.691  -1.263  1.00  0.00     0.012 A 
HETATM   16  C22 UNL     1      -2.257  -0.223  -0.984  1.00  0.00     0.021 A 
ENDBRANCH   5   7
BRANCH   4  17
HETATM   17  C6  UNL     1       1.000   2.462   0.169  1.00  0.00     0.051 A 
HETATM   18  C7  UNL     1       1.957   3.177   0.909  1.00  0.00     0.031 A 
HETATM   19  C8  UNL     1       1.879   4.564   1.079  1.00  0.00     0.002 A 
HETATM   20  C9  UNL     1       0.829   5.274   0.511  1.00  0.00     0.000 A 
HETATM   21  C10 UNL     1      -0.138   4.596  -0.224  1.00  0.00     0.002 A 
HETATM   22  C11 UNL     1      -0.050   3.208  -0.390  1.00  0.00     0.031 A 
ENDBRANCH   4  17
BRANCH   1  23
HETATM   23  C4  UNL     1       3.101  -1.862   0.413  1.00  0.00    -0.012 A 
HETATM   24  C3  UNL     1       3.076  -3.123  -0.192  1.00  0.00     0.013 A 
HETATM   25  C2  UNL     1       4.016  -4.092   0.170  1.00  0.00     0.001 A 
HETATM   26  C1  UNL     1       4.981  -3.806   1.134  1.00  0.00     0.000 A 
HETATM   27  C25 UNL     1       5.012  -2.551   1.739  1.00  0.00     0.001 A 
HETATM   28  C24 UNL     1       4.075  -1.580   1.379  1.00  0.00     0.013 A 
ENDBRANCH   1  23
TORSDOF 3
