REMARK  4 active torsions:
REMARK  status: ('A' for Active; 'I' for Inactive)
REMARK    1  A    between atoms: C2_3  and  C10_12 
REMARK    2  A    between atoms: C3_4  and  C4_5 
REMARK    3  A    between atoms: C7_8  and  O1_9 
REMARK    4  A    between atoms: C10_12  and  O3_14 
ROOT
HETATM    1  N1  UNL     1      -2.093  -1.548  -1.840  1.00  0.00    -0.191 NA
HETATM    2  C1  UNL     1      -2.139  -0.875  -0.895  1.00  0.00     0.106 C 
HETATM    3  C2  UNL     1      -2.172  -0.041   0.256  1.00  0.00     0.118 C 
HETATM    4  C3  UNL     1      -1.069   0.470   0.839  1.00  0.00     0.041 C 
ENDROOT
BRANCH   3   5
HETATM    5  C10 UNL     1      -3.468   0.287   0.887  1.00  0.00     0.187 C 
HETATM    6  O2  UNL     1      -3.633   0.959   1.891  1.00  0.00    -0.645 OA
BRANCH   5   7
HETATM    7  O3  UNL     1      -4.521  -0.237   0.237  1.00  0.00    -0.772 OA
HETATM    8  H7  UNL     1      -5.304   0.053   0.751  1.00  0.00     0.167 HD
ENDBRANCH   5   7
ENDBRANCH   3   5
BRANCH   4   9
HETATM    9  C4  UNL     1       0.314   0.265   0.391  1.00  0.00    -0.034 A 
HETATM   10  C5  UNL     1       1.230  -0.335   1.265  1.00  0.00     0.014 A 
HETATM   11  C6  UNL     1       2.560  -0.524   0.877  1.00  0.00     0.037 A 
HETATM   12  C7  UNL     1       2.970  -0.104  -0.383  1.00  0.00     0.065 A 
HETATM   13  C8  UNL     1       2.076   0.504  -1.257  1.00  0.00     0.037 A 
HETATM   14  C9  UNL     1       0.748   0.693  -0.869  1.00  0.00     0.014 A 
BRANCH  12  15
HETATM   15  O1  UNL     1       4.256  -0.267  -0.804  1.00  0.00    -0.361 OA
HETATM   16  H4  UNL     1       4.755  -0.728  -0.110  1.00  0.00     0.217 HD
ENDBRANCH  12  15
ENDBRANCH   4   9
TORSDOF 4
