REMARK  10 active torsions:
REMARK  status: ('A' for Active; 'I' for Inactive)
REMARK    1  A    between atoms: C2_2  and  C3_3 
REMARK       I    between atoms: C3_3  and  N1_5 
REMARK    2  A    between atoms: N1_5  and  C4_6 
REMARK    3  A    between atoms: C7_9  and  N2_10 
REMARK    4  A    between atoms: N2_10  and  C8_11 
REMARK    5  A    between atoms: C17_26  and  O2_27 
REMARK    6  A    between atoms: O2_27  and  C18_28 
REMARK    7  A    between atoms: C18_28  and  C19_29 
REMARK    8  A    between atoms: C19_29  and  N5_30 
REMARK       I    between atoms: N5_30  and  C20_31 
REMARK    9  A    between atoms: C20_31  and  C21_33 
REMARK       I    between atoms: N6_37  and  C25_38 
REMARK   10  A    between atoms: C25_38  and  C26_40 
ROOT
HETATM    1  C4  UNL     1      -2.194   0.788  -1.720  1.00  0.00     0.069 A 
HETATM    2  C5  UNL     1      -3.273   0.423  -0.916  1.00  0.00     0.050 A 
HETATM    3  C6  UNL     1      -3.068  -0.195   0.343  1.00  0.00     0.037 A 
HETATM    4  C7  UNL     1      -4.094  -0.619   1.213  1.00  0.00     0.119 A 
HETATM    5  N3  UNL     1      -3.829  -1.207   2.394  1.00  0.00    -0.338 N 
ATOM      6  H3  UNL     1      -4.575  -1.528   3.011  1.00  0.00     0.168 HD
HETATM    7  C14 UNL     1      -2.544  -1.349   2.719  1.00  0.00     0.182 A 
HETATM    8  N4  UNL     1      -1.496  -0.990   1.971  1.00  0.00    -0.351 N 
ATOM      9  H4  UNL     1      -0.538  -1.146   2.284  1.00  0.00     0.166 HD
HETATM   10  C15 UNL     1      -1.762  -0.418   0.795  1.00  0.00     0.049 A 
HETATM   11  C16 UNL     1      -0.693  -0.032  -0.008  1.00  0.00     0.069 A 
HETATM   12  C17 UNL     1      -0.886   0.564  -1.257  1.00  0.00     0.097 A 
ENDROOT
BRANCH  12  13
HETATM   13  O2  UNL     1       0.113   0.959  -2.117  1.00  0.00    -0.347 OA
BRANCH  13  14
HETATM   14  C18 UNL     1       1.476   0.735  -1.740  1.00  0.00     0.195 C 
BRANCH  14  15
HETATM   15  C19 UNL     1       1.919  -0.686  -2.103  1.00  0.00     0.149 C 
BRANCH  15  16
HETATM   16  N5  UNL     1       3.323  -0.935  -1.844  1.00  0.00    -0.357 N 
HETATM   17  C20 UNL     1       3.783  -1.074  -0.548  1.00  0.00     0.240 C 
HETATM   18  O3  UNL     1       3.028  -1.062   0.423  1.00  0.00    -0.271 OA
HETATM   19  H16 UNL     1       3.992  -0.657  -2.554  1.00  0.00     0.162 HD
BRANCH  17  20
HETATM   20  C21 UNL     1       5.306  -1.294  -0.438  1.00  0.00     0.179 C 
HETATM   21  C22 UNL     1       5.612  -2.736  -0.034  1.00  0.00     0.037 C 
HETATM   22  C23 UNL     1       5.628  -2.682   1.493  1.00  0.00     0.022 C 
HETATM   23  C24 UNL     1       6.219  -1.311   1.792  1.00  0.00     0.127 C 
HETATM   24  N6  UNL     1       5.865  -0.494   0.644  1.00  0.00    -0.339 N 
HETATM   25  C25 UNL     1       6.083   0.854   0.477  1.00  0.00     0.220 C 
HETATM   26  O4  UNL     1       5.797   1.424  -0.577  1.00  0.00    -0.273 OA
BRANCH  25  27
HETATM   27  C26 UNL     1       6.690   1.581   1.666  1.00  0.00     0.098 C 
HETATM   28  C27 UNL     1       6.951   3.050   1.376  1.00  0.00     0.014 C 
ENDBRANCH  25  27
ENDBRANCH  17  20
ENDBRANCH  15  16
ENDBRANCH  14  15
ENDBRANCH  13  14
ENDBRANCH  12  13
BRANCH   1  29
HETATM   29  N1  UNL     1      -2.337   1.381  -2.994  1.00  0.00    -0.321 N 
HETATM   30  C3  UNL     1      -3.490   1.569  -3.715  1.00  0.00     0.245 C 
HETATM   31  O1  UNL     1      -4.622   1.212  -3.413  1.00  0.00    -0.268 OA
HETATM   32  H4  UNL     1      -1.453   1.613  -3.434  1.00  0.00     0.169 HD
BRANCH  30  33
HETATM   33  C2  UNL     1      -3.281   2.216  -5.042  1.00  0.00     0.064 C 
HETATM   34  C1  UNL     1      -2.332   3.118  -5.324  1.00  0.00     0.017 C 
ENDBRANCH  30  33
ENDBRANCH   1  29
BRANCH   4  35
HETATM   35  N2  UNL     1      -5.449  -0.448   0.820  1.00  0.00    -0.339 N 
HETATM   36  H6  UNL     1      -5.585  -0.875  -0.091  1.00  0.00     0.167 HD
BRANCH  35  37
HETATM   37  C8  UNL     1      -6.585  -0.573   1.652  1.00  0.00     0.072 A 
HETATM   38  C9  UNL     1      -7.745  -1.177   1.138  1.00  0.00     0.034 A 
HETATM   39  C10 UNL     1      -8.895  -1.313   1.923  1.00  0.00     0.021 A 
HETATM   40  C11 UNL     1      -8.902  -0.829   3.230  1.00  0.00     0.014 A 
HETATM   41 BR1  UNL     1     -10.456  -1.012   4.291  1.00  0.00    -0.051 Br
HETATM   42  C12 UNL     1      -7.779  -0.198   3.753  1.00  0.00     0.063 A 
HETATM   43  C13 UNL     1      -6.638  -0.066   2.963  1.00  0.00     0.144 A 
HETATM   44  F1  UNL     1      -5.601   0.613   3.480  1.00  0.00    -0.204 F 
ENDBRANCH  35  37
ENDBRANCH   4  35
TORSDOF 10
