REMARK  8 active torsions:
REMARK  status: ('A' for Active; 'I' for Inactive)
REMARK    1  A    between atoms: C4_4  and  N1_5 
REMARK    2  A    between atoms: N1_5  and  C5_6 
REMARK    3  A    between atoms: C5_6  and  C6_7 
REMARK    4  A    between atoms: C6_7  and  N2_8 
REMARK    5  A    between atoms: N2_8  and  C7_9 
REMARK    6  A    between atoms: N2_8  and  N7_30 
REMARK    7  A    between atoms: C11_17  and  N5_18 
REMARK    8  A    between atoms: N5_18  and  C12_19 
ROOT
HETATM    1  C7  UNL     1       0.845  -1.279  -0.557  1.00  0.00     0.095 A 
HETATM    2  C8  UNL     1       0.391  -2.375   0.161  1.00  0.00     0.069 A 
HETATM    3  C9  UNL     1      -0.972  -2.289   0.564  1.00  0.00     0.056 A 
HETATM    4  N3  UNL     1      -1.643  -3.244   1.251  1.00  0.00    -0.351 N 
ATOM      5  H3  UNL     1      -1.213  -4.117   1.557  1.00  0.00     0.166 HD
HETATM    6  C10 UNL     1      -2.919  -2.937   1.491  1.00  0.00     0.182 A 
HETATM    7  N4  UNL     1      -3.571  -1.821   1.135  1.00  0.00    -0.337 N 
ATOM      8  H4  UNL     1      -4.555  -1.701   1.374  1.00  0.00     0.168 HD
HETATM    9  C11 UNL     1      -2.911  -0.855   0.456  1.00  0.00     0.126 A 
HETATM   10  C20 UNL     1      -1.559  -1.100   0.163  1.00  0.00     0.077 A 
HETATM   11  S1  UNL     1      -0.424  -0.117  -0.667  1.00  0.00    -0.065 SA
ENDROOT
BRANCH   1  12
HETATM   12  N2  UNL     1       2.105  -1.109  -1.086  1.00  0.00    -0.279 N 
BRANCH  12  13
HETATM   13  C6  UNL     1       2.447  -0.012  -2.016  1.00  0.00     0.165 C 
BRANCH  13  14
HETATM   14  C5  UNL     1       3.761   0.702  -1.623  1.00  0.00     0.114 C 
BRANCH  14  15
HETATM   15  N1  UNL     1       3.659   1.244  -0.267  1.00  0.00    -0.291 NA
HETATM   16  H4  UNL     1       3.140   0.613   0.344  1.00  0.00     0.127 HD
BRANCH  15  17
HETATM   17  C4  UNL     1       4.817   1.724   0.358  1.00  0.00     0.008 A 
HETATM   18  C3  UNL     1       5.935   2.198  -0.338  1.00  0.00     0.023 A 
HETATM   19  C2  UNL     1       7.038   2.735   0.338  1.00  0.00     0.002 A 
HETATM   20  C1  UNL     1       7.025   2.836   1.725  1.00  0.00     0.000 A 
HETATM   21  C26 UNL     1       5.906   2.413   2.434  1.00  0.00     0.002 A 
HETATM   22  C25 UNL     1       4.808   1.875   1.752  1.00  0.00     0.023 A 
ENDBRANCH  15  17
ENDBRANCH  14  15
ENDBRANCH  13  14
ENDBRANCH  12  13
BRANCH  12  23
HETATM   23  N7  UNL     1       2.995  -2.178  -1.158  1.00  0.00    -0.276 N 
HETATM   24  C21 UNL     1       3.019  -3.140  -2.137  1.00  0.00     0.116 A 
HETATM   25  C22 UNL     1       4.043  -4.018  -1.859  1.00  0.00     0.021 A 
HETATM   26  C23 UNL     1       4.657  -3.579  -0.663  1.00  0.00     0.021 A 
HETATM   27  C24 UNL     1       3.986  -2.448  -0.250  1.00  0.00     0.116 A 
ENDBRANCH  12  23
ENDBRANCH   1  12
BRANCH   9  28
HETATM   28  N5  UNL     1      -3.525   0.338   0.047  1.00  0.00    -0.341 N 
HETATM   29  H11 UNL     1      -2.874   0.976  -0.395  1.00  0.00     0.167 HD
BRANCH  28  30
HETATM   30  C12 UNL     1      -4.840   0.830   0.146  1.00  0.00     0.034 A 
HETATM   31  C13 UNL     1      -5.112   2.101  -0.384  1.00  0.00     0.032 A 
HETATM   32  C14 UNL     1      -6.387   2.682  -0.340  1.00  0.00     0.033 A 
HETATM   33  C15 UNL     1      -7.406   1.943   0.260  1.00  0.00     0.042 A 
HETATM   34  N6  UNL     1      -8.734   2.247   0.452  1.00  0.00    -0.365 N 
HETATM   35  C18 UNL     1      -7.192   0.674   0.792  1.00  0.00    -0.006 A 
HETATM   36  C16 UNL     1      -9.370   1.210   1.077  1.00  0.00     0.089 A 
HETATM   37  H14 UNL     1      -9.170   3.111   0.162  1.00  0.00     0.165 HD
HETATM   38  C17 UNL     1      -8.441   0.221   1.304  1.00  0.00     0.030 A 
HETATM   39  C19 UNL     1      -5.897   0.117   0.729  1.00  0.00     0.043 A 
ENDBRANCH  28  30
ENDBRANCH   9  28
TORSDOF 8
