REMARK  2 active torsions:
REMARK  status: ('A' for Active; 'I' for Inactive)
REMARK    1  A    between atoms: N1_1  and  C1_2 
REMARK    2  A    between atoms: N5_13  and  C6_14 
ROOT
HETATM    1  C1  UNL     1      -3.325  -0.294   0.513  1.00  0.00     0.094 A 
HETATM    2  N2  UNL     1      -3.240  -1.575   0.918  1.00  0.00    -0.342 N 
ATOM      3  H2  UNL     1      -4.075  -2.094   1.189  1.00  0.00     0.167 HD
HETATM    4  C2  UNL     1      -2.026  -2.153   0.956  1.00  0.00     0.183 A 
HETATM    5  N3  UNL     1      -0.843  -1.614   0.624  1.00  0.00    -0.336 N 
ATOM      6  H3  UNL     1       0.043  -2.117   0.670  1.00  0.00     0.168 HD
HETATM    7  C3  UNL     1      -0.960  -0.330   0.222  1.00  0.00     0.143 A 
HETATM    8  C4  UNL     1      -2.153   0.372   0.147  1.00  0.00     0.065 A 
HETATM    9  C5  UNL     1      -1.792   1.648  -0.304  1.00  0.00     0.126 A 
HETATM   10  N4  UNL     1      -0.484   1.773  -0.524  1.00  0.00    -0.302 N 
ATOM     11  H4  UNL     1       0.015   2.595  -0.863  1.00  0.00     0.186 HD
HETATM   12  N5  UNL     1       0.042   0.550  -0.193  1.00  0.00    -0.239 N 
ENDROOT
BRANCH  12  13
HETATM   13  C6  UNL     1       1.451   0.337  -0.306  1.00  0.00     0.058 A 
HETATM   14  C7  UNL     1       2.269   1.389  -0.755  1.00  0.00     0.031 A 
HETATM   15  C8  UNL     1       3.650   1.215  -0.877  1.00  0.00     0.002 A 
HETATM   16  C9  UNL     1       4.229  -0.009  -0.554  1.00  0.00     0.000 A 
HETATM   17  C10 UNL     1       3.429  -1.058  -0.108  1.00  0.00     0.002 A 
HETATM   18  C11 UNL     1       2.045  -0.890   0.017  1.00  0.00     0.031 A 
ENDBRANCH  12  13
BRANCH   1  19
HETATM   19  N1  UNL     1      -4.588   0.276   0.476  1.00  0.00    -0.288 NA
HETATM   20  H1  UNL     1      -4.733   0.986  -0.227  1.00  0.00     0.125 HD
HETATM   21  H2  UNL     1      -5.305  -0.438   0.542  1.00  0.00     0.125 HD
ENDBRANCH   1  19
TORSDOF 2
