REMARK  7 active torsions:
REMARK  status: ('A' for Active; 'I' for Inactive)
REMARK    1  A    between atoms: C8_10  and  N2_11 
REMARK    2  A    between atoms: N2_11  and  C9_12 
REMARK    3  A    between atoms: C10_15  and  O1_16 
REMARK    4  A    between atoms: C12_18  and  C13_19 
REMARK    5  A    between atoms: C13_19  and  S1_20 
REMARK    6  A    between atoms: S1_20  and  C14_21 
REMARK    7  A    between atoms: N7_26  and  C15_27 
ROOT
HETATM    1  C9  UNL     1       0.315  -1.483   0.543  1.00  0.00     0.699 A 
HETATM    2  N3  UNL     1       0.791  -2.128   1.613  1.00  0.00    -0.170 N 
ATOM      3  H3  UNL     1       1.770  -2.061   1.890  1.00  0.00     0.186 HD
HETATM    4  C10 UNL     1      -0.083  -2.863   2.298  1.00  0.00     0.157 A 
HETATM    5  C11 UNL     1      -1.403  -3.018   1.996  1.00  0.00     0.082 A 
HETATM    6  C12 UNL     1      -1.822  -2.327   0.883  1.00  0.00     0.040 A 
HETATM    7  N8  UNL     1      -0.972  -1.569   0.148  1.00  0.00    -0.194 N 
ATOM      8  H8  UNL     1      -1.297  -1.076  -0.683  1.00  0.00     0.184 HD
ENDROOT
BRANCH   1   9
HETATM    9  N2  UNL     1       1.121  -0.693  -0.246  1.00  0.00    -0.022 N 
HETATM   10  H9  UNL     1       0.637  -0.236  -0.996  1.00  0.00     0.203 HD
BRANCH   9  11
HETATM   11  C8  UNL     1       2.463  -0.381  -0.183  1.00  0.00     0.697 A 
HETATM   12  N1  UNL     1       3.262  -0.886   0.764  1.00  0.00    -0.194 N 
HETATM   13  C6  UNL     1       4.566  -0.537   0.757  1.00  0.00     0.035 A 
ATOM     14  H1  UNL     1       2.895  -1.519   1.474  1.00  0.00     0.184 HD
HETATM   15  C5  UNL     1       5.109   0.321  -0.203  1.00  0.00     0.014 A 
HETATM   16  C7  UNL     1       5.398  -1.138   1.852  1.00  0.00     0.070 C 
HETATM   17  C4  UNL     1       6.464   0.727  -0.269  1.00  0.00     0.016 A 
HETATM   18  C21 UNL     1       4.196   0.789  -1.151  1.00  0.00     0.061 A 
HETATM   19  C3  UNL     1       6.901   1.587  -1.275  1.00  0.00     0.008 A 
HETATM   20  C2  UNL     1       5.999   2.046  -2.233  1.00  0.00    -0.060 A 
HETATM   21  C1  UNL     1       6.435   2.992  -3.312  1.00  0.00     0.048 C 
HETATM   22  C22 UNL     1       4.656   1.646  -2.146  1.00  0.00     0.037 A 
HETATM   23  N9  UNL     1       2.901   0.448  -1.143  1.00  0.00    -0.190 N 
ATOM     24  H9  UNL     1       2.262   0.810  -1.851  1.00  0.00     0.184 HD
ENDBRANCH   9  11
ENDBRANCH   1   9
BRANCH   4  25
HETATM   25  O1  UNL     1       0.456  -3.493   3.372  1.00  0.00    -0.346 OA
HETATM   26  H10 UNL     1       1.373  -3.162   3.310  1.00  0.00     0.219 HD
ENDBRANCH   4  25
BRANCH   6  27
HETATM   27  C13 UNL     1      -3.249  -2.408   0.406  1.00  0.00     0.140 C 
BRANCH  27  28
HETATM   28  S1  UNL     1      -4.471  -1.727   1.567  1.00  0.00    -0.085 SA
BRANCH  28  29
HETATM   29  C14 UNL     1      -4.087  -0.043   1.469  1.00  0.00     0.177 A 
HETATM   30  N4  UNL     1      -3.075   0.494   2.114  1.00  0.00    -0.264 N 
HETATM   31  N5  UNL     1      -3.000   1.790   1.694  1.00  0.00    -0.006 NA
ATOM     32  H4  UNL     1      -2.468   0.034   2.792  1.00  0.00     0.186 HD
HETATM   33  N6  UNL     1      -3.945   2.058   0.808  1.00  0.00     0.001 NA
HETATM   34  N7  UNL     1      -4.694   0.926   0.677  1.00  0.00    -0.219 N 
BRANCH  34  35
HETATM   35  C15 UNL     1      -5.847   0.934  -0.161  1.00  0.00     0.056 A 
HETATM   36  C16 UNL     1      -6.802  -0.089  -0.154  1.00  0.00     0.031 A 
HETATM   37  C17 UNL     1      -7.914  -0.025  -1.001  1.00  0.00     0.002 A 
HETATM   38  C18 UNL     1      -8.091   1.060  -1.854  1.00  0.00     0.000 A 
HETATM   39  C19 UNL     1      -7.160   2.093  -1.860  1.00  0.00     0.002 A 
HETATM   40  C20 UNL     1      -6.048   2.035  -1.017  1.00  0.00     0.031 A 
ENDBRANCH  34  35
ENDBRANCH  28  29
ENDBRANCH  27  28
ENDBRANCH   6  27
TORSDOF 7
