REMARK  4 active torsions:
REMARK  status: ('A' for Active; 'I' for Inactive)
REMARK    1  A    between atoms: N1_1  and  C1_2 
REMARK    2  A    between atoms: C1_2  and  N2_4 
REMARK    3  A    between atoms: C2_7  and  C3_8 
REMARK    4  A    between atoms: C10_16  and  C11_17 
ROOT
HETATM    1  N2  UNL     1      -0.757  -2.131  -0.258  1.00  0.00    -0.258 N 
HETATM    2  N3  UNL     1      -1.788  -1.426   0.340  1.00  0.00    -0.299 N 
ATOM      3  H3  UNL     1      -2.275  -1.673   1.202  1.00  0.00     0.187 HD
HETATM    4  C2  UNL     1      -2.016  -0.388  -0.409  1.00  0.00     0.038 C 
HETATM    5  C9  UNL     1      -1.195  -0.312  -1.670  1.00  0.00     0.091 C 
HETATM    6  C10 UNL     1      -0.173  -1.409  -1.398  1.00  0.00     0.149 C 
ENDROOT
BRANCH   6   7
HETATM    7  C11 UNL     1       1.200  -0.820  -1.108  1.00  0.00    -0.032 A 
HETATM    8  C12 UNL     1       2.187  -0.847  -2.102  1.00  0.00     0.010 A 
HETATM    9  C13 UNL     1       3.445  -0.285  -1.872  1.00  0.00     0.013 A 
HETATM   10  C14 UNL     1       3.747   0.324  -0.646  1.00  0.00    -0.026 A 
HETATM   11  C15 UNL     1       5.007   0.895  -0.401  1.00  0.00     0.012 A 
HETATM   12  C19 UNL     1       2.763   0.361   0.366  1.00  0.00    -0.025 A 
HETATM   13  C16 UNL     1       5.292   1.495   0.827  1.00  0.00     0.001 A 
HETATM   14  C17 UNL     1       4.322   1.531   1.824  1.00  0.00     0.001 A 
HETATM   15  C18 UNL     1       3.066   0.968   1.596  1.00  0.00     0.012 A 
HETATM   16  C20 UNL     1       1.502  -0.210   0.122  1.00  0.00     0.021 A 
ENDBRANCH   6   7
BRANCH   1  17
HETATM   17  C1  UNL     1      -0.401  -3.382   0.214  1.00  0.00     0.187 C 
HETATM   18  S1  UNL     1       0.770  -4.395  -0.403  1.00  0.00    -0.040 SA
BRANCH  17  19
HETATM   19  N1  UNL     1      -1.133  -3.790   1.290  1.00  0.00    -0.375 N 
HETATM   20  H1  UNL     1      -1.748  -3.099   1.703  1.00  0.00     0.158 HD
HETATM   21  H2  UNL     1      -0.900  -4.639   1.783  1.00  0.00     0.158 HD
ENDBRANCH  17  19
ENDBRANCH   1  17
BRANCH   4  22
HETATM   22  C3  UNL     1      -3.039   0.634  -0.082  1.00  0.00    -0.012 A 
HETATM   23  C4  UNL     1      -3.718   0.547   1.141  1.00  0.00     0.015 A 
HETATM   24  C5  UNL     1      -4.687   1.495   1.480  1.00  0.00     0.024 A 
HETATM   25  C6  UNL     1      -4.979   2.532   0.596  1.00  0.00     0.034 A 
HETATM   26 CL1  UNL     1      -6.170   3.700   1.010  1.00  0.00    -0.084 Cl
HETATM   27  C7  UNL     1      -4.310   2.626  -0.624  1.00  0.00     0.024 A 
HETATM   28  C8  UNL     1      -3.340   1.678  -0.965  1.00  0.00     0.015 A 
ENDBRANCH   4  22
TORSDOF 4
