REMARK  10 active torsions:
REMARK  status: ('A' for Active; 'I' for Inactive)
REMARK    1  A    between atoms: C1_2  and  C2_3 
REMARK       I    between atoms: C1_2  and  N1_5 
REMARK    2  A    between atoms: C2_3  and  O2_4 
REMARK    3  A    between atoms: C6_9  and  C7_10 
REMARK    4  A    between atoms: C7_10  and  O3_11 
REMARK    5  A    between atoms: O3_11  and  C8_12 
REMARK    6  A    between atoms: C14_22  and  N4_23 
REMARK    7  A    between atoms: N4_23  and  C15_24 
REMARK    8  A    between atoms: C18_27  and  O4_28 
REMARK    9  A    between atoms: O4_28  and  C19_29 
REMARK   10  A    between atoms: C19_29  and  C20_30 
ROOT
HETATM    1  C8  UNL     1      -2.357  -2.770   0.458  1.00  0.00     0.085 A 
HETATM    2  C9  UNL     1      -3.439  -3.643   0.596  1.00  0.00     0.038 A 
HETATM    3  C10 UNL     1      -3.254  -4.864   1.224  1.00  0.00     0.005 A 
HETATM    4  C11 UNL     1      -1.987  -5.205   1.695  1.00  0.00     0.030 A 
HETATM    5  C12 UNL     1      -0.887  -4.372   1.534  1.00  0.00     0.049 A 
HETATM    6  N2  UNL     1       0.279  -4.809   2.010  1.00  0.00    -0.351 N 
ATOM      7  H2  UNL     1       0.359  -5.707   2.487  1.00  0.00     0.166 HD
HETATM    8  C13 UNL     1       1.336  -4.015   1.833  1.00  0.00     0.182 A 
HETATM    9  N3  UNL     1       1.333  -2.832   1.220  1.00  0.00    -0.338 N 
ATOM     10  H3  UNL     1       2.188  -2.287   1.113  1.00  0.00     0.168 HD
HETATM   11  C14 UNL     1       0.153  -2.386   0.747  1.00  0.00     0.122 A 
HETATM   12  C27 UNL     1      -1.045  -3.135   0.888  1.00  0.00     0.068 A 
ENDROOT
BRANCH  11  13
HETATM   13  N4  UNL     1       0.125  -1.153   0.052  1.00  0.00    -0.342 N 
HETATM   14  H17 UNL     1      -0.726  -0.650   0.278  1.00  0.00     0.167 HD
BRANCH  13  15
HETATM   15  C15 UNL     1       1.179  -0.308  -0.345  1.00  0.00     0.035 A 
HETATM   16  C16 UNL     1       2.457  -0.780  -0.657  1.00  0.00     0.032 A 
HETATM   17  C17 UNL     1       3.473   0.083  -1.091  1.00  0.00     0.041 A 
HETATM   18  C18 UNL     1       3.226   1.446  -1.248  1.00  0.00     0.091 A 
HETATM   19  C25 UNL     1       1.945   1.927  -0.942  1.00  0.00     0.069 A 
HETATM   20 CL1  UNL     1       1.551   3.606  -1.111  1.00  0.00    -0.081 Cl
HETATM   21  C26 UNL     1       0.934   1.061  -0.506  1.00  0.00     0.056 A 
BRANCH  18  22
HETATM   22  O4  UNL     1       4.153   2.366  -1.662  1.00  0.00    -0.344 OA
BRANCH  22  23
HETATM   23  C19 UNL     1       5.347   1.894  -2.295  1.00  0.00     0.232 C 
BRANCH  23  24
HETATM   24  C20 UNL     1       6.456   1.588  -1.314  1.00  0.00     0.033 A 
HETATM   25  C21 UNL     1       6.734   2.456  -0.260  1.00  0.00     0.027 A 
HETATM   26  C22 UNL     1       7.772   2.142   0.615  1.00  0.00     0.003 A 
HETATM   27  C23 UNL     1       8.505   0.980   0.413  1.00  0.00     0.017 A 
HETATM   28  C24 UNL     1       8.172   0.175  -0.663  1.00  0.00     0.088 A 
HETATM   29  N5  UNL     1       7.173   0.454  -1.530  1.00  0.00    -0.367 N 
ATOM     30  H5  UNL     1       6.966  -0.163  -2.316  1.00  0.00     0.165 HD
ENDBRANCH  23  24
ENDBRANCH  22  23
ENDBRANCH  18  22
ENDBRANCH  13  15
ENDBRANCH  11  13
BRANCH   1  31
HETATM   31  O3  UNL     1      -2.570  -1.564  -0.171  1.00  0.00    -0.348 OA
BRANCH  31  32
HETATM   32  C7  UNL     1      -3.364  -0.678   0.636  1.00  0.00     0.201 C 
BRANCH  32  33
HETATM   33  C6  UNL     1      -3.644   0.601  -0.174  1.00  0.00     0.111 C 
HETATM   34  N1  UNL     1      -4.298   1.632   0.635  1.00  0.00    -0.344 N 
HETATM   35  C1  UNL     1      -3.600   2.355   1.570  1.00  0.00     0.243 C 
HETATM   36  C3  UNL     1      -5.673   1.857   0.211  1.00  0.00     0.126 C 
HETATM   37  O1  UNL     1      -2.404   2.153   1.798  1.00  0.00    -0.271 OA
HETATM   38  C4  UNL     1      -5.986   0.670  -0.691  1.00  0.00     0.022 C 
HETATM   39  C5  UNL     1      -4.632   0.357  -1.323  1.00  0.00     0.029 C 
BRANCH  35  40
HETATM   40  C2  UNL     1      -4.370   3.426   2.348  1.00  0.00     0.267 C 
BRANCH  40  41
HETATM   41  O2  UNL     1      -3.513   4.219   3.157  1.00  0.00    -0.392 OA
HETATM   42  H3  UNL     1      -2.650   3.756   3.171  1.00  0.00     0.210 HD
ENDBRANCH  40  41
ENDBRANCH  35  40
ENDBRANCH  32  33
ENDBRANCH  31  32
ENDBRANCH   1  31
TORSDOF 10
