REMARK  3 active torsions:
REMARK  status: ('A' for Active; 'I' for Inactive)
REMARK    1  A    between atoms: C3_4  and  C4_5 
REMARK    2  A    between atoms: C7_10  and  N3_11 
REMARK       I    between atoms: N3_11  and  C8_12 
REMARK       I    between atoms: C8_12  and  N4_14 
REMARK    3  A    between atoms: N4_14  and  C9_15 
ROOT
HETATM    1  C4  UNL     1      -3.262   0.656   0.053  1.00  0.00    -0.005 A 
HETATM    2  C5  UNL     1      -2.120   0.920  -0.690  1.00  0.00     0.101 A 
HETATM    3  N2  UNL     1      -0.876   0.503  -0.352  1.00  0.00    -0.361 N 
ATOM      4  H2  UNL     1      -0.067   0.725  -0.932  1.00  0.00     0.165 HD
HETATM    5  C6  UNL     1      -0.749  -0.223   0.790  1.00  0.00     0.086 A 
HETATM    6  C7  UNL     1       0.506  -0.692   1.199  1.00  0.00     0.066 A 
HETATM    7  C13 UNL     1       0.637  -1.428   2.374  1.00  0.00     0.049 A 
HETATM    8  C14 UNL     1      -0.503  -1.685   3.109  1.00  0.00     0.090 A 
HETATM    9  N5  UNL     1      -1.733  -1.260   2.755  1.00  0.00    -0.364 N 
ATOM     10  H5  UNL     1      -2.551  -1.472   3.327  1.00  0.00     0.165 HD
HETATM   11  C15 UNL     1      -1.842  -0.546   1.619  1.00  0.00     0.062 A 
HETATM   12  C16 UNL     1      -3.091  -0.089   1.223  1.00  0.00     0.045 A 
ENDROOT
BRANCH   6  13
HETATM   13  N3  UNL     1       1.601  -0.361   0.364  1.00  0.00    -0.307 N 
HETATM   14  C8  UNL     1       2.903  -0.793   0.452  1.00  0.00     0.321 C 
HETATM   15  O1  UNL     1       3.336  -1.602   1.261  1.00  0.00    -0.247 OA
HETATM   16  N4  UNL     1       3.678  -0.189  -0.518  1.00  0.00    -0.335 N 
HETATM   17  H7  UNL     1       3.342   0.724  -0.787  1.00  0.00     0.165 HD
HETATM   18  H6  UNL     1       1.332   0.144  -0.474  1.00  0.00     0.170 HD
BRANCH  16  19
HETATM   19  C9  UNL     1       5.127  -0.399  -0.668  1.00  0.00     0.023 C 
HETATM   20  C10 UNL     1       5.592   0.402  -1.899  1.00  0.00     0.037 C 
HETATM   21  C11 UNL     1       5.885   0.114   0.566  1.00  0.00     0.037 C 
HETATM   22  C12 UNL     1       5.457  -1.881  -0.914  1.00  0.00     0.037 C 
ENDBRANCH  16  19
ENDBRANCH   6  13
BRANCH   1  23
HETATM   23  C3  UNL     1      -4.563   1.142  -0.371  1.00  0.00     0.009 A 
HETATM   24  C2  UNL     1      -5.778   0.598  -0.005  1.00  0.00     0.123 A 
HETATM   25  N1  UNL     1      -6.738   1.341  -0.629  1.00  0.00    -0.307 N 
HETATM   26  C1  UNL     1      -8.167   1.156  -0.554  1.00  0.00     0.177 C 
HETATM   27  N6  UNL     1      -6.238   2.334  -1.385  1.00  0.00    -0.310 N 
HETATM   28  C17 UNL     1      -4.918   2.213  -1.226  1.00  0.00     0.121 A 
ATOM     29  H6  UNL     1      -6.746   3.017  -1.946  1.00  0.00     0.186 HD
ENDBRANCH   1  23
TORSDOF 3
