REMARK  3 active torsions:
REMARK  status: ('A' for Active; 'I' for Inactive)
REMARK    1  A    between atoms: C3_4  and  C4_5 
REMARK    2  A    between atoms: C9_12  and  N3_13 
REMARK       I    between atoms: N3_13  and  C10_14 
REMARK       I    between atoms: C10_14  and  N4_16 
REMARK    3  A    between atoms: N4_16  and  C11_17 
ROOT
HETATM    1  C4  UNL     1      -3.900  -0.294   0.539  1.00  0.00    -0.005 A 
HETATM    2  C5  UNL     1      -3.858  -0.951   1.762  1.00  0.00     0.101 A 
HETATM    3  N2  UNL     1      -2.716  -1.280   2.411  1.00  0.00    -0.363 N 
ATOM      4  H2  UNL     1      -2.736  -1.767   3.307  1.00  0.00     0.165 HD
HETATM    5  C6  UNL     1      -1.552  -0.938   1.825  1.00  0.00     0.059 A 
HETATM    6  C7  UNL     1      -0.351  -1.246   2.437  1.00  0.00     0.035 A 
HETATM    7  C8  UNL     1       0.865  -0.901   1.846  1.00  0.00     0.051 A 
HETATM    8  C9  UNL     1       0.847  -0.238   0.632  1.00  0.00     0.109 A 
HETATM    9  N5  UNL     1      -0.304   0.075  -0.000  1.00  0.00    -0.341 N 
ATOM     10  H5  UNL     1      -0.293   0.557  -0.899  1.00  0.00     0.167 HD
HETATM   11  C15 UNL     1      -1.469  -0.267   0.589  1.00  0.00     0.061 A 
HETATM   12  C16 UNL     1      -2.670   0.045  -0.034  1.00  0.00     0.045 A 
ENDROOT
BRANCH   8  13
HETATM   13  N3  UNL     1       1.988   0.154  -0.066  1.00  0.00    -0.295 N 
HETATM   14  C10 UNL     1       3.295   0.104   0.346  1.00  0.00     0.322 C 
HETATM   15  O1  UNL     1       3.687  -0.256   1.446  1.00  0.00    -0.247 OA
HETATM   16  N4  UNL     1       4.138   0.535  -0.662  1.00  0.00    -0.335 N 
HETATM   17  H9  UNL     1       3.777   0.362  -1.589  1.00  0.00     0.165 HD
HETATM   18  H8  UNL     1       1.774   0.663  -0.908  1.00  0.00     0.172 HD
BRANCH  16  19
HETATM   19  C11 UNL     1       5.606   0.565  -0.553  1.00  0.00     0.023 C 
HETATM   20  C12 UNL     1       6.174  -0.853  -0.388  1.00  0.00     0.037 C 
HETATM   21  C13 UNL     1       6.159   1.166  -1.860  1.00  0.00     0.037 C 
HETATM   22  C14 UNL     1       6.065   1.459   0.611  1.00  0.00     0.037 C 
ENDBRANCH  16  19
ENDBRANCH   8  13
BRANCH   1  23
HETATM   23  C3  UNL     1      -5.149   0.040  -0.119  1.00  0.00     0.009 A 
HETATM   24  C2  UNL     1      -6.353  -0.609   0.069  1.00  0.00     0.123 A 
HETATM   25  N1  UNL     1      -7.257   0.010  -0.746  1.00  0.00    -0.307 N 
HETATM   26  C1  UNL     1      -8.654  -0.315  -0.902  1.00  0.00     0.177 C 
HETATM   27  N6  UNL     1      -6.730   1.019  -1.459  1.00  0.00    -0.310 N 
HETATM   28  C17 UNL     1      -5.450   1.036  -1.079  1.00  0.00     0.121 A 
ATOM     29  H6  UNL     1      -7.197   1.628  -2.131  1.00  0.00     0.186 HD
ENDBRANCH   1  23
TORSDOF 3
