REMARK  4 active torsions:
REMARK  status: ('A' for Active; 'I' for Inactive)
REMARK    1  A    between atoms: C3_4  and  C4_5 
REMARK    2  A    between atoms: C9_12  and  N3_13 
REMARK       I    between atoms: N3_13  and  C10_14 
REMARK       I    between atoms: C10_14  and  N4_16 
REMARK    3  A    between atoms: N4_16  and  C11_17 
REMARK    4  A    between atoms: C11_17  and  C12_18 
ROOT
HETATM    1  C4  UNL     1       4.168  -0.101   0.538  1.00  0.00    -0.005 A 
HETATM    2  C5  UNL     1       4.113  -0.064   1.925  1.00  0.00     0.101 A 
HETATM    3  N2  UNL     1       2.983   0.159   2.637  1.00  0.00    -0.363 N 
ATOM      4  H2  UNL     1       2.993   0.179   3.657  1.00  0.00     0.165 HD
HETATM    5  C6  UNL     1       1.845   0.354   1.942  1.00  0.00     0.059 A 
HETATM    6  C7  UNL     1       0.657   0.587   2.610  1.00  0.00     0.035 A 
HETATM    7  C8  UNL     1      -0.533   0.791   1.910  1.00  0.00     0.051 A 
HETATM    8  C9  UNL     1      -0.501   0.760   0.527  1.00  0.00     0.109 A 
HETATM    9  N5  UNL     1       0.637   0.531  -0.161  1.00  0.00    -0.341 N 
ATOM     10  H5  UNL     1       0.636   0.506  -1.181  1.00  0.00     0.167 HD
HETATM   11  C18 UNL     1       1.777   0.336   0.535  1.00  0.00     0.061 A 
HETATM   12  C19 UNL     1       2.965   0.103  -0.144  1.00  0.00     0.045 A 
ENDROOT
BRANCH   8  13
HETATM   13  N3  UNL     1      -1.616   0.941  -0.289  1.00  0.00    -0.295 N 
HETATM   14  C10 UNL     1      -2.893   1.276   0.077  1.00  0.00     0.322 C 
HETATM   15  O1  UNL     1      -3.277   1.528   1.211  1.00  0.00    -0.247 OA
HETATM   16  N4  UNL     1      -3.726   1.323  -1.020  1.00  0.00    -0.339 N 
HETATM   17  H9  UNL     1      -3.466   0.739  -1.800  1.00  0.00     0.164 HD
HETATM   18  H8  UNL     1      -1.391   0.912  -1.270  1.00  0.00     0.172 HD
BRANCH  16  19
HETATM   19  C11 UNL     1      -5.144   1.568  -0.869  1.00  0.00     0.162 C 
BRANCH  19  20
HETATM   20  C12 UNL     1      -5.918   0.274  -0.880  1.00  0.00    -0.040 A 
HETATM   21  C13 UNL     1      -6.523  -0.190  -2.057  1.00  0.00     0.009 A 
HETATM   22  C14 UNL     1      -7.218  -1.400  -2.064  1.00  0.00     0.001 A 
HETATM   23  C15 UNL     1      -7.311  -2.160  -0.900  1.00  0.00     0.000 A 
HETATM   24  C16 UNL     1      -6.707  -1.713   0.274  1.00  0.00     0.001 A 
HETATM   25  C17 UNL     1      -6.012  -0.503   0.284  1.00  0.00     0.009 A 
ENDBRANCH  19  20
ENDBRANCH  16  19
ENDBRANCH   8  13
BRANCH   1  26
HETATM   26  C3  UNL     1       5.403  -0.347  -0.182  1.00  0.00     0.009 A 
HETATM   27  C2  UNL     1       6.673  -0.084   0.292  1.00  0.00     0.123 A 
HETATM   28  N1  UNL     1       7.539  -0.446  -0.701  1.00  0.00    -0.307 N 
HETATM   29  C1  UNL     1       8.978  -0.352  -0.677  1.00  0.00     0.177 C 
HETATM   30  N6  UNL     1       6.925  -0.928  -1.795  1.00  0.00    -0.310 N 
HETATM   31  C20 UNL     1       5.629  -0.865  -1.480  1.00  0.00     0.121 A 
ATOM     32  H6  UNL     1       7.349  -1.263  -2.661  1.00  0.00     0.186 HD
ENDBRANCH   1  26
TORSDOF 4
