REMARK  3 active torsions:
REMARK  status: ('A' for Active; 'I' for Inactive)
REMARK    1  A    between atoms: N1_1  and  C1_2 
REMARK    2  A    between atoms: C5_10  and  C6_11 
REMARK    3  A    between atoms: N6_24  and  C15_25 
ROOT
HETATM    1  C1  UNL     1      -0.058  -2.876   0.178  1.00  0.00     0.095 A 
HETATM    2  N2  UNL     1      -1.082  -3.750   0.289  1.00  0.00    -0.342 N 
ATOM      3  H2  UNL     1      -0.906  -4.754   0.333  1.00  0.00     0.167 HD
HETATM    4  C2  UNL     1      -2.339  -3.270   0.340  1.00  0.00     0.183 A 
HETATM    5  N3  UNL     1      -2.733  -1.990   0.279  1.00  0.00    -0.337 N 
ATOM      6  H3  UNL     1      -3.707  -1.688   0.309  1.00  0.00     0.168 HD
HETATM    7  C3  UNL     1      -1.684  -1.154   0.174  1.00  0.00     0.139 A 
HETATM    8  C4  UNL     1      -0.344  -1.505   0.135  1.00  0.00     0.076 A 
HETATM    9  C5  UNL     1       0.355  -0.262   0.060  1.00  0.00     0.077 A 
HETATM   10  N5  UNL     1      -0.501   0.774  -0.016  1.00  0.00    -0.295 N 
ATOM     11  H5  UNL     1      -0.276   1.763  -0.125  1.00  0.00     0.187 HD
HETATM   12  N6  UNL     1      -1.724   0.210   0.085  1.00  0.00    -0.270 N 
ENDROOT
BRANCH   9  13
HETATM   13  C6  UNL     1       1.792  -0.016   0.052  1.00  0.00     0.009 A 
HETATM   14  C7  UNL     1       2.652  -0.668   0.923  1.00  0.00     0.102 A 
HETATM   15  N4  UNL     1       3.996  -0.487   0.951  1.00  0.00    -0.364 N 
HETATM   16  C8  UNL     1       4.529   0.407   0.100  1.00  0.00     0.042 A 
ATOM     17  H4  UNL     1       4.584  -1.013   1.598  1.00  0.00     0.165 HD
HETATM   18  C9  UNL     1       5.900   0.626   0.108  1.00  0.00     0.030 A 
HETATM   19  C13 UNL     1       3.741   1.144  -0.810  1.00  0.00    -0.009 A 
HETATM   20  C10 UNL     1       6.502   1.551  -0.752  1.00  0.00     0.002 A 
HETATM   21  C11 UNL     1       5.722   2.278  -1.644  1.00  0.00     0.001 A 
HETATM   22  C12 UNL     1       4.343   2.076  -1.675  1.00  0.00     0.014 A 
HETATM   23  C14 UNL     1       2.357   0.917  -0.819  1.00  0.00     0.029 A 
ENDBRANCH   9  13
BRANCH   1  24
HETATM   24  N1  UNL     1       1.212  -3.427   0.099  1.00  0.00    -0.288 NA
HETATM   25  H1  UNL     1       1.878  -2.927  -0.477  1.00  0.00     0.125 HD
HETATM   26  H2  UNL     1       1.155  -4.425  -0.075  1.00  0.00     0.125 HD
ENDBRANCH   1  24
BRANCH  12  27
HETATM   27  C15 UNL     1      -2.894   1.067   0.107  1.00  0.00     0.110 C 
HETATM   28  C16 UNL     1      -3.857   0.842  -1.069  1.00  0.00     0.027 C 
HETATM   29  C17 UNL     1      -5.236   1.112  -0.483  1.00  0.00     0.002 C 
HETATM   30  C18 UNL     1      -5.135   0.535   0.920  1.00  0.00     0.002 C 
HETATM   31  C19 UNL     1      -3.741   0.940   1.387  1.00  0.00     0.027 C 
ENDBRANCH  12  27
TORSDOF 3
