REMARK  3 active torsions:
REMARK  status: ('A' for Active; 'I' for Inactive)
REMARK    1  A    between atoms: O1_1  and  C1_2 
REMARK    2  A    between atoms: C3_4  and  N1_5 
REMARK    3  A    between atoms: N1_5  and  C4_6 
ROOT
HETATM    1  C1  UNL     1       3.631  -0.687   0.004  1.00  0.00     0.144 A 
HETATM    2  C2  UNL     1       2.654   0.277  -0.068  1.00  0.00     0.104 A 
HETATM    3  C3  UNL     1       1.348  -0.175  -0.151  1.00  0.00     0.110 A 
HETATM    4  N2  UNL     1       1.065  -1.488  -0.148  1.00  0.00    -0.338 N 
ATOM      5  H2  UNL     1       0.104  -1.825  -0.195  1.00  0.00     0.168 HD
HETATM    6  C10 UNL     1       2.102  -2.336  -0.080  1.00  0.00     0.183 A 
HETATM    7  N3  UNL     1       3.391  -1.999  -0.006  1.00  0.00    -0.333 N 
ATOM      8  H3  UNL     1       4.137  -2.693   0.040  1.00  0.00     0.168 HD
ENDROOT
BRANCH   3   9
HETATM    9  N1  UNL     1       0.323   0.801  -0.222  1.00  0.00    -0.342 N 
HETATM   10  H3  UNL     1       0.540   1.471  -0.951  1.00  0.00     0.167 HD
BRANCH   9  11
HETATM   11  C4  UNL     1      -1.073   0.629  -0.085  1.00  0.00     0.033 A 
HETATM   12  C5  UNL     1      -1.644  -0.400   0.674  1.00  0.00     0.029 A 
HETATM   13  C6  UNL     1      -3.030  -0.493   0.839  1.00  0.00     0.002 A 
HETATM   14  C7  UNL     1      -3.868   0.459   0.266  1.00  0.00     0.000 A 
HETATM   15  C8  UNL     1      -3.319   1.510  -0.462  1.00  0.00     0.002 A 
HETATM   16  C9  UNL     1      -1.933   1.599  -0.624  1.00  0.00     0.029 A 
ENDBRANCH   9  11
ENDBRANCH   3   9
BRANCH   1  17
HETATM   17  O1  UNL     1       4.950  -0.351   0.094  1.00  0.00    -0.346 OA
HETATM   18  H1  UNL     1       5.021   0.612   0.163  1.00  0.00     0.219 HD
ENDBRANCH   1  17
TORSDOF 3
