REMARK  5 active torsions:
REMARK  status: ('A' for Active; 'I' for Inactive)
REMARK    1  A    between atoms: C2_2  and  N1_5 
REMARK    2  A    between atoms: C5_8  and  C6_9 
REMARK    3  A    between atoms: C10_15  and  O1_16 
REMARK    4  A    between atoms: O1_16  and  C11_17 
REMARK    5  A    between atoms: C18_24  and  C19_25 
REMARK       I    between atoms: C19_25  and  N4_26 
ROOT
HETATM    1  N1  UNL     1      -3.612   0.088   0.421  1.00  0.00    -0.267 N 
HETATM    2  N2  UNL     1      -2.340   0.481   0.657  1.00  0.00    -0.294 N 
ATOM      3  H2  UNL     1      -2.033   1.263   1.235  1.00  0.00     0.187 HD
HETATM    4  C5  UNL     1      -1.569  -0.373  -0.028  1.00  0.00     0.079 A 
HETATM    5  C18 UNL     1      -2.352  -1.372  -0.676  1.00  0.00     0.105 A 
HETATM    6  C20 UNL     1      -3.665  -1.009  -0.416  1.00  0.00     0.134 A 
HETATM    7  N5  UNL     1      -4.808  -1.601  -0.844  1.00  0.00    -0.383 N 
HETATM    8  H22 UNL     1      -4.708  -2.292  -1.596  1.00  0.00     0.157 HD
HETATM    9  H23 UNL     1      -5.671  -1.078  -0.951  1.00  0.00     0.157 HD
ENDROOT
BRANCH   4  10
HETATM   10  C6  UNL     1      -0.125  -0.177  -0.037  1.00  0.00     0.009 A 
HETATM   11  C7  UNL     1       0.564   0.077   1.140  1.00  0.00     0.102 A 
HETATM   12  N3  UNL     1       1.909   0.241   1.220  1.00  0.00    -0.364 N 
HETATM   13  C8  UNL     1       2.619   0.187   0.080  1.00  0.00     0.045 A 
ATOM     14  H3  UNL     1       2.367   0.400   2.117  1.00  0.00     0.165 HD
HETATM   15  C9  UNL     1       3.996   0.360   0.128  1.00  0.00     0.067 A 
HETATM   16  C16 UNL     1       2.011  -0.040  -1.174  1.00  0.00    -0.008 A 
HETATM   17  C10 UNL     1       4.776   0.322  -1.029  1.00  0.00     0.071 A 
HETATM   18  C14 UNL     1       4.172   0.088  -2.262  1.00  0.00     0.038 A 
HETATM   19  C15 UNL     1       2.792  -0.089  -2.339  1.00  0.00     0.016 A 
HETATM   20  C17 UNL     1       0.620  -0.219  -1.215  1.00  0.00     0.029 A 
BRANCH  17  21
HETATM   21  O1  UNL     1       6.141   0.471  -1.060  1.00  0.00    -0.346 OA
BRANCH  21  22
HETATM   22  C11 UNL     1       6.740   1.106   0.085  1.00  0.00     0.129 A 
HETATM   23  C12 UNL     1       8.236   0.960   0.171  1.00  0.00     0.035 A 
HETATM   24  C13 UNL     1       7.355   0.196   1.114  1.00  0.00     0.035 A 
ENDBRANCH  21  22
ENDBRANCH  17  21
ENDBRANCH   4  10
BRANCH   5  25
HETATM   25  C19 UNL     1      -1.964  -2.524  -1.471  1.00  0.00     0.255 C 
HETATM   26  N4  UNL     1      -0.756  -3.090  -1.178  1.00  0.00    -0.366 N 
HETATM   27  H20 UNL     1      -0.560  -3.976  -1.625  1.00  0.00     0.159 HD
HETATM   28  H21 UNL     1      -0.262  -2.879  -0.322  1.00  0.00     0.159 HD
HETATM   29  O2  UNL     1      -2.677  -3.023  -2.337  1.00  0.00    -0.268 OA
ENDBRANCH   5  25
BRANCH   1  30
HETATM   30  C2  UNL     1      -4.717   0.844   1.049  1.00  0.00     0.044 C 
HETATM   31  C1  UNL     1      -5.487   1.635  -0.024  1.00  0.00     0.039 C 
HETATM   32  C3  UNL     1      -5.671  -0.097   1.813  1.00  0.00     0.039 C 
HETATM   33  C4  UNL     1      -4.187   1.871   2.086  1.00  0.00     0.039 C 
ENDBRANCH   1  30
TORSDOF 5
