REMARK  9 active torsions:
REMARK  status: ('A' for Active; 'I' for Inactive)
REMARK       I    between atoms: N1_1  and  C1_2 
REMARK    1  A    between atoms: C1_2  and  C2_4 
REMARK    2  A    between atoms: C2_4  and  C3_5 
REMARK    3  A    between atoms: C3_5  and  C4_6 
REMARK    4  A    between atoms: C5_7  and  S1_8 
REMARK    5  A    between atoms: S1_8  and  S2_9 
REMARK    6  A    between atoms: S2_9  and  C6_10 
REMARK    7  A    between atoms: C13_18  and  C14_19 
REMARK    8  A    between atoms: C14_19  and  C15_20 
REMARK    9  A    between atoms: C15_20  and  C16_21 
REMARK       I    between atoms: C16_21  and  N3_22 
ROOT
HETATM    1  S1  UNL     1       0.068   2.065  -0.602  1.00  0.00    -0.032 SA
ENDROOT
BRANCH   1   2
HETATM    2  C5  UNL     1      -1.192   0.975  -0.123  1.00  0.00     0.088 A 
HETATM    3  C4  UNL     1      -2.492   0.785  -0.545  1.00  0.00    -0.011 A 
HETATM    4  C22 UNL     1      -2.994  -0.335   0.203  1.00  0.00    -0.000 A 
HETATM    5  C17 UNL     1      -1.979  -0.764   1.060  1.00  0.00     0.043 A 
HETATM    6  C21 UNL     1      -4.219  -1.032   0.220  1.00  0.00     0.014 A 
HETATM    7  N4  UNL     1      -0.907   0.072   0.862  1.00  0.00    -0.349 N 
HETATM    8  C18 UNL     1      -2.120  -1.857   1.923  1.00  0.00     0.030 A 
HETATM    9  H18 UNL     1      -0.011  -0.013   1.322  1.00  0.00     0.166 HD
HETATM   10  C19 UNL     1      -3.344  -2.532   1.915  1.00  0.00     0.002 A 
HETATM   11  C20 UNL     1      -4.380  -2.126   1.079  1.00  0.00     0.001 A 
BRANCH   3  12
HETATM   12  C3  UNL     1      -3.236   1.566  -1.588  1.00  0.00     0.051 C 
BRANCH  12  13
HETATM   13  C2  UNL     1      -3.914   2.807  -1.017  1.00  0.00     0.107 C 
BRANCH  13  14
HETATM   14  C1  UNL     1      -5.173   2.443  -0.264  1.00  0.00     0.215 C 
HETATM   15  N1  UNL     1      -5.256   2.933   1.008  1.00  0.00    -0.370 N 
HETATM   16  H1  UNL     1      -4.415   3.152   1.525  1.00  0.00     0.159 HD
HETATM   17  H2  UNL     1      -6.047   2.602   1.547  1.00  0.00     0.159 HD
HETATM   18  O1  UNL     1      -6.089   1.785  -0.751  1.00  0.00    -0.274 OA
ENDBRANCH  13  14
ENDBRANCH  12  13
ENDBRANCH   3  12
ENDBRANCH   1   2
BRANCH   1  19
HETATM   19  S2  UNL     1       0.644   1.140  -2.352  1.00  0.00    -0.032 SA
BRANCH  19  20
HETATM   20  C6  UNL     1       1.542  -0.180  -1.675  1.00  0.00     0.088 A 
HETATM   21  N2  UNL     1       0.880  -1.353  -1.447  1.00  0.00    -0.349 N 
HETATM   22  C7  UNL     1       1.714  -2.253  -0.831  1.00  0.00     0.043 A 
HETATM   23  H7  UNL     1      -0.100  -1.506  -1.644  1.00  0.00     0.166 HD
HETATM   24  C8  UNL     1       1.455  -3.546  -0.360  1.00  0.00     0.030 A 
HETATM   25  C12 UNL     1       2.970  -1.648  -0.739  1.00  0.00    -0.000 A 
HETATM   26  C9  UNL     1       2.517  -4.249   0.215  1.00  0.00     0.002 A 
HETATM   27  C10 UNL     1       3.784  -3.679   0.314  1.00  0.00     0.001 A 
HETATM   28  C11 UNL     1       4.024  -2.383  -0.158  1.00  0.00     0.014 A 
HETATM   29  C13 UNL     1       2.861  -0.328  -1.296  1.00  0.00    -0.011 A 
BRANCH  29  30
HETATM   30  C14 UNL     1       3.965   0.678  -1.419  1.00  0.00     0.051 C 
BRANCH  30  31
HETATM   31  C15 UNL     1       4.159   1.480  -0.135  1.00  0.00     0.107 C 
BRANCH  31  32
HETATM   32  C16 UNL     1       5.279   2.483  -0.277  1.00  0.00     0.215 C 
HETATM   33  N3  UNL     1       5.430   3.311   0.800  1.00  0.00    -0.370 N 
HETATM   34  H16 UNL     1       6.145   4.025   0.746  1.00  0.00     0.159 HD
HETATM   35  H17 UNL     1       4.791   3.321   1.582  1.00  0.00     0.159 HD
HETATM   36  O2  UNL     1       6.024   2.568  -1.244  1.00  0.00    -0.274 OA
ENDBRANCH  31  32
ENDBRANCH  30  31
ENDBRANCH  29  30
ENDBRANCH  19  20
ENDBRANCH   1  19
TORSDOF 9
