REMARK  5 active torsions:
REMARK  status: ('A' for Active; 'I' for Inactive)
REMARK    1  A    between atoms: O1_1  and  C1_2 
REMARK    2  A    between atoms: C5_6  and  N1_7 
REMARK    3  A    between atoms: N1_7  and  C6_8 
REMARK    4  A    between atoms: C7_11  and  C8_12 
REMARK    5  A    between atoms: C9_13  and  C10_14 
ROOT
HETATM    1  C6  UNL     1      -2.145  -1.224   0.239  1.00  0.00     0.119 A 
HETATM    2  N2  UNL     1      -0.901  -0.718   0.192  1.00  0.00    -0.328 N 
ATOM      3  H2  UNL     1      -0.652   0.014  -0.473  1.00  0.00     0.169 HD
HETATM    4  C7  UNL     1      -0.001  -1.212   1.051  1.00  0.00     0.107 A 
HETATM    5  N3  UNL     1      -0.237  -2.169   1.957  1.00  0.00    -0.342 N 
ATOM      6  H3  UNL     1       0.497  -2.505   2.580  1.00  0.00     0.167 HD
HETATM    7  C17 UNL     1      -1.476  -2.663   2.008  1.00  0.00     0.047 A 
HETATM    8  C18 UNL     1      -1.754  -3.656   2.941  1.00  0.00     0.030 A 
HETATM    9  C19 UNL     1      -3.027  -4.218   3.066  1.00  0.00     0.002 A 
HETATM   10  C20 UNL     1      -4.058  -3.778   2.247  1.00  0.00     0.001 A 
HETATM   11  C21 UNL     1      -3.804  -2.783   1.304  1.00  0.00     0.017 A 
HETATM   12  C22 UNL     1      -2.507  -2.222   1.166  1.00  0.00     0.035 A 
ENDROOT
BRANCH   4  13
HETATM   13  C8  UNL     1       1.358  -0.670   1.026  1.00  0.00     0.049 C 
HETATM   14  C9  UNL     1       1.804   0.219   0.125  1.00  0.00     0.016 C 
BRANCH  14  15
HETATM   15  C10 UNL     1       3.182   0.732   0.136  1.00  0.00    -0.016 A 
HETATM   16  C11 UNL     1       3.643   1.398   1.286  1.00  0.00     0.052 A 
HETATM   17  C12 UNL     1       4.930   1.894   1.287  1.00  0.00     0.105 A 
HETATM   18  C13 UNL     1       5.762   1.752   0.202  1.00  0.00     0.106 A 
HETATM   19  O3  UNL     1       5.523   2.561   2.313  1.00  0.00    -0.323 OA
HETATM   20  C14 UNL     1       5.353   1.114  -0.949  1.00  0.00     0.059 A 
HETATM   21  O2  UNL     1       6.984   2.310   0.412  1.00  0.00    -0.323 OA
HETATM   22  C15 UNL     1       4.048   0.603  -0.980  1.00  0.00     0.024 A 
HETATM   23 BR1  UNL     1       3.505  -0.276  -2.578  1.00  0.00    -0.050 Br
HETATM   24  C16 UNL     1       6.826   2.823   1.752  1.00  0.00     0.352 A 
ENDBRANCH  14  15
ENDBRANCH   4  13
BRANCH   1  25
HETATM   25  N1  UNL     1      -3.123  -0.757  -0.684  1.00  0.00    -0.342 N 
HETATM   26  H5  UNL     1      -3.506  -1.558  -1.175  1.00  0.00     0.167 HD
BRANCH  25  27
HETATM   27  C5  UNL     1      -3.061   0.382  -1.522  1.00  0.00     0.036 A 
HETATM   28  C4  UNL     1      -2.356   1.541  -1.170  1.00  0.00     0.029 A 
HETATM   29  C3  UNL     1      -2.368   2.674  -1.991  1.00  0.00     0.005 A 
HETATM   30  C2  UNL     1      -3.107   2.670  -3.170  1.00  0.00     0.036 A 
HETATM   31  C1  UNL     1      -3.842   1.543  -3.509  1.00  0.00     0.067 A 
HETATM   32  C23 UNL     1      -3.836   0.410  -2.694  1.00  0.00     0.066 A 
BRANCH  31  33
HETATM   33  O1  UNL     1      -4.571   1.585  -4.663  1.00  0.00    -0.361 OA
HETATM   34  H1  UNL     1      -5.032   0.739  -4.773  1.00  0.00     0.217 HD
ENDBRANCH  31  33
ENDBRANCH  25  27
ENDBRANCH   1  25
TORSDOF 5
