REMARK  5 active torsions:
REMARK  status: ('A' for Active; 'I' for Inactive)
REMARK       I    between atoms: N1_1  and  C1_2 
REMARK    1  A    between atoms: C1_2  and  C2_4 
REMARK    2  A    between atoms: C3_5  and  N2_6 
REMARK    3  A    between atoms: N2_6  and  C4_7 
REMARK    4  A    between atoms: C10_16  and  N5_17 
REMARK    5  A    between atoms: C12_19  and  C13_20 
ROOT
HETATM    1  C2  UNL     1       0.326  -0.890  -1.093  1.00  0.00     0.122 A 
HETATM    2  C3  UNL     1       1.246  -0.056  -0.393  1.00  0.00     0.140 A 
HETATM    3  N3  UNL     1       0.635   0.659   0.553  1.00  0.00    -0.275 N 
ATOM      4  H3  UNL     1       1.057   1.342   1.182  1.00  0.00     0.189 HD
HETATM    5  N4  UNL     1      -0.666   0.285   0.500  1.00  0.00    -0.226 N 
HETATM    6  C10 UNL     1      -1.723   0.774   1.310  1.00  0.00     0.104 A 
HETATM    7  C11 UNL     1      -2.967   0.323   1.080  1.00  0.00     0.069 A 
HETATM    8  C12 UNL     1      -3.117  -0.684  -0.010  1.00  0.00     0.018 A 
HETATM    9  N6  UNL     1      -2.157  -1.145  -0.757  1.00  0.00    -0.343 N 
ATOM     10  H6  UNL     1      -2.327  -1.836  -1.488  1.00  0.00     0.167 HD
HETATM   11  C16 UNL     1      -0.903  -0.649  -0.505  1.00  0.00     0.148 A 
ENDROOT
BRANCH   2  12
HETATM   12  N2  UNL     1       2.565  -0.033  -0.719  1.00  0.00    -0.341 N 
HETATM   13  H3  UNL     1       2.843  -0.643  -1.491  1.00  0.00     0.167 HD
BRANCH  12  14
HETATM   14  C4  UNL     1       3.672   0.644  -0.165  1.00  0.00     0.033 A 
HETATM   15  C5  UNL     1       3.603   1.452   0.975  1.00  0.00     0.029 A 
HETATM   16  C6  UNL     1       4.736   2.110   1.467  1.00  0.00     0.002 A 
HETATM   17  C7  UNL     1       5.961   1.975   0.821  1.00  0.00     0.000 A 
HETATM   18  C8  UNL     1       6.053   1.181  -0.318  1.00  0.00     0.002 A 
HETATM   19  C9  UNL     1       4.918   0.525  -0.805  1.00  0.00     0.029 A 
ENDBRANCH  12  14
ENDBRANCH   2  12
BRANCH   1  20
HETATM   20  C1  UNL     1       0.620  -1.792  -2.188  1.00  0.00     0.257 C 
HETATM   21  N1  UNL     1      -0.438  -2.491  -2.690  1.00  0.00    -0.366 N 
HETATM   22  H1  UNL     1      -0.287  -3.135  -3.451  1.00  0.00     0.159 HD
HETATM   23  H2  UNL     1      -1.368  -2.370  -2.299  1.00  0.00     0.159 HD
HETATM   24  O1  UNL     1       1.748  -1.933  -2.653  1.00  0.00    -0.268 OA
ENDBRANCH   1  20
BRANCH   6  25
HETATM   25  N5  UNL     1      -1.414   1.708   2.295  1.00  0.00    -0.287 NA
HETATM   26  H9  UNL     1      -0.483   2.107   2.133  1.00  0.00     0.125 HD
HETATM   27  H10 UNL     1      -2.125   2.421   2.426  1.00  0.00     0.125 HD
ENDBRANCH   6  25
BRANCH   8  28
HETATM   28  C13 UNL     1      -4.471  -1.235  -0.299  1.00  0.00     0.036 A 
HETATM   29  C14 UNL     1      -5.479  -1.524   0.786  1.00  0.00     0.011 A 
HETATM   30  C15 UNL     1      -5.729  -0.409  -0.192  1.00  0.00     0.011 A 
ENDBRANCH   8  28
TORSDOF 5
