REMARK  4 active torsions:
REMARK  status: ('A' for Active; 'I' for Inactive)
REMARK    1  A    between atoms: O1_1  and  C1_2 
REMARK    2  A    between atoms: C4_5  and  N1_6 
REMARK    3  A    between atoms: C8_17  and  N6_18 
REMARK    4  A    between atoms: N6_18  and  C9_19 
ROOT
HETATM    1  N1  UNL     1       1.330  -0.099  -0.337  1.00  0.00    -0.341 N 
HETATM    2  C5  UNL     1       1.070   1.213  -0.574  1.00  0.00     0.138 A 
HETATM    3  N2  UNL     1       2.052   2.123  -0.895  1.00  0.00    -0.283 N 
HETATM    4  N3  UNL     1       1.600   3.352  -1.213  1.00  0.00    -0.283 N 
ATOM      5  H3  UNL     1       2.141   4.176  -1.475  1.00  0.00     0.188 HD
HETATM    6  C6  UNL     1       0.274   3.234  -1.104  1.00  0.00     0.139 A 
HETATM    7  N4  UNL     1      -0.644   4.196  -1.347  1.00  0.00    -0.337 N 
ATOM      8  H4  UNL     1      -0.424   5.147  -1.644  1.00  0.00     0.168 HD
HETATM    9  C7  UNL     1      -1.898   3.722  -1.141  1.00  0.00     0.183 A 
HETATM   10  N5  UNL     1      -2.323   2.485  -0.728  1.00  0.00    -0.338 N 
ATOM     11  H5  UNL     1      -3.320   2.297  -0.625  1.00  0.00     0.168 HD
HETATM   12  C8  UNL     1      -1.412   1.505  -0.454  1.00  0.00     0.124 A 
HETATM   13  C15 UNL     1      -0.098   1.930  -0.685  1.00  0.00     0.099 A 
HETATM   14  H4  UNL     1       0.682  -0.795  -0.706  1.00  0.00     0.167 HD
HETATM   15  H5  UNL     1       3.048   1.945  -0.962  1.00  0.00     0.188 HD
ENDROOT
BRANCH   1  16
HETATM   16  C4  UNL     1       2.536  -0.661   0.131  1.00  0.00     0.033 A 
HETATM   17  C3  UNL     1       2.926  -1.924  -0.337  1.00  0.00     0.032 A 
HETATM   18  C2  UNL     1       4.133  -2.498   0.071  1.00  0.00     0.039 A 
HETATM   19  C1  UNL     1       4.959  -1.811   0.950  1.00  0.00     0.065 A 
HETATM   20  C17 UNL     1       4.598  -0.558   1.429  1.00  0.00     0.039 A 
HETATM   21  C16 UNL     1       3.390   0.014   1.015  1.00  0.00     0.032 A 
BRANCH  19  22
HETATM   22  O1  UNL     1       6.125  -2.408   1.323  1.00  0.00    -0.361 OA
HETATM   23  H1  UNL     1       6.591  -1.826   1.947  1.00  0.00     0.217 HD
ENDBRANCH  19  22
ENDBRANCH   1  16
BRANCH  12  24
HETATM   24  N6  UNL     1      -1.748   0.247   0.061  1.00  0.00    -0.342 N 
HETATM   25  H7  UNL     1      -0.964  -0.170   0.550  1.00  0.00     0.167 HD
BRANCH  24  26
HETATM   26  C9  UNL     1      -2.993  -0.338   0.354  1.00  0.00     0.035 A 
HETATM   27  C10 UNL     1      -4.210   0.148  -0.139  1.00  0.00     0.029 A 
HETATM   28  C11 UNL     1      -5.420  -0.491   0.155  1.00  0.00     0.004 A 
HETATM   29  C12 UNL     1      -5.431  -1.639   0.940  1.00  0.00     0.024 A 
HETATM   30  C13 UNL     1      -4.229  -2.146   1.421  1.00  0.00     0.036 A 
HETATM   31 CL1  UNL     1      -4.228  -3.574   2.383  1.00  0.00    -0.084 Cl
HETATM   32  C14 UNL     1      -3.021  -1.509   1.129  1.00  0.00     0.053 A 
ENDBRANCH  24  26
ENDBRANCH  12  24
TORSDOF 4
