REMARK  5 active torsions:
REMARK  status: ('A' for Active; 'I' for Inactive)
REMARK    1  A    between atoms: C2_2  and  N1_5 
REMARK    2  A    between atoms: C5_8  and  C6_9 
REMARK    3  A    between atoms: C10_15  and  O1_16 
REMARK    4  A    between atoms: O1_16  and  C11_17 
REMARK    5  A    between atoms: C19_25  and  C20_26 
REMARK       I    between atoms: C20_26  and  N4_27 
ROOT
HETATM    1  N1  UNL     1      -4.011  -0.479  -0.086  1.00  0.00    -0.267 N 
HETATM    2  N2  UNL     1      -2.721  -0.868  -0.201  1.00  0.00    -0.294 N 
ATOM      3  H2  UNL     1      -2.336  -1.792  -0.007  1.00  0.00     0.187 HD
HETATM    4  C5  UNL     1      -2.055   0.214  -0.623  1.00  0.00     0.079 A 
HETATM    5  C19 UNL     1      -2.943   1.302  -0.861  1.00  0.00     0.105 A 
HETATM    6  C21 UNL     1      -4.188   0.837  -0.466  1.00  0.00     0.134 A 
HETATM    7  N5  UNL     1      -5.371   1.497  -0.460  1.00  0.00    -0.383 N 
HETATM    8  H24 UNL     1      -5.339   2.521  -0.532  1.00  0.00     0.157 HD
HETATM    9  H25 UNL     1      -6.179   1.188   0.068  1.00  0.00     0.157 HD
ENDROOT
BRANCH   4  10
HETATM   10  C6  UNL     1      -0.604   0.153  -0.756  1.00  0.00     0.009 A 
HETATM   11  C7  UNL     1       0.016  -0.962  -1.303  1.00  0.00     0.102 A 
HETATM   12  N3  UNL     1       1.357  -1.091  -1.469  1.00  0.00    -0.364 N 
HETATM   13  C8  UNL     1       2.143  -0.083  -1.051  1.00  0.00     0.045 A 
ATOM     14  H3  UNL     1       1.756  -1.926  -1.897  1.00  0.00     0.165 HD
HETATM   15  C9  UNL     1       3.519  -0.191  -1.190  1.00  0.00     0.067 A 
HETATM   16  C17 UNL     1       1.615   1.089  -0.465  1.00  0.00    -0.008 A 
HETATM   17  C10 UNL     1       4.368   0.826  -0.753  1.00  0.00     0.071 A 
HETATM   18  C15 UNL     1       3.850   1.990  -0.200  1.00  0.00     0.038 A 
HETATM   19  C16 UNL     1       2.473   2.121  -0.048  1.00  0.00     0.016 A 
HETATM   20  C18 UNL     1       0.223   1.189  -0.319  1.00  0.00     0.029 A 
BRANCH  17  21
HETATM   21  O1  UNL     1       5.731   0.745  -0.886  1.00  0.00    -0.346 OA
BRANCH  21  22
HETATM   22  C11 UNL     1       6.355  -0.407  -0.275  1.00  0.00     0.129 C 
HETATM   23  C12 UNL     1       6.329  -0.485   1.276  1.00  0.00     0.032 C 
HETATM   24  C13 UNL     1       7.772  -1.018   1.211  1.00  0.00     0.005 C 
HETATM   25  C14 UNL     1       7.899  -0.324  -0.157  1.00  0.00     0.032 C 
ENDBRANCH  21  22
ENDBRANCH  17  21
ENDBRANCH   4  10
BRANCH   5  26
HETATM   26  C20 UNL     1      -2.687   2.635  -1.372  1.00  0.00     0.255 C 
HETATM   27  N4  UNL     1      -1.721   2.737  -2.334  1.00  0.00    -0.366 N 
HETATM   28  H22 UNL     1      -1.368   1.923  -2.819  1.00  0.00     0.159 HD
HETATM   29  H23 UNL     1      -1.635   3.634  -2.793  1.00  0.00     0.159 HD
HETATM   30  O2  UNL     1      -3.308   3.629  -1.015  1.00  0.00    -0.268 OA
ENDBRANCH   5  26
BRANCH   1  31
HETATM   31  C2  UNL     1      -5.004  -1.454   0.416  1.00  0.00     0.044 C 
HETATM   32  C1  UNL     1      -6.136  -1.657  -0.609  1.00  0.00     0.039 C 
HETATM   33  C3  UNL     1      -4.365  -2.849   0.660  1.00  0.00     0.039 C 
HETATM   34  C4  UNL     1      -5.577  -0.985   1.768  1.00  0.00     0.039 C 
ENDBRANCH   1  31
TORSDOF 5
