REMARK  5 active torsions:
REMARK  status: ('A' for Active; 'I' for Inactive)
REMARK    1  A    between atoms: C5_5  and  C6_6 
REMARK    2  A    between atoms: C8_10  and  C9_11 
REMARK       I    between atoms: N3_21  and  C16_22 
REMARK    3  A    between atoms: C16_22  and  C17_24 
REMARK    4  A    between atoms: C17_24  and  C18_25 
REMARK    5  A    between atoms: N6_34  and  C23_35 
ROOT
HETATM    1  C6  UNL     1      -2.645  -1.098  -0.072  1.00  0.00     0.141 C 
HETATM    2  N1  UNL     1      -3.438  -0.076  -0.166  1.00  0.00    -0.336 N 
ATOM      3  H1  UNL     1      -4.421  -0.207  -0.404  1.00  0.00     0.168 HD
HETATM    4  C7  UNL     1      -2.940   1.186   0.059  1.00  0.00     0.104 C 
HETATM    5  C8  UNL     1      -3.826   2.200   0.107  1.00  0.00     0.046 C 
HETATM    6  C15 UNL     1      -1.464   1.405   0.238  1.00  0.00     0.287 C 
HETATM    7  O1  UNL     1      -0.898   2.492   0.226  1.00  0.00    -0.264 OA
HETATM    8  N2  UNL     1      -0.728   0.263   0.415  1.00  0.00    -0.254 N 
HETATM    9  N3  UNL     1      -1.272  -1.028   0.230  1.00  0.00    -0.203 N 
HETATM   10  C16 UNL     1      -0.453  -2.129   0.537  1.00  0.00     0.251 C 
HETATM   11  O2  UNL     1      -0.601  -3.273   0.095  1.00  0.00    -0.271 OA
HETATM   12  H11 UNL     1       0.275   0.398   0.330  1.00  0.00     0.191 HD
ENDROOT
BRANCH   1  13
HETATM   13  C5  UNL     1      -3.272  -2.429  -0.245  1.00  0.00     0.010 A 
HETATM   14  C4  UNL     1      -3.125  -3.134  -1.440  1.00  0.00     0.016 A 
HETATM   15  C3  UNL     1      -3.736  -4.384  -1.577  1.00  0.00     0.007 A 
HETATM   16  C2  UNL     1      -4.523  -4.910  -0.541  1.00  0.00    -0.062 A 
HETATM   17  C1  UNL     1      -5.166  -6.259  -0.675  1.00  0.00     0.048 C 
HETATM   18  C31 UNL     1      -4.686  -4.171   0.639  1.00  0.00     0.007 A 
HETATM   19  C30 UNL     1      -4.069  -2.929   0.787  1.00  0.00     0.016 A 
ENDBRANCH   1  13
BRANCH  10  20
HETATM   20  C17 UNL     1       0.757  -1.874   1.404  1.00  0.00     0.181 C 
BRANCH  20  21
HETATM   21  C18 UNL     1       2.002  -1.742   0.574  1.00  0.00     0.094 A 
HETATM   22  N4  UNL     1       2.631  -0.602   0.521  1.00  0.00    -0.329 N 
HETATM   23  C19 UNL     1       3.770  -0.632  -0.232  1.00  0.00     0.146 A 
ATOM     24  H4  UNL     1       2.302   0.237   0.999  1.00  0.00     0.168 HD
HETATM   25  C20 UNL     1       4.244  -1.720  -0.935  1.00  0.00     0.101 A 
HETATM   26  N6  UNL     1       4.693   0.397  -0.447  1.00  0.00    -0.239 N 
HETATM   27  C21 UNL     1       5.445  -1.314  -1.529  1.00  0.00     0.042 A 
HETATM   28  C29 UNL     1       3.505  -2.951  -0.912  1.00  0.00     0.262 A 
HETATM   29  C22 UNL     1       6.376  -2.110  -2.365  1.00  0.00     0.071 C 
HETATM   30  N5  UNL     1       5.720  -0.036  -1.246  1.00  0.00    -0.295 N 
ATOM     31  H5  UNL     1       6.526   0.504  -1.559  1.00  0.00     0.187 HD
HETATM   32  O3  UNL     1       3.802  -3.956  -1.545  1.00  0.00    -0.267 OA
HETATM   33  N7  UNL     1       2.393  -2.888  -0.099  1.00  0.00    -0.312 N 
HETATM   34  H22 UNL     1       1.840  -3.736  -0.062  1.00  0.00     0.170 HD
BRANCH  26  35
HETATM   35  C23 UNL     1       4.698   1.744   0.035  1.00  0.00     0.058 A 
HETATM   36  C24 UNL     1       3.717   2.228   0.913  1.00  0.00     0.031 A 
HETATM   37  C25 UNL     1       3.769   3.550   1.372  1.00  0.00     0.002 A 
HETATM   38  C26 UNL     1       4.797   4.397   0.963  1.00  0.00     0.000 A 
HETATM   39  C27 UNL     1       5.768   3.933   0.075  1.00  0.00     0.002 A 
HETATM   40  C28 UNL     1       5.720   2.614  -0.388  1.00  0.00     0.031 A 
ENDBRANCH  26  35
ENDBRANCH  20  21
ENDBRANCH  10  20
BRANCH   5  41
HETATM   41  C9  UNL     1      -3.599   3.617   0.398  1.00  0.00    -0.034 A 
HETATM   42  C10 UNL     1      -3.841   4.574  -0.592  1.00  0.00     0.013 A 
HETATM   43  C11 UNL     1      -3.691   5.935  -0.309  1.00  0.00     0.024 A 
HETATM   44  C12 UNL     1      -3.311   6.341   0.969  1.00  0.00     0.034 A 
HETATM   45 CL1  UNL     1      -3.130   8.015   1.316  1.00  0.00    -0.084 Cl
HETATM   46  C13 UNL     1      -3.077   5.398   1.967  1.00  0.00     0.024 A 
HETATM   47  C14 UNL     1      -3.223   4.035   1.683  1.00  0.00     0.013 A 
ENDBRANCH   5  41
TORSDOF 5
