REMARK  1 active torsions:
REMARK  status: ('A' for Active; 'I' for Inactive)
REMARK    1  A    between atoms: C2_2  and  C3_3 
REMARK       I    between atoms: C3_3  and  N1_5 
ROOT
HETATM    1  C3  UNL     1       4.227   0.771   1.045  1.00  0.00     0.247 C 
HETATM    2  O1  UNL     1       4.735   1.840   0.712  1.00  0.00    -0.268 OA
HETATM    3  N1  UNL     1       3.317   0.051   0.259  1.00  0.00    -0.315 N 
HETATM    4  C4  UNL     1       2.758   0.757  -0.906  1.00  0.00     0.132 C 
HETATM    5  C5  UNL     1       1.885   1.960  -0.514  1.00  0.00     0.020 C 
HETATM    6  C6  UNL     1       1.307   2.655  -1.750  1.00  0.00     0.002 C 
HETATM    7  C7  UNL     1       0.894   4.111  -1.512  1.00  0.00     0.000 C 
HETATM    8  C8  UNL     1      -0.109   4.391  -0.387  1.00  0.00     0.000 C 
HETATM    9  C9  UNL     1      -1.586   4.268  -0.780  1.00  0.00     0.002 C 
HETATM   10  C10 UNL     1      -2.143   2.849  -0.874  1.00  0.00     0.020 C 
HETATM   11  C11 UNL     1      -2.160   2.125   0.472  1.00  0.00     0.128 C 
HETATM   12  N2  UNL     1      -2.662   0.766   0.349  1.00  0.00    -0.355 N 
HETATM   13  C12 UNL     1      -1.895  -0.277  -0.096  1.00  0.00     0.106 A 
HETATM   14  C13 UNL     1      -2.652  -1.431  -0.057  1.00  0.00     0.019 A 
HETATM   15  C14 UNL     1      -3.938  -1.064   0.466  1.00  0.00     0.005 A 
HETATM   16  C15 UNL     1      -5.116  -1.775   0.794  1.00  0.00     0.014 A 
HETATM   17  C16 UNL     1      -6.234  -1.093   1.285  1.00  0.00     0.001 A 
HETATM   18  C17 UNL     1      -6.200   0.286   1.459  1.00  0.00     0.002 A 
HETATM   19  C18 UNL     1      -5.047   1.015   1.165  1.00  0.00     0.030 A 
HETATM   20  C19 UNL     1      -3.923   0.322   0.681  1.00  0.00     0.045 A 
HETATM   21  C20 UNL     1      -2.111  -2.714  -0.494  1.00  0.00     0.063 A 
HETATM   22  C21 UNL     1      -2.914  -3.677  -1.060  1.00  0.00     0.048 A 
HETATM   23  C22 UNL     1      -2.276  -4.830  -1.433  1.00  0.00     0.108 A 
HETATM   24  N3  UNL     1      -0.957  -5.032  -1.277  1.00  0.00    -0.202 N 
ATOM     25  H3  UNL     1      -0.518  -5.909  -1.556  1.00  0.00     0.183 HD
HETATM   26  C23 UNL     1      -0.240  -4.031  -0.738  1.00  0.00     0.683 A 
HETATM   27  N4  UNL     1      -0.777  -2.873  -0.342  1.00  0.00    -0.191 N 
ATOM     28  H4  UNL     1      -0.200  -2.135   0.061  1.00  0.00     0.184 HD
HETATM   29  N5  UNL     1       1.118  -4.298  -0.599  1.00  0.00    -0.192 N 
HETATM   30  C24 UNL     1       2.240  -3.513  -0.306  1.00  0.00     0.051 A 
HETATM   31  C25 UNL     1       3.453  -4.172  -0.061  1.00  0.00     0.030 A 
HETATM   32  C26 UNL     1       4.607  -3.466   0.271  1.00  0.00     0.004 A 
HETATM   33  C27 UNL     1       4.563  -2.079   0.380  1.00  0.00     0.030 A 
HETATM   34  C28 UNL     1       3.363  -1.384   0.171  1.00  0.00     0.039 A 
HETATM   35  C29 UNL     1       2.211  -2.118  -0.163  1.00  0.00     0.059 A 
HETATM   36  H27 UNL     1       1.297  -5.223  -0.959  1.00  0.00     0.184 HD
ENDROOT
BRANCH   1  37
HETATM   37  C2  UNL     1       4.468   0.213   2.413  1.00  0.00     0.064 C 
HETATM   38  C1  UNL     1       5.475   0.664   3.172  1.00  0.00     0.017 C 
ENDBRANCH   1  37
TORSDOF 1
