REMARK  11 active torsions:
REMARK  status: ('A' for Active; 'I' for Inactive)
REMARK    1  A    between atoms: C2_2  and  N1_3 
REMARK    2  A    between atoms: N1_3  and  C3_4 
REMARK    3  A    between atoms: N1_3  and  C5_6 
REMARK    4  A    between atoms: C5_6  and  C6_7 
REMARK    5  A    between atoms: C6_7  and  O1_8 
REMARK    6  A    between atoms: C6_7  and  C7_9 
REMARK    7  A    between atoms: C7_9  and  N2_10 
REMARK       I    between atoms: N2_10  and  C8_11 
REMARK    8  A    between atoms: C8_11  and  C9_13 
REMARK    9  A    between atoms: C13_17  and  C14_18 
REMARK   10  A    between atoms: C19_29  and  N6_30 
REMARK   11  A    between atoms: N6_30  and  C20_31 
ROOT
HETATM    1  C14 UNL     1       2.429  -0.236  -0.409  1.00  0.00     0.048 C 
HETATM    2  C15 UNL     1       3.042  -1.416  -0.213  1.00  0.00     0.052 A 
HETATM    3  C16 UNL     1       2.482  -2.815  -0.271  1.00  0.00     0.258 A 
HETATM    4  O3  UNL     1       1.378  -3.169  -0.633  1.00  0.00    -0.267 OA
HETATM    5  N3  UNL     1       3.495  -3.634   0.174  1.00  0.00    -0.308 N 
HETATM    6  C17 UNL     1       4.645  -2.917   0.456  1.00  0.00     0.124 A 
HETATM    7  N4  UNL     1       5.768  -3.492   0.876  1.00  0.00    -0.338 N 
ATOM      8  H4  UNL     1       5.858  -4.494   1.046  1.00  0.00     0.168 HD
HETATM    9  C18 UNL     1       6.766  -2.622   1.052  1.00  0.00     0.183 A 
HETATM   10  N5  UNL     1       6.715  -1.295   0.815  1.00  0.00    -0.338 N 
ATOM     11  H5  UNL     1       7.533  -0.705   0.970  1.00  0.00     0.168 HD
HETATM   12  C19 UNL     1       5.555  -0.765   0.368  1.00  0.00     0.121 A 
HETATM   13  C26 UNL     1       4.450  -1.570   0.205  1.00  0.00     0.068 A 
HETATM   14  H23 UNL     1       3.427  -4.636   0.255  1.00  0.00     0.170 HD
ENDROOT
BRANCH   1  15
HETATM   15  C13 UNL     1       1.086   0.048  -0.787  1.00  0.00     0.039 A 
HETATM   16  C11 UNL     1       0.410   1.262  -0.850  1.00  0.00    -0.033 A 
HETATM   17  C10 UNL     1      -0.908   0.989  -1.315  1.00  0.00     0.044 A 
HETATM   18  C12 UNL     1       0.940   2.609  -0.501  1.00  0.00     0.050 C 
HETATM   19  C9  UNL     1      -1.021  -0.372  -1.530  1.00  0.00     0.101 A 
HETATM   20  N7  UNL     1       0.204  -0.918  -1.208  1.00  0.00    -0.351 N 
HETATM   21  H29 UNL     1       0.388  -1.917  -1.261  1.00  0.00     0.166 HD
BRANCH  19  22
HETATM   22  C8  UNL     1      -2.117  -1.188  -2.000  1.00  0.00     0.268 C 
HETATM   23  N2  UNL     1      -3.325  -0.544  -2.110  1.00  0.00    -0.353 N 
HETATM   24  H17 UNL     1      -3.429   0.353  -1.657  1.00  0.00     0.162 HD
HETATM   25  O2  UNL     1      -2.005  -2.386  -2.246  1.00  0.00    -0.266 OA
BRANCH  23  26
HETATM   26  C7  UNL     1      -4.553  -1.234  -2.474  1.00  0.00     0.156 C 
BRANCH  26  27
HETATM   27  C6  UNL     1      -5.098  -2.195  -1.397  1.00  0.00     0.164 C 
BRANCH  27  28
HETATM   28  C5  UNL     1      -5.062  -1.623   0.040  1.00  0.00     0.305 C 
BRANCH  28  29
HETATM   29  N1  UNL     1      -5.701  -0.294   0.198  1.00  0.00     0.090 N 
BRANCH  29  30
HETATM   30  C2  UNL     1      -5.232   0.311   1.462  1.00  0.00     0.268 C 
HETATM   31  C1  UNL     1      -5.686   1.751   1.672  1.00  0.00     0.037 C 
ENDBRANCH  29  30
BRANCH  29  32
HETATM   32  C3  UNL     1      -7.171  -0.409   0.150  1.00  0.00     0.268 C 
HETATM   33  C4  UNL     1      -7.764   0.670  -0.749  1.00  0.00     0.037 C 
ENDBRANCH  29  32
ENDBRANCH  28  29
ENDBRANCH  27  28
BRANCH  27  34
HETATM   34  O1  UNL     1      -4.392  -3.444  -1.417  1.00  0.00    -0.392 OA
HETATM   35  H14 UNL     1      -3.458  -3.256  -1.660  1.00  0.00     0.210 HD
ENDBRANCH  27  34
ENDBRANCH  26  27
ENDBRANCH  23  26
ENDBRANCH  19  22
ENDBRANCH   1  15
BRANCH  12  36
HETATM   36  N6  UNL     1       5.495   0.608   0.031  1.00  0.00    -0.342 N 
HETATM   37  H25 UNL     1       5.168   0.695  -0.927  1.00  0.00     0.167 HD
BRANCH  36  38
HETATM   38  C20 UNL     1       6.421   1.628   0.352  1.00  0.00     0.035 A 
HETATM   39  C21 UNL     1       6.477   2.773  -0.461  1.00  0.00     0.032 A 
HETATM   40  C22 UNL     1       7.341   3.829  -0.159  1.00  0.00     0.046 A 
HETATM   41  C23 UNL     1       8.137   3.761   0.978  1.00  0.00     0.138 A 
HETATM   42  F1  UNL     1       8.961   4.782   1.249  1.00  0.00    -0.204 F 
HETATM   43  C24 UNL     1       8.066   2.656   1.820  1.00  0.00     0.074 A 
HETATM   44 CL1  UNL     1       9.027   2.579   3.247  1.00  0.00    -0.081 Cl
HETATM   45  C25 UNL     1       7.202   1.601   1.516  1.00  0.00     0.056 A 
ENDBRANCH  36  38
ENDBRANCH  12  36
TORSDOF 11
