REMARK  4 active torsions:
REMARK  status: ('A' for Active; 'I' for Inactive)
REMARK    1  A    between atoms: C2_2  and  C3_3 
REMARK       I    between atoms: C3_3  and  N1_5 
REMARK    2  A    between atoms: C13_17  and  C14_18 
REMARK    3  A    between atoms: C17_23  and  C18_24 
REMARK    4  A    between atoms: C22_28  and  O3_29 
ROOT
HETATM    1  C3  UNL     1      -6.778   0.901  -0.845  1.00  0.00     0.242 C 
HETATM    2  O1  UNL     1      -7.347   0.459  -1.842  1.00  0.00    -0.268 OA
HETATM    3  N1  UNL     1      -5.568   0.387  -0.375  1.00  0.00    -0.349 N 
HETATM    4  C4  UNL     1      -5.165  -0.910  -0.924  1.00  0.00     0.127 C 
HETATM    5  C5  UNL     1      -3.653  -1.107  -0.958  1.00  0.00     0.037 C 
HETATM    6  C6  UNL     1      -2.974  -0.779   0.387  1.00  0.00     0.022 C 
HETATM    7  C7  UNL     1      -3.398   0.638   0.813  1.00  0.00     0.037 C 
HETATM    8  C8  UNL     1      -4.915   0.808   0.865  1.00  0.00     0.127 C 
HETATM    9  C9  UNL     1      -3.364  -1.817   1.498  1.00  0.00     0.139 C 
HETATM   10  N2  UNL     1      -2.692  -3.106   1.371  1.00  0.00    -0.356 N 
HETATM   11  C10 UNL     1      -1.333  -3.205   1.134  1.00  0.00     0.253 C 
HETATM   12  O2  UNL     1      -0.717  -4.235   1.375  1.00  0.00    -0.268 OA
HETATM   13  C11 UNL     1      -0.731  -2.006   0.571  1.00  0.00     0.057 A 
HETATM   14  C12 UNL     1       0.615  -1.710   0.254  1.00  0.00     0.051 A 
HETATM   15  C13 UNL     1       0.672  -0.436  -0.298  1.00  0.00     0.060 A 
HETATM   16  N5  UNL     1      -0.624   0.042  -0.308  1.00  0.00    -0.356 N 
HETATM   17  C25 UNL     1      -1.473  -0.891   0.226  1.00  0.00     0.036 A 
HETATM   18  H14 UNL     1      -3.054  -3.905   1.877  1.00  0.00     0.162 HD
HETATM   19  H25 UNL     1      -0.899   0.953  -0.647  1.00  0.00     0.166 HD
ENDROOT
BRANCH  15  20
HETATM   20  C14 UNL     1       1.830   0.319  -0.778  1.00  0.00     0.062 A 
HETATM   21  C15 UNL     1       1.730   1.398  -1.628  1.00  0.00     0.049 A 
HETATM   22  C16 UNL     1       2.918   1.996  -1.974  1.00  0.00     0.092 A 
HETATM   23  N3  UNL     1       4.117   1.582  -1.529  1.00  0.00    -0.352 N 
HETATM   24  C17 UNL     1       4.120   0.512  -0.709  1.00  0.00     0.116 A 
ATOM     25  H3  UNL     1       4.981   2.053  -1.798  1.00  0.00     0.166 HD
HETATM   26  N4  UNL     1       3.009  -0.138  -0.315  1.00  0.00    -0.340 N 
ATOM     27  H4  UNL     1       3.058  -0.944   0.309  1.00  0.00     0.167 HD
BRANCH  24  28
HETATM   28  C18 UNL     1       5.422   0.019  -0.213  1.00  0.00     0.011 A 
HETATM   29  C19 UNL     1       5.510  -1.135   0.591  1.00  0.00     0.015 A 
HETATM   30  C20 UNL     1       6.739  -1.606   1.057  1.00  0.00     0.004 A 
HETATM   31  C21 UNL     1       7.909  -0.927   0.729  1.00  0.00     0.037 A 
HETATM   32  C22 UNL     1       7.862   0.221  -0.062  1.00  0.00     0.069 A 
HETATM   33  C24 UNL     1       6.627   0.684  -0.527  1.00  0.00     0.052 A 
BRANCH  32  34
HETATM   34  O3  UNL     1       9.080   0.793  -0.309  1.00  0.00    -0.356 OA
HETATM   35  C23 UNL     1       9.087   1.976  -1.101  1.00  0.00     0.210 C 
ENDBRANCH  32  34
ENDBRANCH  24  28
ENDBRANCH  15  20
BRANCH   1  36
HETATM   36  C2  UNL     1      -7.393   2.029  -0.091  1.00  0.00     0.064 C 
HETATM   37  C1  UNL     1      -8.268   2.845  -0.695  1.00  0.00     0.017 C 
ENDBRANCH   1  36
TORSDOF 4
