REMARK  4 active torsions:
REMARK  status: ('A' for Active; 'I' for Inactive)
REMARK    1  A    between atoms: C5_5  and  C6_6 
REMARK    2  A    between atoms: C8_10  and  C9_11 
REMARK       I    between atoms: N3_21  and  C16_22 
REMARK    3  A    between atoms: C16_22  and  C17_24 
REMARK    4  A    between atoms: N6_33  and  C22_34 
ROOT
HETATM    1  C6  UNL     1       1.772  -0.478  -0.254  1.00  0.00     0.141 C 
HETATM    2  N1  UNL     1       2.461   0.617  -0.353  1.00  0.00    -0.336 N 
ATOM      3  H1  UNL     1       3.420   0.595  -0.699  1.00  0.00     0.168 HD
HETATM    4  C7  UNL     1       1.881   1.805   0.014  1.00  0.00     0.104 C 
HETATM    5  C8  UNL     1       2.533   2.983  -0.038  1.00  0.00     0.046 C 
HETATM    6  C15 UNL     1       0.446   1.866   0.444  1.00  0.00     0.287 C 
HETATM    7  O1  UNL     1      -0.171   2.909   0.639  1.00  0.00    -0.264 OA
HETATM    8  N2  UNL     1      -0.157   0.652   0.607  1.00  0.00    -0.253 N 
HETATM    9  N3  UNL     1       0.456  -0.567   0.240  1.00  0.00    -0.197 N 
HETATM   10  C16 UNL     1      -0.248  -1.765   0.486  1.00  0.00     0.312 C 
HETATM   11  O2  UNL     1       0.203  -2.909   0.444  1.00  0.00    -0.262 OA
HETATM   12  H11 UNL     1      -1.164   0.667   0.761  1.00  0.00     0.191 HD
ENDROOT
BRANCH   1  13
HETATM   13  C5  UNL     1       2.442  -1.716  -0.711  1.00  0.00     0.010 A 
HETATM   14  C4  UNL     1       2.088  -2.284  -1.938  1.00  0.00     0.016 A 
HETATM   15  C3  UNL     1       2.758  -3.425  -2.382  1.00  0.00     0.007 A 
HETATM   16  C2  UNL     1       3.778  -3.997  -1.607  1.00  0.00    -0.062 A 
HETATM   17  C1  UNL     1       4.520  -5.207  -2.097  1.00  0.00     0.048 C 
HETATM   18  C30 UNL     1       4.144  -3.394  -0.395  1.00  0.00     0.007 A 
HETATM   19  C29 UNL     1       3.482  -2.250   0.054  1.00  0.00     0.016 A 
ENDBRANCH   1  13
BRANCH  10  20
HETATM   20  C17 UNL     1      -1.710  -1.683   0.910  1.00  0.00     0.181 A 
HETATM   21  N4  UNL     1      -2.461  -0.654   0.622  1.00  0.00    -0.322 N 
HETATM   22  C18 UNL     1      -3.746  -0.769   1.073  1.00  0.00     0.147 A 
ATOM     23  H4  UNL     1      -2.120   0.159   0.109  1.00  0.00     0.169 HD
HETATM   24  C19 UNL     1      -4.261  -1.835   1.781  1.00  0.00     0.101 A 
HETATM   25  N6  UNL     1      -4.796   0.143   0.938  1.00  0.00    -0.239 N 
HETATM   26  C20 UNL     1      -5.592  -1.514   2.070  1.00  0.00     0.042 A 
HETATM   27  C28 UNL     1      -3.427  -2.965   2.074  1.00  0.00     0.263 A 
HETATM   28  C21 UNL     1      -6.587  -2.321   2.820  1.00  0.00     0.071 C 
HETATM   29  N5  UNL     1      -5.917  -0.314   1.582  1.00  0.00    -0.295 N 
ATOM     30  H5  UNL     1      -6.814   0.164   1.670  1.00  0.00     0.187 HD
HETATM   31  O3  UNL     1      -3.800  -3.967   2.668  1.00  0.00    -0.267 OA
HETATM   32  N7  UNL     1      -2.144  -2.804   1.607  1.00  0.00    -0.304 N 
HETATM   33  H20 UNL     1      -1.504  -3.580   1.735  1.00  0.00     0.171 HD
BRANCH  25  34
HETATM   34  C22 UNL     1      -4.836   1.404   0.267  1.00  0.00     0.058 A 
HETATM   35  C23 UNL     1      -5.986   2.203   0.386  1.00  0.00     0.031 A 
HETATM   36  C24 UNL     1      -6.055   3.451  -0.241  1.00  0.00     0.002 A 
HETATM   37  C25 UNL     1      -4.979   3.912  -0.994  1.00  0.00     0.000 A 
HETATM   38  C26 UNL     1      -3.839   3.123  -1.129  1.00  0.00     0.002 A 
HETATM   39  C27 UNL     1      -3.767   1.872  -0.508  1.00  0.00     0.031 A 
ENDBRANCH  25  34
ENDBRANCH  10  20
BRANCH   5  40
HETATM   40  C9  UNL     1       3.926   3.198  -0.461  1.00  0.00    -0.034 A 
HETATM   41  C10 UNL     1       4.223   4.315  -1.256  1.00  0.00     0.013 A 
HETATM   42  C11 UNL     1       5.538   4.577  -1.654  1.00  0.00     0.024 A 
HETATM   43  C12 UNL     1       6.565   3.729  -1.248  1.00  0.00     0.034 A 
HETATM   44 CL1  UNL     1       8.183   4.050  -1.737  1.00  0.00    -0.084 Cl
HETATM   45  C13 UNL     1       6.290   2.625  -0.445  1.00  0.00     0.024 A 
HETATM   46  C14 UNL     1       4.975   2.365  -0.048  1.00  0.00     0.013 A 
ENDBRANCH   5  40
TORSDOF 4
