REMARK  1 active torsions:
REMARK  status: ('A' for Active; 'I' for Inactive)
REMARK    1  A    between atoms: C2_2  and  C3_3 
REMARK       I    between atoms: C3_3  and  N1_5 
ROOT
HETATM    1  C3  UNL     1       4.480  -0.352  -0.693  1.00  0.00     0.247 C 
HETATM    2  O1  UNL     1       5.072   0.268  -1.578  1.00  0.00    -0.268 OA
HETATM    3  N1  UNL     1       3.448   0.176   0.105  1.00  0.00    -0.315 N 
HETATM    4  C4  UNL     1       2.607  -0.665   0.977  1.00  0.00     0.132 C 
HETATM    5  C5  UNL     1       1.650  -1.583   0.203  1.00  0.00     0.020 C 
HETATM    6  C6  UNL     1       1.097  -2.681   1.117  1.00  0.00     0.002 C 
HETATM    7  C7  UNL     1       0.309  -3.766   0.374  1.00  0.00     0.002 C 
HETATM    8  C8  UNL     1      -0.978  -3.291  -0.303  1.00  0.00     0.020 C 
HETATM    9  C9  UNL     1      -2.061  -2.862   0.691  1.00  0.00     0.128 C 
HETATM   10  N2  UNL     1      -2.613  -1.558   0.360  1.00  0.00    -0.355 N 
HETATM   11  C10 UNL     1      -2.091  -0.378   0.817  1.00  0.00     0.106 A 
HETATM   12  C11 UNL     1      -2.813   0.659   0.262  1.00  0.00     0.019 A 
HETATM   13  C12 UNL     1      -3.829   0.072  -0.560  1.00  0.00     0.005 A 
HETATM   14  C13 UNL     1      -4.846   0.590  -1.395  1.00  0.00     0.014 A 
HETATM   15  C14 UNL     1      -5.691  -0.282  -2.089  1.00  0.00     0.001 A 
HETATM   16  C15 UNL     1      -5.534  -1.659  -1.974  1.00  0.00     0.002 A 
HETATM   17  C16 UNL     1      -4.527  -2.201  -1.170  1.00  0.00     0.030 A 
HETATM   18  C17 UNL     1      -3.685  -1.319  -0.472  1.00  0.00     0.045 A 
HETATM   19  C18 UNL     1      -2.495   2.052   0.529  1.00  0.00     0.063 A 
HETATM   20  C19 UNL     1      -3.494   2.965   0.774  1.00  0.00     0.048 A 
HETATM   21  C20 UNL     1      -3.069   4.246   1.001  1.00  0.00     0.108 A 
HETATM   22  N3  UNL     1      -1.775   4.610   0.981  1.00  0.00    -0.202 N 
ATOM     23  H3  UNL     1      -1.495   5.577   1.145  1.00  0.00     0.183 HD
HETATM   24  C21 UNL     1      -0.863   3.651   0.736  1.00  0.00     0.683 A 
HETATM   25  N4  UNL     1      -1.183   2.371   0.526  1.00  0.00    -0.191 N 
ATOM     26  H4  UNL     1      -0.465   1.663   0.370  1.00  0.00     0.184 HD
HETATM   27  N5  UNL     1       0.448   4.111   0.689  1.00  0.00    -0.192 N 
HETATM   28  C22 UNL     1       1.696   3.524   0.451  1.00  0.00     0.051 A 
HETATM   29  C23 UNL     1       2.788   4.382   0.254  1.00  0.00     0.030 A 
HETATM   30  C24 UNL     1       4.058   3.881  -0.011  1.00  0.00     0.004 A 
HETATM   31  C25 UNL     1       4.259   2.504  -0.076  1.00  0.00     0.030 A 
HETATM   32  C26 UNL     1       3.202   1.603   0.118  1.00  0.00     0.039 A 
HETATM   33  C27 UNL     1       1.922   2.139   0.374  1.00  0.00     0.059 A 
HETATM   34  H23 UNL     1       0.432   5.114   0.803  1.00  0.00     0.184 HD
ENDROOT
BRANCH   1  35
HETATM   35  C2  UNL     1       4.869  -1.780  -0.463  1.00  0.00     0.064 C 
HETATM   36  C1  UNL     1       5.544  -2.459  -1.402  1.00  0.00     0.017 C 
ENDBRANCH   1  35
TORSDOF 1
