REMARK  1 active torsions:
REMARK  status: ('A' for Active; 'I' for Inactive)
REMARK    1  A    between atoms: C2_2  and  C3_3 
REMARK       I    between atoms: C3_3  and  N1_5 
ROOT
HETATM    1  C3  UNL     1      -5.157  -0.617  -0.388  1.00  0.00     0.247 C 
HETATM    2  O1  UNL     1      -5.463  -1.774  -0.675  1.00  0.00    -0.268 OA
HETATM    3  N1  UNL     1      -3.975  -0.269   0.276  1.00  0.00    -0.315 N 
HETATM    4  C4  UNL     1      -3.265  -1.369   0.940  1.00  0.00     0.132 C 
HETATM    5  C5  UNL     1      -2.127  -1.942   0.089  1.00  0.00     0.020 C 
HETATM    6  C6  UNL     1      -1.603  -3.255   0.679  1.00  0.00     0.002 C 
HETATM    7  C7  UNL     1      -0.293  -3.725   0.037  1.00  0.00     0.000 C 
HETATM    8  C8  UNL     1       0.902  -2.909   0.533  1.00  0.00     0.002 C 
HETATM    9  C9  UNL     1       2.230  -3.380  -0.068  1.00  0.00     0.020 C 
HETATM   10  C10 UNL     1       3.440  -2.689   0.572  1.00  0.00     0.128 C 
HETATM   11  N2  UNL     1       3.493  -1.258   0.323  1.00  0.00    -0.355 N 
HETATM   12  C11 UNL     1       2.877  -0.325   1.116  1.00  0.00     0.106 A 
HETATM   13  C12 UNL     1       3.050   0.916   0.540  1.00  0.00     0.019 A 
HETATM   14  C13 UNL     1       3.871   0.735  -0.615  1.00  0.00     0.005 A 
HETATM   15  C14 UNL     1       4.389   1.607  -1.598  1.00  0.00     0.014 A 
HETATM   16  C15 UNL     1       5.167   1.095  -2.641  1.00  0.00     0.001 A 
HETATM   17  C16 UNL     1       5.426  -0.269  -2.725  1.00  0.00     0.002 A 
HETATM   18  C17 UNL     1       4.914  -1.158  -1.776  1.00  0.00     0.030 A 
HETATM   19  C18 UNL     1       4.139  -0.636  -0.727  1.00  0.00     0.045 A 
HETATM   20  C19 UNL     1       2.439   2.111   1.088  1.00  0.00     0.048 A 
HETATM   21  C20 UNL     1       3.198   3.216   1.390  1.00  0.00     0.047 A 
HETATM   22  C21 UNL     1       2.501   4.276   1.909  1.00  0.00     0.093 A 
HETATM   23  N3  UNL     1       1.168   4.269   2.101  1.00  0.00    -0.342 N 
ATOM     24  H3  UNL     1       0.680   5.078   2.485  1.00  0.00     0.167 HD
HETATM   25  C22 UNL     1       0.510   3.147   1.764  1.00  0.00     0.162 A 
HETATM   26  N4  UNL     1       1.105   2.053   1.274  1.00  0.00    -0.332 N 
ATOM     27  H4  UNL     1       0.573   1.212   1.051  1.00  0.00     0.168 HD
HETATM   28  N5  UNL     1      -0.889   3.191   1.921  1.00  0.00    -0.230 NA
HETATM   29  C23 UNL     1      -1.755   2.710   0.910  1.00  0.00     0.017 A 
HETATM   30  C24 UNL     1      -1.910   3.413  -0.289  1.00  0.00     0.024 A 
HETATM   31  C25 UNL     1      -2.732   2.911  -1.292  1.00  0.00     0.004 A 
HETATM   32  C26 UNL     1      -3.408   1.704  -1.101  1.00  0.00     0.030 A 
HETATM   33  C27 UNL     1      -3.282   0.979   0.095  1.00  0.00     0.039 A 
HETATM   34  C28 UNL     1      -2.423   1.487   1.082  1.00  0.00     0.053 A 
HETATM   35  H25 UNL     1      -1.039   4.185   2.074  1.00  0.00     0.136 HD
ENDROOT
BRANCH   1  36
HETATM   36  C2  UNL     1      -6.136   0.489  -0.616  1.00  0.00     0.064 C 
HETATM   37  C1  UNL     1      -7.178   0.324  -1.441  1.00  0.00     0.017 C 
ENDBRANCH   1  36
TORSDOF 1
