REMARK  1 active torsions:
REMARK  status: ('A' for Active; 'I' for Inactive)
REMARK    1  A    between atoms: C2_2  and  C3_3 
REMARK       I    between atoms: C3_3  and  N1_5 
ROOT
HETATM    1  C3  UNL     1       4.303  -0.798  -1.707  1.00  0.00     0.247 C 
HETATM    2  O1  UNL     1       4.283  -1.750  -2.490  1.00  0.00    -0.268 OA
HETATM    3  N1  UNL     1       3.761  -0.820  -0.410  1.00  0.00    -0.315 N 
HETATM    4  C4  UNL     1       3.622   0.392   0.422  1.00  0.00     0.132 C 
HETATM    5  C5  UNL     1       2.489   1.310  -0.046  1.00  0.00     0.020 C 
HETATM    6  C6  UNL     1       2.360   2.530   0.870  1.00  0.00     0.002 C 
HETATM    7  C7  UNL     1       1.408   3.601   0.324  1.00  0.00     0.000 C 
HETATM    8  C8  UNL     1      -0.018   3.089   0.139  1.00  0.00     0.000 C 
HETATM    9  C9  UNL     1      -0.969   4.201  -0.319  1.00  0.00     0.000 C 
HETATM   10  C10 UNL     1      -2.378   3.661  -0.580  1.00  0.00     0.002 C 
HETATM   11  C11 UNL     1      -3.143   3.358   0.712  1.00  0.00     0.020 C 
HETATM   12  C12 UNL     1      -4.241   2.311   0.526  1.00  0.00     0.128 C 
HETATM   13  N2  UNL     1      -3.714   0.973   0.296  1.00  0.00    -0.355 N 
HETATM   14  C13 UNL     1      -3.160   0.197   1.286  1.00  0.00     0.106 A 
HETATM   15  C14 UNL     1      -2.789  -1.008   0.727  1.00  0.00     0.019 A 
HETATM   16  C15 UNL     1      -3.140  -0.966  -0.657  1.00  0.00     0.005 A 
HETATM   17  C16 UNL     1      -3.026  -1.886  -1.723  1.00  0.00     0.014 A 
HETATM   18  C17 UNL     1      -3.492  -1.539  -2.996  1.00  0.00     0.001 A 
HETATM   19  C18 UNL     1      -4.073  -0.294  -3.217  1.00  0.00     0.002 A 
HETATM   20  C19 UNL     1      -4.201   0.635  -2.177  1.00  0.00     0.030 A 
HETATM   21  C20 UNL     1      -3.729   0.281  -0.901  1.00  0.00     0.045 A 
HETATM   22  C21 UNL     1      -2.274  -2.110   1.511  1.00  0.00     0.048 A 
HETATM   23  C22 UNL     1      -3.159  -3.048   1.999  1.00  0.00     0.047 A 
HETATM   24  C23 UNL     1      -2.599  -4.036   2.760  1.00  0.00     0.093 A 
HETATM   25  N3  UNL     1      -1.281  -4.109   3.015  1.00  0.00    -0.342 N 
ATOM     26  H3  UNL     1      -0.895  -4.850   3.600  1.00  0.00     0.167 HD
HETATM   27  C24 UNL     1      -0.488  -3.165   2.467  1.00  0.00     0.162 A 
HETATM   28  N4  UNL     1      -0.941  -2.146   1.724  1.00  0.00    -0.332 N 
ATOM     29  H4  UNL     1      -0.315  -1.438   1.341  1.00  0.00     0.168 HD
HETATM   30  N5  UNL     1       0.879  -3.342   2.744  1.00  0.00    -0.230 NA
HETATM   31  C25 UNL     1       1.896  -3.301   1.763  1.00  0.00     0.017 A 
HETATM   32  C26 UNL     1       2.529  -4.492   1.391  1.00  0.00     0.024 A 
HETATM   33  C27 UNL     1       3.525  -4.484   0.421  1.00  0.00     0.004 A 
HETATM   34  C28 UNL     1       3.907  -3.283  -0.178  1.00  0.00     0.030 A 
HETATM   35  C29 UNL     1       3.300  -2.066   0.169  1.00  0.00     0.039 A 
HETATM   36  C30 UNL     1       2.276  -2.103   1.137  1.00  0.00     0.053 A 
HETATM   37  H29 UNL     1       0.885  -4.229   3.241  1.00  0.00     0.136 HD
ENDROOT
BRANCH   1  38
HETATM   38  C2  UNL     1       4.927   0.479  -2.185  1.00  0.00     0.064 C 
HETATM   39  C1  UNL     1       5.374   0.586  -3.445  1.00  0.00     0.017 C 
ENDBRANCH   1  38
TORSDOF 1
