REMARK  12 active torsions:
REMARK  status: ('A' for Active; 'I' for Inactive)
REMARK    1  A    between atoms: C6_6  and  C8_8 
REMARK    2  A    between atoms: C8_8  and  C9_9 
REMARK    3  A    between atoms: C9_9  and  C10_10 
REMARK    4  A    between atoms: C12_12  and  C13_13 
REMARK    5  A    between atoms: C13_13  and  C14_14 
REMARK    6  A    between atoms: C15_15  and  O1_16 
REMARK    7  A    between atoms: C18_20  and  N1_21 
REMARK    8  A    between atoms: N1_21  and  C19_22 
REMARK    9  A    between atoms: C19_22  and  C20_23 
REMARK   10  A    between atoms: C19_22  and  C21_26 
REMARK   11  A    between atoms: C20_23  and  O4_25 
REMARK   12  A    between atoms: C21_26  and  O5_28 
ROOT
HETATM    1  C14 UNL     1      -2.444   1.544   1.423  1.00  0.00     0.035 A 
HETATM    2  C15 UNL     1      -2.899   2.645   0.810  1.00  0.00     0.126 A 
HETATM    3  C16 UNL     1      -4.126   2.621  -0.022  1.00  0.00     0.207 A 
HETATM    4  O2  UNL     1      -4.509   3.656  -0.562  1.00  0.00    -0.285 OA
HETATM    5  C17 UNL     1      -4.827   1.345  -0.194  1.00  0.00     0.091 A 
HETATM    6  C18 UNL     1      -4.427   0.220   0.408  1.00  0.00     0.084 A 
HETATM    7  C23 UNL     1      -3.219   0.279   1.319  1.00  0.00     0.207 A 
HETATM    8  O6  UNL     1      -2.908  -0.722   1.964  1.00  0.00    -0.285 OA
ENDROOT
BRANCH   1   9
HETATM    9  C13 UNL     1      -1.199   1.507   2.267  1.00  0.00     0.073 C 
BRANCH   9  10
HETATM   10  C12 UNL     1      -0.085   0.738   1.600  1.00  0.00    -0.020 C 
HETATM   11  C10 UNL     1       0.999   1.225   0.961  1.00  0.00    -0.087 C 
HETATM   12  C11 UNL     1       1.274   2.689   0.745  1.00  0.00     0.043 C 
BRANCH  11  13
HETATM   13  C9  UNL     1       2.018   0.274   0.352  1.00  0.00     0.034 C 
BRANCH  13  14
HETATM   14  C8  UNL     1       3.360   0.290   1.104  1.00  0.00     0.014 C 
BRANCH  14  15
HETATM   15  C6  UNL     1       4.533  -0.563   0.511  1.00  0.00    -0.036 C 
HETATM   16  C5  UNL     1       4.023  -1.869  -0.147  1.00  0.00     0.013 C 
HETATM   17  C4  UNL     1       5.145  -2.758  -0.688  1.00  0.00     0.028 C 
HETATM   18  C3  UNL     1       6.278  -1.999  -1.309  1.00  0.00    -0.024 C 
HETATM   19  C2  UNL     1       6.421  -0.662  -1.247  1.00  0.00    -0.083 C 
HETATM   20  C1  UNL     1       7.625   0.016  -1.846  1.00  0.00     0.043 C 
HETATM   21  C24 UNL     1       5.409   0.235  -0.532  1.00  0.00     0.018 C 
HETATM   22  C25 UNL     1       4.603   1.000  -1.591  1.00  0.00     0.015 C 
HETATM   23  C7  UNL     1       5.440  -0.918   1.728  1.00  0.00     0.016 C 
ENDBRANCH  14  15
ENDBRANCH  13  14
ENDBRANCH  11  13
ENDBRANCH   9  10
ENDBRANCH   1   9
BRANCH   2  24
HETATM   24  O1  UNL     1      -2.249   3.865   0.911  1.00  0.00    -0.356 OA
HETATM   25  H22 UNL     1      -2.791   4.489   0.380  1.00  0.00     0.218 HD
ENDBRANCH   2  24
BRANCH   6  26
HETATM   26  N1  UNL     1      -5.009  -1.044   0.318  1.00  0.00    -0.370 N 
HETATM   27  H24 UNL     1      -4.631  -1.644   1.062  1.00  0.00     0.160 HD
BRANCH  26  28
HETATM   28  C19 UNL     1      -6.382  -1.425  -0.092  1.00  0.00     0.208 C 
BRANCH  28  29
HETATM   29  C20 UNL     1      -7.472  -0.664   0.672  1.00  0.00     0.166 C 
HETATM   30  O3  UNL     1      -7.330   0.256   1.464  1.00  0.00    -0.648 OA
BRANCH  29  31
HETATM   31  O4  UNL     1      -8.713  -1.160   0.462  1.00  0.00    -0.775 OA
HETATM   32  H26 UNL     1      -9.283  -0.570   1.000  1.00  0.00     0.167 HD
ENDBRANCH  29  31
ENDBRANCH  28  29
BRANCH  28  33
HETATM   33  C21 UNL     1      -6.541  -1.391  -1.634  1.00  0.00     0.147 C 
HETATM   34  C22 UNL     1      -7.482  -2.477  -2.150  1.00  0.00     0.042 C 
BRANCH  33  35
HETATM   35  O5  UNL     1      -7.006  -0.126  -2.111  1.00  0.00    -0.393 OA
HETATM   36  H31 UNL     1      -6.985  -0.157  -3.085  1.00  0.00     0.210 HD
ENDBRANCH  33  35
ENDBRANCH  28  33
ENDBRANCH  26  28
ENDBRANCH   6  26
TORSDOF 12
