REMARK  1 active torsions:
REMARK  status: ('A' for Active; 'I' for Inactive)
REMARK    1  A    between atoms: C2_2  and  C3_3 
REMARK       I    between atoms: C3_3  and  N1_5 
ROOT
HETATM    1  C3  UNL     1      -4.263   0.271  -1.188  1.00  0.00     0.247 C 
HETATM    2  O1  UNL     1      -5.242   1.015  -1.181  1.00  0.00    -0.268 OA
HETATM    3  N1  UNL     1      -3.090   0.436  -0.429  1.00  0.00    -0.315 N 
HETATM    4  C4  UNL     1      -2.037  -0.607  -0.389  1.00  0.00     0.132 C 
HETATM    5  C5  UNL     1      -2.424  -1.741   0.572  1.00  0.00     0.020 C 
HETATM    6  C6  UNL     1      -1.780  -3.089   0.234  1.00  0.00     0.002 C 
HETATM    7  C7  UNL     1      -0.250  -3.129   0.241  1.00  0.00     0.000 C 
HETATM    8  C8  UNL     1       0.355  -2.717   1.582  1.00  0.00     0.002 C 
HETATM    9  C9  UNL     1       1.827  -3.115   1.758  1.00  0.00     0.020 C 
HETATM   10  C10 UNL     1       2.776  -2.782   0.600  1.00  0.00     0.128 C 
HETATM   11  N2  UNL     1       2.929  -1.387   0.225  1.00  0.00    -0.355 N 
HETATM   12  C11 UNL     1       2.621  -0.302   0.997  1.00  0.00     0.106 A 
HETATM   13  C12 UNL     1       2.864   0.841   0.263  1.00  0.00     0.019 A 
HETATM   14  C13 UNL     1       3.410   0.437  -0.989  1.00  0.00     0.005 A 
HETATM   15  C14 UNL     1       3.857   1.129  -2.135  1.00  0.00     0.014 A 
HETATM   16  C15 UNL     1       4.353   0.411  -3.228  1.00  0.00     0.001 A 
HETATM   17  C16 UNL     1       4.403  -0.978  -3.196  1.00  0.00     0.002 A 
HETATM   18  C17 UNL     1       3.954  -1.690  -2.080  1.00  0.00     0.030 A 
HETATM   19  C18 UNL     1       3.454  -0.963  -0.986  1.00  0.00     0.045 A 
HETATM   20  C19 UNL     1       2.559   2.159   0.779  1.00  0.00     0.063 A 
HETATM   21  C20 UNL     1       3.532   3.117   0.923  1.00  0.00     0.048 A 
HETATM   22  C21 UNL     1       3.099   4.297   1.467  1.00  0.00     0.108 A 
HETATM   23  N3  UNL     1       1.821   4.528   1.828  1.00  0.00    -0.202 N 
ATOM     24  H3  UNL     1       1.539   5.417   2.241  1.00  0.00     0.183 HD
HETATM   25  C22 UNL     1       0.934   3.542   1.622  1.00  0.00     0.683 A 
HETATM   26  N4  UNL     1       1.270   2.351   1.120  1.00  0.00    -0.191 N 
ATOM     27  H4  UNL     1       0.576   1.613   0.999  1.00  0.00     0.184 HD
HETATM   28  N5  UNL     1      -0.379   3.816   1.984  1.00  0.00    -0.189 N 
HETATM   29  C23 UNL     1      -1.602   3.195   1.687  1.00  0.00     0.089 A 
HETATM   30  C24 UNL     1      -1.737   2.111   0.802  1.00  0.00     0.063 A 
HETATM   31  C25 UNL     1      -2.984   1.516   0.523  1.00  0.00     0.039 A 
HETATM   32  C26 UNL     1      -4.111   2.022   1.188  1.00  0.00     0.033 A 
HETATM   33  C27 UNL     1      -4.001   3.078   2.093  1.00  0.00     0.047 A 
HETATM   34  C28 UNL     1      -2.758   3.648   2.333  1.00  0.00     0.143 A 
HETATM   35  F1  UNL     1      -2.672   4.670   3.200  1.00  0.00    -0.204 F 
HETATM   36  H25 UNL     1      -0.444   4.722   2.428  1.00  0.00     0.184 HD
ENDROOT
BRANCH   1  37
HETATM   37  C2  UNL     1      -4.303  -0.903  -2.107  1.00  0.00     0.064 C 
HETATM   38  C1  UNL     1      -5.405  -1.662  -2.176  1.00  0.00     0.017 C 
ENDBRANCH   1  37
TORSDOF 1
