REMARK  4 active torsions:
REMARK  status: ('A' for Active; 'I' for Inactive)
REMARK    1  A    between atoms: C3_3  and  C4_4 
REMARK       I    between atoms: C4_4  and  N1_6 
REMARK    2  A    between atoms: N1_6  and  C5_7 
REMARK    3  A    between atoms: C9_11  and  C10_12 
REMARK    4  A    between atoms: C13_17  and  C14_18 
ROOT
HETATM    1  C1  UNL     1      10.895  -1.050  -1.020  1.00  0.00     0.112 C 
HETATM    2  C2  UNL     1       9.500  -0.712  -0.740  1.00  0.00    -0.101 C 
HETATM    3  C3  UNL     1       8.356  -0.424  -0.511  1.00  0.00    -0.006 C 
ENDROOT
BRANCH   3   4
HETATM    4  C4  UNL     1       6.971  -0.085  -0.242  1.00  0.00     0.300 C 
HETATM    5  O1  UNL     1       6.723   1.032   0.180  1.00  0.00    -0.258 OA
HETATM    6  N1  UNL     1       6.095  -1.112  -0.512  1.00  0.00    -0.316 N 
HETATM    7  H4  UNL     1       6.518  -1.964  -0.855  1.00  0.00     0.170 HD
BRANCH   6   8
HETATM    8  C5  UNL     1       4.693  -1.114  -0.378  1.00  0.00     0.036 A 
HETATM    9  C6  UNL     1       4.026  -2.292  -0.732  1.00  0.00     0.029 A 
HETATM   10  C7  UNL     1       2.639  -2.375  -0.638  1.00  0.00     0.003 A 
HETATM   11  C8  UNL     1       1.906  -1.277  -0.189  1.00  0.00     0.015 A 
HETATM   12  C9  UNL     1       2.537  -0.074   0.179  1.00  0.00     0.010 A 
HETATM   13  C25 UNL     1       3.945  -0.021   0.075  1.00  0.00     0.044 A 
BRANCH  12  14
HETATM   14  C10 UNL     1       1.753   1.087   0.652  1.00  0.00     0.116 A 
HETATM   15  N2  UNL     1       2.421   2.126   1.187  1.00  0.00    -0.352 N 
HETATM   16  C11 UNL     1       1.685   3.169   1.610  1.00  0.00     0.092 A 
ATOM     17  H2  UNL     1       3.438   2.122   1.268  1.00  0.00     0.166 HD
HETATM   18  C12 UNL     1       0.316   3.217   1.517  1.00  0.00     0.049 A 
HETATM   19  C13 UNL     1      -0.279   2.112   0.952  1.00  0.00     0.062 A 
HETATM   20  N6  UNL     1       0.413   1.037   0.517  1.00  0.00    -0.340 N 
ATOM     21  H6  UNL     1      -0.055   0.228   0.107  1.00  0.00     0.167 HD
BRANCH  19  22
HETATM   22  C14 UNL     1      -1.723   2.003   0.765  1.00  0.00     0.060 A 
HETATM   23  C15 UNL     1      -2.775   2.843   1.097  1.00  0.00     0.051 A 
HETATM   24  C16 UNL     1      -3.983   2.229   0.677  1.00  0.00     0.057 A 
HETATM   25  C17 UNL     1      -3.637   1.029   0.082  1.00  0.00     0.036 A 
HETATM   26  C24 UNL     1      -5.365   2.663   0.812  1.00  0.00     0.253 C 
HETATM   27  N3  UNL     1      -2.279   0.895   0.157  1.00  0.00    -0.356 N 
HETATM   28  C18 UNL     1      -4.628   0.033  -0.482  1.00  0.00     0.022 C 
HETATM   29  H11 UNL     1      -1.723   0.113  -0.168  1.00  0.00     0.166 HD
HETATM   30  C19 UNL     1      -4.108  -0.640  -1.777  1.00  0.00     0.047 C 
HETATM   31  C22 UNL     1      -4.972  -1.028   0.597  1.00  0.00     0.047 C 
HETATM   32  C23 UNL     1      -5.919   0.864  -0.810  1.00  0.00     0.138 C 
HETATM   33  C20 UNL     1      -4.629  -2.068  -1.904  1.00  0.00     0.270 C 
HETATM   34  N4  UNL     1      -4.158  -2.922  -0.815  1.00  0.00     0.083 N 
HETATM   35  C21 UNL     1      -4.071  -2.254   0.484  1.00  0.00     0.270 C 
HETATM   36  H16 UNL     1      -4.758  -3.745  -0.747  1.00  0.00     0.315 HD
HETATM   37  N5  UNL     1      -6.293   1.818   0.231  1.00  0.00    -0.356 N 
HETATM   38  H23 UNL     1      -7.227   2.207   0.230  1.00  0.00     0.162 HD
HETATM   39  O2  UNL     1      -5.706   3.682   1.402  1.00  0.00    -0.268 OA
ENDBRANCH  19  22
ENDBRANCH  12  14
ENDBRANCH   6   8
ENDBRANCH   3   4
TORSDOF 4
