REMARK  8 active torsions:
REMARK  status: ('A' for Active; 'I' for Inactive)
REMARK    1  A    between atoms: C3_3  and  C4_4 
REMARK       I    between atoms: C4_4  and  N1_6 
REMARK    2  A    between atoms: N1_6  and  C5_7 
REMARK    3  A    between atoms: C7_9  and  N2_10 
REMARK    4  A    between atoms: N2_10  and  C8_11 
REMARK    5  A    between atoms: C11_16  and  C12_17 
REMARK    6  A    between atoms: C21_29  and  O2_30 
REMARK    7  A    between atoms: C24_33  and  O3_34 
REMARK    8  A    between atoms: O3_34  and  C25_35 
ROOT
HETATM    1  C1  UNL     1      -4.714  -0.242  -4.881  1.00  0.00     0.102 C 
HETATM    2  C2  UNL     1      -5.216   0.414  -3.879  1.00  0.00    -0.155 C 
HETATM    3  C3  UNL     1      -5.733   1.073  -2.884  1.00  0.00     0.124 C 
ENDROOT
BRANCH   3   4
HETATM    4  C4  UNL     1      -5.147   1.157  -1.519  1.00  0.00     0.253 C 
HETATM    5  O1  UNL     1      -5.801   1.728  -0.657  1.00  0.00    -0.268 OA
HETATM    6  N1  UNL     1      -3.895   0.602  -1.399  1.00  0.00    -0.321 N 
HETATM    7  H4  UNL     1      -3.433   0.373  -2.271  1.00  0.00     0.169 HD
BRANCH   6   8
HETATM    8  C5  UNL     1      -3.069   0.523  -0.251  1.00  0.00     0.071 A 
HETATM    9  C6  UNL     1      -1.697   0.354  -0.521  1.00  0.00     0.065 A 
HETATM   10  C7  UNL     1      -0.730   0.333   0.492  1.00  0.00     0.085 A 
HETATM   11  C21 UNL     1      -1.157   0.492   1.827  1.00  0.00     0.098 A 
HETATM   12  C23 UNL     1      -2.517   0.620   2.114  1.00  0.00     0.078 A 
HETATM   13  C24 UNL     1      -3.472   0.590   1.088  1.00  0.00     0.099 A 
BRANCH  10  14
HETATM   14  N2  UNL     1       0.644   0.186   0.245  1.00  0.00    -0.189 N 
HETATM   15  H6  UNL     1       1.216   0.167   1.081  1.00  0.00     0.184 HD
BRANCH  14  16
HETATM   16  C8  UNL     1       1.438   0.094  -0.889  1.00  0.00     0.683 A 
HETATM   17  N3  UNL     1       0.915   0.125  -2.124  1.00  0.00    -0.202 N 
HETATM   18  C9  UNL     1       1.771   0.052  -3.157  1.00  0.00     0.108 A 
ATOM     19  H3  UNL     1      -0.091   0.201  -2.273  1.00  0.00     0.183 HD
HETATM   20  C10 UNL     1       3.129  -0.062  -3.011  1.00  0.00     0.048 A 
HETATM   21  C11 UNL     1       3.585  -0.099  -1.713  1.00  0.00     0.063 A 
HETATM   22  N5  UNL     1       2.752  -0.019  -0.653  1.00  0.00    -0.191 N 
ATOM     23  H5  UNL     1       3.113  -0.044   0.301  1.00  0.00     0.184 HD
BRANCH  21  24
HETATM   24  C12 UNL     1       5.007  -0.222  -1.399  1.00  0.00     0.019 A 
HETATM   25  C13 UNL     1       5.935  -0.814  -2.239  1.00  0.00     0.105 A 
HETATM   26  N4  UNL     1       7.161  -0.773  -1.629  1.00  0.00    -0.360 N 
HETATM   27  C14 UNL     1       8.382  -1.297  -2.200  1.00  0.00     0.156 C 
HETATM   28  C15 UNL     1       7.063  -0.172  -0.393  1.00  0.00     0.045 A 
HETATM   29  C16 UNL     1       8.038   0.086   0.584  1.00  0.00     0.030 A 
HETATM   30  C20 UNL     1       5.720   0.181  -0.219  1.00  0.00     0.005 A 
HETATM   31  C17 UNL     1       7.639   0.718   1.765  1.00  0.00     0.002 A 
HETATM   32  C18 UNL     1       6.312   1.084   1.964  1.00  0.00     0.001 A 
HETATM   33  C19 UNL     1       5.350   0.824   0.984  1.00  0.00     0.014 A 
ENDBRANCH  21  24
ENDBRANCH  14  16
ENDBRANCH  10  14
BRANCH  11  34
HETATM   34  O2  UNL     1      -0.154   0.483   2.769  1.00  0.00    -0.354 OA
HETATM   35  C22 UNL     1      -0.520   0.804   4.105  1.00  0.00     0.210 C 
ENDBRANCH  11  34
BRANCH  13  36
HETATM   36  O3  UNL     1      -4.767   0.624   1.531  1.00  0.00    -0.341 OA
BRANCH  36  37
HETATM   37  C25 UNL     1      -5.472  -0.611   1.313  1.00  0.00     0.154 C 
HETATM   38  C26 UNL     1      -5.216  -1.594   2.439  1.00  0.00     0.061 C 
HETATM   39  C27 UNL     1      -6.145  -1.087   3.518  1.00  0.00     0.170 C 
HETATM   40  O4  UNL     1      -7.327  -0.644   2.845  1.00  0.00    -0.389 OA
HETATM   41  C28 UNL     1      -6.971  -0.352   1.475  1.00  0.00     0.200 C 
ENDBRANCH  36  37
ENDBRANCH  13  36
ENDBRANCH   6   8
ENDBRANCH   3   4
TORSDOF 8
