REMARK  7 active torsions:
REMARK  status: ('A' for Active; 'I' for Inactive)
REMARK    1  A    between atoms: C5_5  and  N1_6 
REMARK       I    between atoms: N1_6  and  C6_7 
REMARK    2  A    between atoms: C6_7  and  C7_9 
REMARK    3  A    between atoms: C10_12  and  C11_13 
REMARK    4  A    between atoms: C11_13  and  N2_14 
REMARK    5  A    between atoms: C20_24  and  C21_25 
REMARK       I    between atoms: C21_25  and  N4_27 
REMARK    6  A    between atoms: N4_27  and  C22_28 
REMARK    7  A    between atoms: C25_33  and  C26_34 
ROOT
HETATM    1  C1  UNL     1      -4.803  -3.741  -0.255  1.00  0.00     0.049 C 
HETATM    2  C2  UNL     1      -3.457  -3.102  -0.059  1.00  0.00    -0.046 A 
HETATM    3  C3  UNL     1      -2.540  -3.683   0.823  1.00  0.00     0.010 A 
HETATM    4  C4  UNL     1      -1.279  -3.110   1.017  1.00  0.00     0.030 A 
HETATM    5  C5  UNL     1      -0.901  -1.945   0.336  1.00  0.00     0.036 A 
HETATM    6  C19 UNL     1      -1.809  -1.354  -0.540  1.00  0.00     0.047 A 
HETATM    7  C20 UNL     1      -3.081  -1.917  -0.718  1.00  0.00     0.041 A 
ENDROOT
BRANCH   7   8
HETATM    8  C21 UNL     1      -4.021  -1.203  -1.612  1.00  0.00     0.270 C 
HETATM    9  O2  UNL     1      -3.784  -1.187  -2.810  1.00  0.00    -0.267 OA
HETATM   10  N4  UNL     1      -5.065  -0.633  -0.935  1.00  0.00    -0.155 N 
HETATM   11  H25 UNL     1      -5.110  -0.689   0.070  1.00  0.00     0.187 HD
BRANCH  10  12
HETATM   12  C22 UNL     1      -6.116   0.078  -1.488  1.00  0.00     0.685 A 
HETATM   13  N5  UNL     1      -6.219   0.280  -2.802  1.00  0.00    -0.202 N 
HETATM   14  C23 UNL     1      -7.283   0.977  -3.224  1.00  0.00     0.108 A 
ATOM     15  H5  UNL     1      -5.522  -0.079  -3.454  1.00  0.00     0.183 HD
HETATM   16  C24 UNL     1      -8.246   1.476  -2.381  1.00  0.00     0.048 A 
HETATM   17  C25 UNL     1      -8.068   1.225  -1.034  1.00  0.00     0.060 A 
HETATM   18  N6  UNL     1      -7.006   0.518  -0.584  1.00  0.00    -0.191 N 
ATOM     19  H6  UNL     1      -6.885   0.325   0.410  1.00  0.00     0.184 HD
BRANCH  17  20
HETATM   20  C26 UNL     1      -9.008   1.693   0.009  1.00  0.00    -0.006 A 
HETATM   21  C27 UNL     1      -9.156   0.979   1.217  1.00  0.00     0.014 A 
HETATM   22  C28 UNL     1     -10.033   1.402   2.223  1.00  0.00     0.004 A 
HETATM   23  C29 UNL     1     -10.786   2.557   2.042  1.00  0.00     0.042 A 
HETATM   24  C30 UNL     1     -10.650   3.275   0.862  1.00  0.00     0.117 A 
HETATM   25  F1  UNL     1     -11.368   4.393   0.685  1.00  0.00    -0.206 F 
HETATM   26  C31 UNL     1      -9.778   2.859  -0.144  1.00  0.00     0.056 A 
ENDBRANCH  17  20
ENDBRANCH  10  12
ENDBRANCH   7   8
BRANCH   5  27
HETATM   27  N1  UNL     1       0.396  -1.450   0.590  1.00  0.00    -0.323 N 
HETATM   28  C6  UNL     1       0.977  -0.305   0.073  1.00  0.00     0.256 C 
HETATM   29  O1  UNL     1       0.432   0.528  -0.640  1.00  0.00    -0.267 OA
HETATM   30  H6  UNL     1       0.935  -1.973   1.266  1.00  0.00     0.169 HD
BRANCH  28  31
HETATM   31  C7  UNL     1       2.397  -0.072   0.479  1.00  0.00     0.032 A 
HETATM   32  C8  UNL     1       2.862   1.248   0.541  1.00  0.00     0.017 A 
HETATM   33  C9  UNL     1       4.178   1.517   0.927  1.00  0.00     0.010 A 
HETATM   34  C10 UNL     1       5.054   0.471   1.248  1.00  0.00    -0.030 A 
HETATM   35  C17 UNL     1       4.583  -0.850   1.178  1.00  0.00     0.010 A 
HETATM   36  C18 UNL     1       3.272  -1.123   0.779  1.00  0.00     0.017 A 
BRANCH  34  37
HETATM   37  C11 UNL     1       6.465   0.769   1.719  1.00  0.00     0.311 C 
BRANCH  37  38
HETATM   38  N2  UNL     1       7.489  -0.106   1.127  1.00  0.00     0.096 N 
HETATM   39  C12 UNL     1       8.791   0.035   1.813  1.00  0.00     0.303 C 
HETATM   40  C13 UNL     1       9.818   0.902   1.052  1.00  0.00     0.302 C 
HETATM   41  N3  UNL     1      10.151   0.352  -0.277  1.00  0.00     0.087 N 
HETATM   42  C14 UNL     1      10.699   1.390  -1.144  1.00  0.00     0.310 C 
HETATM   43  C15 UNL     1       8.993  -0.334  -0.888  1.00  0.00     0.302 C 
HETATM   44  C16 UNL     1       7.625   0.122  -0.332  1.00  0.00     0.303 C 
ENDBRANCH  37  38
ENDBRANCH  34  37
ENDBRANCH  28  31
ENDBRANCH   5  27
TORSDOF 7
