REMARK  6 active torsions:
REMARK  status: ('A' for Active; 'I' for Inactive)
REMARK    1  A    between atoms: O1_2  and  C2_3 
REMARK    2  A    between atoms: C5_6  and  C6_7 
REMARK    3  A    between atoms: C8_11  and  C9_12 
REMARK       I    between atoms: N2_19  and  C15_20 
REMARK    4  A    between atoms: C15_20  and  C16_22 
REMARK    5  A    between atoms: C16_22  and  C17_23 
REMARK    6  A    between atoms: N5_32  and  C22_33 
ROOT
HETATM    1  C6  UNL     1       4.940   0.999   1.082  1.00  0.00     0.046 C 
HETATM    2  C7  UNL     1       3.629   0.968   0.775  1.00  0.00     0.104 C 
HETATM    3  N1  UNL     1       2.793   1.869   1.398  1.00  0.00    -0.336 N 
ATOM      4  H1  UNL     1       3.170   2.699   1.856  1.00  0.00     0.168 HD
HETATM    5  C8  UNL     1       1.514   1.639   1.389  1.00  0.00     0.141 C 
HETATM    6  N2  UNL     1       0.914   0.537   0.751  1.00  0.00    -0.203 N 
HETATM    7  C15 UNL     1      -0.344  -0.001   1.085  1.00  0.00     0.251 C 
HETATM    8  O2  UNL     1      -0.931   0.245   2.141  1.00  0.00    -0.271 OA
HETATM    9  N7  UNL     1       1.712  -0.147  -0.185  1.00  0.00    -0.254 N 
HETATM   10  C29 UNL     1       3.073   0.001  -0.234  1.00  0.00     0.287 C 
HETATM   11  O4  UNL     1       3.717  -0.608  -1.079  1.00  0.00    -0.264 OA
HETATM   12  H22 UNL     1       1.306  -0.686  -0.938  1.00  0.00     0.191 HD
ENDROOT
BRANCH   5  13
HETATM   13  C9  UNL     1       0.639   2.619   2.090  1.00  0.00     0.010 A 
HETATM   14  C10 UNL     1      -0.468   3.183   1.443  1.00  0.00     0.017 A 
HETATM   15  C11 UNL     1      -1.260   4.119   2.114  1.00  0.00     0.025 A 
HETATM   16  C12 UNL     1      -0.932   4.502   3.415  1.00  0.00     0.034 A 
HETATM   17 CL1  UNL     1      -1.909   5.653   4.239  1.00  0.00    -0.084 Cl
HETATM   18  C13 UNL     1       0.188   3.965   4.052  1.00  0.00     0.025 A 
HETATM   19  C14 UNL     1       0.980   3.027   3.386  1.00  0.00     0.017 A 
ENDBRANCH   5  13
BRANCH   7  20
HETATM   20  C16 UNL     1      -0.933  -1.003   0.116  1.00  0.00     0.181 C 
BRANCH  20  21
HETATM   21  C17 UNL     1      -2.427  -1.185   0.245  1.00  0.00     0.094 A 
HETATM   22  N3  UNL     1      -3.189  -0.946  -0.785  1.00  0.00    -0.329 N 
HETATM   23  C18 UNL     1      -4.514  -1.182  -0.566  1.00  0.00     0.146 A 
ATOM     24  H3  UNL     1      -2.826  -0.611  -1.677  1.00  0.00     0.168 HD
HETATM   25  C19 UNL     1      -5.070  -1.628   0.612  1.00  0.00     0.101 A 
HETATM   26  N5  UNL     1      -5.577  -1.024  -1.457  1.00  0.00    -0.239 N 
HETATM   27  C20 UNL     1      -6.445  -1.735   0.388  1.00  0.00     0.042 A 
HETATM   28  C28 UNL     1      -4.222  -1.869   1.743  1.00  0.00     0.262 A 
HETATM   29  C21 UNL     1      -7.495  -2.178   1.337  1.00  0.00     0.071 C 
HETATM   30  N4  UNL     1      -6.761  -1.376  -0.861  1.00  0.00    -0.295 N 
ATOM     31  H4  UNL     1      -7.690  -1.366  -1.283  1.00  0.00     0.187 HD
HETATM   32  O3  UNL     1      -4.619  -2.218   2.848  1.00  0.00    -0.267 OA
HETATM   33  N6  UNL     1      -2.889  -1.653   1.461  1.00  0.00    -0.312 N 
HETATM   34  H21 UNL     1      -2.275  -1.689   2.266  1.00  0.00     0.170 HD
BRANCH  26  35
HETATM   35  C22 UNL     1      -5.579  -0.572  -2.813  1.00  0.00     0.058 A 
HETATM   36  C23 UNL     1      -6.803  -0.484  -3.501  1.00  0.00     0.031 A 
HETATM   37  C24 UNL     1      -6.846  -0.039  -4.824  1.00  0.00     0.002 A 
HETATM   38  C25 UNL     1      -5.670   0.323  -5.475  1.00  0.00     0.000 A 
HETATM   39  C26 UNL     1      -4.451   0.237  -4.806  1.00  0.00     0.002 A 
HETATM   40  C27 UNL     1      -4.402  -0.207  -3.479  1.00  0.00     0.031 A 
ENDBRANCH  26  35
ENDBRANCH  20  21
ENDBRANCH   7  20
BRANCH   1  41
HETATM   41  C5  UNL     1       6.001   0.128   0.577  1.00  0.00    -0.034 A 
HETATM   42  C4  UNL     1       6.679   0.444  -0.604  1.00  0.00     0.014 A 
HETATM   43  C3  UNL     1       7.695  -0.391  -1.084  1.00  0.00     0.037 A 
HETATM   44  C2  UNL     1       8.041  -1.548  -0.384  1.00  0.00     0.068 A 
HETATM   45  C31 UNL     1       7.367  -1.856   0.800  1.00  0.00     0.037 A 
HETATM   46  C30 UNL     1       6.352  -1.025   1.282  1.00  0.00     0.014 A 
BRANCH  44  47
HETATM   47  O1  UNL     1       9.006  -2.448  -0.742  1.00  0.00    -0.356 OA
HETATM   48  C1  UNL     1       9.690  -2.202  -1.965  1.00  0.00     0.210 C 
ENDBRANCH  44  47
ENDBRANCH   1  41
TORSDOF 6
