REMARK  8 active torsions:
REMARK  status: ('A' for Active; 'I' for Inactive)
REMARK    1  A    between atoms: C2_2  and  C3_3 
REMARK       I    between atoms: C3_3  and  N1_5 
REMARK    2  A    between atoms: N1_5  and  C4_6 
REMARK    3  A    between atoms: C8_10  and  C9_11 
REMARK    4  A    between atoms: C12_21  and  N5_22 
REMARK    5  A    between atoms: N5_22  and  C13_23 
REMARK    6  A    between atoms: C13_23  and  C14_24 
REMARK    7  A    between atoms: C13_23  and  C15_26 
REMARK    8  A    between atoms: C14_24  and  O3_25 
ROOT
HETATM    1  C9  UNL     1       0.197  -1.964  -1.696  1.00  0.00     0.083 A 
HETATM    2  N2  UNL     1       0.180  -2.840  -2.712  1.00  0.00    -0.257 N 
ATOM      3  H2  UNL     1       0.586  -2.717  -3.639  1.00  0.00     0.195 HD
HETATM    4  O2  UNL     1      -0.505  -3.947  -2.238  1.00  0.00    -0.218 OA
HETATM    5  C10 UNL     1      -0.895  -3.733  -0.951  1.00  0.00     0.187 A 
HETATM    6  N3  UNL     1      -1.580  -4.628  -0.227  1.00  0.00    -0.330 N 
ATOM      7  H3  UNL     1      -1.873  -5.544  -0.568  1.00  0.00     0.168 HD
HETATM    8  C11 UNL     1      -1.829  -4.163   1.000  1.00  0.00     0.183 A 
HETATM    9  N4  UNL     1      -1.473  -2.968   1.520  1.00  0.00    -0.342 N 
ATOM     10  H4  UNL     1      -1.713  -2.735   2.484  1.00  0.00     0.167 HD
HETATM   11  C12 UNL     1      -0.794  -2.080   0.752  1.00  0.00     0.098 A 
HETATM   12  C21 UNL     1      -0.468  -2.481  -0.552  1.00  0.00     0.085 A 
ENDROOT
BRANCH   1  13
HETATM   13  C8  UNL     1       0.833  -0.668  -1.843  1.00  0.00    -0.004 A 
HETATM   14  C7  UNL     1       0.187   0.350  -2.548  1.00  0.00     0.014 A 
HETATM   15  C6  UNL     1       0.772   1.611  -2.630  1.00  0.00     0.003 A 
HETATM   16  C5  UNL     1       2.002   1.858  -2.011  1.00  0.00     0.029 A 
HETATM   17  C4  UNL     1       2.666   0.846  -1.314  1.00  0.00     0.035 A 
HETATM   18  C22 UNL     1       2.075  -0.422  -1.238  1.00  0.00     0.043 A 
BRANCH  17  19
HETATM   19  N1  UNL     1       3.915   1.013  -0.677  1.00  0.00    -0.324 N 
HETATM   20  C3  UNL     1       4.636   2.183  -0.551  1.00  0.00     0.244 C 
HETATM   21  O1  UNL     1       4.300   3.302  -0.916  1.00  0.00    -0.268 OA
HETATM   22  H4  UNL     1       4.312   0.179  -0.264  1.00  0.00     0.169 HD
BRANCH  20  23
HETATM   23  C2  UNL     1       5.945   1.956   0.131  1.00  0.00     0.064 C 
HETATM   24  C1  UNL     1       6.750   2.987   0.422  1.00  0.00     0.017 C 
ENDBRANCH  20  23
ENDBRANCH  17  19
ENDBRANCH   1  13
BRANCH  11  25
HETATM   25  N5  UNL     1      -0.403  -0.857   1.302  1.00  0.00    -0.267 NA
HETATM   26  H9  UNL     1       0.068  -0.292   0.602  1.00  0.00     0.130 HD
BRANCH  25  27
HETATM   27  C13 UNL     1      -1.413  -0.017   1.985  1.00  0.00     0.118 C 
BRANCH  27  28
HETATM   28  C14 UNL     1      -1.694  -0.424   3.457  1.00  0.00     0.188 C 
BRANCH  28  29
HETATM   29  O3  UNL     1      -2.332  -1.682   3.647  1.00  0.00    -0.399 OA
HETATM   30  H13 UNL     1      -1.900  -2.288   3.007  1.00  0.00     0.209 HD
ENDBRANCH  28  29
ENDBRANCH  27  28
BRANCH  27  31
HETATM   31  C15 UNL     1      -2.594   0.284   1.073  1.00  0.00    -0.038 A 
HETATM   32  C16 UNL     1      -3.818  -0.391   1.169  1.00  0.00     0.009 A 
HETATM   33  C17 UNL     1      -4.865  -0.102   0.290  1.00  0.00     0.001 A 
HETATM   34  C18 UNL     1      -4.705   0.865  -0.698  1.00  0.00     0.000 A 
HETATM   35  C19 UNL     1      -3.495   1.544  -0.814  1.00  0.00     0.001 A 
HETATM   36  C20 UNL     1      -2.448   1.255   0.063  1.00  0.00     0.009 A 
ENDBRANCH  27  31
ENDBRANCH  25  27
ENDBRANCH  11  25
TORSDOF 8
