REMARK  6 active torsions:
REMARK  status: ('A' for Active; 'I' for Inactive)
REMARK    1  A    between atoms: C4_4  and  C5_5 
REMARK       I    between atoms: C5_5  and  N1_7 
REMARK    2  A    between atoms: C10_14  and  C11_15 
REMARK    3  A    between atoms: C16_26  and  N6_27 
REMARK    4  A    between atoms: N6_27  and  C17_28 
REMARK    5  A    between atoms: N8_36  and  C23_37 
REMARK    6  A    between atoms: C23_37  and  C24_38 
ROOT
HETATM    1  C11 UNL     1      -1.692   0.610   0.383  1.00  0.00     0.048 C 
HETATM    2  C12 UNL     1      -1.912   0.787   1.697  1.00  0.00     0.052 A 
HETATM    3  C13 UNL     1      -3.227   0.982   2.409  1.00  0.00     0.258 A 
HETATM    4  O3  UNL     1      -4.350   0.804   1.983  1.00  0.00    -0.267 OA
HETATM    5  N3  UNL     1      -2.887   1.364   3.688  1.00  0.00    -0.308 N 
HETATM    6  C14 UNL     1      -1.514   1.343   3.882  1.00  0.00     0.124 A 
HETATM    7  N4  UNL     1      -0.947   1.615   5.053  1.00  0.00    -0.338 N 
ATOM      8  H4  UNL     1      -1.471   1.893   5.883  1.00  0.00     0.168 HD
HETATM    9  C15 UNL     1       0.383   1.485   5.028  1.00  0.00     0.183 A 
HETATM   10  N5  UNL     1       1.126   1.088   3.975  1.00  0.00    -0.338 N 
ATOM     11  H5  UNL     1       2.140   1.009   4.053  1.00  0.00     0.168 HD
HETATM   12  C16 UNL     1       0.497   0.797   2.814  1.00  0.00     0.121 A 
HETATM   13  C31 UNL     1      -0.867   0.959   2.720  1.00  0.00     0.068 A 
HETATM   14  H15 UNL     1      -3.545   1.577   4.420  1.00  0.00     0.170 HD
ENDROOT
BRANCH  12  15
HETATM   15  N6  UNL     1       1.229   0.303   1.708  1.00  0.00    -0.342 N 
HETATM   16  H17 UNL     1       0.768  -0.527   1.350  1.00  0.00     0.167 HD
BRANCH  15  17
HETATM   17  C17 UNL     1       2.632   0.188   1.548  1.00  0.00     0.034 A 
HETATM   18  C18 UNL     1       3.123  -0.753   0.629  1.00  0.00     0.032 A 
HETATM   19  C19 UNL     1       4.493  -0.922   0.383  1.00  0.00     0.034 A 
HETATM   20  C20 UNL     1       5.375  -0.086   1.074  1.00  0.00     0.062 A 
HETATM   21  C21 UNL     1       4.926   0.897   1.950  1.00  0.00     0.011 A 
HETATM   22  N8  UNL     1       6.750   0.013   1.090  1.00  0.00    -0.288 N 
HETATM   23  C22 UNL     1       6.101   1.532   2.407  1.00  0.00     0.121 A 
HETATM   24  C30 UNL     1       3.544   1.049   2.176  1.00  0.00     0.044 A 
HETATM   25  N7  UNL     1       7.214   0.992   1.903  1.00  0.00    -0.308 N 
ATOM     26  H7  UNL     1       8.182   1.254   2.087  1.00  0.00     0.186 HD
BRANCH  22  27
HETATM   27  C23 UNL     1       7.701  -0.875   0.425  1.00  0.00     0.187 C 
BRANCH  27  28
HETATM   28  C24 UNL     1       7.739  -0.676  -1.072  1.00  0.00    -0.038 A 
HETATM   29  C25 UNL     1       8.017   0.585  -1.625  1.00  0.00     0.009 A 
HETATM   30  C26 UNL     1       8.063   0.757  -3.008  1.00  0.00     0.001 A 
HETATM   31  C27 UNL     1       7.847  -0.329  -3.856  1.00  0.00     0.000 A 
HETATM   32  C28 UNL     1       7.589  -1.588  -3.322  1.00  0.00     0.001 A 
HETATM   33  C29 UNL     1       7.536  -1.762  -1.938  1.00  0.00     0.009 A 
ENDBRANCH  27  28
ENDBRANCH  22  27
ENDBRANCH  15  17
ENDBRANCH  12  15
BRANCH   1  34
HETATM   34  C10 UNL     1      -2.660   0.531  -0.651  1.00  0.00     0.039 A 
HETATM   35  C2  UNL     1      -2.655   1.042  -1.940  1.00  0.00    -0.033 A 
HETATM   36  C1  UNL     1      -1.626   1.923  -2.557  1.00  0.00     0.050 C 
HETATM   37  C3  UNL     1      -3.815   0.535  -2.583  1.00  0.00     0.044 A 
HETATM   38  C4  UNL     1      -4.510  -0.269  -1.694  1.00  0.00     0.102 A 
HETATM   39  N2  UNL     1      -3.790  -0.243  -0.520  1.00  0.00    -0.351 N 
HETATM   40  H13 UNL     1      -4.036  -0.755   0.316  1.00  0.00     0.166 HD
BRANCH  38  41
HETATM   41  C5  UNL     1      -5.683  -1.073  -2.000  1.00  0.00     0.270 C 
HETATM   42  O1  UNL     1      -5.867  -1.489  -3.145  1.00  0.00    -0.266 OA
HETATM   43  N1  UNL     1      -6.585  -1.391  -0.978  1.00  0.00    -0.343 N 
HETATM   44  C6  UNL     1      -7.714  -2.269  -1.308  1.00  0.00     0.152 C 
HETATM   45  C9  UNL     1      -6.833  -0.501   0.165  1.00  0.00     0.152 C 
HETATM   46  C7  UNL     1      -9.041  -1.507  -1.199  1.00  0.00     0.187 C 
HETATM   47  O2  UNL     1      -9.269  -0.904   0.085  1.00  0.00    -0.388 OA
HETATM   48  C8  UNL     1      -8.111  -0.880   0.927  1.00  0.00     0.187 C 
ENDBRANCH  38  41
ENDBRANCH   1  34
TORSDOF 6
