REMARK  8 active torsions:
REMARK  status: ('A' for Active; 'I' for Inactive)
REMARK    1  A    between atoms: C2_2  and  C3_3 
REMARK       I    between atoms: C3_3  and  N1_5 
REMARK    2  A    between atoms: N1_5  and  C4_6 
REMARK    3  A    between atoms: C8_10  and  C9_11 
REMARK    4  A    between atoms: C13_20  and  N4_21 
REMARK    5  A    between atoms: N4_21  and  C14_22 
REMARK    6  A    between atoms: C14_22  and  C15_23 
REMARK    7  A    between atoms: C14_22  and  C16_25 
REMARK    8  A    between atoms: C15_23  and  O3_24 
ROOT
HETATM    1  C9  UNL     1      -0.127   1.126   2.652  1.00  0.00     0.014 A 
HETATM    2  C10 UNL     1      -0.284   2.298   3.359  1.00  0.00     0.157 A 
HETATM    3  O2  UNL     1      -1.600   2.548   3.580  1.00  0.00    -0.304 OA
HETATM    4  C11 UNL     1      -2.306   1.528   3.013  1.00  0.00     0.162 A 
HETATM    5  N2  UNL     1      -3.642   1.461   3.061  1.00  0.00    -0.332 N 
ATOM      6  H2  UNL     1      -4.239   2.156   3.509  1.00  0.00     0.168 HD
HETATM    7  C12 UNL     1      -4.091   0.364   2.445  1.00  0.00     0.183 A 
HETATM    8  N3  UNL     1      -3.374  -0.595   1.827  1.00  0.00    -0.342 N 
ATOM      9  H3  UNL     1      -3.842  -1.394   1.398  1.00  0.00     0.167 HD
HETATM   10  C13 UNL     1      -2.025  -0.486   1.782  1.00  0.00     0.097 A 
HETATM   11  C22 UNL     1      -1.440   0.622   2.417  1.00  0.00     0.067 A 
ENDROOT
BRANCH   1  12
HETATM   12  C8  UNL     1       1.164   0.580   2.303  1.00  0.00    -0.021 A 
HETATM   13  C7  UNL     1       1.827  -0.252   3.209  1.00  0.00     0.012 A 
HETATM   14  C6  UNL     1       3.057  -0.806   2.867  1.00  0.00     0.003 A 
HETATM   15  C5  UNL     1       3.620  -0.537   1.618  1.00  0.00     0.029 A 
HETATM   16  C4  UNL     1       2.960   0.287   0.695  1.00  0.00     0.035 A 
HETATM   17  C23 UNL     1       1.729   0.847   1.047  1.00  0.00     0.042 A 
BRANCH  16  18
HETATM   18  N1  UNL     1       3.599   0.490  -0.548  1.00  0.00    -0.324 N 
HETATM   19  C3  UNL     1       3.126   1.215  -1.623  1.00  0.00     0.244 C 
HETATM   20  O1  UNL     1       2.054   1.797  -1.705  1.00  0.00    -0.268 OA
HETATM   21  H4  UNL     1       4.504   0.051  -0.649  1.00  0.00     0.169 HD
BRANCH  19  22
HETATM   22  C2  UNL     1       4.092   1.216  -2.760  1.00  0.00     0.064 C 
HETATM   23  C1  UNL     1       3.809   1.874  -3.892  1.00  0.00     0.017 C 
ENDBRANCH  19  22
ENDBRANCH  16  18
ENDBRANCH   1  12
BRANCH  10  24
HETATM   24  N4  UNL     1      -1.262  -1.463   1.138  1.00  0.00    -0.267 NA
HETATM   25  H10 UNL     1      -0.320  -1.134   0.957  1.00  0.00     0.130 HD
BRANCH  24  26
HETATM   26  C14 UNL     1      -1.885  -2.114  -0.019  1.00  0.00     0.118 C 
BRANCH  26  27
HETATM   27  C15 UNL     1      -1.070  -3.379  -0.394  1.00  0.00     0.188 C 
BRANCH  27  28
HETATM   28  O3  UNL     1      -1.701  -4.161  -1.410  1.00  0.00    -0.399 OA
HETATM   29  H14 UNL     1      -1.805  -3.587  -2.191  1.00  0.00     0.209 HD
ENDBRANCH  27  28
ENDBRANCH  26  27
BRANCH  26  30
HETATM   30  C16 UNL     1      -1.968  -1.150  -1.200  1.00  0.00    -0.038 A 
HETATM   31  C17 UNL     1      -3.221  -0.849  -1.759  1.00  0.00     0.009 A 
HETATM   32  C18 UNL     1      -3.330   0.032  -2.835  1.00  0.00     0.001 A 
HETATM   33  C19 UNL     1      -2.189   0.632  -3.364  1.00  0.00     0.000 A 
HETATM   34  C20 UNL     1      -0.940   0.349  -2.818  1.00  0.00     0.001 A 
HETATM   35  C21 UNL     1      -0.827  -0.539  -1.746  1.00  0.00     0.009 A 
ENDBRANCH  26  30
ENDBRANCH  24  26
ENDBRANCH  10  24
TORSDOF 8
