REMARK  10 active torsions:
REMARK  status: ('A' for Active; 'I' for Inactive)
REMARK       I    between atoms: C1_2  and  N1_3 
REMARK    1  A    between atoms: C1_2  and  C5_10 
REMARK    2  A    between atoms: N1_3  and  C2_4 
REMARK    3  A    between atoms: C5_10  and  C6_11 
REMARK    4  A    between atoms: C5_10  and  N5_20 
REMARK    5  A    between atoms: C16_26  and  C17_27 
REMARK    6  A    between atoms: C18_28  and  C19_29 
REMARK    7  A    between atoms: C22_32  and  C23_33 
REMARK    8  A    between atoms: C23_33  and  N6_34 
REMARK    9  A    between atoms: C26_37  and  C27_38 
REMARK   10  A    between atoms: C27_38  and  O2_39 
ROOT
HETATM    1  N5  UNL     1      -5.476   0.405  -1.351  1.00  0.00    -0.325 N 
HETATM    2  C12 UNL     1      -4.875   0.762  -2.625  1.00  0.00     0.170 C 
HETATM    3  C13 UNL     1      -3.425   0.588  -2.352  1.00  0.00     0.014 A 
HETATM    4  C14 UNL     1      -2.347   0.711  -3.196  1.00  0.00     0.126 A 
HETATM    5  F1  UNL     1      -2.528   0.997  -4.491  1.00  0.00    -0.205 F 
HETATM    6  C15 UNL     1      -1.058   0.538  -2.692  1.00  0.00     0.063 A 
HETATM    7  C16 UNL     1      -0.863   0.245  -1.329  1.00  0.00     0.022 A 
HETATM    8  C32 UNL     1      -1.956   0.116  -0.466  1.00  0.00     0.038 A 
HETATM    9  C33 UNL     1      -3.216   0.290  -1.010  1.00  0.00     0.044 A 
HETATM   10  C34 UNL     1      -4.527   0.227  -0.355  1.00  0.00     0.255 C 
HETATM   11  O3  UNL     1      -4.689   0.057   0.837  1.00  0.00    -0.267 OA
ENDROOT
BRANCH   1  12
HETATM   12  C5  UNL     1      -6.879   0.711  -1.066  1.00  0.00     0.232 C 
BRANCH  12  13
HETATM   13  C1  UNL     1      -6.990   2.130  -0.436  1.00  0.00     0.252 C 
HETATM   14  O1  UNL     1      -6.227   3.028  -0.808  1.00  0.00    -0.270 OA
HETATM   15  N1  UNL     1      -8.028   2.296   0.450  1.00  0.00    -0.305 N 
HETATM   16  H1  UNL     1      -8.581   1.483   0.718  1.00  0.00     0.171 HD
BRANCH  15  17
HETATM   17  C2  UNL     1      -8.308   3.474   1.075  1.00  0.00     0.150 A 
HETATM   18  N2  UNL     1      -7.745   4.647   0.942  1.00  0.00    -0.346 N 
HETATM   19  C3  UNL     1      -8.362   5.548   1.786  1.00  0.00     0.097 A 
ATOM     20  H2  UNL     1      -6.971   4.862   0.313  1.00  0.00     0.167 HD
HETATM   21  C4  UNL     1      -9.400   5.042   2.541  1.00  0.00     0.070 A 
HETATM   22  S1  UNL     1      -9.601   3.375   2.189  1.00  0.00    -0.064 SA
ENDBRANCH  15  17
ENDBRANCH  12  13
BRANCH  12  23
HETATM   23  C6  UNL     1      -7.564  -0.417  -0.332  1.00  0.00     0.065 A 
HETATM   24  N3  UNL     1      -8.765  -0.213   0.371  1.00  0.00    -0.352 N 
HETATM   25  C7  UNL     1      -9.119  -1.384   0.871  1.00  0.00     0.183 A 
ATOM     26  H3  UNL     1      -9.266   0.669   0.475  1.00  0.00     0.166 HD
HETATM   27  N4  UNL     1      -8.227  -2.318   0.509  1.00  0.00    -0.345 N 
HETATM   28  C8  UNL     1      -7.265  -1.758  -0.270  1.00  0.00     0.037 A 
HETATM   29  C11 UNL     1      -8.062  -3.741   0.703  1.00  0.00     0.130 C 
HETATM   30  C9  UNL     1      -6.290  -2.769  -0.716  1.00  0.00     0.061 C 
HETATM   31  C10 UNL     1      -7.042  -4.089  -0.397  1.00  0.00     0.026 C 
ENDBRANCH  12  23
ENDBRANCH   1  12
BRANCH   7  32
HETATM   32  C17 UNL     1       0.466   0.094  -0.823  1.00  0.00    -0.061 C 
HETATM   33  C18 UNL     1       1.586  -0.012  -0.402  1.00  0.00    -0.061 C 
BRANCH  33  34
HETATM   34  C19 UNL     1       2.923  -0.115   0.096  1.00  0.00     0.018 A 
HETATM   35  C20 UNL     1       3.631  -1.311  -0.032  1.00  0.00     0.021 A 
HETATM   36  C21 UNL     1       4.939  -1.402   0.449  1.00  0.00     0.010 A 
HETATM   37  C22 UNL     1       5.558  -0.299   1.057  1.00  0.00    -0.030 A 
HETATM   38  C30 UNL     1       4.832   0.893   1.191  1.00  0.00     0.010 A 
HETATM   39  C31 UNL     1       3.523   0.985   0.710  1.00  0.00     0.021 A 
BRANCH  37  40
HETATM   40  C23 UNL     1       6.969  -0.404   1.601  1.00  0.00     0.311 C 
BRANCH  40  41
HETATM   41  N6  UNL     1       7.932  -0.953   0.634  1.00  0.00     0.092 N 
HETATM   42  C24 UNL     1       8.187  -0.054  -0.501  1.00  0.00     0.273 C 
HETATM   43  C25 UNL     1       9.582   0.573  -0.492  1.00  0.00     0.037 C 
HETATM   44  C26 UNL     1      10.678  -0.505  -0.506  1.00  0.00     0.012 C 
HETATM   45  C28 UNL     1      10.266  -1.730   0.331  1.00  0.00     0.037 C 
HETATM   46  C29 UNL     1       9.152  -1.399   1.322  1.00  0.00     0.273 C 
BRANCH  44  47
HETATM   47  C27 UNL     1      12.033   0.062  -0.068  1.00  0.00     0.168 C 
BRANCH  47  48
HETATM   48  O2  UNL     1      12.037   0.420   1.308  1.00  0.00    -0.400 OA
HETATM   49  H26 UNL     1      11.558   1.261   1.396  1.00  0.00     0.209 HD
ENDBRANCH  47  48
ENDBRANCH  44  47
ENDBRANCH  40  41
ENDBRANCH  37  40
ENDBRANCH  33  34
ENDBRANCH   7  32
TORSDOF 10
