REMARK  4 active torsions:
REMARK  status: ('A' for Active; 'I' for Inactive)
REMARK    1  A    between atoms: C4_4  and  C5_5 
REMARK    2  A    between atoms: C10_16  and  N4_17 
REMARK    3  A    between atoms: N4_17  and  C11_18 
REMARK    4  A    between atoms: C18_28  and  C19_29 
REMARK       I    between atoms: C19_29  and  N6_31 
ROOT
HETATM    1  C5  UNL     1      -1.419   0.409   0.164  1.00  0.00     0.047 C 
HETATM    2  C6  UNL     1      -1.742  -0.309   1.253  1.00  0.00     0.052 A 
HETATM    3  C7  UNL     1      -0.853  -0.851   2.347  1.00  0.00     0.258 A 
HETATM    4  O1  UNL     1       0.331  -0.643   2.529  1.00  0.00    -0.267 OA
HETATM    5  N1  UNL     1      -1.670  -1.640   3.124  1.00  0.00    -0.308 N 
HETATM    6  C8  UNL     1      -2.979  -1.621   2.673  1.00  0.00     0.124 A 
HETATM    7  N2  UNL     1      -3.957  -2.290   3.276  1.00  0.00    -0.338 N 
ATOM      8  H2  UNL     1      -3.813  -2.882   4.094  1.00  0.00     0.168 HD
HETATM    9  C9  UNL     1      -5.148  -2.106   2.698  1.00  0.00     0.183 A 
HETATM   10  N3  UNL     1      -5.402  -1.321   1.632  1.00  0.00    -0.338 N 
ATOM     11  H3  UNL     1      -6.348  -1.236   1.260  1.00  0.00     0.168 HD
HETATM   12  C10 UNL     1      -4.374  -0.649   1.067  1.00  0.00     0.121 A 
HETATM   13  C17 UNL     1      -3.098  -0.804   1.561  1.00  0.00     0.068 A 
HETATM   14  H6  UNL     1      -1.370  -2.147   3.941  1.00  0.00     0.170 HD
ENDROOT
BRANCH   1  15
HETATM   15  C4  UNL     1      -0.157   0.917  -0.247  1.00  0.00     0.034 A 
HETATM   16  C3  UNL     1       0.214   1.521  -1.437  1.00  0.00     0.038 A 
HETATM   17  C2  UNL     1       1.586   1.886  -1.357  1.00  0.00    -0.028 A 
HETATM   18  C1  UNL     1       2.379   2.579  -2.406  1.00  0.00     0.050 C 
HETATM   19  C18 UNL     1       2.033   1.466  -0.113  1.00  0.00     0.107 A 
HETATM   20  N5  UNL     1       0.960   0.919   0.551  1.00  0.00    -0.351 N 
HETATM   21  H12 UNL     1       1.022   0.533   1.489  1.00  0.00     0.166 HD
BRANCH  19  22
HETATM   22  C19 UNL     1       3.341   1.584   0.490  1.00  0.00     0.271 C 
HETATM   23  O2  UNL     1       3.600   2.489   1.278  1.00  0.00    -0.266 OA
HETATM   24  N6  UNL     1       4.274   0.611   0.146  1.00  0.00    -0.343 N 
HETATM   25  C20 UNL     1       3.995  -0.545  -0.714  1.00  0.00     0.156 C 
HETATM   26  C24 UNL     1       5.590   0.630   0.786  1.00  0.00     0.156 C 
HETATM   27  C21 UNL     1       5.288  -1.206  -1.223  1.00  0.00     0.291 C 
HETATM   28  N7  UNL     1       6.171  -1.674  -0.138  1.00  0.00     0.087 N 
HETATM   29  C22 UNL     1       7.532  -1.877  -0.626  1.00  0.00     0.310 C 
HETATM   30  C23 UNL     1       6.133  -0.788   1.044  1.00  0.00     0.291 C 
ENDBRANCH  19  22
ENDBRANCH   1  15
BRANCH  12  31
HETATM   31  N4  UNL     1      -4.621   0.240  -0.005  1.00  0.00    -0.342 N 
HETATM   32  H8  UNL     1      -4.255   1.157   0.238  1.00  0.00     0.167 HD
BRANCH  31  33
HETATM   33  C11 UNL     1      -5.783   0.349  -0.804  1.00  0.00     0.035 A 
HETATM   34  C12 UNL     1      -6.037   1.562  -1.470  1.00  0.00     0.032 A 
HETATM   35  C13 UNL     1      -7.140   1.703  -2.316  1.00  0.00     0.046 A 
HETATM   36  C14 UNL     1      -7.986   0.621  -2.527  1.00  0.00     0.138 A 
HETATM   37  F1  UNL     1      -9.039   0.776  -3.342  1.00  0.00    -0.204 F 
HETATM   38  C15 UNL     1      -7.730  -0.601  -1.912  1.00  0.00     0.074 A 
HETATM   39 CL1  UNL     1      -8.760  -1.954  -2.190  1.00  0.00    -0.081 Cl
HETATM   40  C16 UNL     1      -6.627  -0.740  -1.067  1.00  0.00     0.056 A 
ENDBRANCH  31  33
ENDBRANCH  12  31
TORSDOF 4
