REMARK  2 active torsions:
REMARK  status: ('A' for Active; 'I' for Inactive)
REMARK    1  A    between atoms: C22_33  and  C23_34 
REMARK    2  A    between atoms: C23_34  and  N7_35 
ROOT
HETATM    1  C1  UNL     1       7.227   3.744  -1.643  1.00  0.00     0.068 C 
HETATM    2  C2  UNL     1       6.213   2.892  -0.939  1.00  0.00     0.006 A 
HETATM    3  C3  UNL     1       4.944   3.386  -0.678  1.00  0.00     0.041 A 
HETATM    4  C4  UNL     1       4.039   2.559  -0.019  1.00  0.00     0.036 A 
HETATM    5  C5  UNL     1       4.428   1.276   0.372  1.00  0.00     0.047 A 
HETATM    6  C6  UNL     1       5.702   0.838   0.052  1.00  0.00     0.049 A 
HETATM    7  N1  UNL     1       6.590   1.637  -0.595  1.00  0.00    -0.359 N 
ATOM      8  H1  UNL     1       7.526   1.297  -0.818  1.00  0.00     0.166 HD
HETATM    9  C7  UNL     1       6.184  -0.506   0.333  1.00  0.00     0.060 A 
HETATM   10  C8  UNL     1       7.406  -1.089  -0.088  1.00  0.00     0.125 A 
HETATM   11  N2  UNL     1       7.566  -2.345   0.336  1.00  0.00    -0.307 N 
ATOM     12  H2  UNL     1       8.339  -2.984   0.148  1.00  0.00     0.186 HD
HETATM   13  N3  UNL     1       6.460  -2.563   1.071  1.00  0.00    -0.275 N 
HETATM   14  C9  UNL     1       6.316  -3.823   1.757  1.00  0.00     0.180 C 
HETATM   15  C10 UNL     1       5.568  -1.516   1.057  1.00  0.00     0.173 A 
HETATM   16  O1  UNL     1       4.420  -1.580   1.737  1.00  0.00    -0.334 OA
HETATM   17  C11 UNL     1       3.310  -2.075   0.976  1.00  0.00     0.177 C 
HETATM   18  C12 UNL     1       2.091  -2.056   1.899  1.00  0.00     0.027 C 
HETATM   19  C13 UNL     1       0.765  -2.286   1.168  1.00  0.00     0.008 C 
HETATM   20  C14 UNL     1       0.237  -1.049   0.403  1.00  0.00     0.001 C 
HETATM   21  C15 UNL     1      -0.868  -1.492  -0.567  1.00  0.00     0.011 C 
HETATM   22  C16 UNL     1      -0.290   0.035   1.373  1.00  0.00     0.152 C 
HETATM   23  N4  UNL     1      -0.490   1.300   0.697  1.00  0.00    -0.180 N 
HETATM   24  C17 UNL     1       0.516   2.216   0.354  1.00  0.00     0.688 A 
HETATM   25  N5  UNL     1       1.768   2.065   0.638  1.00  0.00    -0.155 N 
ATOM     26  H5  UNL     1       2.094   1.248   1.155  1.00  0.00     0.187 HD
HETATM   27  C18 UNL     1       2.647   3.036   0.224  1.00  0.00     0.270 C 
HETATM   28  O2  UNL     1       2.371   4.217   0.040  1.00  0.00    -0.267 OA
HETATM   29  N6  UNL     1      -0.115   3.266  -0.312  1.00  0.00    -0.189 N 
HETATM   30  C19 UNL     1      -1.497   3.086  -0.239  1.00  0.00     0.076 A 
HETATM   31  C20 UNL     1      -2.517   3.862  -0.738  1.00  0.00     0.033 A 
HETATM   32  C21 UNL     1      -3.822   3.377  -0.598  1.00  0.00     0.011 A 
HETATM   33  C22 UNL     1      -4.082   2.125   0.009  1.00  0.00    -0.028 A 
HETATM   34  C29 UNL     1      -3.014   1.354   0.506  1.00  0.00     0.041 A 
HETATM   35  C30 UNL     1      -1.732   1.832   0.355  1.00  0.00     0.079 A 
HETATM   36  H22 UNL     1       0.332   4.170  -0.360  1.00  0.00     0.184 HD
ENDROOT
BRANCH  33  37
HETATM   37  C23 UNL     1      -5.514   1.643   0.162  1.00  0.00     0.311 C 
BRANCH  37  38
HETATM   38  N7  UNL     1      -5.681   0.204  -0.074  1.00  0.00     0.096 N 
HETATM   39  C24 UNL     1      -6.994  -0.270   0.405  1.00  0.00     0.303 C 
HETATM   40  C25 UNL     1      -7.495  -1.591  -0.242  1.00  0.00     0.302 C 
HETATM   41  N8  UNL     1      -6.397  -2.444  -0.706  1.00  0.00     0.087 N 
HETATM   42  C26 UNL     1      -6.874  -3.708  -1.249  1.00  0.00     0.310 C 
HETATM   43  C27 UNL     1      -5.545  -1.724  -1.672  1.00  0.00     0.302 C 
HETATM   44  C28 UNL     1      -5.483  -0.183  -1.477  1.00  0.00     0.303 C 
ENDBRANCH  37  38
ENDBRANCH  33  37
TORSDOF 2
