REMARK  9 active torsions:
REMARK  status: ('A' for Active; 'I' for Inactive)
REMARK    1  A    between atoms: O1_2  and  N1_3 
REMARK       I    between atoms: N1_3  and  C2_4 
REMARK    2  A    between atoms: C2_4  and  C3_6 
REMARK    3  A    between atoms: C5_8  and  N2_9 
REMARK    4  A    between atoms: N2_9  and  C6_10 
REMARK    5  A    between atoms: C9_18  and  N6_19 
REMARK       I    between atoms: N6_19  and  C10_20 
REMARK    6  A    between atoms: C10_20  and  O4_22 
REMARK    7  A    between atoms: O4_22  and  C11_23 
REMARK    8  A    between atoms: C11_23  and  C12_24 
REMARK    9  A    between atoms: C16_29  and  C17_30 
ROOT
HETATM    1  C6  UNL     1       1.584   0.506  -2.019  1.00  0.00     0.136 A 
HETATM    2  N3  UNL     1       2.120   0.648  -3.199  1.00  0.00    -0.336 N 
ATOM      3  H3  UNL     1       3.107   0.428  -3.335  1.00  0.00     0.168 HD
HETATM    4  C7  UNL     1       1.376   1.087  -4.252  1.00  0.00     0.199 A 
HETATM    5  N4  UNL     1       0.127   1.412  -4.227  1.00  0.00    -0.289 N 
ATOM      6  H4  UNL     1      -0.384   1.728  -5.051  1.00  0.00     0.188 HD
HETATM    7  N5  UNL     1      -0.436   1.295  -3.017  1.00  0.00    -0.260 N 
HETATM    8  C8  UNL     1      -1.741   1.579  -2.764  1.00  0.00     0.147 C 
HETATM    9  C9  UNL     1      -1.993   1.331  -1.437  1.00  0.00     0.063 C 
HETATM   10  C16 UNL     1      -0.729   1.005  -0.815  1.00  0.00     0.006 C 
HETATM   11  C20 UNL     1       0.195   0.894  -1.869  1.00  0.00     0.109 A 
ENDROOT
BRANCH   1  12
HETATM   12  N2  UNL     1       2.350   0.025  -0.980  1.00  0.00    -0.338 N 
HETATM   13  H6  UNL     1       2.009   0.169  -0.047  1.00  0.00     0.167 HD
BRANCH  12  14
HETATM   14  C5  UNL     1       3.623  -0.574  -1.044  1.00  0.00     0.073 A 
HETATM   15  C4  UNL     1       4.543  -0.284  -0.022  1.00  0.00     0.053 A 
HETATM   16  C3  UNL     1       5.857  -0.785  -0.054  1.00  0.00     0.074 A 
HETATM   17  C23 UNL     1       6.245  -1.588  -1.126  1.00  0.00     0.135 A 
HETATM   18  C22 UNL     1       5.353  -1.899  -2.144  1.00  0.00     0.088 A 
HETATM   19  F2  UNL     1       7.483  -2.101  -1.193  1.00  0.00    -0.205 F 
HETATM   20  C21 UNL     1       4.057  -1.391  -2.100  1.00  0.00     0.146 A 
HETATM   21  F1  UNL     1       3.211  -1.773  -3.067  1.00  0.00    -0.204 F 
BRANCH  16  22
HETATM   22  C2  UNL     1       6.774  -0.426   1.064  1.00  0.00     0.278 C 
HETATM   23  N1  UNL     1       8.100  -0.779   0.919  1.00  0.00    -0.231 N 
HETATM   24  H4  UNL     1       8.355  -1.527   0.280  1.00  0.00     0.197 HD
HETATM   25  O2  UNL     1       6.314   0.156   2.043  1.00  0.00    -0.265 OA
BRANCH  23  26
HETATM   26  O1  UNL     1       8.837  -0.771   2.129  1.00  0.00    -0.282 OA
HETATM   27  C1  UNL     1       9.641   0.403   2.156  1.00  0.00     0.237 C 
ENDBRANCH  23  26
ENDBRANCH  16  22
ENDBRANCH  12  14
ENDBRANCH   1  12
BRANCH  10  28
HETATM   28  C17 UNL     1      -0.518   0.903   0.683  1.00  0.00     0.015 C 
HETATM   29  C18 UNL     1       0.487   1.923   1.228  1.00  0.00     0.015 C 
HETATM   30  C19 UNL     1      -0.271  -0.521   1.178  1.00  0.00     0.015 C 
ENDBRANCH  10  28
BRANCH   9  31
HETATM   31  N6  UNL     1      -3.279   1.474  -0.951  1.00  0.00    -0.301 N 
HETATM   32  C10 UNL     1      -3.854   0.824   0.104  1.00  0.00     0.365 C 
HETATM   33  O3  UNL     1      -3.361  -0.016   0.841  1.00  0.00    -0.238 OA
HETATM   34  H9  UNL     1      -3.961   1.901  -1.564  1.00  0.00     0.171 HD
BRANCH  32  35
HETATM   35  O4  UNL     1      -5.149   1.229   0.184  1.00  0.00    -0.301 OA
BRANCH  35  36
HETATM   36  C11 UNL     1      -5.947   0.580   1.192  1.00  0.00     0.212 C 
BRANCH  36  37
HETATM   37  C12 UNL     1      -6.440  -0.787   0.698  1.00  0.00     0.145 C 
HETATM   38  C13 UNL     1      -7.196  -1.559   1.768  1.00  0.00     0.036 C 
HETATM   39  C14 UNL     1      -8.627  -1.146   1.537  1.00  0.00     0.029 C 
HETATM   40  C15 UNL     1      -8.674  -1.017   0.032  1.00  0.00     0.168 C 
HETATM   41  O5  UNL     1      -7.374  -0.581  -0.385  1.00  0.00    -0.384 OA
ENDBRANCH  36  37
ENDBRANCH  35  36
ENDBRANCH  32  35
ENDBRANCH   9  31
TORSDOF 9
