REMARK  8 active torsions:
REMARK  status: ('A' for Active; 'I' for Inactive)
REMARK    1  A    between atoms: C2_2  and  C3_3 
REMARK       I    between atoms: C3_3  and  N1_5 
REMARK    2  A    between atoms: N1_5  and  C4_6 
REMARK    3  A    between atoms: C8_10  and  C9_11 
REMARK    4  A    between atoms: C14_21  and  N4_22 
REMARK    5  A    between atoms: N4_22  and  C15_23 
REMARK    6  A    between atoms: C15_23  and  C16_24 
REMARK    7  A    between atoms: C15_23  and  C17_26 
REMARK    8  A    between atoms: C16_24  and  O3_25 
ROOT
HETATM    1  C9  UNL     1       0.516  -2.884   0.268  1.00  0.00     0.021 A 
HETATM    2  C10 UNL     1       0.867  -4.222   0.229  1.00  0.00     0.063 A 
HETATM    3  C11 UNL     1       1.992  -5.010   0.777  1.00  0.00     0.077 C 
HETATM    4  O2  UNL     1      -0.049  -4.925  -0.498  1.00  0.00    -0.297 OA
HETATM    5  C12 UNL     1      -0.985  -4.043  -0.946  1.00  0.00     0.163 A 
HETATM    6  N2  UNL     1      -2.016  -4.410  -1.718  1.00  0.00    -0.332 N 
ATOM      7  H2  UNL     1      -2.198  -5.367  -2.020  1.00  0.00     0.168 HD
HETATM    8  C13 UNL     1      -2.776  -3.359  -2.042  1.00  0.00     0.183 A 
HETATM    9  N3  UNL     1      -2.615  -2.072  -1.673  1.00  0.00    -0.342 N 
ATOM     10  H3  UNL     1      -3.266  -1.356  -1.996  1.00  0.00     0.167 HD
HETATM   11  C14 UNL     1      -1.578  -1.745  -0.869  1.00  0.00     0.097 A 
HETATM   12  C23 UNL     1      -0.691  -2.767  -0.492  1.00  0.00     0.067 A 
ENDROOT
BRANCH   1  13
HETATM   13  C8  UNL     1       1.288  -1.851   0.934  1.00  0.00    -0.020 A 
HETATM   14  C7  UNL     1       1.542  -1.917   2.305  1.00  0.00     0.012 A 
HETATM   15  C6  UNL     1       2.207  -0.868   2.938  1.00  0.00     0.003 A 
HETATM   16  C5  UNL     1       2.606   0.259   2.212  1.00  0.00     0.029 A 
HETATM   17  C4  UNL     1       2.359   0.341   0.842  1.00  0.00     0.035 A 
HETATM   18  C24 UNL     1       1.721  -0.732   0.207  1.00  0.00     0.042 A 
BRANCH  17  19
HETATM   19  N1  UNL     1       2.678   1.458   0.043  1.00  0.00    -0.324 N 
HETATM   20  C3  UNL     1       3.265   2.635   0.446  1.00  0.00     0.244 C 
HETATM   21  O1  UNL     1       3.713   2.906   1.553  1.00  0.00    -0.268 OA
HETATM   22  H4  UNL     1       2.444   1.382  -0.938  1.00  0.00     0.169 HD
BRANCH  20  23
HETATM   23  C2  UNL     1       3.397   3.650  -0.637  1.00  0.00     0.064 C 
HETATM   24  C1  UNL     1       2.531   3.829  -1.645  1.00  0.00     0.017 C 
ENDBRANCH  20  23
ENDBRANCH  17  19
ENDBRANCH   1  13
BRANCH  11  25
HETATM   25  N4  UNL     1      -1.384  -0.426  -0.471  1.00  0.00    -0.267 NA
HETATM   26  H12 UNL     1      -0.947  -0.383   0.449  1.00  0.00     0.130 HD
BRANCH  25  27
HETATM   27  C15 UNL     1      -2.496   0.524  -0.614  1.00  0.00     0.118 C 
BRANCH  27  28
HETATM   28  C16 UNL     1      -2.471   1.144  -2.036  1.00  0.00     0.188 C 
BRANCH  28  29
HETATM   29  O3  UNL     1      -1.124   1.373  -2.481  1.00  0.00    -0.399 OA
HETATM   30  H16 UNL     1      -0.653   0.575  -2.167  1.00  0.00     0.209 HD
ENDBRANCH  28  29
ENDBRANCH  27  28
BRANCH  27  31
HETATM   31  C17 UNL     1      -2.347   1.577   0.481  1.00  0.00    -0.038 A 
HETATM   32  C18 UNL     1      -3.309   1.667   1.500  1.00  0.00     0.009 A 
HETATM   33  C19 UNL     1      -3.169   2.595   2.534  1.00  0.00     0.001 A 
HETATM   34  C20 UNL     1      -2.063   3.441   2.569  1.00  0.00     0.000 A 
HETATM   35  C21 UNL     1      -1.096   3.361   1.571  1.00  0.00     0.001 A 
HETATM   36  C22 UNL     1      -1.237   2.438   0.534  1.00  0.00     0.009 A 
ENDBRANCH  27  31
ENDBRANCH  25  27
ENDBRANCH  11  25
TORSDOF 8
