REMARK  6 active torsions:
REMARK  status: ('A' for Active; 'I' for Inactive)
REMARK    1  A    between atoms: C2_2  and  C3_3 
REMARK       I    between atoms: C3_3  and  N1_5 
REMARK    2  A    between atoms: C13_17  and  C14_18 
REMARK    3  A    between atoms: C17_23  and  N4_24 
REMARK    4  A    between atoms: N4_24  and  C18_25 
REMARK    5  A    between atoms: C23_30  and  O3_31 
REMARK    6  A    between atoms: O3_31  and  C24_32 
ROOT
HETATM    1  C3  UNL     1      -8.021   0.929   0.650  1.00  0.00     0.242 C 
HETATM    2  O1  UNL     1      -8.841   0.018   0.747  1.00  0.00    -0.268 OA
HETATM    3  N1  UNL     1      -6.658   0.745   0.810  1.00  0.00    -0.349 N 
HETATM    4  C4  UNL     1      -5.691   1.801   1.092  1.00  0.00     0.127 C 
HETATM    5  C5  UNL     1      -4.451   1.663   0.208  1.00  0.00     0.037 C 
HETATM    6  C6  UNL     1      -4.052   0.184  -0.061  1.00  0.00     0.022 C 
HETATM    7  C7  UNL     1      -4.674  -0.741   1.007  1.00  0.00     0.037 C 
HETATM    8  C8  UNL     1      -6.199  -0.621   1.040  1.00  0.00     0.127 C 
HETATM    9  C9  UNL     1      -4.550  -0.253  -1.487  1.00  0.00     0.139 C 
HETATM   10  N2  UNL     1      -3.743   0.269  -2.588  1.00  0.00    -0.356 N 
HETATM   11  C10 UNL     1      -2.361   0.252  -2.567  1.00  0.00     0.253 C 
HETATM   12  O2  UNL     1      -1.706   0.371  -3.595  1.00  0.00    -0.268 OA
HETATM   13  C11 UNL     1      -1.780   0.101  -1.242  1.00  0.00     0.057 A 
HETATM   14  C12 UNL     1      -0.430  -0.015  -0.835  1.00  0.00     0.051 A 
HETATM   15  C13 UNL     1      -0.389  -0.115   0.552  1.00  0.00     0.061 A 
HETATM   16  N6  UNL     1      -1.702  -0.062   0.981  1.00  0.00    -0.356 N 
HETATM   17  C27 UNL     1      -2.545   0.064  -0.092  1.00  0.00     0.036 A 
HETATM   18  H14 UNL     1      -4.119   0.245  -3.527  1.00  0.00     0.162 HD
HETATM   19  H30 UNL     1      -1.996  -0.110   1.946  1.00  0.00     0.166 HD
ENDROOT
BRANCH  15  20
HETATM   20  C14 UNL     1       0.771  -0.248   1.439  1.00  0.00     0.077 A 
HETATM   21  C15 UNL     1       0.683  -0.248   2.812  1.00  0.00     0.050 A 
HETATM   22  C16 UNL     1       1.876  -0.377   3.476  1.00  0.00     0.108 A 
HETATM   23  N3  UNL     1       3.062  -0.498   2.858  1.00  0.00    -0.202 N 
HETATM   24  C17 UNL     1       3.064  -0.489   1.517  1.00  0.00     0.683 A 
ATOM     25  H3  UNL     1       3.928  -0.593   3.388  1.00  0.00     0.183 HD
HETATM   26  N5  UNL     1       1.944  -0.367   0.788  1.00  0.00    -0.189 N 
ATOM     27  H5  UNL     1       1.980  -0.364  -0.231  1.00  0.00     0.184 HD
BRANCH  24  28
HETATM   28  N4  UNL     1       4.234  -0.607   0.783  1.00  0.00    -0.189 N 
HETATM   29  H18 UNL     1       4.036  -0.599  -0.210  1.00  0.00     0.184 HD
BRANCH  28  30
HETATM   30  C18 UNL     1       5.595  -0.754   1.093  1.00  0.00     0.082 A 
HETATM   31  C19 UNL     1       6.087  -0.797   2.402  1.00  0.00     0.033 A 
HETATM   32  C20 UNL     1       7.454  -0.943   2.653  1.00  0.00     0.002 A 
HETATM   33  C21 UNL     1       8.349  -1.052   1.594  1.00  0.00     0.003 A 
HETATM   34  C22 UNL     1       7.883  -1.011   0.279  1.00  0.00     0.039 A 
HETATM   35  C23 UNL     1       6.518  -0.854   0.022  1.00  0.00     0.096 A 
BRANCH  35  36
HETATM   36  O3  UNL     1       5.951  -0.811  -1.231  1.00  0.00    -0.344 OA
BRANCH  36  37
HETATM   37  C24 UNL     1       6.790  -0.603  -2.371  1.00  0.00     0.120 C 
HETATM   38  C25 UNL     1       7.182  -1.950  -2.971  1.00  0.00     0.040 C 
HETATM   39  C26 UNL     1       5.968   0.197  -3.378  1.00  0.00     0.040 C 
ENDBRANCH  36  37
ENDBRANCH  35  36
ENDBRANCH  28  30
ENDBRANCH  24  28
ENDBRANCH  15  20
BRANCH   1  40
HETATM   40  C2  UNL     1      -8.518   2.291   0.346  1.00  0.00     0.064 C 
HETATM   41  C1  UNL     1      -8.119   2.960  -0.745  1.00  0.00     0.017 C 
ENDBRANCH   1  40
TORSDOF 6
