REMARK  9 active torsions:
REMARK  status: ('A' for Active; 'I' for Inactive)
REMARK    1  A    between atoms: C2_2  and  C3_3 
REMARK       I    between atoms: C3_3  and  N1_5 
REMARK    2  A    between atoms: N1_5  and  C4_6 
REMARK    3  A    between atoms: C4_6  and  C5_7 
REMARK    4  A    between atoms: C5_7  and  O2_8 
REMARK    5  A    between atoms: O2_8  and  C6_9 
REMARK    6  A    between atoms: C8_11  and  C9_12 
REMARK    7  A    between atoms: C9_12  and  C10_13 
REMARK    8  A    between atoms: C18_22  and  C19_23 
REMARK    9  A    between atoms: C22_29  and  C23_30 
ROOT
HETATM    1  C6  UNL     1      -0.980   0.613  -0.680  1.00  0.00     0.082 A 
HETATM    2  C7  UNL     1      -1.735   1.793  -0.587  1.00  0.00     0.045 A 
HETATM    3  C8  UNL     1      -1.353   2.856   0.254  1.00  0.00    -0.049 A 
HETATM    4  C16 UNL     1      -0.191   2.754   1.034  1.00  0.00     0.038 A 
HETATM    5  C17 UNL     1       0.561   1.580   0.929  1.00  0.00     0.046 A 
HETATM    6  N2  UNL     1       1.730   1.218   1.559  1.00  0.00    -0.354 N 
HETATM    7  C18 UNL     1       2.130  -0.027   1.148  1.00  0.00     0.062 A 
HETATM    8  C27 UNL     1       1.201  -0.488   0.246  1.00  0.00     0.048 A 
HETATM    9  C28 UNL     1       0.199   0.521   0.096  1.00  0.00     0.026 A 
HETATM   10  H18 UNL     1       2.250   1.778   2.222  1.00  0.00     0.166 HD
ENDROOT
BRANCH   7  11
HETATM   11  C19 UNL     1       3.432  -0.693   1.674  1.00  0.00     0.087 A 
HETATM   12  N3  UNL     1       4.180  -0.027   2.567  1.00  0.00    -0.297 N 
HETATM   13  N4  UNL     1       5.213  -0.854   2.789  1.00  0.00    -0.299 N 
ATOM     14  H3  UNL     1       4.005   0.890   2.979  1.00  0.00     0.187 HD
HETATM   15  C20 UNL     1       5.155  -2.031   2.092  1.00  0.00     0.061 A 
HETATM   16  H19 UNL     1       5.936  -0.555   3.433  1.00  0.00     0.187 HD
HETATM   17  C21 UNL     1       6.026  -3.126   2.058  1.00  0.00     0.044 A 
HETATM   18  C26 UNL     1       3.986  -1.958   1.338  1.00  0.00     0.022 A 
HETATM   19  C22 UNL     1       5.697  -4.199   1.213  1.00  0.00     0.008 A 
HETATM   20  C24 UNL     1       4.522  -4.151   0.448  1.00  0.00     0.013 A 
HETATM   21  C25 UNL     1       3.663  -3.043   0.498  1.00  0.00     0.017 A 
BRANCH  19  22
HETATM   22  C23 UNL     1       6.588  -5.415   1.147  1.00  0.00     0.386 C 
HETATM   23  F1  UNL     1       7.849  -5.180   1.605  1.00  0.00    -0.209 F 
HETATM   24  F2  UNL     1       6.737  -5.889  -0.123  1.00  0.00    -0.209 F 
ENDBRANCH  19  22
ENDBRANCH   7  11
BRANCH   1  25
HETATM   25  O2  UNL     1      -1.283  -0.464  -1.466  1.00  0.00    -0.349 OA
BRANCH  25  26
HETATM   26  C5  UNL     1      -2.555  -0.523  -2.118  1.00  0.00     0.195 C 
BRANCH  26  27
HETATM   27  C4  UNL     1      -3.668  -0.923  -1.149  1.00  0.00     0.149 C 
BRANCH  27  28
HETATM   28  N1  UNL     1      -3.359  -2.163  -0.462  1.00  0.00    -0.356 N 
HETATM   29  C3  UNL     1      -4.337  -2.876   0.183  1.00  0.00     0.240 C 
HETATM   30  O1  UNL     1      -5.533  -2.628   0.110  1.00  0.00    -0.269 OA
HETATM   31  H4  UNL     1      -2.392  -2.293  -0.191  1.00  0.00     0.162 HD
BRANCH  29  32
HETATM   32  C2  UNL     1      -3.792  -3.984   1.006  1.00  0.00     0.064 C 
HETATM   33  C1  UNL     1      -4.604  -4.731   1.766  1.00  0.00     0.017 C 
ENDBRANCH  29  32
ENDBRANCH  27  28
ENDBRANCH  26  27
ENDBRANCH  25  26
ENDBRANCH   1  25
BRANCH   3  34
HETATM   34  C9  UNL     1      -2.203   4.109   0.328  1.00  0.00     0.077 C 
BRANCH  34  35
HETATM   35  C10 UNL     1      -2.312   4.853  -0.985  1.00  0.00    -0.054 A 
HETATM   36  C11 UNL     1      -3.515   4.861  -1.707  1.00  0.00     0.007 A 
HETATM   37  C12 UNL     1      -3.605   5.534  -2.927  1.00  0.00     0.001 A 
HETATM   38  C13 UNL     1      -2.496   6.208  -3.435  1.00  0.00     0.000 A 
HETATM   39  C14 UNL     1      -1.295   6.209  -2.725  1.00  0.00     0.001 A 
HETATM   40  C15 UNL     1      -1.202   5.535  -1.507  1.00  0.00     0.007 A 
ENDBRANCH  34  35
ENDBRANCH   3  34
TORSDOF 9
