REMARK  8 active torsions:
REMARK  status: ('A' for Active; 'I' for Inactive)
REMARK    1  A    between atoms: N2_5  and  C4_6 
REMARK    2  A    between atoms: C4_6  and  C5_7 
REMARK    3  A    between atoms: C6_8  and  C7_9 
REMARK       I    between atoms: C7_9  and  N3_11 
REMARK    4  A    between atoms: C14_23  and  N6_24 
REMARK    5  A    between atoms: N6_24  and  C15_25 
REMARK    6  A    between atoms: C15_25  and  C16_26 
REMARK    7  A    between atoms: C15_25  and  C17_28 
REMARK    8  A    between atoms: C16_26  and  O2_27 
ROOT
HETATM    1  C7  UNL     1       1.790  -0.817   0.762  1.00  0.00     0.243 C 
HETATM    2  O1  UNL     1       1.772  -1.707   1.609  1.00  0.00    -0.268 OA
HETATM    3  N3  UNL     1       0.662  -0.442   0.045  1.00  0.00    -0.344 N 
HETATM    4  C8  UNL     1      -0.522  -1.313   0.130  1.00  0.00     0.131 C 
HETATM    5  C9  UNL     1      -1.819  -0.519   0.343  1.00  0.00     0.060 C 
HETATM    6  C10 UNL     1      -1.902   0.618  -0.631  1.00  0.00    -0.025 A 
HETATM    7  C11 UNL     1      -0.749   1.099  -1.225  1.00  0.00     0.010 A 
HETATM    8  S1  UNL     1      -1.065   2.357  -2.325  1.00  0.00    -0.074 SA
HETATM    9  C12 UNL     1      -2.740   2.287  -2.014  1.00  0.00     0.089 A 
HETATM   10  N4  UNL     1      -3.576   3.113  -2.663  1.00  0.00    -0.346 N 
ATOM     11  H4  UNL     1      -3.276   3.803  -3.351  1.00  0.00     0.167 HD
HETATM   12  C13 UNL     1      -4.846   2.924  -2.301  1.00  0.00     0.182 A 
HETATM   13  N5  UNL     1      -5.317   2.061  -1.391  1.00  0.00    -0.342 N 
ATOM     14  H5  UNL     1      -6.316   2.020  -1.190  1.00  0.00     0.167 HD
HETATM   15  C14 UNL     1      -4.456   1.245  -0.742  1.00  0.00     0.095 A 
HETATM   16  C23 UNL     1      -3.081   1.332  -1.065  1.00  0.00     0.043 A 
HETATM   17  C24 UNL     1       0.645   0.605  -0.989  1.00  0.00     0.172 C 
ENDROOT
BRANCH   1  18
HETATM   18  C6  UNL     1       3.062  -0.101   0.464  1.00  0.00     0.072 C 
HETATM   19  C5  UNL     1       4.077  -0.135   1.343  1.00  0.00     0.008 C 
BRANCH  19  20
HETATM   20  C4  UNL     1       5.405   0.527   1.127  1.00  0.00     0.300 C 
BRANCH  20  21
HETATM   21  N2  UNL     1       6.513  -0.413   1.301  1.00  0.00     0.095 N 
HETATM   22  C3  UNL     1       7.784   0.314   1.503  1.00  0.00     0.303 C 
HETATM   23  C2  UNL     1       9.029  -0.544   1.187  1.00  0.00     0.302 C 
HETATM   24  N1  UNL     1       9.087  -1.025  -0.208  1.00  0.00     0.087 N 
HETATM   25  C1  UNL     1       9.995  -0.230  -1.027  1.00  0.00     0.310 C 
HETATM   26  C26 UNL     1       7.743  -1.081  -0.817  1.00  0.00     0.302 C 
HETATM   27  C25 UNL     1       6.627  -1.398   0.204  1.00  0.00     0.303 C 
ENDBRANCH  20  21
ENDBRANCH  19  20
ENDBRANCH   1  18
BRANCH  15  28
HETATM   28  N6  UNL     1      -4.928   0.346   0.221  1.00  0.00    -0.267 NA
HETATM   29  H17 UNL     1      -4.281   0.335   1.010  1.00  0.00     0.130 HD
BRANCH  28  30
HETATM   30  C15 UNL     1      -6.295   0.565   0.720  1.00  0.00     0.118 C 
BRANCH  30  31
HETATM   31  C16 UNL     1      -6.408  -0.098   2.117  1.00  0.00     0.188 C 
BRANCH  31  32
HETATM   32  O2  UNL     1      -5.371   0.389   2.980  1.00  0.00    -0.399 OA
HETATM   33  H21 UNL     1      -5.515  -0.028   3.848  1.00  0.00     0.209 HD
ENDBRANCH  31  32
ENDBRANCH  30  31
BRANCH  30  34
HETATM   34  C17 UNL     1      -7.347  -0.028  -0.204  1.00  0.00    -0.038 A 
HETATM   35  C18 UNL     1      -8.536   0.675  -0.451  1.00  0.00     0.009 A 
HETATM   36  C19 UNL     1      -9.529   0.130  -1.269  1.00  0.00     0.001 A 
HETATM   37  C20 UNL     1      -9.346  -1.123  -1.849  1.00  0.00     0.000 A 
HETATM   38  C21 UNL     1      -8.171  -1.833  -1.614  1.00  0.00     0.001 A 
HETATM   39  C22 UNL     1      -7.178  -1.291  -0.797  1.00  0.00     0.009 A 
ENDBRANCH  30  34
ENDBRANCH  28  30
ENDBRANCH  15  28
TORSDOF 8
