REMARK  9 active torsions:
REMARK  status: ('A' for Active; 'I' for Inactive)
REMARK    1  A    between atoms: C2_2  and  N1_4 
REMARK    2  A    between atoms: N1_4  and  C4_5 
REMARK    3  A    between atoms: C4_5  and  C5_6 
REMARK    4  A    between atoms: C6_7  and  C7_8 
REMARK       I    between atoms: C7_8  and  N2_10 
REMARK    5  A    between atoms: N2_10  and  C8_11 
REMARK    6  A    between atoms: C11_14  and  N3_15 
REMARK    7  A    between atoms: N3_15  and  C12_16 
REMARK    8  A    between atoms: C21_31  and  O2_32 
REMARK    9  A    between atoms: O2_32  and  C22_33 
ROOT
HETATM    1  C8  UNL     1      -0.711   0.065  -0.290  1.00  0.00     0.069 A 
HETATM    2  C9  UNL     1      -1.797  -0.783  -0.075  1.00  0.00     0.050 A 
HETATM    3  C10 UNL     1      -3.106  -0.412  -0.474  1.00  0.00     0.037 A 
HETATM    4  C11 UNL     1      -4.267  -1.192  -0.284  1.00  0.00     0.119 A 
HETATM    5  N4  UNL     1      -5.473  -0.780  -0.711  1.00  0.00    -0.338 N 
ATOM      6  H4  UNL     1      -6.308  -1.351  -0.581  1.00  0.00     0.168 HD
HETATM    7  C18 UNL     1      -5.530   0.410  -1.313  1.00  0.00     0.182 A 
HETATM    8  N5  UNL     1      -4.499   1.233  -1.533  1.00  0.00    -0.351 N 
ATOM      9  H5  UNL     1      -4.622   2.134  -1.996  1.00  0.00     0.166 HD
HETATM   10  C19 UNL     1      -3.301   0.817  -1.117  1.00  0.00     0.049 A 
HETATM   11  C20 UNL     1      -2.209   1.648  -1.338  1.00  0.00     0.069 A 
HETATM   12  C21 UNL     1      -0.921   1.298  -0.929  1.00  0.00     0.098 A 
ENDROOT
BRANCH   1  13
HETATM   13  N2  UNL     1       0.609  -0.241   0.105  1.00  0.00    -0.321 N 
HETATM   14  C7  UNL     1       1.057  -1.344   0.790  1.00  0.00     0.245 C 
HETATM   15  O1  UNL     1       0.399  -2.306   1.168  1.00  0.00    -0.268 OA
HETATM   16  H13 UNL     1       1.294   0.452  -0.180  1.00  0.00     0.169 HD
BRANCH  14  17
HETATM   17  C6  UNL     1       2.523  -1.341   1.033  1.00  0.00     0.072 C 
HETATM   18  C5  UNL     1       3.216  -0.249   1.396  1.00  0.00     0.008 C 
BRANCH  18  19
HETATM   19  C4  UNL     1       4.691  -0.255   1.658  1.00  0.00     0.297 C 
BRANCH  19  20
HETATM   20  N1  UNL     1       5.327   0.690   0.745  1.00  0.00     0.090 N 
HETATM   21  H8  UNL     1       5.035   1.633   1.000  1.00  0.00     0.316 HD
BRANCH  20  22
HETATM   22  C2  UNL     1       6.797   0.655   0.734  1.00  0.00     0.212 C 
HETATM   23  C1  UNL     1       7.349  -0.651   0.157  1.00  0.00     0.042 C 
HETATM   24  C3  UNL     1       7.419   0.966   2.096  1.00  0.00     0.042 C 
ENDBRANCH  20  22
ENDBRANCH  19  20
ENDBRANCH  18  19
ENDBRANCH  14  17
ENDBRANCH   1  13
BRANCH  12  25
HETATM   25  O2  UNL     1       0.204   2.069  -1.099  1.00  0.00    -0.341 OA
BRANCH  25  26
HETATM   26  C22 UNL     1       0.065   3.395  -1.594  1.00  0.00     0.154 C 
HETATM   27  C23 UNL     1      -0.413   4.380  -0.549  1.00  0.00     0.061 C 
HETATM   28  C24 UNL     1       0.121   5.690  -1.081  1.00  0.00     0.170 C 
HETATM   29  O3  UNL     1       1.359   5.392  -1.740  1.00  0.00    -0.389 OA
HETATM   30  C25 UNL     1       1.441   3.970  -1.914  1.00  0.00     0.200 C 
ENDBRANCH  25  26
ENDBRANCH  12  25
BRANCH   4  31
HETATM   31  N3  UNL     1      -4.152  -2.448   0.370  1.00  0.00    -0.342 N 
HETATM   32  H15 UNL     1      -3.605  -2.338   1.219  1.00  0.00     0.167 HD
BRANCH  31  33
HETATM   33  C12 UNL     1      -5.108  -3.481   0.492  1.00  0.00     0.035 A 
HETATM   34  C13 UNL     1      -4.973  -4.405   1.544  1.00  0.00     0.032 A 
HETATM   35  C14 UNL     1      -5.860  -5.476   1.684  1.00  0.00     0.046 A 
HETATM   36  C15 UNL     1      -6.879  -5.646   0.756  1.00  0.00     0.138 A 
HETATM   37  F1  UNL     1      -7.722  -6.678   0.907  1.00  0.00    -0.204 F 
HETATM   38  C16 UNL     1      -7.009  -4.768  -0.315  1.00  0.00     0.074 A 
HETATM   39 CL1  UNL     1      -8.254  -4.993  -1.485  1.00  0.00    -0.081 Cl
HETATM   40  C17 UNL     1      -6.120  -3.699  -0.454  1.00  0.00     0.056 A 
ENDBRANCH  31  33
ENDBRANCH   4  31
TORSDOF 9
