REMARK  8 active torsions:
REMARK  status: ('A' for Active; 'I' for Inactive)
REMARK    1  A    between atoms: C2_2  and  S1_3 
REMARK    2  A    between atoms: S1_3  and  C3_6 
REMARK    3  A    between atoms: C3_6  and  C4_7 
REMARK    4  A    between atoms: C11_14  and  C12_15 
REMARK    5  A    between atoms: C15_19  and  C16_20 
REMARK    6  A    between atoms: C16_20  and  C17_21 
REMARK    7  A    between atoms: C17_21  and  C18_22 
REMARK    8  A    between atoms: C18_22  and  N2_23 
ROOT
HETATM    1  C4  UNL     1       4.300   0.610   0.243  1.00  0.00    -0.043 A 
HETATM    2  C5  UNL     1       5.299  -0.286   0.689  1.00  0.00     0.010 A 
HETATM    3  C6  UNL     1       4.980  -1.585   1.087  1.00  0.00     0.031 A 
HETATM    4  C7  UNL     1       3.655  -1.963   1.021  1.00  0.00     0.046 A 
HETATM    5  C8  UNL     1       2.647  -1.108   0.573  1.00  0.00     0.007 A 
HETATM    6  C9  UNL     1       2.958   0.186   0.183  1.00  0.00     0.022 A 
HETATM    7  C10 UNL     1       1.386  -1.875   0.641  1.00  0.00     0.047 A 
HETATM    8  C11 UNL     1       0.204  -1.369   0.254  1.00  0.00     0.048 C 
HETATM    9  C25 UNL     1       1.755  -3.234   1.190  1.00  0.00     0.257 A 
HETATM   10  O3  UNL     1       1.027  -4.177   1.437  1.00  0.00    -0.267 OA
HETATM   11  N3  UNL     1       3.127  -3.197   1.376  1.00  0.00    -0.322 N 
HETATM   12  H33 UNL     1       3.648  -3.980   1.738  1.00  0.00     0.169 HD
ENDROOT
BRANCH   8  13
HETATM   13  C12 UNL     1      -1.088  -1.967   0.251  1.00  0.00     0.040 A 
HETATM   14  N1  UNL     1      -1.317  -3.229   0.753  1.00  0.00    -0.359 N 
HETATM   15  C13 UNL     1      -2.642  -3.539   0.647  1.00  0.00     0.016 A 
HETATM   16  H12 UNL     1      -0.612  -3.846   1.144  1.00  0.00     0.166 HD
HETATM   17  C14 UNL     1      -3.295  -2.476   0.069  1.00  0.00    -0.027 A 
HETATM   18  C24 UNL     1      -3.259  -4.809   1.114  1.00  0.00     0.057 C 
HETATM   19  C15 UNL     1      -2.316  -1.477  -0.203  1.00  0.00    -0.023 A 
HETATM   20  C21 UNL     1      -4.763  -2.494  -0.202  1.00  0.00     0.041 C 
HETATM   21  C22 UNL     1      -5.460  -3.617   0.591  1.00  0.00     0.005 C 
HETATM   22  C23 UNL     1      -4.678  -4.943   0.530  1.00  0.00     0.006 C 
BRANCH  19  23
HETATM   23  C16 UNL     1      -2.578  -0.154  -0.857  1.00  0.00     0.043 C 
BRANCH  23  24
HETATM   24  C17 UNL     1      -2.850   0.955   0.162  1.00  0.00     0.035 C 
BRANCH  24  25
HETATM   25  C18 UNL     1      -3.064   2.299  -0.545  1.00  0.00     0.271 C 
BRANCH  25  26
HETATM   26  N2  UNL     1      -3.463   3.382   0.371  1.00  0.00     0.080 N 
HETATM   27  C19 UNL     1      -3.859   4.566  -0.397  1.00  0.00     0.309 C 
HETATM   28  C20 UNL     1      -2.398   3.736   1.311  1.00  0.00     0.309 C 
ENDBRANCH  25  26
ENDBRANCH  24  25
ENDBRANCH  23  24
ENDBRANCH  19  23
ENDBRANCH   8  13
BRANCH   1  29
HETATM   29  C3  UNL     1       4.675   2.013  -0.170  1.00  0.00     0.178 C 
BRANCH  29  30
HETATM   30  S1  UNL     1       4.893   2.077  -1.948  1.00  0.00     0.148 S 
HETATM   31  O1  UNL     1       3.603   1.841  -2.573  1.00  0.00    -0.228 OA
HETATM   32  O2  UNL     1       6.053   1.284  -2.312  1.00  0.00    -0.228 OA
BRANCH  30  33
HETATM   33  C2  UNL     1       5.292   3.789  -2.258  1.00  0.00     0.136 C 
HETATM   34  C1  UNL     1       6.631   4.214  -1.691  1.00  0.00     0.021 C 
ENDBRANCH  30  33
ENDBRANCH  29  30
ENDBRANCH   1  29
TORSDOF 8
