REMARK  6 active torsions:
REMARK  status: ('A' for Active; 'I' for Inactive)
REMARK    1  A    between atoms: N1_2  and  C3_4 
REMARK    2  A    between atoms: C3_4  and  C4_5 
REMARK    3  A    between atoms: C4_5  and  C5_6 
REMARK    4  A    between atoms: C5_6  and  C6_7 
REMARK    5  A    between atoms: C7_8  and  C8_9 
REMARK    6  A    between atoms: C14_17  and  C15_18 
ROOT
HETATM    1  C8  UNL     1       0.561  -0.542  -0.745  1.00  0.00     0.048 C 
HETATM    2  C9  UNL     1       1.354  -1.490  -0.226  1.00  0.00     0.047 A 
HETATM    3  C10 UNL     1       1.109  -2.978  -0.124  1.00  0.00     0.257 A 
HETATM    4  O1  UNL     1       0.158  -3.634  -0.500  1.00  0.00    -0.267 OA
HETATM    5  N2  UNL     1       2.245  -3.482   0.496  1.00  0.00    -0.322 N 
HETATM    6  C11 UNL     1       3.164  -2.478   0.776  1.00  0.00     0.046 A 
HETATM    7  C12 UNL     1       4.394  -2.629   1.378  1.00  0.00     0.031 A 
HETATM    8  C13 UNL     1       5.163  -1.475   1.563  1.00  0.00     0.014 A 
HETATM    9  C14 UNL     1       4.703  -0.198   1.153  1.00  0.00    -0.025 A 
HETATM   10  C21 UNL     1       3.437  -0.092   0.541  1.00  0.00     0.027 A 
HETATM   11  C22 UNL     1       2.680  -1.238   0.357  1.00  0.00     0.007 A 
HETATM   12  H14 UNL     1       2.358  -4.464   0.693  1.00  0.00     0.169 HD
ENDROOT
BRANCH   1  13
HETATM   13  C7  UNL     1      -0.731  -0.795  -1.260  1.00  0.00     0.040 A 
HETATM   14  C6  UNL     1      -1.955  -1.110  -0.684  1.00  0.00    -0.023 A 
HETATM   15  C24 UNL     1      -2.894  -1.204  -1.755  1.00  0.00    -0.027 A 
HETATM   16  C23 UNL     1      -2.216  -0.925  -2.924  1.00  0.00     0.016 A 
HETATM   17  C25 UNL     1      -4.355  -1.512  -1.737  1.00  0.00     0.041 C 
HETATM   18  N3  UNL     1      -0.907  -0.688  -2.619  1.00  0.00    -0.359 N 
HETATM   19  C28 UNL     1      -2.787  -0.930  -4.297  1.00  0.00     0.057 C 
HETATM   20  H23 UNL     1      -0.177  -0.490  -3.289  1.00  0.00     0.166 HD
HETATM   21  C27 UNL     1      -4.324  -0.900  -4.220  1.00  0.00     0.006 C 
HETATM   22  C26 UNL     1      -4.870  -1.861  -3.148  1.00  0.00     0.005 C 
BRANCH  14  23
HETATM   23  C5  UNL     1      -2.241  -1.310   0.774  1.00  0.00     0.043 C 
BRANCH  23  24
HETATM   24  C4  UNL     1      -2.290  -0.004   1.575  1.00  0.00     0.035 C 
BRANCH  24  25
HETATM   25  C3  UNL     1      -3.468   0.891   1.165  1.00  0.00     0.271 C 
BRANCH  25  26
HETATM   26  N1  UNL     1      -3.640   2.054   2.060  1.00  0.00     0.080 N 
HETATM   27  C1  UNL     1      -2.549   3.020   1.911  1.00  0.00     0.309 C 
HETATM   28  C2  UNL     1      -4.919   2.711   1.776  1.00  0.00     0.309 C 
ENDBRANCH  25  26
ENDBRANCH  24  25
ENDBRANCH  23  24
ENDBRANCH  14  23
ENDBRANCH   1  13
BRANCH   9  29
HETATM   29  C15 UNL     1       5.534   0.999   1.365  1.00  0.00    -0.026 A 
HETATM   30  C16 UNL     1       5.038   2.108   2.070  1.00  0.00     0.012 A 
HETATM   31  C17 UNL     1       5.826   3.244   2.272  1.00  0.00     0.001 A 
HETATM   32  C18 UNL     1       7.124   3.291   1.769  1.00  0.00     0.000 A 
HETATM   33  C19 UNL     1       7.634   2.202   1.067  1.00  0.00     0.001 A 
HETATM   34  C20 UNL     1       6.846   1.066   0.867  1.00  0.00     0.012 A 
ENDBRANCH   9  29
TORSDOF 6
