REMARK  7 active torsions:
REMARK  status: ('A' for Active; 'I' for Inactive)
REMARK    1  A    between atoms: N1_2  and  S1_3 
REMARK    2  A    between atoms: S1_3  and  C2_6 
REMARK    3  A    between atoms: C9_13  and  C10_14 
REMARK    4  A    between atoms: C13_18  and  C14_19 
REMARK    5  A    between atoms: C14_19  and  C15_20 
REMARK    6  A    between atoms: C15_20  and  C16_21 
REMARK    7  A    between atoms: C16_21  and  N3_22 
ROOT
HETATM    1  C10 UNL     1       1.199   2.117  -0.437  1.00  0.00     0.040 A 
HETATM    2  N2  UNL     1       1.486   3.448  -0.644  1.00  0.00    -0.359 N 
HETATM    3  C11 UNL     1       0.329   4.171  -0.623  1.00  0.00     0.016 A 
HETATM    4  C12 UNL     1      -0.722   3.305  -0.407  1.00  0.00    -0.027 A 
HETATM    5  C13 UNL     1      -0.176   1.993  -0.274  1.00  0.00    -0.023 A 
HETATM    6  C22 UNL     1      -2.137   3.774  -0.318  1.00  0.00     0.041 C 
HETATM    7  C23 UNL     1      -2.287   5.197  -0.891  1.00  0.00     0.005 C 
HETATM    8  C24 UNL     1      -1.163   6.136  -0.415  1.00  0.00     0.006 C 
HETATM    9  C25 UNL     1       0.231   5.638  -0.842  1.00  0.00     0.057 C 
HETATM   10  H9  UNL     1       2.407   3.828  -0.809  1.00  0.00     0.166 HD
ENDROOT
BRANCH   1  11
HETATM   11  C9  UNL     1       2.291   1.221  -0.389  1.00  0.00     0.048 C 
HETATM   12  C8  UNL     1       2.485   0.219  -1.259  1.00  0.00     0.047 A 
HETATM   13  C6  UNL     1       3.611  -0.725  -1.194  1.00  0.00     0.008 A 
HETATM   14  C26 UNL     1       1.664  -0.166  -2.470  1.00  0.00     0.257 A 
HETATM   15  C5  UNL     1       3.454  -1.597  -2.277  1.00  0.00     0.046 A 
HETATM   16  C7  UNL     1       4.681  -0.868  -0.329  1.00  0.00     0.040 A 
HETATM   17  C4  UNL     1       4.336  -2.627  -2.543  1.00  0.00     0.032 A 
HETATM   18  N5  UNL     1       2.320  -1.267  -3.007  1.00  0.00    -0.322 N 
HETATM   19  C3  UNL     1       5.422  -2.783  -1.678  1.00  0.00     0.027 A 
HETATM   20  C2  UNL     1       5.583  -1.913  -0.580  1.00  0.00     0.080 A 
HETATM   21  H35 UNL     1       1.991  -1.730  -3.840  1.00  0.00     0.169 HD
HETATM   22  O3  UNL     1       0.657   0.341  -2.919  1.00  0.00    -0.267 OA
BRANCH  20  23
HETATM   23  S1  UNL     1       6.983  -2.105   0.496  1.00  0.00     0.258 S 
HETATM   24  O1  UNL     1       7.862  -3.113  -0.051  1.00  0.00    -0.201 OA
HETATM   25  O2  UNL     1       7.452  -0.779   0.831  1.00  0.00    -0.201 OA
BRANCH  23  26
HETATM   26  N1  UNL     1       6.272  -2.722   1.886  1.00  0.00    -0.320 N 
HETATM   27  C1  UNL     1       6.045  -4.158   1.972  1.00  0.00     0.159 C 
HETATM   28  H4  UNL     1       6.566  -2.228   2.728  1.00  0.00     0.171 HD
ENDBRANCH  23  26
ENDBRANCH  20  23
ENDBRANCH   1  11
BRANCH   5  29
HETATM   29  C14 UNL     1      -0.952   0.739  -0.002  1.00  0.00     0.043 C 
BRANCH  29  30
HETATM   30  C15 UNL     1      -1.277   0.574   1.484  1.00  0.00     0.035 C 
BRANCH  30  31
HETATM   31  C16 UNL     1      -1.821  -0.812   1.864  1.00  0.00     0.273 C 
BRANCH  31  32
HETATM   32  N3  UNL     1      -3.267  -0.993   1.687  1.00  0.00     0.091 N 
HETATM   33  C17 UNL     1      -3.748  -2.198   2.379  1.00  0.00     0.302 C 
HETATM   34  C18 UNL     1      -5.289  -2.374   2.307  1.00  0.00     0.302 C 
HETATM   35  N4  UNL     1      -5.927  -1.827   1.095  1.00  0.00     0.087 N 
HETATM   36  C19 UNL     1      -7.167  -2.523   0.775  1.00  0.00     0.310 C 
HETATM   37  C20 UNL     1      -4.986  -1.825  -0.028  1.00  0.00     0.302 C 
HETATM   38  C21 UNL     1      -3.702  -1.004   0.277  1.00  0.00     0.302 C 
ENDBRANCH  31  32
ENDBRANCH  30  31
ENDBRANCH  29  30
ENDBRANCH   5  29
TORSDOF 7
