REMARK  11 active torsions:
REMARK  status: ('A' for Active; 'I' for Inactive)
REMARK    1  A    between atoms: C2_2  and  O1_3 
REMARK    2  A    between atoms: O1_3  and  C3_4 
REMARK    3  A    between atoms: C3_4  and  C4_6 
REMARK    4  A    between atoms: C4_6  and  N1_7 
REMARK    5  A    between atoms: N2_10  and  C7_11 
REMARK    6  A    between atoms: C7_11  and  C8_12 
REMARK    7  A    between atoms: C8_12  and  C9_13 
REMARK    8  A    between atoms: C9_13  and  C10_14 
REMARK    9  A    between atoms: C11_15  and  C12_16 
REMARK   10  A    between atoms: C18_24  and  S1_25 
REMARK   11  A    between atoms: S1_25  and  N4_28 
ROOT
HETATM    1  C10 UNL     1      -1.231   1.593  -2.063  1.00  0.00    -0.023 A 
HETATM    2  C11 UNL     1      -2.184   0.574  -1.958  1.00  0.00     0.040 A 
HETATM    3  N5  UNL     1      -2.437   0.124  -3.234  1.00  0.00    -0.359 N 
HETATM    4  C22 UNL     1      -1.691   0.828  -4.134  1.00  0.00     0.016 A 
HETATM    5  C23 UNL     1      -0.928   1.745  -3.448  1.00  0.00    -0.027 A 
HETATM    6  C24 UNL     1      -0.012   2.696  -4.147  1.00  0.00     0.041 C 
HETATM    7  C25 UNL     1       0.259   2.246  -5.596  1.00  0.00     0.005 C 
HETATM    8  C26 UNL     1      -1.025   1.792  -6.314  1.00  0.00     0.006 C 
HETATM    9  C27 UNL     1      -1.698   0.602  -5.604  1.00  0.00     0.057 C 
HETATM   10  H27 UNL     1      -3.086  -0.616  -3.483  1.00  0.00     0.166 HD
ENDROOT
BRANCH   2  11
HETATM   11  C12 UNL     1      -2.834   0.022  -0.816  1.00  0.00     0.048 C 
HETATM   12  C13 UNL     1      -3.767  -0.941  -0.738  1.00  0.00     0.047 A 
HETATM   13  C14 UNL     1      -4.444  -1.764  -1.809  1.00  0.00     0.257 A 
HETATM   14  C21 UNL     1      -4.348  -1.386   0.546  1.00  0.00     0.008 A 
HETATM   15  O3  UNL     1      -4.261  -1.742  -3.011  1.00  0.00    -0.267 OA
HETATM   16  N3  UNL     1      -5.341  -2.578  -1.138  1.00  0.00    -0.322 N 
HETATM   17  C15 UNL     1      -5.294  -2.369   0.233  1.00  0.00     0.046 A 
HETATM   18  H19 UNL     1      -5.929  -3.244  -1.615  1.00  0.00     0.169 HD
HETATM   19  C16 UNL     1      -6.049  -3.019   1.191  1.00  0.00     0.032 A 
HETATM   20  C17 UNL     1      -5.841  -2.664   2.524  1.00  0.00     0.027 A 
HETATM   21  C18 UNL     1      -4.887  -1.678   2.852  1.00  0.00     0.080 A 
HETATM   22  C20 UNL     1      -4.125  -1.031   1.866  1.00  0.00     0.040 A 
BRANCH  21  23
HETATM   23  S1  UNL     1      -4.620  -1.242   4.552  1.00  0.00     0.258 S 
HETATM   24  O4  UNL     1      -3.192  -1.257   4.776  1.00  0.00    -0.201 OA
HETATM   25  O5  UNL     1      -5.537  -1.990   5.380  1.00  0.00    -0.201 OA
BRANCH  23  26
HETATM   26  N4  UNL     1      -5.091   0.370   4.580  1.00  0.00    -0.320 N 
HETATM   27  C19 UNL     1      -6.511   0.675   4.711  1.00  0.00     0.159 C 
HETATM   28  H22 UNL     1      -4.427   0.957   5.084  1.00  0.00     0.171 HD
ENDBRANCH  23  26
ENDBRANCH  21  23
ENDBRANCH   2  11
BRANCH   1  29
HETATM   29  C9  UNL     1      -0.634   2.402  -0.949  1.00  0.00     0.043 C 
BRANCH  29  30
HETATM   30  C8  UNL     1       0.754   1.924  -0.511  1.00  0.00     0.035 C 
BRANCH  30  31
HETATM   31  C7  UNL     1       0.734   0.522   0.114  1.00  0.00     0.273 C 
BRANCH  31  32
HETATM   32  N2  UNL     1       2.021   0.157   0.726  1.00  0.00     0.091 N 
HETATM   33  C6  UNL     1       3.121   0.097  -0.261  1.00  0.00     0.302 C 
HETATM   34  C5  UNL     1       4.318  -0.797   0.166  1.00  0.00     0.303 C 
HETATM   35  N1  UNL     1       4.497  -0.963   1.623  1.00  0.00     0.101 N 
HETATM   36  C29 UNL     1       3.235  -1.484   2.200  1.00  0.00     0.303 C 
HETATM   37  C28 UNL     1       1.925  -1.122   1.445  1.00  0.00     0.302 C 
BRANCH  35  38
HETATM   38  C4  UNL     1       4.869   0.314   2.279  1.00  0.00     0.383 C 
BRANCH  38  39
HETATM   39  C3  UNL     1       6.218   0.835   1.798  1.00  0.00     0.287 C 
HETATM   40  O2  UNL     1       6.365   1.857   1.137  1.00  0.00    -0.263 OA
BRANCH  39  41
HETATM   41  O1  UNL     1       7.231   0.013   2.199  1.00  0.00    -0.321 OA
BRANCH  41  42
HETATM   42  C2  UNL     1       8.529   0.420   1.757  1.00  0.00     0.174 C 
HETATM   43  C1  UNL     1       9.529  -0.636   2.185  1.00  0.00     0.034 C 
ENDBRANCH  41  42
ENDBRANCH  39  41
ENDBRANCH  38  39
ENDBRANCH  35  38
ENDBRANCH  31  32
ENDBRANCH  30  31
ENDBRANCH  29  30
ENDBRANCH   1  29
TORSDOF 11
