REMARK  8 active torsions:
REMARK  status: ('A' for Active; 'I' for Inactive)
REMARK    1  A    between atoms: C6_9  and  C7_10 
REMARK    2  A    between atoms: C9_12  and  N3_13 
REMARK    3  A    between atoms: N3_13  and  C10_14 
REMARK    4  A    between atoms: C10_14  and  C11_15 
REMARK    5  A    between atoms: C10_14  and  C12_17 
REMARK    6  A    between atoms: C11_15  and  O1_16 
REMARK    7  A    between atoms: C19_26  and  C20_27 
REMARK    8  A    between atoms: C25_33  and  O2_34 
ROOT
HETATM    1  C7  UNL     1      -0.994   0.128   0.563  1.00  0.00     0.004 A 
HETATM    2  C8  UNL     1       0.302  -0.346   0.267  1.00  0.00     0.045 A 
HETATM    3  C9  UNL     1       1.448   0.432   0.453  1.00  0.00     0.045 A 
HETATM    4  C18 UNL     1       1.226   1.677   1.026  1.00  0.00     0.117 A 
HETATM    5  N4  UNL     1       0.009   2.194   1.333  1.00  0.00    -0.362 N 
ATOM      6  H4  UNL     1      -0.078   3.121   1.750  1.00  0.00     0.165 HD
HETATM    7  C19 UNL     1      -1.095   1.436   1.067  1.00  0.00     0.056 A 
ENDROOT
BRANCH   1   8
HETATM    8  C6  UNL     1      -2.138  -0.782   0.381  1.00  0.00    -0.023 A 
HETATM    9  C5  UNL     1      -2.894  -1.212   1.486  1.00  0.00     0.014 A 
HETATM   10  C4  UNL     1      -3.990  -2.073   1.347  1.00  0.00     0.033 A 
HETATM   11  C3  UNL     1      -4.301  -2.500   0.055  1.00  0.00     0.060 A 
HETATM   12  N2  UNL     1      -5.286  -3.324  -0.419  1.00  0.00    -0.300 N 
HETATM   13  C27 UNL     1      -3.579  -2.114  -1.065  1.00  0.00     0.016 A 
HETATM   14  N1  UNL     1      -5.263  -3.501  -1.750  1.00  0.00    -0.304 N 
HETATM   15  H4  UNL     1      -6.006  -3.796   0.116  1.00  0.00     0.187 HD
HETATM   16  C2  UNL     1      -4.220  -2.765  -2.154  1.00  0.00     0.034 A 
ATOM     17  H1  UNL     1      -5.893  -4.065  -2.320  1.00  0.00     0.186 HD
HETATM   18  C1  UNL     1      -3.859  -2.698  -3.590  1.00  0.00     0.070 C 
HETATM   19  C26 UNL     1      -2.480  -1.248  -0.905  1.00  0.00     0.028 A 
ENDBRANCH   1   8
BRANCH   7  20
HETATM   20  C20 UNL     1      -2.364   2.125   1.409  1.00  0.00     0.025 A 
HETATM   21  C21 UNL     1      -3.475   2.106   0.543  1.00  0.00     0.020 A 
HETATM   22  C22 UNL     1      -4.678   2.729   0.889  1.00  0.00     0.043 A 
HETATM   23  C23 UNL     1      -4.783   3.395   2.103  1.00  0.00     0.119 A 
HETATM   24  F1  UNL     1      -5.938   3.988   2.432  1.00  0.00    -0.206 F 
HETATM   25  C24 UNL     1      -3.704   3.466   2.970  1.00  0.00     0.079 A 
HETATM   26  C25 UNL     1      -2.506   2.850   2.613  1.00  0.00     0.081 A 
BRANCH  26  27
HETATM   27  O2  UNL     1      -1.465   2.997   3.494  1.00  0.00    -0.360 OA
HETATM   28  H22 UNL     1      -0.648   2.787   2.990  1.00  0.00     0.217 HD
ENDBRANCH  26  27
ENDBRANCH   7  20
BRANCH   3  29
HETATM   29  N3  UNL     1       2.692  -0.138   0.189  1.00  0.00    -0.378 N 
HETATM   30  H8  UNL     1       2.636  -0.824  -0.560  1.00  0.00     0.160 HD
BRANCH  29  31
HETATM   31  C10 UNL     1       3.929   0.658   0.140  1.00  0.00     0.138 C 
BRANCH  31  32
HETATM   32  C11 UNL     1       4.584   0.816   1.541  1.00  0.00     0.194 C 
BRANCH  32  33
HETATM   33  O1  UNL     1       4.935  -0.415   2.177  1.00  0.00    -0.399 OA
HETATM   34  H12 UNL     1       5.639  -0.823   1.645  1.00  0.00     0.209 HD
ENDBRANCH  32  33
ENDBRANCH  31  32
BRANCH  31  35
HETATM   35  C12 UNL     1       4.909   0.033  -0.852  1.00  0.00    -0.034 A 
HETATM   36  C13 UNL     1       5.598   0.854  -1.760  1.00  0.00     0.009 A 
HETATM   37  C14 UNL     1       6.511   0.307  -2.665  1.00  0.00     0.001 A 
HETATM   38  C15 UNL     1       6.750  -1.065  -2.674  1.00  0.00     0.000 A 
HETATM   39  C16 UNL     1       6.078  -1.894  -1.780  1.00  0.00     0.001 A 
HETATM   40  C17 UNL     1       5.165  -1.350  -0.875  1.00  0.00     0.009 A 
ENDBRANCH  31  35
ENDBRANCH  29  31
ENDBRANCH   3  29
TORSDOF 8
