REMARK  7 active torsions:
REMARK  status: ('A' for Active; 'I' for Inactive)
REMARK    1  A    between atoms: C2_2  and  C3_3 
REMARK    2  A    between atoms: C2_2  and  N4_22 
REMARK    3  A    between atoms: C7_7  and  C8_8 
REMARK    4  A    between atoms: C18_30  and  C19_31 
REMARK    5  A    between atoms: N9_35  and  C21_36 
REMARK    6  A    between atoms: C21_36  and  C22_37 
REMARK    7  A    between atoms: C22_37  and  O1_38 
ROOT
HETATM    1  N4  UNL     1       0.598  -0.357   2.327  1.00  0.00    -0.248 N 
HETATM    2  N5  UNL     1      -0.175  -1.323   2.885  1.00  0.00    -0.016 NA
HETATM    3  N6  UNL     1       0.493  -2.473   2.799  1.00  0.00    -0.266 N 
ATOM      4  H6  UNL     1       0.168  -3.382   3.128  1.00  0.00     0.186 HD
HETATM    5  C16 UNL     1       1.690  -2.218   2.193  1.00  0.00     0.164 A 
HETATM    6  N7  UNL     1       2.689  -3.092   1.909  1.00  0.00    -0.346 N 
ATOM      7  H7  UNL     1       2.652  -4.088   2.124  1.00  0.00     0.167 HD
HETATM    8  C17 UNL     1       3.747  -2.484   1.303  1.00  0.00     0.120 A 
HETATM    9  C18 UNL     1       3.826  -1.118   0.999  1.00  0.00     0.062 A 
HETATM   10  N10 UNL     1       2.823  -0.244   1.285  1.00  0.00    -0.336 N 
ATOM     11  H10 UNL     1       2.851   0.754   1.075  1.00  0.00     0.168 HD
HETATM   12  C24 UNL     1       1.785  -0.868   1.883  1.00  0.00     0.168 A 
ENDROOT
BRANCH   1  13
HETATM   13  C2  UNL     1       0.163   1.034   2.269  1.00  0.00     0.140 C 
HETATM   14  C1  UNL     1      -0.382   1.534   3.612  1.00  0.00     0.039 C 
BRANCH  13  15
HETATM   15  C3  UNL     1      -0.816   1.239   1.127  1.00  0.00     0.005 A 
HETATM   16  C4  UNL     1      -2.112   0.704   1.140  1.00  0.00     0.026 A 
HETATM   17  C5  UNL     1      -2.992   0.912   0.060  1.00  0.00    -0.008 A 
HETATM   18  C6  UNL     1      -4.293   0.383   0.058  1.00  0.00     0.027 A 
HETATM   19  C13 UNL     1      -2.581   1.669  -1.057  1.00  0.00     0.045 A 
HETATM   20  C7  UNL     1      -5.147   0.607  -1.024  1.00  0.00    -0.007 A 
HETATM   21  C12 UNL     1      -4.639   1.370  -2.068  1.00  0.00     0.100 A 
HETATM   22  N3  UNL     1      -3.389   1.897  -2.103  1.00  0.00    -0.364 N 
ATOM     23  H3  UNL     1      -3.074   2.450  -2.900  1.00  0.00     0.165 HD
HETATM   24  C14 UNL     1      -1.299   2.189  -1.064  1.00  0.00     0.073 A 
HETATM   25  C15 UNL     1      -0.433   1.977   0.006  1.00  0.00     0.127 A 
HETATM   26  F1  UNL     1       0.797   2.508  -0.053  1.00  0.00    -0.205 F 
BRANCH  20  27
HETATM   27  C8  UNL     1      -6.500   0.083  -1.064  1.00  0.00     0.009 A 
HETATM   28  C9  UNL     1      -7.639   0.515  -1.785  1.00  0.00     0.121 A 
HETATM   29  N1  UNL     1      -8.713  -0.247  -1.564  1.00  0.00    -0.310 N 
HETATM   30  N2  UNL     1      -8.268  -1.175  -0.700  1.00  0.00    -0.307 N 
ATOM     31  H1  UNL     1      -9.649  -0.148  -1.958  1.00  0.00     0.186 HD
HETATM   32  C10 UNL     1      -9.172  -2.195  -0.227  1.00  0.00     0.177 C 
HETATM   33  C11 UNL     1      -6.951  -1.023  -0.370  1.00  0.00     0.123 A 
ENDBRANCH  20  27
ENDBRANCH  13  15
ENDBRANCH   1  13
BRANCH   9  34
HETATM   34  C19 UNL     1       4.984  -0.528   0.350  1.00  0.00     0.026 A 
HETATM   35  C20 UNL     1       5.147   0.782  -0.160  1.00  0.00     0.122 A 
HETATM   36  N8  UNL     1       6.356   0.986  -0.690  1.00  0.00    -0.309 N 
HETATM   37  N9  UNL     1       6.983  -0.194  -0.509  1.00  0.00    -0.301 N 
ATOM     38  H8  UNL     1       6.719   1.833  -1.128  1.00  0.00     0.186 HD
HETATM   39  C23 UNL     1       6.202  -1.134   0.107  1.00  0.00     0.125 A 
BRANCH  37  40
HETATM   40  C21 UNL     1       8.358  -0.351  -0.957  1.00  0.00     0.174 C 
BRANCH  40  41
HETATM   41  C22 UNL     1       8.515  -0.017  -2.437  1.00  0.00     0.185 C 
BRANCH  41  42
HETATM   42  O1  UNL     1       8.425   1.388  -2.667  1.00  0.00    -0.399 OA
HETATM   43  H20 UNL     1       7.603   1.685  -2.215  1.00  0.00     0.209 HD
ENDBRANCH  41  42
ENDBRANCH  40  41
ENDBRANCH  37  40
ENDBRANCH   9  34
TORSDOF 7
