REMARK  9 active torsions:
REMARK  status: ('A' for Active; 'I' for Inactive)
REMARK    1  A    between atoms: C2_2  and  C4_4 
REMARK    2  A    between atoms: C4_4  and  N1_5 
REMARK    3  A    between atoms: N1_5  and  S1_6 
REMARK    4  A    between atoms: S1_6  and  C5_9 
REMARK    5  A    between atoms: C12_16  and  C13_17 
REMARK    6  A    between atoms: C16_21  and  C17_22 
REMARK    7  A    between atoms: C17_22  and  C18_23 
REMARK    8  A    between atoms: C18_23  and  C19_24 
REMARK    9  A    between atoms: C19_24  and  N3_25 
ROOT
HETATM    1  C5  UNL     1       3.242  -1.575   1.787  1.00  0.00     0.080 A 
HETATM    2  C6  UNL     1       3.850  -1.199   3.003  1.00  0.00     0.027 A 
HETATM    3  C7  UNL     1       3.321  -0.149   3.756  1.00  0.00     0.032 A 
HETATM    4  C8  UNL     1       2.190   0.476   3.269  1.00  0.00     0.046 A 
HETATM    5  C9  UNL     1       1.565   0.098   2.075  1.00  0.00     0.008 A 
HETATM    6  C10 UNL     1       2.083  -0.938   1.317  1.00  0.00     0.040 A 
HETATM    7  C11 UNL     1       0.396   0.987   1.914  1.00  0.00     0.047 A 
HETATM    8  C12 UNL     1      -0.453   0.891   0.877  1.00  0.00     0.048 C 
HETATM    9  C26 UNL     1       0.412   1.915   3.106  1.00  0.00     0.257 A 
HETATM   10  O3  UNL     1      -0.360   2.815   3.377  1.00  0.00    -0.267 OA
HETATM   11  N4  UNL     1       1.512   1.536   3.856  1.00  0.00    -0.322 N 
HETATM   12  H36 UNL     1       1.759   1.988   4.723  1.00  0.00     0.169 HD
ENDROOT
BRANCH   8  13
HETATM   13  C13 UNL     1      -1.623   1.649   0.582  1.00  0.00     0.040 A 
HETATM   14  N2  UNL     1      -2.064   2.670   1.393  1.00  0.00    -0.359 N 
HETATM   15  C14 UNL     1      -3.216   3.201   0.890  1.00  0.00     0.016 A 
HETATM   16  H15 UNL     1      -1.614   2.984   2.248  1.00  0.00     0.166 HD
HETATM   17  C15 UNL     1      -3.533   2.537  -0.273  1.00  0.00    -0.027 A 
HETATM   18  C25 UNL     1      -3.976   4.322   1.504  1.00  0.00     0.057 C 
HETATM   19  C16 UNL     1      -2.526   1.550  -0.480  1.00  0.00    -0.023 A 
HETATM   20  C22 UNL     1      -4.760   2.855  -1.063  1.00  0.00     0.041 C 
HETATM   21  C23 UNL     1      -5.361   4.210  -0.641  1.00  0.00     0.005 C 
HETATM   22  C24 UNL     1      -5.387   4.385   0.890  1.00  0.00     0.006 C 
BRANCH  19  23
HETATM   23  C17 UNL     1      -2.483   0.580  -1.624  1.00  0.00     0.043 C 
BRANCH  23  24
HETATM   24  C18 UNL     1      -3.251  -0.708  -1.313  1.00  0.00     0.035 C 
BRANCH  24  25
HETATM   25  C19 UNL     1      -3.232  -1.655  -2.520  1.00  0.00     0.271 C 
BRANCH  25  26
HETATM   26  N3  UNL     1      -3.960  -2.923  -2.378  1.00  0.00     0.080 N 
HETATM   27  C20 UNL     1      -5.396  -2.733  -2.194  1.00  0.00     0.309 C 
HETATM   28  C21 UNL     1      -3.408  -3.782  -1.335  1.00  0.00     0.309 C 
ENDBRANCH  25  26
ENDBRANCH  24  25
ENDBRANCH  23  24
ENDBRANCH  19  23
ENDBRANCH   8  13
BRANCH   1  29
HETATM   29  S1  UNL     1       3.926  -2.920   0.843  1.00  0.00     0.258 S 
HETATM   30  O1  UNL     1       4.791  -3.683   1.714  1.00  0.00    -0.201 OA
HETATM   31  O2  UNL     1       2.844  -3.532   0.106  1.00  0.00    -0.201 OA
BRANCH  29  32
HETATM   32  N1  UNL     1       4.876  -2.120  -0.279  1.00  0.00    -0.315 N 
HETATM   33  H10 UNL     1       4.417  -1.929  -1.167  1.00  0.00     0.172 HD
BRANCH  32  34
HETATM   34  C4  UNL     1       5.998  -1.291   0.159  1.00  0.00     0.136 C 
BRANCH  34  35
HETATM   35  C2  UNL     1       7.106  -1.242  -0.904  1.00  0.00    -0.004 C 
HETATM   36  C1  UNL     1       7.662  -2.632  -1.219  1.00  0.00     0.011 C 
HETATM   37  C3  UNL     1       6.653  -0.537  -2.184  1.00  0.00     0.011 C 
ENDBRANCH  34  35
ENDBRANCH  32  34
ENDBRANCH  29  32
ENDBRANCH   1  29
TORSDOF 9
