REMARK  7 active torsions:
REMARK  status: ('A' for Active; 'I' for Inactive)
REMARK    1  A    between atoms: N1_2  and  C3_4 
REMARK    2  A    between atoms: C3_4  and  C4_5 
REMARK    3  A    between atoms: C4_5  and  C5_6 
REMARK    4  A    between atoms: C5_6  and  C6_7 
REMARK    5  A    between atoms: C7_8  and  C8_9 
REMARK    6  A    between atoms: C14_17  and  S1_18 
REMARK    7  A    between atoms: S1_18  and  N3_19 
ROOT
HETATM    1  C8  UNL     1       1.173   0.548   0.308  1.00  0.00     0.048 C 
HETATM    2  C9  UNL     1       2.455   0.747  -0.043  1.00  0.00     0.047 A 
HETATM    3  C10 UNL     1       3.158   1.965  -0.596  1.00  0.00     0.257 A 
HETATM    4  O1  UNL     1       2.693   3.059  -0.852  1.00  0.00    -0.267 OA
HETATM    5  N2  UNL     1       4.479   1.585  -0.765  1.00  0.00    -0.322 N 
HETATM    6  C11 UNL     1       4.684   0.267  -0.381  1.00  0.00     0.046 A 
HETATM    7  C12 UNL     1       5.881  -0.423  -0.415  1.00  0.00     0.032 A 
HETATM    8  C13 UNL     1       5.869  -1.750   0.019  1.00  0.00     0.027 A 
HETATM    9  C14 UNL     1       4.667  -2.339   0.462  1.00  0.00     0.075 A 
HETATM   10  C15 UNL     1       3.464  -1.620   0.500  1.00  0.00     0.039 A 
HETATM   11  C16 UNL     1       3.488  -0.304   0.067  1.00  0.00     0.008 A 
HETATM   12  H14 UNL     1       5.183   2.216  -1.119  1.00  0.00     0.169 HD
ENDROOT
BRANCH   1  13
HETATM   13  C7  UNL     1       0.066   1.442   0.263  1.00  0.00     0.040 A 
HETATM   14  C6  UNL     1      -1.272   1.250   0.619  1.00  0.00    -0.023 A 
HETATM   15  C18 UNL     1      -1.957   2.473   0.365  1.00  0.00    -0.027 A 
HETATM   16  C17 UNL     1      -1.029   3.365  -0.119  1.00  0.00     0.016 A 
HETATM   17  C19 UNL     1      -3.389   2.845   0.569  1.00  0.00     0.041 C 
HETATM   18  N4  UNL     1       0.183   2.741  -0.179  1.00  0.00    -0.359 N 
HETATM   19  C22 UNL     1      -1.285   4.768  -0.540  1.00  0.00     0.057 C 
HETATM   20  H20 UNL     1       1.038   3.179  -0.508  1.00  0.00     0.166 HD
HETATM   21  C21 UNL     1      -2.655   5.227  -0.007  1.00  0.00     0.006 C 
HETATM   22  C20 UNL     1      -3.738   4.146  -0.180  1.00  0.00     0.005 C 
BRANCH  14  23
HETATM   23  C5  UNL     1      -1.897   0.000   1.165  1.00  0.00     0.043 C 
BRANCH  23  24
HETATM   24  C4  UNL     1      -2.365  -0.942   0.051  1.00  0.00     0.035 C 
BRANCH  24  25
HETATM   25  C3  UNL     1      -3.004  -2.205   0.643  1.00  0.00     0.271 C 
BRANCH  25  26
HETATM   26  N1  UNL     1      -3.513  -3.198  -0.314  1.00  0.00     0.080 N 
HETATM   27  C1  UNL     1      -4.618  -2.690  -1.122  1.00  0.00     0.309 C 
HETATM   28  C2  UNL     1      -2.466  -3.766  -1.157  1.00  0.00     0.309 C 
ENDBRANCH  25  26
ENDBRANCH  24  25
ENDBRANCH  23  24
ENDBRANCH  14  23
ENDBRANCH   1  13
BRANCH   9  29
HETATM   29  S1  UNL     1       4.696  -4.025   1.023  1.00  0.00     0.239 S 
HETATM   30  O2  UNL     1       3.466  -4.289   1.733  1.00  0.00    -0.206 OA
HETATM   31  O3  UNL     1       5.997  -4.289   1.589  1.00  0.00    -0.206 OA
BRANCH  29  32
HETATM   32  N3  UNL     1       4.573  -4.866  -0.428  1.00  0.00    -0.225 NA
HETATM   33  H17 UNL     1       3.703  -5.402  -0.429  1.00  0.00     0.136 HD
HETATM   34  H18 UNL     1       4.663  -4.279  -1.256  1.00  0.00     0.136 HD
ENDBRANCH  29  32
ENDBRANCH   9  29
TORSDOF 7
