REMARK  8 active torsions:
REMARK  status: ('A' for Active; 'I' for Inactive)
REMARK    1  A    between atoms: C2_2  and  S1_3 
REMARK    2  A    between atoms: S1_3  and  C3_6 
REMARK    3  A    between atoms: C10_13  and  C11_14 
REMARK    4  A    between atoms: C14_18  and  C15_19 
REMARK    5  A    between atoms: C15_19  and  C16_20 
REMARK    6  A    between atoms: C16_20  and  C17_21 
REMARK    7  A    between atoms: C17_21  and  N2_22 
REMARK    8  A    between atoms: C20_25  and  O3_26 
ROOT
HETATM    1  C11 UNL     1       0.404   1.799  -0.060  1.00  0.00     0.040 A 
HETATM    2  N1  UNL     1       0.472   2.855  -0.938  1.00  0.00    -0.359 N 
HETATM    3  C12 UNL     1      -0.598   3.679  -0.741  1.00  0.00     0.016 A 
HETATM    4  C13 UNL     1      -1.377   3.148   0.265  1.00  0.00    -0.027 A 
HETATM    5  C14 UNL     1      -0.749   1.943   0.703  1.00  0.00    -0.023 A 
HETATM    6  C23 UNL     1      -2.615   3.825   0.754  1.00  0.00     0.041 C 
HETATM    7  C24 UNL     1      -3.094   4.897  -0.244  1.00  0.00     0.005 C 
HETATM    8  C25 UNL     1      -1.933   5.763  -0.768  1.00  0.00     0.006 C 
HETATM    9  C26 UNL     1      -0.870   4.927  -1.503  1.00  0.00     0.057 C 
HETATM   10  H10 UNL     1       1.213   3.013  -1.608  1.00  0.00     0.166 HD
ENDROOT
BRANCH   1  11
HETATM   11  C10 UNL     1       1.423   0.822  -0.135  1.00  0.00     0.048 C 
HETATM   12  C9  UNL     1       2.308   0.586   0.844  1.00  0.00     0.047 A 
HETATM   13  C7  UNL     1       3.348  -0.453   0.793  1.00  0.00     0.008 A 
HETATM   14  C27 UNL     1       2.464   1.293   2.172  1.00  0.00     0.257 A 
HETATM   15  C6  UNL     1       4.045  -0.368   2.003  1.00  0.00     0.046 A 
HETATM   16  C8  UNL     1       3.699  -1.401  -0.153  1.00  0.00     0.038 A 
HETATM   17  C5  UNL     1       5.097  -1.205   2.321  1.00  0.00     0.032 A 
HETATM   18  N3  UNL     1       3.524   0.647   2.795  1.00  0.00    -0.322 N 
HETATM   19  C4  UNL     1       5.463  -2.165   1.375  1.00  0.00     0.026 A 
HETATM   20  C3  UNL     1       4.777  -2.246   0.146  1.00  0.00     0.060 A 
HETATM   21  H35 UNL     1       3.848   0.915   3.711  1.00  0.00     0.169 HD
HETATM   22  O4  UNL     1       1.840   2.229   2.629  1.00  0.00    -0.267 OA
BRANCH  20  23
HETATM   23  S1  UNL     1       5.250  -3.488  -1.041  1.00  0.00     0.175 S 
HETATM   24  O1  UNL     1       4.027  -3.932  -1.684  1.00  0.00    -0.223 OA
HETATM   25  O2  UNL     1       6.115  -4.436  -0.365  1.00  0.00    -0.223 OA
BRANCH  23  26
HETATM   26  C2  UNL     1       6.213  -2.606  -2.251  1.00  0.00     0.141 C 
HETATM   27  C1  UNL     1       7.475  -1.986  -1.687  1.00  0.00     0.021 C 
ENDBRANCH  23  26
ENDBRANCH  20  23
ENDBRANCH   1  11
BRANCH   5  28
HETATM   28  C15 UNL     1      -1.244   1.029   1.782  1.00  0.00     0.043 C 
BRANCH  28  29
HETATM   29  C16 UNL     1      -2.359   0.081   1.326  1.00  0.00     0.035 C 
BRANCH  29  30
HETATM   30  C17 UNL     1      -1.862  -0.976   0.326  1.00  0.00     0.272 C 
BRANCH  30  31
HETATM   31  N2  UNL     1      -2.869  -1.938  -0.137  1.00  0.00     0.088 N 
HETATM   32  C18 UNL     1      -3.345  -2.847   0.908  1.00  0.00     0.275 C 
HETATM   33  C19 UNL     1      -4.397  -3.808   0.355  1.00  0.00     0.062 C 
HETATM   34  C20 UNL     1      -5.602  -3.057  -0.211  1.00  0.00     0.121 C 
HETATM   35  C21 UNL     1      -5.326  -1.571  -0.431  1.00  0.00     0.062 C 
HETATM   36  C22 UNL     1      -3.918  -1.349  -0.973  1.00  0.00     0.275 C 
BRANCH  34  37
HETATM   37  O3  UNL     1      -6.707  -3.199   0.683  1.00  0.00    -0.395 OA
HETATM   38  H22 UNL     1      -7.465  -2.737   0.285  1.00  0.00     0.210 HD
ENDBRANCH  34  37
ENDBRANCH  30  31
ENDBRANCH  29  30
ENDBRANCH  28  29
ENDBRANCH   5  28
TORSDOF 8
