REMARK  4 active torsions:
REMARK  status: ('A' for Active; 'I' for Inactive)
REMARK    1  A    between atoms: O1_2  and  N1_3 
REMARK    2  A    between atoms: C2_5  and  C4_7 
REMARK    3  A    between atoms: N2_19  and  C16_20 
REMARK    4  A    between atoms: C16_20  and  C17_21 
ROOT
HETATM    1  C4  UNL     1       4.001   0.400   0.068  1.00  0.00    -0.011 A 
HETATM    2  C5  UNL     1       3.792   1.698  -0.388  1.00  0.00     0.016 A 
HETATM    3  C6  UNL     1       2.497   2.181  -0.605  1.00  0.00     0.031 A 
HETATM    4  C7  UNL     1       1.403   1.328  -0.357  1.00  0.00     0.046 A 
HETATM    5  C8  UNL     1       1.589   0.020   0.074  1.00  0.00     0.005 A 
HETATM    6  C9  UNL     1       2.905  -0.447   0.288  1.00  0.00     0.028 A 
HETATM    7  C10 UNL     1       0.298  -0.581   0.180  1.00  0.00     0.013 A 
HETATM    8  C11 UNL     1      -0.115  -1.874   0.539  1.00  0.00    -0.010 A 
HETATM    9  C12 UNL     1      -1.470  -2.231   0.516  1.00  0.00     0.052 A 
HETATM   10  C13 UNL     1      -2.448  -1.330   0.130  1.00  0.00     0.002 A 
HETATM   11  C14 UNL     1      -2.078   0.039  -0.162  1.00  0.00    -0.018 A 
HETATM   12  C15 UNL     1      -0.678   0.372  -0.161  1.00  0.00     0.054 A 
HETATM   13  N2  UNL     1       0.033   1.536  -0.463  1.00  0.00    -0.345 N 
HETATM   14  C20 UNL     1      -3.196   1.023  -0.542  1.00  0.00     0.048 C 
HETATM   15  C21 UNL     1      -4.578   0.752   0.086  1.00  0.00     0.064 C 
HETATM   16  C22 UNL     1      -4.881  -0.684  -0.032  1.00  0.00     0.038 A 
HETATM   17  N3  UNL     1      -6.095  -1.201  -0.223  1.00  0.00    -0.303 N 
ATOM     18  H3  UNL     1      -6.992  -0.719  -0.275  1.00  0.00     0.186 HD
HETATM   19  N4  UNL     1      -5.840  -2.523  -0.331  1.00  0.00    -0.307 N 
HETATM   20  C23 UNL     1      -6.929  -3.444  -0.537  1.00  0.00     0.177 C 
HETATM   21  C24 UNL     1      -4.507  -2.830  -0.266  1.00  0.00     0.124 A 
HETATM   22  C25 UNL     1      -3.859  -1.652   0.006  1.00  0.00     0.017 A 
HETATM   23  C26 UNL     1      -1.543  -3.630   1.005  1.00  0.00     0.253 A 
HETATM   24  O2  UNL     1      -2.521  -4.305   1.252  1.00  0.00    -0.268 OA
HETATM   25  N5  UNL     1      -0.251  -4.065   1.194  1.00  0.00    -0.353 N 
HETATM   26  C27 UNL     1       0.723  -3.041   0.969  1.00  0.00     0.163 A 
HETATM   27  H27 UNL     1      -0.068  -4.969   1.608  1.00  0.00     0.163 HD
ENDROOT
BRANCH   1  28
HETATM   28  C2  UNL     1       5.377  -0.134   0.302  1.00  0.00     0.038 C 
HETATM   29  N1  UNL     1       5.582  -1.412   0.155  1.00  0.00    -0.271 N 
ATOM     30  H1  UNL     1       4.857  -2.085  -0.093  1.00  0.00     0.194 HD
HETATM   31  C3  UNL     1       6.472   0.840   0.692  1.00  0.00     0.071 C 
BRANCH  29  32
HETATM   32  O1  UNL     1       6.924  -1.747   0.381  1.00  0.00    -0.285 OA
HETATM   33  C1  UNL     1       7.079  -3.145   0.173  1.00  0.00     0.237 C 
ENDBRANCH  29  32
ENDBRANCH   1  28
BRANCH  13  34
HETATM   34  C16 UNL     1      -0.524   2.810  -0.906  1.00  0.00     0.133 C 
BRANCH  34  35
HETATM   35  C17 UNL     1      -0.945   3.749   0.243  1.00  0.00    -0.004 C 
HETATM   36  C18 UNL     1      -1.800   4.891  -0.314  1.00  0.00     0.011 C 
HETATM   37  C19 UNL     1       0.249   4.332   1.001  1.00  0.00     0.011 C 
ENDBRANCH  34  35
ENDBRANCH  13  34
TORSDOF 4
