REMARK  10 active torsions:
REMARK  status: ('A' for Active; 'I' for Inactive)
REMARK    1  A    between atoms: N1_2  and  S1_3 
REMARK    2  A    between atoms: S1_3  and  C2_6 
REMARK    3  A    between atoms: C9_13  and  C10_14 
REMARK    4  A    between atoms: C13_18  and  C14_19 
REMARK    5  A    between atoms: C14_19  and  C15_20 
REMARK    6  A    between atoms: C15_20  and  C16_21 
REMARK    7  A    between atoms: C16_21  and  N3_22 
REMARK    8  A    between atoms: N4_25  and  C19_26 
REMARK    9  A    between atoms: C19_26  and  C20_27 
REMARK   10  A    between atoms: C20_27  and  O4_29 
ROOT
HETATM    1  C10 UNL     1      -1.370  -1.854   0.208  1.00  0.00     0.040 A 
HETATM    2  N2  UNL     1      -1.378  -3.098  -0.380  1.00  0.00    -0.359 N 
HETATM    3  C11 UNL     1      -0.237  -3.773  -0.056  1.00  0.00     0.016 A 
HETATM    4  C12 UNL     1       0.533  -2.970   0.754  1.00  0.00    -0.027 A 
HETATM    5  C13 UNL     1      -0.177  -1.745   0.927  1.00  0.00    -0.023 A 
HETATM    6  C23 UNL     1       1.862  -3.410   1.273  1.00  0.00     0.041 C 
HETATM    7  C24 UNL     1       2.040  -4.936   1.130  1.00  0.00     0.005 C 
HETATM    8  C25 UNL     1       1.571  -5.448  -0.246  1.00  0.00     0.006 C 
HETATM    9  C26 UNL     1       0.078  -5.162  -0.486  1.00  0.00     0.057 C 
HETATM   10  H9  UNL     1      -2.124  -3.474  -0.957  1.00  0.00     0.166 HD
ENDROOT
BRANCH   1  11
HETATM   11  C9  UNL     1      -2.435  -0.925   0.037  1.00  0.00     0.048 C 
HETATM   12  C8  UNL     1      -3.603  -1.063  -0.608  1.00  0.00     0.047 A 
HETATM   13  C6  UNL     1      -4.615   0.010  -0.654  1.00  0.00     0.008 A 
HETATM   14  C27 UNL     1      -4.208  -2.238  -1.341  1.00  0.00     0.257 A 
HETATM   15  C5  UNL     1      -5.726  -0.518  -1.320  1.00  0.00     0.046 A 
HETATM   16  C7  UNL     1      -4.632   1.316  -0.194  1.00  0.00     0.040 A 
HETATM   17  C4  UNL     1      -6.884   0.205  -1.536  1.00  0.00     0.032 A 
HETATM   18  N5  UNL     1      -5.478  -1.827  -1.714  1.00  0.00    -0.322 N 
HETATM   19  C3  UNL     1      -6.921   1.518  -1.061  1.00  0.00     0.027 A 
HETATM   20  C2  UNL     1      -5.803   2.062  -0.392  1.00  0.00     0.080 A 
HETATM   21  H35 UNL     1      -6.118  -2.425  -2.217  1.00  0.00     0.169 HD
HETATM   22  O5  UNL     1      -3.713  -3.326  -1.566  1.00  0.00    -0.267 OA
BRANCH  20  23
HETATM   23  S1  UNL     1      -5.852   3.749   0.165  1.00  0.00     0.258 S 
HETATM   24  O1  UNL     1      -4.495   4.237   0.276  1.00  0.00    -0.201 OA
HETATM   25  O2  UNL     1      -6.853   4.442  -0.613  1.00  0.00    -0.201 OA
BRANCH  23  26
HETATM   26  N1  UNL     1      -6.490   3.589   1.714  1.00  0.00    -0.320 N 
HETATM   27  C1  UNL     1      -5.567   3.328   2.815  1.00  0.00     0.159 C 
HETATM   28  H4  UNL     1      -7.250   4.251   1.878  1.00  0.00     0.171 HD
ENDBRANCH  23  26
ENDBRANCH  20  23
ENDBRANCH   1  11
BRANCH   5  29
HETATM   29  C14 UNL     1       0.280  -0.574   1.748  1.00  0.00     0.043 C 
BRANCH  29  30
HETATM   30  C15 UNL     1       0.818   0.601   0.929  1.00  0.00     0.035 C 
BRANCH  30  31
HETATM   31  C16 UNL     1       2.116   0.260   0.184  1.00  0.00     0.273 C 
BRANCH  31  32
HETATM   32  N3  UNL     1       2.691   1.446  -0.470  1.00  0.00     0.091 N 
HETATM   33  C17 UNL     1       3.584   1.048  -1.578  1.00  0.00     0.302 C 
HETATM   34  C18 UNL     1       4.564   2.170  -1.983  1.00  0.00     0.303 C 
HETATM   35  N4  UNL     1       5.493   2.576  -0.907  1.00  0.00     0.101 N 
HETATM   36  C21 UNL     1       4.925   2.269   0.426  1.00  0.00     0.303 C 
HETATM   37  C22 UNL     1       3.381   2.356   0.471  1.00  0.00     0.302 C 
BRANCH  35  38
HETATM   38  C19 UNL     1       6.821   1.953  -1.083  1.00  0.00     0.381 C 
BRANCH  38  39
HETATM   39  C20 UNL     1       7.831   2.463  -0.067  1.00  0.00     0.169 C 
HETATM   40  O3  UNL     1       8.261   1.839   0.892  1.00  0.00    -0.649 OA
BRANCH  39  41
HETATM   41  O4  UNL     1       8.244   3.727  -0.301  1.00  0.00    -0.775 OA
HETATM   42  H22 UNL     1       8.859   3.915   0.439  1.00  0.00     0.167 HD
ENDBRANCH  39  41
ENDBRANCH  38  39
ENDBRANCH  35  38
ENDBRANCH  31  32
ENDBRANCH  30  31
ENDBRANCH  29  30
ENDBRANCH   5  29
TORSDOF 10
