REMARK  6 active torsions:
REMARK  status: ('A' for Active; 'I' for Inactive)
REMARK    1  A    between atoms: C2_2  and  C3_3 
REMARK       I    between atoms: C3_3  and  N1_5 
REMARK    2  A    between atoms: C7_9  and  C8_10 
REMARK    3  A    between atoms: C13_17  and  C14_18 
REMARK       I    between atoms: C14_18  and  N3_20 
REMARK    4  A    between atoms: N3_20  and  C15_21 
REMARK    5  A    between atoms: C17_23  and  C18_24 
REMARK    6  A    between atoms: C24_36  and  N5_37 
ROOT
HETATM    1  C8  UNL     1      -2.034  -0.986   0.273  1.00  0.00     0.094 A 
HETATM    2  N2  UNL     1      -0.808  -0.626   0.610  1.00  0.00    -0.342 N 
ATOM      3  H2  UNL     1      -0.532  -0.086   1.430  1.00  0.00     0.167 HD
HETATM    4  C9  UNL     1       0.019  -1.125  -0.365  1.00  0.00     0.077 A 
HETATM    5  C10 UNL     1       1.449  -0.960  -0.297  1.00  0.00     0.032 A 
HETATM    6  C11 UNL     1       2.010   0.303  -0.512  1.00  0.00     0.018 A 
HETATM    7  C12 UNL     1       3.391   0.492  -0.387  1.00  0.00     0.018 A 
HETATM    8  C13 UNL     1       4.221  -0.579  -0.015  1.00  0.00     0.035 A 
HETATM    9  C21 UNL     1       3.657  -1.847   0.180  1.00  0.00     0.060 A 
HETATM   10  C22 UNL     1       2.283  -2.027   0.041  1.00  0.00     0.130 A 
HETATM   11  F4  UNL     1       1.776  -3.250   0.252  1.00  0.00    -0.205 F 
HETATM   12  C23 UNL     1      -0.712  -1.727  -1.362  1.00  0.00     0.106 A 
HETATM   13  C24 UNL     1      -0.413  -2.366  -2.621  1.00  0.00     0.107 A 
HETATM   14  N6  UNL     1      -1.388  -2.843  -3.361  1.00  0.00    -0.354 N 
ATOM     15  H6  UNL     1      -1.187  -3.290  -4.256  1.00  0.00     0.166 HD
HETATM   16  C25 UNL     1      -2.686  -2.731  -2.912  1.00  0.00     0.107 A 
HETATM   17  C26 UNL     1      -3.031  -2.148  -1.754  1.00  0.00     0.116 A 
HETATM   18  N7  UNL     1      -2.027  -1.635  -0.951  1.00  0.00    -0.305 N 
ENDROOT
BRANCH   1  19
HETATM   19  C7  UNL     1      -3.235  -0.700   1.129  1.00  0.00     0.072 C 
HETATM   20  C6  UNL     1      -4.001  -1.957   1.558  1.00  0.00     0.015 C 
HETATM   21  C5  UNL     1      -5.210  -1.634   2.445  1.00  0.00     0.021 C 
HETATM   22  C4  UNL     1      -5.554  -0.147   2.495  1.00  0.00     0.126 C 
HETATM   23  N1  UNL     1      -5.464   0.455   1.166  1.00  0.00    -0.351 N 
HETATM   24  C3  UNL     1      -6.564   1.166   0.667  1.00  0.00     0.232 C 
HETATM   25  C27 UNL     1      -4.158   0.361   0.507  1.00  0.00     0.138 C 
HETATM   26  O1  UNL     1      -7.632   1.179   1.299  1.00  0.00    -0.272 OA
BRANCH  24  27
HETATM   27  C2  UNL     1      -6.447   1.904  -0.698  1.00  0.00     0.080 C 
HETATM   28  C1  UNL     1      -6.718   0.982  -1.892  1.00  0.00     0.030 C 
HETATM   29  C28 UNL     1      -7.326   3.180  -0.808  1.00  0.00     0.188 C 
HETATM   30  O3  UNL     1      -6.221   3.928  -1.381  1.00  0.00    -0.389 OA
HETATM   31  C29 UNL     1      -5.301   2.918  -0.902  1.00  0.00     0.188 C 
ENDBRANCH  24  27
ENDBRANCH   1  19
BRANCH  13  32
HETATM   32  N5  UNL     1       0.843  -2.499  -3.136  1.00  0.00    -0.287 NA
HETATM   33  H18 UNL     1       1.503  -1.764  -2.921  1.00  0.00     0.125 HD
HETATM   34  H19 UNL     1       0.822  -2.753  -4.117  1.00  0.00     0.125 HD
ENDBRANCH  13  32
BRANCH   8  35
HETATM   35  C14 UNL     1       5.696  -0.432   0.172  1.00  0.00     0.257 C 
HETATM   36  O2  UNL     1       6.396  -1.437   0.096  1.00  0.00    -0.267 OA
HETATM   37  N3  UNL     1       6.141   0.836   0.455  1.00  0.00    -0.309 N 
HETATM   38  H13 UNL     1       5.489   1.591   0.608  1.00  0.00     0.170 HD
BRANCH  37  39
HETATM   39  C15 UNL     1       7.456   1.272   0.628  1.00  0.00     0.108 A 
HETATM   40  C16 UNL     1       8.575   0.460   0.526  1.00  0.00     0.064 A 
HETATM   41  C17 UNL     1       9.847   1.021   0.712  1.00  0.00     0.052 A 
HETATM   42  C19 UNL     1       9.940   2.384   0.999  1.00  0.00     0.033 A 
HETATM   43  C20 UNL     1       8.771   3.117   1.083  1.00  0.00     0.090 A 
HETATM   44  N4  UNL     1       7.540   2.591   0.903  1.00  0.00    -0.352 N 
ATOM     45  H4  UNL     1       6.703   3.170   0.972  1.00  0.00     0.166 HD
BRANCH  41  46
HETATM   46  C18 UNL     1      11.074   0.152   0.631  1.00  0.00     0.417 C 
HETATM   47  F1  UNL     1      11.210  -0.652   1.720  1.00  0.00    -0.166 F 
HETATM   48  F2  UNL     1      12.231   0.867   0.548  1.00  0.00    -0.166 F 
HETATM   49  F3  UNL     1      11.071  -0.672  -0.452  1.00  0.00    -0.166 F 
ENDBRANCH  41  46
ENDBRANCH  37  39
ENDBRANCH   8  35
TORSDOF 6
