REMARK  5 active torsions:
REMARK  status: ('A' for Active; 'I' for Inactive)
REMARK    1  A    between atoms: N1_2  and  C3_4 
REMARK    2  A    between atoms: C3_4  and  C4_5 
REMARK    3  A    between atoms: C4_5  and  C5_6 
REMARK    4  A    between atoms: C5_6  and  C6_7 
REMARK    5  A    between atoms: C7_8  and  C8_9 
ROOT
HETATM    1  C6  UNL     1       0.355   1.192   0.456  1.00  0.00    -0.023 A 
HETATM    2  C7  UNL     1      -0.907   0.844  -0.034  1.00  0.00     0.040 A 
HETATM    3  N3  UNL     1      -1.387   1.934  -0.725  1.00  0.00    -0.359 N 
HETATM    4  C17 UNL     1      -0.471   2.946  -0.694  1.00  0.00     0.016 A 
HETATM    5  C18 UNL     1       0.624   2.522   0.022  1.00  0.00    -0.027 A 
HETATM    6  C19 UNL     1       1.809   3.400   0.256  1.00  0.00     0.041 C 
HETATM    7  C20 UNL     1       1.809   4.604  -0.705  1.00  0.00     0.005 C 
HETATM    8  C21 UNL     1       0.416   5.252  -0.826  1.00  0.00     0.006 C 
HETATM    9  C22 UNL     1      -0.639   4.265  -1.359  1.00  0.00     0.057 C 
HETATM   10  H19 UNL     1      -2.286   1.986  -1.194  1.00  0.00     0.166 HD
ENDROOT
BRANCH   2  11
HETATM   11  C8  UNL     1      -1.644  -0.369   0.085  1.00  0.00     0.048 C 
HETATM   12  C9  UNL     1      -2.871  -0.678  -0.365  1.00  0.00     0.047 A 
HETATM   13  C10 UNL     1      -3.884   0.136  -1.136  1.00  0.00     0.257 A 
HETATM   14  C16 UNL     1      -3.492  -2.001  -0.152  1.00  0.00     0.006 A 
HETATM   15  O1  UNL     1      -3.792   1.282  -1.535  1.00  0.00    -0.267 OA
HETATM   16  N2  UNL     1      -4.974  -0.699  -1.314  1.00  0.00    -0.322 N 
HETATM   17  C11 UNL     1      -4.756  -1.948  -0.745  1.00  0.00     0.046 A 
HETATM   18  H14 UNL     1      -5.806  -0.412  -1.805  1.00  0.00     0.169 HD
HETATM   19  C12 UNL     1      -5.629  -3.016  -0.743  1.00  0.00     0.030 A 
HETATM   20  C13 UNL     1      -5.206  -4.189  -0.114  1.00  0.00     0.002 A 
HETATM   21  C14 UNL     1      -3.937  -4.262   0.488  1.00  0.00     0.001 A 
HETATM   22  C15 UNL     1      -3.069  -3.164   0.472  1.00  0.00     0.015 A 
ENDBRANCH   2  11
BRANCH   1  23
HETATM   23  C5  UNL     1       1.271   0.341   1.284  1.00  0.00     0.043 C 
BRANCH  23  24
HETATM   24  C4  UNL     1       2.111  -0.612   0.430  1.00  0.00     0.035 C 
BRANCH  24  25
HETATM   25  C3  UNL     1       3.070  -1.427   1.307  1.00  0.00     0.271 C 
BRANCH  25  26
HETATM   26  N1  UNL     1       3.781  -2.484   0.568  1.00  0.00     0.080 N 
HETATM   27  C1  UNL     1       4.701  -1.937  -0.431  1.00  0.00     0.309 C 
HETATM   28  C2  UNL     1       4.520  -3.337   1.503  1.00  0.00     0.309 C 
ENDBRANCH  25  26
ENDBRANCH  24  25
ENDBRANCH  23  24
ENDBRANCH   1  23
TORSDOF 5
