REMARK  4 active torsions:
REMARK  status: ('A' for Active; 'I' for Inactive)
REMARK    1  A    between atoms: C2_2  and  O1_3 
REMARK    2  A    between atoms: O1_3  and  N1_4 
REMARK    3  A    between atoms: C3_6  and  C5_8 
REMARK    4  A    between atoms: N2_20  and  C17_21 
ROOT
HETATM    1  C5  UNL     1       3.458   0.189   0.469  1.00  0.00    -0.011 A 
HETATM    2  C6  UNL     1       3.380   1.578   0.409  1.00  0.00     0.016 A 
HETATM    3  C7  UNL     1       2.144   2.224   0.314  1.00  0.00     0.031 A 
HETATM    4  C8  UNL     1       0.972   1.442   0.267  1.00  0.00     0.046 A 
HETATM    5  C9  UNL     1       1.027   0.056   0.291  1.00  0.00     0.005 A 
HETATM    6  C10 UNL     1       2.288  -0.579   0.397  1.00  0.00     0.028 A 
HETATM    7  C11 UNL     1      -0.311  -0.422   0.168  1.00  0.00     0.013 A 
HETATM    8  C12 UNL     1      -0.842  -1.723   0.122  1.00  0.00    -0.010 A 
HETATM    9  C13 UNL     1      -2.211  -1.942  -0.070  1.00  0.00     0.052 A 
HETATM   10  C14 UNL     1      -3.089  -0.887  -0.242  1.00  0.00     0.002 A 
HETATM   11  C15 UNL     1      -2.577   0.471  -0.256  1.00  0.00    -0.018 A 
HETATM   12  C16 UNL     1      -1.181   0.680   0.026  1.00  0.00     0.054 A 
HETATM   13  N2  UNL     1      -0.378   1.808   0.232  1.00  0.00    -0.341 N 
HETATM   14  C20 UNL     1      -3.579   1.594  -0.553  1.00  0.00     0.048 C 
HETATM   15  C21 UNL     1      -4.715   1.232  -1.532  1.00  0.00     0.064 C 
HETATM   16  C22 UNL     1      -5.306  -0.045  -1.091  1.00  0.00     0.038 A 
HETATM   17  N3  UNL     1      -6.599  -0.364  -1.155  1.00  0.00    -0.303 N 
ATOM     18  H3  UNL     1      -7.370   0.175  -1.550  1.00  0.00     0.186 HD
HETATM   19  N4  UNL     1      -6.632  -1.580  -0.566  1.00  0.00    -0.307 N 
HETATM   20  C23 UNL     1      -7.885  -2.287  -0.459  1.00  0.00     0.177 C 
HETATM   21  C24 UNL     1      -5.416  -1.991  -0.088  1.00  0.00     0.124 A 
HETATM   22  C25 UNL     1      -4.513  -1.036  -0.481  1.00  0.00     0.017 A 
HETATM   23  C26 UNL     1      -2.400  -3.412  -0.128  1.00  0.00     0.253 A 
HETATM   24  O2  UNL     1      -3.403  -4.052  -0.370  1.00  0.00    -0.268 OA
HETATM   25  N5  UNL     1      -1.175  -3.991   0.116  1.00  0.00    -0.353 N 
HETATM   26  C27 UNL     1      -0.120  -3.033   0.229  1.00  0.00     0.163 A 
HETATM   27  H27 UNL     1      -1.056  -4.992   0.030  1.00  0.00     0.163 HD
ENDROOT
BRANCH   1  28
HETATM   28  C3  UNL     1       4.800  -0.458   0.573  1.00  0.00     0.038 C 
HETATM   29  N1  UNL     1       5.825   0.139   0.037  1.00  0.00    -0.271 N 
ATOM     30  H1  UNL     1       5.781   1.040  -0.439  1.00  0.00     0.194 HD
HETATM   31  C4  UNL     1       4.903  -1.787   1.296  1.00  0.00     0.071 C 
BRANCH  29  32
HETATM   32  O1  UNL     1       6.997  -0.612   0.197  1.00  0.00    -0.281 OA
BRANCH  32  33
HETATM   33  C2  UNL     1       8.071   0.087  -0.431  1.00  0.00     0.196 C 
HETATM   34  C1  UNL     1       9.333  -0.739  -0.282  1.00  0.00     0.036 C 
ENDBRANCH  32  33
ENDBRANCH  29  32
ENDBRANCH   1  28
BRANCH  13  35
HETATM   35  C17 UNL     1      -0.756   3.203   0.499  1.00  0.00     0.082 C 
HETATM   36  C18 UNL     1      -0.806   4.057  -0.769  1.00  0.00     0.032 C 
HETATM   37  C19 UNL     1      -1.940   3.428   1.442  1.00  0.00     0.032 C 
ENDBRANCH  13  35
TORSDOF 4
