REMARK  10 active torsions:
REMARK  status: ('A' for Active; 'I' for Inactive)
REMARK    1  A    between atoms: C2_2  and  S1_3 
REMARK    2  A    between atoms: S1_3  and  C3_6 
REMARK    3  A    between atoms: C10_13  and  C11_14 
REMARK    4  A    between atoms: C14_18  and  C15_19 
REMARK    5  A    between atoms: C15_19  and  C16_20 
REMARK    6  A    between atoms: C16_20  and  C17_21 
REMARK    7  A    between atoms: C17_21  and  N2_22 
REMARK    8  A    between atoms: N3_25  and  C20_26 
REMARK    9  A    between atoms: C20_26  and  C21_27 
REMARK   10  A    between atoms: C21_27  and  O4_29 
ROOT
HETATM    1  C11 UNL     1       1.460  -2.270  -0.092  1.00  0.00     0.040 A 
HETATM    2  N1  UNL     1       1.876  -3.552  -0.382  1.00  0.00    -0.359 N 
HETATM    3  C12 UNL     1       0.857  -4.432  -0.167  1.00  0.00     0.016 A 
HETATM    4  C13 UNL     1      -0.241  -3.734   0.279  1.00  0.00    -0.027 A 
HETATM    5  C14 UNL     1       0.147  -2.364   0.381  1.00  0.00    -0.023 A 
HETATM    6  C24 UNL     1      -1.553  -4.396   0.549  1.00  0.00     0.041 C 
HETATM    7  C25 UNL     1      -1.423  -5.933   0.572  1.00  0.00     0.005 C 
HETATM    8  C26 UNL     1      -0.472  -6.479  -0.514  1.00  0.00     0.006 C 
HETATM    9  C27 UNL     1       0.944  -5.902  -0.372  1.00  0.00     0.057 C 
HETATM   10  H10 UNL     1       2.795  -3.817  -0.722  1.00  0.00     0.166 HD
ENDROOT
BRANCH   1  11
HETATM   11  C10 UNL     1       2.296  -1.135  -0.298  1.00  0.00     0.048 C 
HETATM   12  C9  UNL     1       3.535  -1.061  -0.812  1.00  0.00     0.047 A 
HETATM   13  C7  UNL     1       4.231   0.220  -1.053  1.00  0.00     0.008 A 
HETATM   14  C28 UNL     1       4.476  -2.141  -1.296  1.00  0.00     0.257 A 
HETATM   15  C6  UNL     1       5.462  -0.100  -1.638  1.00  0.00     0.046 A 
HETATM   16  C8  UNL     1       3.882   1.545  -0.851  1.00  0.00     0.038 A 
HETATM   17  C5  UNL     1       6.373   0.855  -2.047  1.00  0.00     0.032 A 
HETATM   18  N4  UNL     1       5.599  -1.475  -1.760  1.00  0.00    -0.322 N 
HETATM   19  C4  UNL     1       6.028   2.195  -1.854  1.00  0.00     0.026 A 
HETATM   20  C3  UNL     1       4.800   2.529  -1.247  1.00  0.00     0.060 A 
HETATM   21  H36 UNL     1       6.384  -1.959  -2.173  1.00  0.00     0.169 HD
HETATM   22  O5  UNL     1       4.307  -3.349  -1.306  1.00  0.00    -0.267 OA
BRANCH  20  23
HETATM   23  S1  UNL     1       4.360   4.246  -1.052  1.00  0.00     0.175 S 
HETATM   24  O1  UNL     1       5.226   5.020  -1.919  1.00  0.00    -0.223 OA
HETATM   25  O2  UNL     1       2.919   4.321  -1.195  1.00  0.00    -0.223 OA
BRANCH  23  26
HETATM   26  C2  UNL     1       4.766   4.621   0.642  1.00  0.00     0.141 C 
HETATM   27  C1  UNL     1       6.252   4.571   0.932  1.00  0.00     0.021 C 
ENDBRANCH  23  26
ENDBRANCH  20  23
ENDBRANCH   1  11
BRANCH   5  28
HETATM   28  C15 UNL     1      -0.717  -1.255   0.906  1.00  0.00     0.043 C 
BRANCH  28  29
HETATM   29  C16 UNL     1      -1.333  -0.389  -0.196  1.00  0.00     0.035 C 
BRANCH  29  30
HETATM   30  C17 UNL     1      -2.228   0.712   0.389  1.00  0.00     0.273 C 
BRANCH  30  31
HETATM   31  N2  UNL     1      -3.449   0.155   0.990  1.00  0.00     0.091 N 
HETATM   32  C18 UNL     1      -3.988   1.019   2.059  1.00  0.00     0.302 C 
HETATM   33  C19 UNL     1      -4.674   2.310   1.564  1.00  0.00     0.303 C 
HETATM   34  N3  UNL     1      -5.758   2.029   0.602  1.00  0.00     0.101 N 
HETATM   35  C22 UNL     1      -5.236   1.209  -0.509  1.00  0.00     0.303 C 
HETATM   36  C23 UNL     1      -4.516  -0.071  -0.013  1.00  0.00     0.302 C 
BRANCH  34  37
HETATM   37  C20 UNL     1      -6.363   3.278   0.090  1.00  0.00     0.381 C 
BRANCH  37  38
HETATM   38  C21 UNL     1      -7.213   3.994   1.139  1.00  0.00     0.169 C 
HETATM   39  O3  UNL     1      -7.493   3.645   2.274  1.00  0.00    -0.649 OA
BRANCH  38  40
HETATM   40  O4  UNL     1      -7.690   5.175   0.673  1.00  0.00    -0.775 OA
HETATM   41  H23 UNL     1      -8.221   5.518   1.423  1.00  0.00     0.167 HD
ENDBRANCH  38  40
ENDBRANCH  37  38
ENDBRANCH  34  37
ENDBRANCH  30  31
ENDBRANCH  29  30
ENDBRANCH  28  29
ENDBRANCH   5  28
TORSDOF 10
