REMARK  10 active torsions:
REMARK  status: ('A' for Active; 'I' for Inactive)
REMARK    1  A    between atoms: C2_2  and  S1_3 
REMARK    2  A    between atoms: S1_3  and  C3_6 
REMARK    3  A    between atoms: C10_13  and  C11_14 
REMARK    4  A    between atoms: C14_18  and  C15_19 
REMARK    5  A    between atoms: C15_19  and  C16_20 
REMARK    6  A    between atoms: C16_20  and  C17_21 
REMARK    7  A    between atoms: C17_21  and  N2_22 
REMARK    8  A    between atoms: N3_25  and  C20_26 
REMARK    9  A    between atoms: C20_26  and  C21_27 
REMARK   10  A    between atoms: C21_27  and  O3_28 
ROOT
HETATM    1  C11 UNL     1       1.168  -2.355   0.373  1.00  0.00     0.040 A 
HETATM    2  N1  UNL     1       1.151  -3.407   1.258  1.00  0.00    -0.359 N 
HETATM    3  C12 UNL     1       0.014  -4.138   1.066  1.00  0.00     0.016 A 
HETATM    4  C13 UNL     1      -0.713  -3.557   0.048  1.00  0.00    -0.027 A 
HETATM    5  C14 UNL     1       0.019  -2.420  -0.407  1.00  0.00    -0.023 A 
HETATM    6  C24 UNL     1      -2.010  -4.126  -0.427  1.00  0.00     0.041 C 
HETATM    7  C25 UNL     1      -2.583  -5.130   0.590  1.00  0.00     0.005 C 
HETATM    8  C26 UNL     1      -1.507  -6.091   1.130  1.00  0.00     0.006 C 
HETATM    9  C27 UNL     1      -0.366  -5.346   1.846  1.00  0.00     0.057 C 
HETATM   10  H10 UNL     1       1.872  -3.613   1.936  1.00  0.00     0.166 HD
ENDROOT
BRANCH   1  11
HETATM   11  C10 UNL     1       2.244  -1.445   0.456  1.00  0.00     0.048 C 
HETATM   12  C9  UNL     1       3.195  -1.325  -0.481  1.00  0.00     0.047 A 
HETATM   13  C7  UNL     1       4.270  -0.323  -0.446  1.00  0.00     0.008 A 
HETATM   14  C28 UNL     1       3.398  -2.139  -1.738  1.00  0.00     0.257 A 
HETATM   15  C6  UNL     1       5.040  -0.534  -1.594  1.00  0.00     0.046 A 
HETATM   16  C8  UNL     1       4.589   0.693   0.437  1.00  0.00     0.038 A 
HETATM   17  C5  UNL     1       6.147   0.232  -1.903  1.00  0.00     0.032 A 
HETATM   18  N4  UNL     1       4.525  -1.590  -2.337  1.00  0.00    -0.322 N 
HETATM   19  C4  UNL     1       6.481   1.263  -1.022  1.00  0.00     0.026 A 
HETATM   20  C3  UNL     1       5.696   1.495   0.127  1.00  0.00     0.060 A 
HETATM   21  H38 UNL     1       4.899  -1.948  -3.203  1.00  0.00     0.169 HD
HETATM   22  O4  UNL     1       2.756  -3.077  -2.164  1.00  0.00    -0.267 OA
BRANCH  20  23
HETATM   23  S1  UNL     1       6.133   2.820   1.236  1.00  0.00     0.175 S 
HETATM   24  O1  UNL     1       7.501   3.198   0.936  1.00  0.00    -0.223 OA
HETATM   25  O2  UNL     1       5.748   2.395   2.568  1.00  0.00    -0.223 OA
BRANCH  23  26
HETATM   26  C2  UNL     1       5.052   4.142   0.721  1.00  0.00     0.141 C 
HETATM   27  C1  UNL     1       5.262   5.391   1.551  1.00  0.00     0.021 C 
ENDBRANCH  23  26
ENDBRANCH  20  23
ENDBRANCH   1  11
BRANCH   5  28
HETATM   28  C15 UNL     1      -0.381  -1.486  -1.508  1.00  0.00     0.043 C 
BRANCH  28  29
HETATM   29  C16 UNL     1      -0.717  -0.065  -1.040  1.00  0.00     0.035 C 
BRANCH  29  30
HETATM   30  C17 UNL     1      -1.942  -0.019  -0.116  1.00  0.00     0.273 C 
BRANCH  30  31
HETATM   31  N2  UNL     1      -2.236   1.347   0.365  1.00  0.00     0.091 N 
HETATM   32  C18 UNL     1      -3.187   1.306   1.499  1.00  0.00     0.302 C 
HETATM   33  C19 UNL     1      -4.652   0.994   1.106  1.00  0.00     0.302 C 
HETATM   34  N3  UNL     1      -5.216   1.874   0.056  1.00  0.00     0.093 N 
HETATM   35  C22 UNL     1      -4.262   1.929  -1.076  1.00  0.00     0.302 C 
HETATM   36  C23 UNL     1      -2.792   2.225  -0.686  1.00  0.00     0.302 C 
BRANCH  34  37
HETATM   37  C20 UNL     1      -5.524   3.216   0.606  1.00  0.00     0.298 C 
BRANCH  37  38
HETATM   38  C21 UNL     1      -6.420   4.028  -0.344  1.00  0.00     0.194 C 
BRANCH  38  39
HETATM   39  O3  UNL     1      -7.507   3.222  -0.795  1.00  0.00    -0.399 OA
HETATM   40  H25 UNL     1      -7.154   2.307  -0.791  1.00  0.00     0.209 HD
ENDBRANCH  38  39
ENDBRANCH  37  38
ENDBRANCH  34  37
ENDBRANCH  30  31
ENDBRANCH  29  30
ENDBRANCH  28  29
ENDBRANCH   5  28
TORSDOF 10
