REMARK  1 active torsions:
REMARK  status: ('A' for Active; 'I' for Inactive)
REMARK    1  A    between atoms: C2_2  and  N1_3 
ROOT
HETATM    1  N1  UNL     1      -3.686   0.867   0.410  1.00  0.00    -0.317 N 
HETATM    2  C3  UNL     1      -4.627  -0.119   0.722  1.00  0.00     0.237 A 
HETATM    3  O1  UNL     1      -5.840   0.022   0.785  1.00  0.00    -0.272 OA
HETATM    4  C4  UNL     1      -3.853  -1.433   0.974  1.00  0.00     0.063 A 
HETATM    5  C5  UNL     1      -4.325  -2.502  -0.010  1.00  0.00     0.030 C 
HETATM    6  C6  UNL     1      -4.052  -1.873   2.424  1.00  0.00     0.030 C 
HETATM    7  C7  UNL     1      -2.424  -1.012   0.708  1.00  0.00    -0.012 A 
HETATM    8  C8  UNL     1      -1.268  -1.783   0.757  1.00  0.00     0.041 A 
HETATM    9  C9  UNL     1      -0.074  -1.115   0.451  1.00  0.00     0.044 A 
HETATM   10  N2  UNL     1       1.214  -1.595   0.416  1.00  0.00    -0.353 N 
HETATM   11  C10 UNL     1       2.104  -0.607   0.075  1.00  0.00     0.069 A 
HETATM   12  C11 UNL     1       1.372   0.553  -0.136  1.00  0.00    -0.017 A 
HETATM   13  C12 UNL     1      -0.008   0.239   0.111  1.00  0.00     0.001 A 
HETATM   14  C13 UNL     1      -1.202   0.996   0.074  1.00  0.00     0.044 A 
HETATM   15  C14 UNL     1      -2.388   0.341   0.379  1.00  0.00     0.045 A 
HETATM   16  C15 UNL     1       1.895   1.904  -0.523  1.00  0.00     0.042 C 
HETATM   17  C16 UNL     1       3.083   1.883  -1.486  1.00  0.00     0.009 C 
HETATM   18  C17 UNL     1       4.399   1.504  -0.807  1.00  0.00     0.043 C 
HETATM   19  C18 UNL     1       4.516   0.069  -0.415  1.00  0.00    -0.004 A 
HETATM   20  C19 UNL     1       5.718  -0.692  -0.330  1.00  0.00     0.030 A 
HETATM   21  C20 UNL     1       7.105  -0.247  -0.617  1.00  0.00     0.070 C 
HETATM   22  N3  UNL     1       5.487  -1.949   0.061  1.00  0.00    -0.304 N 
ATOM     23  H3  UNL     1       6.163  -2.701   0.196  1.00  0.00     0.186 HD
HETATM   24  N4  UNL     1       4.159  -1.990   0.234  1.00  0.00    -0.298 N 
HETATM   25  C21 UNL     1       3.517  -0.812  -0.035  1.00  0.00     0.083 A 
HETATM   26  H13 UNL     1       1.451  -2.554   0.619  1.00  0.00     0.166 HD
HETATM   27  H24 UNL     1       3.758  -2.866   0.544  1.00  0.00     0.187 HD
ENDROOT
BRANCH   1  28
HETATM   28  C2  UNL     1      -4.038   2.224   0.060  1.00  0.00     0.128 C 
HETATM   29  C1  UNL     1      -4.235   2.395  -1.437  1.00  0.00     0.027 C 
ENDBRANCH   1  28
TORSDOF 1
