REMARK  10 active torsions:
REMARK  status: ('A' for Active; 'I' for Inactive)
REMARK    1  A    between atoms: N1_2  and  C3_4 
REMARK    2  A    between atoms: C3_4  and  C4_5 
REMARK    3  A    between atoms: C4_5  and  C5_6 
REMARK    4  A    between atoms: C5_6  and  C6_7 
REMARK    5  A    between atoms: C7_8  and  C8_9 
REMARK    6  A    between atoms: C14_17  and  S1_18 
REMARK    7  A    between atoms: S1_18  and  N3_21 
REMARK    8  A    between atoms: N3_21  and  C15_22 
REMARK    9  A    between atoms: C15_22  and  C16_23 
REMARK   10  A    between atoms: C16_23  and  O4_24 
ROOT
HETATM    1  C8  UNL     1       0.136  -0.921  -0.068  1.00  0.00     0.048 C 
HETATM    2  C9  UNL     1       0.954  -1.713  -0.782  1.00  0.00     0.047 A 
HETATM    3  C10 UNL     1       0.749  -3.100  -1.347  1.00  0.00     0.257 A 
HETATM    4  O1  UNL     1      -0.229  -3.818  -1.264  1.00  0.00    -0.267 OA
HETATM    5  N2  UNL     1       1.933  -3.417  -1.993  1.00  0.00    -0.322 N 
HETATM    6  C11 UNL     1       2.861  -2.391  -1.886  1.00  0.00     0.046 A 
HETATM    7  C12 UNL     1       4.143  -2.389  -2.402  1.00  0.00     0.032 A 
HETATM    8  C13 UNL     1       4.926  -1.259  -2.165  1.00  0.00     0.027 A 
HETATM    9  C14 UNL     1       4.405  -0.178  -1.422  1.00  0.00     0.080 A 
HETATM   10  C17 UNL     1       3.093  -0.189  -0.926  1.00  0.00     0.040 A 
HETATM   11  C18 UNL     1       2.327  -1.319  -1.161  1.00  0.00     0.008 A 
HETATM   12  H14 UNL     1       2.073  -4.297  -2.465  1.00  0.00     0.169 HD
ENDROOT
BRANCH   1  13
HETATM   13  C7  UNL     1      -1.191  -1.161   0.392  1.00  0.00     0.040 A 
HETATM   14  C6  UNL     1      -2.085  -0.327   1.072  1.00  0.00    -0.023 A 
HETATM   15  C20 UNL     1      -3.265  -1.091   1.324  1.00  0.00    -0.027 A 
HETATM   16  C19 UNL     1      -3.060  -2.340   0.788  1.00  0.00     0.016 A 
HETATM   17  C21 UNL     1      -4.545  -0.717   1.998  1.00  0.00     0.041 C 
HETATM   18  N4  UNL     1      -1.819  -2.373   0.223  1.00  0.00    -0.359 N 
HETATM   19  C24 UNL     1      -4.004  -3.489   0.828  1.00  0.00     0.057 C 
HETATM   20  H24 UNL     1      -1.429  -3.180  -0.254  1.00  0.00     0.166 HD
HETATM   21  C23 UNL     1      -5.412  -2.990   1.200  1.00  0.00     0.006 C 
HETATM   22  C22 UNL     1      -5.378  -1.966   2.350  1.00  0.00     0.005 C 
BRANCH  14  23
HETATM   23  C5  UNL     1      -1.863   1.101   1.478  1.00  0.00     0.043 C 
BRANCH  23  24
HETATM   24  C4  UNL     1      -1.984   2.101   0.321  1.00  0.00     0.035 C 
BRANCH  24  25
HETATM   25  C3  UNL     1      -3.417   2.206  -0.222  1.00  0.00     0.271 C 
BRANCH  25  26
HETATM   26  N1  UNL     1      -3.643   3.187  -1.295  1.00  0.00     0.080 N 
HETATM   27  C1  UNL     1      -2.937   2.844  -2.527  1.00  0.00     0.309 C 
HETATM   28  C2  UNL     1      -3.365   4.560  -0.891  1.00  0.00     0.309 C 
ENDBRANCH  25  26
ENDBRANCH  24  25
ENDBRANCH  23  24
ENDBRANCH  14  23
ENDBRANCH   1  13
BRANCH   9  29
HETATM   29  S1  UNL     1       5.440   1.242  -1.144  1.00  0.00     0.258 S 
HETATM   30  O2  UNL     1       6.316   1.380  -2.284  1.00  0.00    -0.201 OA
HETATM   31  O3  UNL     1       4.610   2.330  -0.676  1.00  0.00    -0.201 OA
BRANCH  29  32
HETATM   32  N3  UNL     1       6.386   0.738   0.129  1.00  0.00    -0.313 N 
HETATM   33  H17 UNL     1       7.350   0.471  -0.065  1.00  0.00     0.172 HD
BRANCH  32  34
HETATM   34  C15 UNL     1       5.844   0.623   1.485  1.00  0.00     0.158 C 
BRANCH  34  35
HETATM   35  C16 UNL     1       6.370   1.765   2.354  1.00  0.00     0.184 C 
BRANCH  35  36
HETATM   36  O4  UNL     1       7.796   1.732   2.407  1.00  0.00    -0.399 OA
HETATM   37  H22 UNL     1       8.110   2.067   1.547  1.00  0.00     0.209 HD
ENDBRANCH  35  36
ENDBRANCH  34  35
ENDBRANCH  32  34
ENDBRANCH  29  32
ENDBRANCH   9  29
TORSDOF 10
