REMARK  9 active torsions:
REMARK  status: ('A' for Active; 'I' for Inactive)
REMARK    1  A    between atoms: N1_2  and  S1_3 
REMARK    2  A    between atoms: S1_3  and  C2_6 
REMARK    3  A    between atoms: C9_13  and  C10_14 
REMARK    4  A    between atoms: C13_18  and  C14_19 
REMARK    5  A    between atoms: C14_19  and  C15_20 
REMARK    6  A    between atoms: C15_20  and  C16_21 
REMARK    7  A    between atoms: C16_21  and  N3_22 
REMARK       I    between atoms: N4_25  and  C19_26 
REMARK    8  A    between atoms: C19_26  and  C20_28 
REMARK    9  A    between atoms: C20_28  and  O4_29 
ROOT
HETATM    1  C10 UNL     1      -1.327  -1.903  -0.675  1.00  0.00     0.040 A 
HETATM    2  N2  UNL     1      -1.499  -3.268  -0.748  1.00  0.00    -0.359 N 
HETATM    3  C11 UNL     1      -0.285  -3.888  -0.805  1.00  0.00     0.016 A 
HETATM    4  C12 UNL     1       0.699  -2.927  -0.786  1.00  0.00    -0.027 A 
HETATM    5  C13 UNL     1       0.049  -1.661  -0.703  1.00  0.00    -0.023 A 
HETATM    6  C23 UNL     1       2.152  -3.275  -0.830  1.00  0.00     0.041 C 
HETATM    7  C24 UNL     1       2.361  -4.732  -1.289  1.00  0.00     0.005 C 
HETATM    8  C25 UNL     1       1.381  -5.704  -0.605  1.00  0.00     0.006 C 
HETATM    9  C26 UNL     1      -0.088  -5.358  -0.912  1.00  0.00     0.057 C 
HETATM   10  H9  UNL     1      -2.392  -3.749  -0.784  1.00  0.00     0.166 HD
ENDROOT
BRANCH   1  11
HETATM   11  C9  UNL     1      -2.427  -1.003  -0.576  1.00  0.00     0.048 C 
HETATM   12  C8  UNL     1      -3.741  -1.237  -0.730  1.00  0.00     0.047 A 
HETATM   13  C6  UNL     1      -4.762  -0.172  -0.645  1.00  0.00     0.008 A 
HETATM   14  C27 UNL     1      -4.492  -2.509  -1.050  1.00  0.00     0.257 A 
HETATM   15  C5  UNL     1      -5.990  -0.777  -0.937  1.00  0.00     0.046 A 
HETATM   16  C7  UNL     1      -4.705   1.182  -0.361  1.00  0.00     0.040 A 
HETATM   17  C4  UNL     1      -7.183  -0.080  -0.975  1.00  0.00     0.032 A 
HETATM   18  N5  UNL     1      -5.820  -2.135  -1.172  1.00  0.00    -0.322 N 
HETATM   19  C3  UNL     1      -7.136   1.288  -0.699  1.00  0.00     0.027 A 
HETATM   20  C2  UNL     1      -5.908   1.905  -0.381  1.00  0.00     0.080 A 
HETATM   21  H35 UNL     1      -6.551  -2.794  -1.396  1.00  0.00     0.169 HD
HETATM   22  O5  UNL     1      -4.057  -3.639  -1.167  1.00  0.00    -0.267 OA
BRANCH  20  23
HETATM   23  S1  UNL     1      -5.869   3.652  -0.055  1.00  0.00     0.258 S 
HETATM   24  O1  UNL     1      -7.098   4.241  -0.534  1.00  0.00    -0.201 OA
HETATM   25  O2  UNL     1      -4.572   4.142  -0.465  1.00  0.00    -0.201 OA
BRANCH  23  26
HETATM   26  N1  UNL     1      -5.880   3.687   1.620  1.00  0.00    -0.320 N 
HETATM   27  C1  UNL     1      -7.157   3.639   2.321  1.00  0.00     0.159 C 
HETATM   28  H4  UNL     1      -5.126   4.245   2.020  1.00  0.00     0.171 HD
ENDBRANCH  23  26
ENDBRANCH  20  23
ENDBRANCH   1  11
BRANCH   5  29
HETATM   29  C14 UNL     1       0.741  -0.329  -0.660  1.00  0.00     0.043 C 
BRANCH  29  30
HETATM   30  C15 UNL     1       1.080   0.095   0.772  1.00  0.00     0.035 C 
BRANCH  30  31
HETATM   31  C16 UNL     1       1.747   1.476   0.838  1.00  0.00     0.273 C 
BRANCH  31  32
HETATM   32  N3  UNL     1       3.011   1.581   0.096  1.00  0.00     0.091 N 
HETATM   33  C17 UNL     1       3.496   2.978   0.032  1.00  0.00     0.292 C 
HETATM   34  C18 UNL     1       4.710   3.296   0.923  1.00  0.00     0.156 C 
HETATM   35  N4  UNL     1       5.832   2.397   0.656  1.00  0.00    -0.347 N 
HETATM   36  C19 UNL     1       7.128   2.863   0.804  1.00  0.00     0.243 C 
HETATM   37  C21 UNL     1       5.480   1.046   0.205  1.00  0.00     0.156 C 
HETATM   38  O3  UNL     1       7.377   3.996   1.221  1.00  0.00    -0.271 OA
HETATM   39  C22 UNL     1       4.045   0.656   0.607  1.00  0.00     0.292 C 
BRANCH  36  40
HETATM   40  C20 UNL     1       8.274   1.910   0.436  1.00  0.00     0.267 C 
BRANCH  40  41
HETATM   41  O4  UNL     1       8.214   1.397  -0.884  1.00  0.00    -0.392 OA
HETATM   42  H22 UNL     1       8.237   2.171  -1.474  1.00  0.00     0.210 HD
ENDBRANCH  40  41
ENDBRANCH  36  40
ENDBRANCH  31  32
ENDBRANCH  30  31
ENDBRANCH  29  30
ENDBRANCH   5  29
TORSDOF 9
