REMARK  5 active torsions:
REMARK  status: ('A' for Active; 'I' for Inactive)
REMARK    1  A    between atoms: C3_3  and  C4_4 
REMARK    2  A    between atoms: C7_8  and  C8_9 
REMARK       I    between atoms: C8_9  and  N1_10 
REMARK    3  A    between atoms: C15_19  and  C16_20 
REMARK    4  A    between atoms: C16_20  and  O2_23 
REMARK    5  A    between atoms: C23_28  and  N3_29 
ROOT
HETATM    1  C4  UNL     1      -0.262  -2.692  -0.283  1.00  0.00     0.026 A 
HETATM    2  C5  UNL     1       0.045  -3.877  -0.975  1.00  0.00     0.129 A 
HETATM    3  F1  UNL     1       1.219  -4.491  -0.755  1.00  0.00    -0.205 F 
HETATM    4  C6  UNL     1      -0.825  -4.458  -1.889  1.00  0.00     0.062 A 
HETATM    5  C7  UNL     1      -2.060  -3.866  -2.163  1.00  0.00     0.062 A 
HETATM    6  C9  UNL     1      -2.384  -2.693  -1.454  1.00  0.00     0.060 A 
HETATM    7  N2  UNL     1      -3.535  -1.930  -1.515  1.00  0.00    -0.358 N 
HETATM    8  C10 UNL     1      -3.428  -0.858  -0.683  1.00  0.00     0.017 A 
HETATM    9  C11 UNL     1      -2.210  -0.925  -0.039  1.00  0.00    -0.022 A 
HETATM   10  C12 UNL     1      -1.526  -2.089  -0.523  1.00  0.00     0.014 A 
HETATM   11  C13 UNL     1      -1.784   0.119   0.942  1.00  0.00     0.042 C 
HETATM   12  C14 UNL     1      -2.978   0.980   1.402  1.00  0.00     0.013 C 
HETATM   13  C15 UNL     1      -3.883   1.423   0.215  1.00  0.00     0.025 C 
HETATM   14  C19 UNL     1      -4.479   0.182  -0.502  1.00  0.00     0.065 C 
HETATM   15  H7  UNL     1      -4.326  -2.167  -2.106  1.00  0.00     0.166 HD
ENDROOT
BRANCH   1  16
HETATM   16  C3  UNL     1       0.680  -2.103   0.676  1.00  0.00    -0.014 A 
HETATM   17  C2  UNL     1       1.627  -1.108   0.308  1.00  0.00    -0.023 A 
HETATM   18  C1  UNL     1       1.637  -0.589  -1.112  1.00  0.00     0.051 C 
HETATM   19  C23 UNL     1       2.530  -0.613   1.285  1.00  0.00     0.054 A 
HETATM   20  C22 UNL     1       2.432  -1.074   2.610  1.00  0.00     0.031 A 
HETATM   21  C21 UNL     1       1.495  -2.037   2.970  1.00  0.00     0.003 A 
HETATM   22  C20 UNL     1       0.637  -2.555   2.008  1.00  0.00     0.013 A 
BRANCH  19  23
HETATM   23  N3  UNL     1       3.563   0.340   0.963  1.00  0.00    -0.229 N 
HETATM   24  C24 UNL     1       4.487  -0.024  -0.016  1.00  0.00     0.269 C 
HETATM   25  O3  UNL     1       4.551  -1.123  -0.567  1.00  0.00    -0.267 OA
HETATM   26  C25 UNL     1       5.494   0.980  -0.390  1.00  0.00     0.063 A 
HETATM   27  C26 UNL     1       6.355   0.715  -1.473  1.00  0.00     0.020 A 
HETATM   28  C30 UNL     1       5.590   2.162   0.336  1.00  0.00     0.092 A 
HETATM   29  C27 UNL     1       7.325   1.640  -1.846  1.00  0.00     0.004 A 
HETATM   30  C28 UNL     1       7.436   2.827  -1.134  1.00  0.00     0.045 A 
HETATM   31  C29 UNL     1       6.580   3.079  -0.060  1.00  0.00     0.144 A 
HETATM   32  F2  UNL     1       6.744   4.248   0.576  1.00  0.00    -0.204 F 
HETATM   33  N4  UNL     1       4.704   2.379   1.427  1.00  0.00    -0.300 N 
HETATM   34  C31 UNL     1       4.832   3.597   2.222  1.00  0.00     0.161 C 
HETATM   35  C32 UNL     1       3.678   1.490   1.755  1.00  0.00     0.336 C 
HETATM   36  O4  UNL     1       2.908   1.743   2.687  1.00  0.00    -0.246 OA
ENDBRANCH  19  23
ENDBRANCH   1  16
BRANCH   5  37
HETATM   37  C8  UNL     1      -3.032  -4.423  -3.141  1.00  0.00     0.251 C 
HETATM   38  N1  UNL     1      -2.590  -5.375  -4.016  1.00  0.00    -0.366 N 
HETATM   39  H5  UNL     1      -3.243  -5.655  -4.737  1.00  0.00     0.159 HD
HETATM   40  H6  UNL     1      -1.612  -5.559  -4.185  1.00  0.00     0.159 HD
HETATM   41  O1  UNL     1      -4.189  -4.020  -3.194  1.00  0.00    -0.268 OA
ENDBRANCH   5  37
BRANCH  13  42
HETATM   42  C16 UNL     1      -4.955   2.471   0.634  1.00  0.00     0.054 C 
HETATM   43  C17 UNL     1      -5.891   1.989   1.748  1.00  0.00     0.045 C 
HETATM   44  C18 UNL     1      -5.782   2.944  -0.568  1.00  0.00     0.045 C 
BRANCH  42  45
HETATM   45  O2  UNL     1      -4.251   3.620   1.131  1.00  0.00    -0.390 OA
HETATM   46  H19 UNL     1      -4.907   4.279   1.417  1.00  0.00     0.210 HD
ENDBRANCH  42  45
ENDBRANCH  13  42
TORSDOF 5
