REMARK  7 active torsions:
REMARK  status: ('A' for Active; 'I' for Inactive)
REMARK    1  A    between atoms: N1_2  and  C3_4 
REMARK    2  A    between atoms: C3_4  and  C4_5 
REMARK    3  A    between atoms: C4_5  and  C5_6 
REMARK    4  A    between atoms: C5_6  and  C6_7 
REMARK    5  A    between atoms: C7_8  and  C8_9 
REMARK    6  A    between atoms: C14_17  and  S1_18 
REMARK    7  A    between atoms: S1_18  and  N3_21 
ROOT
HETATM    1  C8  UNL     1       0.597  -1.216  -0.454  1.00  0.00     0.048 C 
HETATM    2  C9  UNL     1       1.376  -0.758  -1.444  1.00  0.00     0.047 A 
HETATM    3  C10 UNL     1       0.987  -0.361  -2.850  1.00  0.00     0.257 A 
HETATM    4  O1  UNL     1      -0.099  -0.389  -3.390  1.00  0.00    -0.267 OA
HETATM    5  N2  UNL     1       2.175   0.046  -3.444  1.00  0.00    -0.322 N 
HETATM    6  C11 UNL     1       3.251  -0.066  -2.573  1.00  0.00     0.046 A 
HETATM    7  C12 UNL     1       4.570   0.239  -2.846  1.00  0.00     0.032 A 
HETATM    8  C13 UNL     1       5.498   0.049  -1.818  1.00  0.00     0.027 A 
HETATM    9  C14 UNL     1       5.077  -0.426  -0.558  1.00  0.00     0.080 A 
HETATM   10  C17 UNL     1       3.736  -0.753  -0.308  1.00  0.00     0.040 A 
HETATM   11  C18 UNL     1       2.828  -0.556  -1.333  1.00  0.00     0.008 A 
HETATM   12  H14 UNL     1       2.213   0.356  -4.404  1.00  0.00     0.169 HD
ENDROOT
BRANCH   1  13
HETATM   13  C7  UNL     1      -0.804  -1.358  -0.558  1.00  0.00     0.040 A 
HETATM   14  C6  UNL     1      -1.868  -0.464  -0.595  1.00  0.00    -0.023 A 
HETATM   15  C20 UNL     1      -3.055  -1.252  -0.672  1.00  0.00    -0.027 A 
HETATM   16  C19 UNL     1      -2.674  -2.578  -0.666  1.00  0.00     0.016 A 
HETATM   17  C21 UNL     1      -4.485  -0.836  -0.781  1.00  0.00     0.041 C 
HETATM   18  N4  UNL     1      -1.313  -2.635  -0.598  1.00  0.00    -0.359 N 
HETATM   19  C24 UNL     1      -3.580  -3.756  -0.712  1.00  0.00     0.057 C 
HETATM   20  H24 UNL     1      -0.764  -3.484  -0.600  1.00  0.00     0.166 HD
HETATM   21  C23 UNL     1      -4.989  -3.314  -1.150  1.00  0.00     0.006 C 
HETATM   22  C22 UNL     1      -5.430  -2.009  -0.461  1.00  0.00     0.005 C 
BRANCH  14  23
HETATM   23  C5  UNL     1      -1.797   1.035  -0.574  1.00  0.00     0.043 C 
BRANCH  23  24
HETATM   24  C4  UNL     1      -1.386   1.613   0.784  1.00  0.00     0.035 C 
BRANCH  24  25
HETATM   25  C3  UNL     1      -2.438   1.446   1.891  1.00  0.00     0.271 C 
BRANCH  25  26
HETATM   26  N1  UNL     1      -3.722   2.119   1.627  1.00  0.00     0.080 N 
HETATM   27  C1  UNL     1      -3.599   3.577   1.650  1.00  0.00     0.309 C 
HETATM   28  C2  UNL     1      -4.722   1.690   2.607  1.00  0.00     0.309 C 
ENDBRANCH  25  26
ENDBRANCH  24  25
ENDBRANCH  23  24
ENDBRANCH  14  23
ENDBRANCH   1  13
BRANCH   9  29
HETATM   29  S1  UNL     1       6.288  -0.699   0.724  1.00  0.00     0.260 S 
HETATM   30  O2  UNL     1       7.574  -0.841   0.074  1.00  0.00    -0.200 OA
HETATM   31  O3  UNL     1       5.766  -1.737   1.588  1.00  0.00    -0.200 OA
BRANCH  29  32
HETATM   32  N3  UNL     1       6.278   0.769   1.581  1.00  0.00    -0.315 N 
HETATM   33  C15 UNL     1       5.085   1.070   2.390  1.00  0.00     0.162 C 
HETATM   34  C16 UNL     1       6.831   1.949   0.896  1.00  0.00     0.162 C 
ENDBRANCH  29  32
ENDBRANCH   9  29
TORSDOF 7
