REMARK  6 active torsions:
REMARK  status: ('A' for Active; 'I' for Inactive)
REMARK    1  A    between atoms: C2_2  and  S1_3 
REMARK    2  A    between atoms: S1_3  and  C3_6 
REMARK    3  A    between atoms: C10_13  and  C11_14 
REMARK    4  A    between atoms: C14_18  and  C15_19 
REMARK    5  A    between atoms: C15_19  and  C16_20 
REMARK    6  A    between atoms: C16_20  and  C17_21 
REMARK       I    between atoms: C17_21  and  N2_22 
ROOT
HETATM    1  C11 UNL     1      -1.444  -0.428   0.423  1.00  0.00     0.040 A 
HETATM    2  N1  UNL     1      -2.355  -1.335  -0.069  1.00  0.00    -0.359 N 
HETATM    3  C12 UNL     1      -3.613  -0.814   0.017  1.00  0.00     0.016 A 
HETATM    4  C13 UNL     1      -3.535   0.437   0.585  1.00  0.00    -0.027 A 
HETATM    5  C14 UNL     1      -2.158   0.693   0.850  1.00  0.00    -0.023 A 
HETATM    6  C18 UNL     1      -4.747   1.283   0.803  1.00  0.00     0.041 C 
HETATM    7  C19 UNL     1      -6.030   0.432   0.749  1.00  0.00     0.005 C 
HETATM    8  C20 UNL     1      -6.030  -0.534  -0.451  1.00  0.00     0.006 C 
HETATM    9  C21 UNL     1      -4.853  -1.525  -0.399  1.00  0.00     0.057 C 
HETATM   10  H10 UNL     1      -2.129  -2.245  -0.463  1.00  0.00     0.166 HD
ENDROOT
BRANCH   1  11
HETATM   11  C10 UNL     1      -0.046  -0.692   0.444  1.00  0.00     0.048 C 
HETATM   12  C9  UNL     1       0.654  -1.668  -0.155  1.00  0.00     0.047 A 
HETATM   13  C7  UNL     1       2.128  -1.715  -0.127  1.00  0.00     0.008 A 
HETATM   14  C22 UNL     1       0.212  -2.839  -0.997  1.00  0.00     0.257 A 
HETATM   15  C6  UNL     1       2.504  -2.806  -0.913  1.00  0.00     0.046 A 
HETATM   16  C8  UNL     1       3.090  -0.912   0.461  1.00  0.00     0.038 A 
HETATM   17  C5  UNL     1       3.823  -3.144  -1.143  1.00  0.00     0.032 A 
HETATM   18  N3  UNL     1       1.380  -3.455  -1.410  1.00  0.00    -0.322 N 
HETATM   19  C4  UNL     1       4.804  -2.335  -0.565  1.00  0.00     0.026 A 
HETATM   20  C3  UNL     1       4.434  -1.221   0.214  1.00  0.00     0.060 A 
HETATM   21  H25 UNL     1       1.383  -4.272  -2.003  1.00  0.00     0.169 HD
HETATM   22  O4  UNL     1      -0.921  -3.191  -1.268  1.00  0.00    -0.267 OA
BRANCH  20  23
HETATM   23  S1  UNL     1       5.703  -0.202   0.939  1.00  0.00     0.175 S 
HETATM   24  O1  UNL     1       5.146   0.406   2.132  1.00  0.00    -0.223 OA
HETATM   25  O2  UNL     1       6.898  -1.023   1.028  1.00  0.00    -0.223 OA
BRANCH  23  26
HETATM   26  C2  UNL     1       6.008   1.067  -0.270  1.00  0.00     0.141 C 
HETATM   27  C1  UNL     1       4.813   1.957  -0.544  1.00  0.00     0.021 C 
ENDBRANCH  23  26
ENDBRANCH  20  23
ENDBRANCH   1  11
BRANCH   5  28
HETATM   28  C15 UNL     1      -1.589   1.947   1.456  1.00  0.00     0.051 C 
BRANCH  28  29
HETATM   29  C16 UNL     1      -1.298   3.025   0.419  1.00  0.00     0.107 C 
BRANCH  29  30
HETATM   30  C17 UNL     1      -0.152   2.641  -0.485  1.00  0.00     0.215 C 
HETATM   31  N2  UNL     1      -0.470   2.561  -1.811  1.00  0.00    -0.370 N 
HETATM   32  H15 UNL     1      -1.423   2.352  -2.081  1.00  0.00     0.159 HD
HETATM   33  H16 UNL     1       0.255   2.186  -2.410  1.00  0.00     0.159 HD
HETATM   34  O3  UNL     1       0.993   2.433  -0.097  1.00  0.00    -0.274 OA
ENDBRANCH  29  30
ENDBRANCH  28  29
ENDBRANCH   5  28
TORSDOF 6
