REMARK  10 active torsions:
REMARK  status: ('A' for Active; 'I' for Inactive)
REMARK    1  A    between atoms: N1_2  and  S1_3 
REMARK    2  A    between atoms: S1_3  and  C2_6 
REMARK    3  A    between atoms: C9_13  and  C10_14 
REMARK    4  A    between atoms: C13_18  and  C14_19 
REMARK    5  A    between atoms: C14_19  and  C15_20 
REMARK    6  A    between atoms: C15_20  and  C16_21 
REMARK    7  A    between atoms: C16_21  and  N3_22 
REMARK    8  A    between atoms: N4_25  and  C19_26 
REMARK    9  A    between atoms: C19_26  and  C20_27 
REMARK   10  A    between atoms: C20_27  and  O3_28 
ROOT
HETATM    1  C10 UNL     1       1.259  -2.230   0.880  1.00  0.00     0.040 A 
HETATM    2  N2  UNL     1       1.407  -3.406   0.180  1.00  0.00    -0.359 N 
HETATM    3  C11 UNL     1       0.412  -4.276   0.512  1.00  0.00     0.016 A 
HETATM    4  C12 UNL     1      -0.406  -3.675   1.439  1.00  0.00    -0.027 A 
HETATM    5  C13 UNL     1       0.129  -2.376   1.691  1.00  0.00    -0.023 A 
HETATM    6  C23 UNL     1      -1.586  -4.377   2.028  1.00  0.00     0.041 C 
HETATM    7  C24 UNL     1      -1.969  -5.617   1.194  1.00  0.00     0.005 C 
HETATM    8  C25 UNL     1      -0.737  -6.449   0.793  1.00  0.00     0.006 C 
HETATM    9  C26 UNL     1       0.254  -5.640  -0.063  1.00  0.00     0.057 C 
HETATM   10  H9  UNL     1       2.156  -3.613  -0.475  1.00  0.00     0.166 HD
ENDROOT
BRANCH   1  11
HETATM   11  C9  UNL     1       2.151  -1.131   0.714  1.00  0.00     0.048 C 
HETATM   12  C8  UNL     1       3.294  -1.051   0.011  1.00  0.00     0.047 A 
HETATM   13  C6  UNL     1       4.113   0.178  -0.051  1.00  0.00     0.008 A 
HETATM   14  C27 UNL     1       4.023  -2.077  -0.828  1.00  0.00     0.257 A 
HETATM   15  C5  UNL     1       5.230  -0.129  -0.836  1.00  0.00     0.046 A 
HETATM   16  C7  UNL     1       3.962   1.450   0.475  1.00  0.00     0.040 A 
HETATM   17  C4  UNL     1       6.231   0.783  -1.111  1.00  0.00     0.032 A 
HETATM   18  N5  UNL     1       5.166  -1.442  -1.282  1.00  0.00    -0.322 N 
HETATM   19  C3  UNL     1       6.093   2.066  -0.578  1.00  0.00     0.027 A 
HETATM   20  C2  UNL     1       4.958   2.396   0.191  1.00  0.00     0.080 A 
HETATM   21  H37 UNL     1       5.842  -1.902  -1.872  1.00  0.00     0.169 HD
HETATM   22  O4  UNL     1       3.694  -3.219  -1.085  1.00  0.00    -0.267 OA
BRANCH  20  23
HETATM   23  S1  UNL     1       4.796   4.043   0.847  1.00  0.00     0.258 S 
HETATM   24  O1  UNL     1       3.917   3.979   1.993  1.00  0.00    -0.201 OA
HETATM   25  O2  UNL     1       6.117   4.623   0.923  1.00  0.00    -0.201 OA
BRANCH  23  26
HETATM   26  N1  UNL     1       3.939   4.823  -0.357  1.00  0.00    -0.320 N 
HETATM   27  C1  UNL     1       4.493   5.002  -1.688  1.00  0.00     0.159 C 
HETATM   28  H4  UNL     1       2.940   4.928  -0.195  1.00  0.00     0.171 HD
ENDBRANCH  23  26
ENDBRANCH  20  23
ENDBRANCH   1  11
BRANCH   5  29
HETATM   29  C14 UNL     1      -0.428  -1.381   2.669  1.00  0.00     0.043 C 
BRANCH  29  30
HETATM   30  C15 UNL     1      -1.664  -0.637   2.160  1.00  0.00     0.035 C 
BRANCH  30  31
HETATM   31  C16 UNL     1      -1.359   0.301   0.985  1.00  0.00     0.273 C 
BRANCH  31  32
HETATM   32  N3  UNL     1      -2.556   1.048   0.585  1.00  0.00     0.091 N 
HETATM   33  C17 UNL     1      -2.217   2.234  -0.221  1.00  0.00     0.302 C 
HETATM   34  C18 UNL     1      -3.499   2.929  -0.732  1.00  0.00     0.302 C 
HETATM   35  N4  UNL     1      -4.304   2.102  -1.662  1.00  0.00     0.093 N 
HETATM   36  C21 UNL     1      -3.972   0.671  -1.516  1.00  0.00     0.302 C 
HETATM   37  C22 UNL     1      -3.565   0.209  -0.093  1.00  0.00     0.302 C 
BRANCH  35  38
HETATM   38  C19 UNL     1      -5.751   2.345  -1.481  1.00  0.00     0.298 C 
BRANCH  38  39
HETATM   39  C20 UNL     1      -6.207   3.761  -1.881  1.00  0.00     0.194 C 
BRANCH  39  40
HETATM   40  O3  UNL     1      -5.856   4.732  -0.898  1.00  0.00    -0.399 OA
HETATM   41  H24 UNL     1      -6.174   5.589  -1.227  1.00  0.00     0.209 HD
ENDBRANCH  39  40
ENDBRANCH  38  39
ENDBRANCH  35  38
ENDBRANCH  31  32
ENDBRANCH  30  31
ENDBRANCH  29  30
ENDBRANCH   5  29
TORSDOF 10
