REMARK  7 active torsions:
REMARK  status: ('A' for Active; 'I' for Inactive)
REMARK    1  A    between atoms: C1_2  and  O2_3 
REMARK    2  A    between atoms: C1_2  and  C2_4 
REMARK    3  A    between atoms: C2_4  and  C3_5 
REMARK    4  A    between atoms: C3_5  and  C4_6 
REMARK    5  A    between atoms: C5_7  and  C6_8 
REMARK    6  A    between atoms: C12_16  and  C13_17 
REMARK    7  A    between atoms: C13_17  and  O5_19 
ROOT
HETATM    1  C4  UNL     1      -1.627   0.043   0.744  1.00  0.00    -0.023 A 
HETATM    2  C5  UNL     1      -0.566  -0.558   0.061  1.00  0.00     0.040 A 
HETATM    3  N2  UNL     1      -1.074  -1.666  -0.580  1.00  0.00    -0.359 N 
HETATM    4  C16 UNL     1      -2.411  -1.776  -0.330  1.00  0.00     0.016 A 
HETATM    5  C17 UNL     1      -2.790  -0.741   0.493  1.00  0.00    -0.027 A 
HETATM    6  C18 UNL     1      -4.202  -0.561   0.945  1.00  0.00     0.041 C 
HETATM    7  C19 UNL     1      -5.029  -1.841   0.715  1.00  0.00     0.005 C 
HETATM    8  C20 UNL     1      -4.763  -2.468  -0.666  1.00  0.00     0.006 C 
HETATM    9  C21 UNL     1      -3.285  -2.862  -0.849  1.00  0.00     0.057 C 
HETATM   10  H12 UNL     1      -0.543  -2.310  -1.158  1.00  0.00     0.166 HD
ENDROOT
BRANCH   2  11
HETATM   11  C6  UNL     1       0.807  -0.189  -0.028  1.00  0.00     0.048 C 
HETATM   12  C7  UNL     1       1.813  -0.770  -0.703  1.00  0.00     0.047 A 
HETATM   13  C8  UNL     1       1.842  -1.996  -1.587  1.00  0.00     0.257 A 
HETATM   14  C15 UNL     1       3.196  -0.248  -0.687  1.00  0.00     0.007 A 
HETATM   15  O3  UNL     1       0.927  -2.741  -1.881  1.00  0.00    -0.267 OA
HETATM   16  N1  UNL     1       3.154  -2.114  -2.013  1.00  0.00    -0.322 N 
HETATM   17  C9  UNL     1       3.952  -1.103  -1.495  1.00  0.00     0.046 A 
HETATM   18  H7  UNL     1       3.462  -2.856  -2.623  1.00  0.00     0.169 HD
HETATM   19  C10 UNL     1       5.302  -0.924  -1.717  1.00  0.00     0.031 A 
HETATM   20  C11 UNL     1       5.915   0.166  -1.093  1.00  0.00     0.020 A 
HETATM   21  C12 UNL     1       5.172   1.043  -0.271  1.00  0.00     0.038 A 
HETATM   22  C14 UNL     1       3.798   0.835  -0.064  1.00  0.00     0.033 A 
BRANCH  21  23
HETATM   23  C13 UNL     1       5.891   2.178   0.358  1.00  0.00     0.176 C 
HETATM   24  O4  UNL     1       7.076   2.426   0.235  1.00  0.00    -0.646 OA
BRANCH  23  25
HETATM   25  O5  UNL     1       5.088   2.949   1.111  1.00  0.00    -0.773 OA
HETATM   26  H10 UNL     1       5.684   3.644   1.462  1.00  0.00     0.167 HD
ENDBRANCH  23  25
ENDBRANCH  21  23
ENDBRANCH   2  11
BRANCH   1  27
HETATM   27  C3  UNL     1      -1.578   1.289   1.578  1.00  0.00     0.052 C 
BRANCH  27  28
HETATM   28  C2  UNL     1      -1.826   2.541   0.743  1.00  0.00     0.115 C 
BRANCH  28  29
HETATM   29  C1  UNL     1      -1.762   3.774   1.595  1.00  0.00     0.139 C 
HETATM   30  O1  UNL     1      -1.432   3.852   2.766  1.00  0.00    -0.650 OA
BRANCH  29  31
HETATM   31  O2  UNL     1      -2.108   4.881   0.907  1.00  0.00    -0.776 OA
HETATM   32  H1  UNL     1      -2.025   5.606   1.562  1.00  0.00     0.167 HD
ENDBRANCH  29  31
ENDBRANCH  28  29
ENDBRANCH  27  28
ENDBRANCH   1  27
TORSDOF 7
