REMARK  8 active torsions:
REMARK  status: ('A' for Active; 'I' for Inactive)
REMARK    1  A    between atoms: C2_2  and  C3_3 
REMARK       I    between atoms: C3_3  and  N1_5 
REMARK    2  A    between atoms: N2_8  and  C6_9 
REMARK    3  A    between atoms: C6_9  and  C7_10 
REMARK    4  A    between atoms: C7_10  and  C8_11 
REMARK    5  A    between atoms: C8_11  and  C9_12 
REMARK    6  A    between atoms: C10_13  and  C11_14 
REMARK    7  A    between atoms: C17_22  and  S1_23 
REMARK    8  A    between atoms: S1_23  and  C18_26 
ROOT
HETATM    1  C9  UNL     1      -0.432  -2.362   0.430  1.00  0.00    -0.023 A 
HETATM    2  C10 UNL     1      -1.706  -2.195  -0.119  1.00  0.00     0.040 A 
HETATM    3  N4  UNL     1      -1.871  -3.178  -1.068  1.00  0.00    -0.359 N 
HETATM    4  C22 UNL     1      -0.745  -3.944  -1.147  1.00  0.00     0.016 A 
HETATM    5  C23 UNL     1       0.164  -3.483  -0.222  1.00  0.00    -0.027 A 
HETATM    6  C24 UNL     1       1.512  -4.107  -0.054  1.00  0.00     0.041 C 
HETATM    7  C25 UNL     1       1.589  -5.479  -0.750  1.00  0.00     0.005 C 
HETATM    8  C26 UNL     1       0.928  -5.463  -2.141  1.00  0.00     0.006 C 
HETATM    9  C27 UNL     1      -0.566  -5.101  -2.065  1.00  0.00     0.057 C 
HETATM   10  H26 UNL     1      -2.712  -3.336  -1.615  1.00  0.00     0.166 HD
ENDROOT
BRANCH   2  11
HETATM   11  C11 UNL     1      -2.712  -1.224   0.152  1.00  0.00     0.048 C 
HETATM   12  C12 UNL     1      -3.991  -1.179  -0.257  1.00  0.00     0.047 A 
HETATM   13  C13 UNL     1      -4.788  -2.121  -1.128  1.00  0.00     0.257 A 
HETATM   14  C21 UNL     1      -4.924  -0.105   0.141  1.00  0.00     0.008 A 
HETATM   15  O2  UNL     1      -4.411  -3.123  -1.707  1.00  0.00    -0.267 OA
HETATM   16  N3  UNL     1      -6.071  -1.600  -1.161  1.00  0.00    -0.322 N 
HETATM   17  C14 UNL     1      -6.162  -0.424  -0.427  1.00  0.00     0.046 A 
HETATM   18  H17 UNL     1      -6.822  -2.042  -1.669  1.00  0.00     0.169 HD
HETATM   19  C15 UNL     1      -7.291   0.352  -0.252  1.00  0.00     0.032 A 
HETATM   20  C16 UNL     1      -7.163   1.507   0.521  1.00  0.00     0.026 A 
HETATM   21  C17 UNL     1      -5.914   1.851   1.077  1.00  0.00     0.060 A 
HETATM   22  C20 UNL     1      -4.782   1.042   0.904  1.00  0.00     0.038 A 
BRANCH  21  23
HETATM   23  S1  UNL     1      -5.789   3.330   2.064  1.00  0.00     0.175 S 
HETATM   24  O3  UNL     1      -4.522   3.271   2.767  1.00  0.00    -0.223 OA
HETATM   25  O4  UNL     1      -7.042   3.459   2.785  1.00  0.00    -0.223 OA
BRANCH  23  26
HETATM   26  C18 UNL     1      -5.695   4.624   0.840  1.00  0.00     0.141 C 
HETATM   27  C19 UNL     1      -5.549   5.989   1.482  1.00  0.00     0.021 C 
ENDBRANCH  23  26
ENDBRANCH  21  23
ENDBRANCH   2  11
BRANCH   1  28
HETATM   28  C8  UNL     1       0.202  -1.538   1.513  1.00  0.00     0.043 C 
BRANCH  28  29
HETATM   29  C7  UNL     1       0.811  -0.217   1.030  1.00  0.00     0.035 C 
BRANCH  29  30
HETATM   30  C6  UNL     1       1.990  -0.426   0.068  1.00  0.00     0.273 C 
BRANCH  30  31
HETATM   31  N2  UNL     1       2.659   0.832  -0.313  1.00  0.00     0.091 N 
HETATM   32  C5  UNL     1       3.615   0.607  -1.423  1.00  0.00     0.292 C 
HETATM   33  C4  UNL     1       5.079   0.408  -0.992  1.00  0.00     0.156 C 
HETATM   34  N1  UNL     1       5.576   1.528  -0.189  1.00  0.00    -0.349 N 
HETATM   35  C3  UNL     1       6.940   1.767  -0.153  1.00  0.00     0.219 C 
HETATM   36  C29 UNL     1       4.553   2.326   0.494  1.00  0.00     0.156 C 
HETATM   37  O1  UNL     1       7.744   1.034  -0.732  1.00  0.00    -0.273 OA
HETATM   38  C28 UNL     1       3.313   1.480   0.847  1.00  0.00     0.292 C 
BRANCH  35  39
HETATM   39  C2  UNL     1       7.399   2.981   0.639  1.00  0.00     0.098 C 
HETATM   40  C1  UNL     1       8.897   3.217   0.525  1.00  0.00     0.014 C 
ENDBRANCH  35  39
ENDBRANCH  30  31
ENDBRANCH  29  30
ENDBRANCH  28  29
ENDBRANCH   1  28
TORSDOF 8
