REMARK  18 active torsions:
REMARK  status: ('A' for Active; 'I' for Inactive)
REMARK    1  A    between atoms: C2_2  and  O1_3 
REMARK    2  A    between atoms: O1_3  and  P1_4 
REMARK    3  A    between atoms: P1_4  and  O3_6 
REMARK    4  A    between atoms: P1_4  and  C3_7 
REMARK    5  A    between atoms: C5_9  and  C6_10 
REMARK    6  A    between atoms: C6_10  and  C7_11 
REMARK    7  A    between atoms: C7_11  and  N1_12 
REMARK    8  A    between atoms: C7_11  and  C10_16 
REMARK       I    between atoms: N1_12  and  C8_13 
REMARK       I    between atoms: C10_16  and  N2_18 
REMARK    9  A    between atoms: N2_18  and  C11_19 
REMARK   10  A    between atoms: C11_19  and  C13_21 
REMARK   11  A    between atoms: C16_24  and  O6_25 
REMARK   12  A    between atoms: O6_25  and  C17_26 
REMARK   13  A    between atoms: C17_26  and  C18_27 
REMARK   14  A    between atoms: C24_33  and  C25_34 
REMARK       I    between atoms: C25_34  and  N3_35 
REMARK   15  A    between atoms: C29_40  and  O8_41 
REMARK   16  A    between atoms: O8_41  and  C30_42 
REMARK   17  A    between atoms: C30_42  and  C31_43 
REMARK   18  A    between atoms: C31_43  and  O10_45 
ROOT
HETATM    1  C7  UNL     1      -1.471   1.876  -1.526  1.00  0.00     0.180 C 
ENDROOT
BRANCH   1   2
HETATM    2  C6  UNL     1      -2.328   1.490  -2.745  1.00  0.00     0.073 C 
BRANCH   2   3
HETATM    3  C5  UNL     1      -3.746   1.077  -2.418  1.00  0.00    -0.054 A 
HETATM    4  C4  UNL     1      -4.049  -0.255  -2.118  1.00  0.00     0.029 A 
HETATM    5  C3  UNL     1      -5.349  -0.654  -1.756  1.00  0.00     0.084 A 
HETATM    6  C29 UNL     1      -6.366   0.310  -1.705  1.00  0.00     0.087 A 
HETATM    7  C28 UNL     1      -6.075   1.638  -2.032  1.00  0.00     0.038 A 
HETATM    8  C27 UNL     1      -4.776   2.018  -2.382  1.00  0.00     0.010 A 
BRANCH   5   9
HETATM    9  P1  UNL     1      -5.619  -2.350  -1.364  1.00  0.00     0.276 P 
HETATM   10  O2  UNL     1      -4.438  -3.281  -1.370  1.00  0.00    -0.650 OA
BRANCH   9  11
HETATM   11  O1  UNL     1      -6.446  -2.457   0.018  1.00  0.00    -0.316 OA
BRANCH  11  12
HETATM   12  C2  UNL     1      -5.769  -2.078   1.204  1.00  0.00     0.174 C 
HETATM   13  C1  UNL     1      -6.670  -2.362   2.387  1.00  0.00     0.034 C 
ENDBRANCH  11  12
ENDBRANCH   9  11
BRANCH   9  14
HETATM   14  O3  UNL     1      -6.721  -2.913  -2.397  1.00  0.00    -0.325 OA
HETATM   15  H6  UNL     1      -6.825  -3.874  -2.280  1.00  0.00     0.220 HD
ENDBRANCH   9  14
ENDBRANCH   5   9
BRANCH   6  16
HETATM   16  O8  UNL     1      -7.597  -0.150  -1.327  1.00  0.00    -0.340 OA
BRANCH  16  17
HETATM   17  C30 UNL     1      -8.629   0.785  -1.059  1.00  0.00     0.285 C 
BRANCH  17  18
HETATM   18  C31 UNL     1      -8.442   1.641   0.184  1.00  0.00     0.164 C 
HETATM   19  O9  UNL     1      -8.675   2.838   0.267  1.00  0.00    -0.648 OA
BRANCH  18  20
HETATM   20  O10 UNL     1      -8.010   0.955   1.260  1.00  0.00    -0.775 OA
HETATM   21  H42 UNL     1      -7.948   1.627   1.970  1.00  0.00     0.167 HD
ENDBRANCH  18  20
ENDBRANCH  17  18
ENDBRANCH  16  17
ENDBRANCH   6  16
ENDBRANCH   2   3
ENDBRANCH   1   2
BRANCH   1  22
HETATM   22  N1  UNL     1      -2.045   2.997  -0.780  1.00  0.00    -0.348 N 
HETATM   23  C8  UNL     1      -1.225   3.947  -0.217  1.00  0.00     0.214 C 
HETATM   24  C9  UNL     1      -1.924   4.886   0.730  1.00  0.00     0.117 C 
HETATM   25  O4  UNL     1      -0.030   4.052  -0.474  1.00  0.00    -0.274 OA
HETATM   26  H11 UNL     1      -2.879   2.759  -0.253  1.00  0.00     0.163 HD
ENDBRANCH   1  22
BRANCH   1  27
HETATM   27  C10 UNL     1      -1.290   0.689  -0.556  1.00  0.00     0.241 C 
HETATM   28  O5  UNL     1      -1.882   0.624   0.521  1.00  0.00    -0.271 OA
HETATM   29  N2  UNL     1      -0.461  -0.309  -1.023  1.00  0.00    -0.351 N 
HETATM   30  H15 UNL     1       0.151  -0.107  -1.803  1.00  0.00     0.163 HD
BRANCH  29  31
HETATM   31  C11 UNL     1      -0.134  -1.481  -0.221  1.00  0.00     0.113 C 
HETATM   32  C12 UNL     1      -0.585  -2.741  -0.961  1.00  0.00     0.037 C 
BRANCH  31  33
HETATM   33  C13 UNL     1       1.340  -1.433   0.148  1.00  0.00    -0.035 A 
HETATM   34  C14 UNL     1       1.760  -0.523   1.134  1.00  0.00     0.012 A 
HETATM   35  C15 UNL     1       3.106  -0.415   1.503  1.00  0.00     0.038 A 
HETATM   36  C16 UNL     1       4.075  -1.209   0.887  1.00  0.00     0.084 A 
HETATM   37  C24 UNL     1       3.667  -2.118  -0.098  1.00  0.00     0.065 A 
HETATM   38  C26 UNL     1       2.316  -2.226  -0.470  1.00  0.00     0.029 A 
BRANCH  36  39
HETATM   39  O6  UNL     1       5.396  -1.212   1.242  1.00  0.00    -0.350 OA
BRANCH  39  40
HETATM   40  C17 UNL     1       5.919   0.006   1.776  1.00  0.00     0.180 C 
BRANCH  40  41
HETATM   41  C18 UNL     1       7.454  -0.089   1.804  1.00  0.00     0.010 C 
HETATM   42  C19 UNL     1       8.015  -0.347   0.389  1.00  0.00     0.007 C 
HETATM   43  C20 UNL     1       9.466   0.103   0.271  1.00  0.00     0.000 C 
HETATM   44  C21 UNL     1       9.610   1.607   0.508  1.00  0.00     0.000 C 
HETATM   45  C22 UNL     1       8.552   2.180   1.452  1.00  0.00     0.000 C 
HETATM   46  C23 UNL     1       8.081   1.149   2.472  1.00  0.00     0.007 C 
ENDBRANCH  40  41
ENDBRANCH  39  40
ENDBRANCH  36  39
BRANCH  37  47
HETATM   47  C25 UNL     1       4.654  -2.960  -0.808  1.00  0.00     0.252 C 
HETATM   48  N3  UNL     1       4.431  -4.310  -0.743  1.00  0.00    -0.366 N 
HETATM   49  H35 UNL     1       5.179  -4.894  -1.094  1.00  0.00     0.159 HD
HETATM   50  H36 UNL     1       3.826  -4.699  -0.033  1.00  0.00     0.159 HD
HETATM   51  O7  UNL     1       5.591  -2.489  -1.434  1.00  0.00    -0.268 OA
ENDBRANCH  37  47
ENDBRANCH  31  33
ENDBRANCH  29  31
ENDBRANCH   1  27
TORSDOF 18
