REMARK  7 active torsions:
REMARK  status: ('A' for Active; 'I' for Inactive)
REMARK    1  A    between atoms: C2_2  and  S1_3 
REMARK    2  A    between atoms: S1_3  and  C3_6 
REMARK    3  A    between atoms: C10_13  and  C11_14 
REMARK    4  A    between atoms: C14_18  and  C15_19 
REMARK    5  A    between atoms: C15_19  and  C16_20 
REMARK    6  A    between atoms: C16_20  and  C17_21 
REMARK    7  A    between atoms: C17_21  and  N2_22 
ROOT
HETATM    1  C3  UNL     1       5.095  -0.112  -0.056  1.00  0.00     0.060 A 
HETATM    2  C4  UNL     1       5.870  -1.153   0.494  1.00  0.00     0.026 A 
HETATM    3  C5  UNL     1       5.256  -2.332   0.920  1.00  0.00     0.032 A 
HETATM    4  C6  UNL     1       3.885  -2.426   0.770  1.00  0.00     0.046 A 
HETATM    5  C7  UNL     1       3.108  -1.403   0.215  1.00  0.00     0.008 A 
HETATM    6  C8  UNL     1       3.706  -0.230  -0.214  1.00  0.00     0.038 A 
HETATM    7  C9  UNL     1       1.710  -1.883   0.231  1.00  0.00     0.047 A 
HETATM    8  C10 UNL     1       0.680  -1.135  -0.197  1.00  0.00     0.048 C 
HETATM    9  C24 UNL     1       1.754  -3.272   0.823  1.00  0.00     0.257 A 
HETATM   10  O3  UNL     1       0.836  -4.048   1.007  1.00  0.00    -0.267 OA
HETATM   11  N3  UNL     1       3.087  -3.506   1.122  1.00  0.00    -0.322 N 
HETATM   12  H31 UNL     1       3.407  -4.372   1.529  1.00  0.00     0.169 HD
ENDROOT
BRANCH   8  13
HETATM   13  C11 UNL     1      -0.714  -1.426  -0.214  1.00  0.00     0.040 A 
HETATM   14  N1  UNL     1      -1.215  -2.654   0.156  1.00  0.00    -0.359 N 
HETATM   15  C12 UNL     1      -2.576  -2.652   0.054  1.00  0.00     0.016 A 
HETATM   16  H10 UNL     1      -0.664  -3.446   0.475  1.00  0.00     0.166 HD
HETATM   17  C13 UNL     1      -2.980  -1.412  -0.382  1.00  0.00    -0.027 A 
HETATM   18  C23 UNL     1      -3.455  -3.800   0.398  1.00  0.00     0.057 C 
HETATM   19  C14 UNL     1      -1.805  -0.629  -0.572  1.00  0.00    -0.023 A 
HETATM   20  C20 UNL     1      -4.418  -1.074  -0.602  1.00  0.00     0.041 C 
HETATM   21  C21 UNL     1      -5.341  -2.105   0.076  1.00  0.00     0.005 C 
HETATM   22  C22 UNL     1      -4.870  -3.553  -0.159  1.00  0.00     0.006 C 
BRANCH  19  23
HETATM   23  C15 UNL     1      -1.775   0.791  -1.059  1.00  0.00     0.043 C 
BRANCH  23  24
HETATM   24  C16 UNL     1      -1.797   1.792   0.099  1.00  0.00     0.035 C 
BRANCH  24  25
HETATM   25  C17 UNL     1      -1.700   3.258  -0.350  1.00  0.00     0.271 C 
BRANCH  25  26
HETATM   26  N2  UNL     1      -2.935   3.988  -0.663  1.00  0.00     0.080 N 
HETATM   27  C18 UNL     1      -3.695   3.434  -1.775  1.00  0.00     0.309 C 
HETATM   28  C19 UNL     1      -3.787   4.190   0.505  1.00  0.00     0.309 C 
ENDBRANCH  25  26
ENDBRANCH  24  25
ENDBRANCH  23  24
ENDBRANCH  19  23
ENDBRANCH   8  13
BRANCH   1  29
HETATM   29  S1  UNL     1       5.896   1.376  -0.621  1.00  0.00     0.175 S 
HETATM   30  O1  UNL     1       7.323   1.119  -0.659  1.00  0.00    -0.223 OA
HETATM   31  O2  UNL     1       5.190   1.793  -1.817  1.00  0.00    -0.223 OA
BRANCH  29  32
HETATM   32  C2  UNL     1       5.569   2.574   0.655  1.00  0.00     0.141 C 
HETATM   33  C1  UNL     1       6.171   2.212   1.997  1.00  0.00     0.021 C 
ENDBRANCH  29  32
ENDBRANCH   1  29
TORSDOF 7
