REMARK  7 active torsions:
REMARK  status: ('A' for Active; 'I' for Inactive)
REMARK    1  A    between atoms: C2_2  and  S1_3 
REMARK    2  A    between atoms: S1_3  and  C3_6 
REMARK    3  A    between atoms: C10_13  and  C11_14 
REMARK    4  A    between atoms: C14_18  and  C15_19 
REMARK    5  A    between atoms: C15_19  and  C16_20 
REMARK    6  A    between atoms: C16_20  and  C17_21 
REMARK    7  A    between atoms: C17_21  and  N2_22 
ROOT
HETATM    1  C11 UNL     1       0.532  -2.385   0.191  1.00  0.00     0.040 A 
HETATM    2  N1  UNL     1       0.526  -3.384   1.136  1.00  0.00    -0.359 N 
HETATM    3  C12 UNL     1      -0.499  -4.246   0.875  1.00  0.00     0.016 A 
HETATM    4  C13 UNL     1      -1.169  -3.800  -0.245  1.00  0.00    -0.027 A 
HETATM    5  C14 UNL     1      -0.520  -2.610  -0.688  1.00  0.00    -0.023 A 
HETATM    6  C23 UNL     1      -2.328  -4.541  -0.827  1.00  0.00     0.041 C 
HETATM    7  C24 UNL     1      -2.889  -5.573   0.171  1.00  0.00     0.005 C 
HETATM    8  C25 UNL     1      -1.773  -6.367   0.876  1.00  0.00     0.006 C 
HETATM    9  C26 UNL     1      -0.828  -5.454   1.677  1.00  0.00     0.057 C 
HETATM   10  H10 UNL     1       1.193  -3.480   1.890  1.00  0.00     0.166 HD
ENDROOT
BRANCH   1  11
HETATM   11  C10 UNL     1       1.512  -1.374   0.314  1.00  0.00     0.048 C 
HETATM   12  C9  UNL     1       2.530  -1.214  -0.544  1.00  0.00     0.047 A 
HETATM   13  C7  UNL     1       3.524  -0.136  -0.460  1.00  0.00     0.008 A 
HETATM   14  C27 UNL     1       2.904  -2.061  -1.739  1.00  0.00     0.257 A 
HETATM   15  C6  UNL     1       4.412  -0.338  -1.522  1.00  0.00     0.046 A 
HETATM   16  C8  UNL     1       3.694   0.933   0.403  1.00  0.00     0.038 A 
HETATM   17  C5  UNL     1       5.494   0.487  -1.760  1.00  0.00     0.032 A 
HETATM   18  N4  UNL     1       4.041  -1.456  -2.259  1.00  0.00    -0.322 N 
HETATM   19  C4  UNL     1       5.681   1.568  -0.894  1.00  0.00     0.026 A 
HETATM   20  C3  UNL     1       4.777   1.791   0.165  1.00  0.00     0.060 A 
HETATM   21  H36 UNL     1       4.519  -1.822  -3.069  1.00  0.00     0.169 HD
HETATM   22  O3  UNL     1       2.370  -3.060  -2.177  1.00  0.00    -0.267 OA
BRANCH  20  23
HETATM   23  S1  UNL     1       5.046   3.171   1.260  1.00  0.00     0.175 S 
HETATM   24  O1  UNL     1       6.471   3.440   1.262  1.00  0.00    -0.223 OA
HETATM   25  O2  UNL     1       4.338   2.881   2.492  1.00  0.00    -0.223 OA
BRANCH  23  26
HETATM   26  C2  UNL     1       4.212   4.510   0.428  1.00  0.00     0.141 C 
HETATM   27  C1  UNL     1       4.307   5.800   1.218  1.00  0.00     0.021 C 
ENDBRANCH  23  26
ENDBRANCH  20  23
ENDBRANCH   1  11
BRANCH   5  28
HETATM   28  C15 UNL     1      -0.900  -1.784  -1.879  1.00  0.00     0.043 C 
BRANCH  28  29
HETATM   29  C16 UNL     1      -2.023  -0.779  -1.601  1.00  0.00     0.035 C 
BRANCH  29  30
HETATM   30  C17 UNL     1      -1.596   0.332  -0.631  1.00  0.00     0.273 C 
BRANCH  30  31
HETATM   31  N2  UNL     1      -2.588   1.412  -0.536  1.00  0.00     0.091 N 
HETATM   32  C18 UNL     1      -3.883   0.953   0.015  1.00  0.00     0.302 C 
HETATM   33  C19 UNL     1      -4.726   2.044   0.732  1.00  0.00     0.302 C 
HETATM   34  N3  UNL     1      -4.498   3.383   0.179  1.00  0.00     0.087 N 
HETATM   35  C20 UNL     1      -5.355   4.388   0.791  1.00  0.00     0.310 C 
HETATM   36  C21 UNL     1      -3.072   3.748   0.271  1.00  0.00     0.302 C 
HETATM   37  C22 UNL     1      -2.081   2.552   0.238  1.00  0.00     0.302 C 
ENDBRANCH  30  31
ENDBRANCH  29  30
ENDBRANCH  28  29
ENDBRANCH   5  28
TORSDOF 7
