REMARK  9 active torsions:
REMARK  status: ('A' for Active; 'I' for Inactive)
REMARK    1  A    between atoms: C2_2  and  S1_3 
REMARK    2  A    between atoms: S1_3  and  C3_6 
REMARK    3  A    between atoms: C10_13  and  C11_14 
REMARK    4  A    between atoms: C14_18  and  C15_19 
REMARK    5  A    between atoms: C15_19  and  C16_20 
REMARK    6  A    between atoms: C16_20  and  C17_21 
REMARK    7  A    between atoms: C17_21  and  N2_22 
REMARK       I    between atoms: N3_25  and  C20_26 
REMARK    8  A    between atoms: C20_26  and  C21_28 
REMARK    9  A    between atoms: C21_28  and  O4_29 
ROOT
HETATM    1  C11 UNL     1      -1.458  -2.241  -0.186  1.00  0.00     0.040 A 
HETATM    2  N1  UNL     1      -1.845  -3.537   0.066  1.00  0.00    -0.359 N 
HETATM    3  C12 UNL     1      -0.874  -4.399  -0.352  1.00  0.00     0.016 A 
HETATM    4  C13 UNL     1       0.172  -3.666  -0.864  1.00  0.00    -0.027 A 
HETATM    5  C14 UNL     1      -0.186  -2.291  -0.759  1.00  0.00    -0.023 A 
HETATM    6  C24 UNL     1       1.388  -4.312  -1.435  1.00  0.00     0.041 C 
HETATM    7  C25 UNL     1       1.482  -5.797  -1.035  1.00  0.00     0.005 C 
HETATM    8  C26 UNL     1       0.124  -6.523  -1.134  1.00  0.00     0.006 C 
HETATM    9  C27 UNL     1      -0.956  -5.880  -0.246  1.00  0.00     0.057 C 
HETATM   10  H10 UNL     1      -2.733  -3.822   0.469  1.00  0.00     0.166 HD
ENDROOT
BRANCH   1  11
HETATM   11  C10 UNL     1      -2.286  -1.126   0.121  1.00  0.00     0.048 C 
HETATM   12  C9  UNL     1      -3.573  -1.095   0.505  1.00  0.00     0.047 A 
HETATM   13  C7  UNL     1      -4.322   0.166   0.686  1.00  0.00     0.008 A 
HETATM   14  C28 UNL     1      -4.558  -2.208   0.771  1.00  0.00     0.257 A 
HETATM   15  C6  UNL     1      -5.643  -0.197   0.980  1.00  0.00     0.046 A 
HETATM   16  C8  UNL     1      -3.969   1.503   0.598  1.00  0.00     0.038 A 
HETATM   17  C5  UNL     1      -6.649   0.728   1.187  1.00  0.00     0.032 A 
HETATM   18  N4  UNL     1      -5.767  -1.578   1.028  1.00  0.00    -0.322 N 
HETATM   19  C4  UNL     1      -6.311   2.079   1.085  1.00  0.00     0.026 A 
HETATM   20  C3  UNL     1      -4.984   2.455   0.782  1.00  0.00     0.060 A 
HETATM   21  H36 UNL     1      -6.610  -2.090   1.242  1.00  0.00     0.169 HD
HETATM   22  O5  UNL     1      -4.363  -3.407   0.776  1.00  0.00    -0.267 OA
BRANCH  20  23
HETATM   23  S1  UNL     1      -4.573   4.182   0.631  1.00  0.00     0.175 S 
HETATM   24  O1  UNL     1      -3.284   4.355   1.274  1.00  0.00    -0.223 OA
HETATM   25  O2  UNL     1      -5.726   4.950   1.061  1.00  0.00    -0.223 OA
BRANCH  23  26
HETATM   26  C2  UNL     1      -4.354   4.436  -1.117  1.00  0.00     0.141 C 
HETATM   27  C1  UNL     1      -5.581   4.093  -1.938  1.00  0.00     0.021 C 
ENDBRANCH  23  26
ENDBRANCH  20  23
ENDBRANCH   1  11
BRANCH   5  28
HETATM   28  C15 UNL     1       0.651  -1.132  -1.209  1.00  0.00     0.043 C 
BRANCH  28  29
HETATM   29  C16 UNL     1       1.414  -0.481  -0.049  1.00  0.00     0.035 C 
BRANCH  29  30
HETATM   30  C17 UNL     1       2.227   0.723  -0.542  1.00  0.00     0.273 C 
BRANCH  30  31
HETATM   31  N2  UNL     1       2.844   1.490   0.548  1.00  0.00     0.091 N 
HETATM   32  C18 UNL     1       3.465   2.740   0.062  1.00  0.00     0.292 C 
HETATM   33  C19 UNL     1       4.999   2.701  -0.081  1.00  0.00     0.156 C 
HETATM   34  N3  UNL     1       5.661   2.294   1.162  1.00  0.00    -0.347 N 
HETATM   35  C20 UNL     1       6.937   2.670   1.539  1.00  0.00     0.243 C 
HETATM   36  C22 UNL     1       4.842   1.516   2.094  1.00  0.00     0.156 C 
HETATM   37  O3  UNL     1       7.395   2.413   2.656  1.00  0.00    -0.271 OA
HETATM   38  C23 UNL     1       3.782   0.679   1.356  1.00  0.00     0.292 C 
BRANCH  35  39
HETATM   39  C21 UNL     1       7.793   3.429   0.511  1.00  0.00     0.267 C 
BRANCH  39  40
HETATM   40  O4  UNL     1       7.853   2.828  -0.771  1.00  0.00    -0.392 OA
HETATM   41  H23 UNL     1       8.190   1.925  -0.634  1.00  0.00     0.210 HD
ENDBRANCH  39  40
ENDBRANCH  35  39
ENDBRANCH  30  31
ENDBRANCH  29  30
ENDBRANCH  28  29
ENDBRANCH   5  28
TORSDOF 9
