REMARK  7 active torsions:
REMARK  status: ('A' for Active; 'I' for Inactive)
REMARK    1  A    between atoms: C2_2  and  S1_4 
REMARK    2  A    between atoms: S1_4  and  C4_7 
REMARK    3  A    between atoms: C11_14  and  C12_15 
REMARK    4  A    between atoms: C15_19  and  C16_20 
REMARK    5  A    between atoms: C16_20  and  C17_21 
REMARK    6  A    between atoms: C17_21  and  C18_22 
REMARK    7  A    between atoms: C18_22  and  N2_23 
ROOT
HETATM    1  C4  UNL     1       4.391   0.923   0.849  1.00  0.00     0.060 A 
HETATM    2  C5  UNL     1       5.208   0.082   1.632  1.00  0.00     0.026 A 
HETATM    3  C6  UNL     1       4.732  -1.162   2.057  1.00  0.00     0.032 A 
HETATM    4  C7  UNL     1       3.446  -1.509   1.695  1.00  0.00     0.046 A 
HETATM    5  C8  UNL     1       2.619  -0.673   0.937  1.00  0.00     0.008 A 
HETATM    6  C9  UNL     1       3.078   0.562   0.512  1.00  0.00     0.038 A 
HETATM    7  C10 UNL     1       1.335  -1.386   0.778  1.00  0.00     0.047 A 
HETATM    8  C11 UNL     1       0.301  -0.872   0.093  1.00  0.00     0.048 C 
HETATM    9  C25 UNL     1       1.494  -2.698   1.509  1.00  0.00     0.257 A 
HETATM   10  O3  UNL     1       0.684  -3.597   1.638  1.00  0.00    -0.267 OA
HETATM   11  N3  UNL     1       2.781  -2.684   2.019  1.00  0.00    -0.322 N 
HETATM   12  H33 UNL     1       3.157  -3.446   2.563  1.00  0.00     0.169 HD
ENDROOT
BRANCH   8  13
HETATM   13  C12 UNL     1      -0.997  -1.409  -0.143  1.00  0.00     0.040 A 
HETATM   14  N1  UNL     1      -1.393  -2.628   0.360  1.00  0.00    -0.359 N 
HETATM   15  C13 UNL     1      -2.679  -2.889  -0.012  1.00  0.00     0.016 A 
HETATM   16  H12 UNL     1      -0.822  -3.248   0.927  1.00  0.00     0.166 HD
HETATM   17  C14 UNL     1      -3.139  -1.837  -0.770  1.00  0.00    -0.027 A 
HETATM   18  C24 UNL     1      -3.446  -4.102   0.378  1.00  0.00     0.057 C 
HETATM   19  C15 UNL     1      -2.080  -0.886  -0.856  1.00  0.00    -0.023 A 
HETATM   20  C21 UNL     1      -4.512  -1.821  -1.356  1.00  0.00     0.041 C 
HETATM   21  C22 UNL     1      -5.417  -2.876  -0.688  1.00  0.00     0.005 C 
HETATM   22  C23 UNL     1      -4.701  -4.227  -0.506  1.00  0.00     0.006 C 
BRANCH  19  23
HETATM   23  C16 UNL     1      -2.135   0.424  -1.587  1.00  0.00     0.043 C 
BRANCH  23  24
HETATM   24  C17 UNL     1      -2.256   1.643  -0.665  1.00  0.00     0.035 C 
BRANCH  24  25
HETATM   25  C18 UNL     1      -3.623   1.724   0.032  1.00  0.00     0.271 C 
BRANCH  25  26
HETATM   26  N2  UNL     1      -3.837   2.873   0.927  1.00  0.00     0.080 N 
HETATM   27  C19 UNL     1      -2.971   2.833   2.103  1.00  0.00     0.309 C 
HETATM   28  C20 UNL     1      -3.739   4.160   0.247  1.00  0.00     0.309 C 
ENDBRANCH  25  26
ENDBRANCH  24  25
ENDBRANCH  23  24
ENDBRANCH  19  23
ENDBRANCH   8  13
BRANCH   1  29
HETATM   29  S1  UNL     1       5.003   2.523   0.353  1.00  0.00     0.178 S 
HETATM   30  O1  UNL     1       3.844   3.387   0.215  1.00  0.00    -0.222 OA
HETATM   31  O2  UNL     1       6.060   2.876   1.283  1.00  0.00    -0.222 OA
BRANCH  29  32
HETATM   32  C2  UNL     1       5.734   2.293  -1.268  1.00  0.00     0.105 C 
HETATM   33  C1  UNL     1       4.704   1.891  -2.318  1.00  0.00     0.026 C 
HETATM   34  C3  UNL     1       6.901   1.311  -1.243  1.00  0.00     0.026 C 
ENDBRANCH  29  32
ENDBRANCH   1  29
TORSDOF 7
