REMARK  7 active torsions:
REMARK  status: ('A' for Active; 'I' for Inactive)
REMARK    1  A    between atoms: C2_2  and  S1_3 
REMARK    2  A    between atoms: S1_3  and  C3_6 
REMARK    3  A    between atoms: C10_13  and  C11_14 
REMARK    4  A    between atoms: C14_18  and  C15_19 
REMARK    5  A    between atoms: C15_19  and  C16_20 
REMARK    6  A    between atoms: C16_20  and  C17_21 
REMARK    7  A    between atoms: C17_21  and  N2_22 
ROOT
HETATM    1  C11 UNL     1       0.058   2.174  -0.317  1.00  0.00     0.040 A 
HETATM    2  N1  UNL     1       0.267   3.531  -0.419  1.00  0.00    -0.359 N 
HETATM    3  C12 UNL     1      -0.880   4.150  -0.822  1.00  0.00     0.016 A 
HETATM    4  C13 UNL     1      -1.854   3.196  -1.003  1.00  0.00    -0.027 A 
HETATM    5  C14 UNL     1      -1.269   1.935  -0.684  1.00  0.00    -0.023 A 
HETATM    6  C22 UNL     1      -3.245   3.547  -1.418  1.00  0.00     0.041 C 
HETATM    7  C23 UNL     1      -3.321   4.989  -1.959  1.00  0.00     0.005 C 
HETATM    8  C24 UNL     1      -2.517   5.982  -1.098  1.00  0.00     0.006 C 
HETATM    9  C25 UNL     1      -1.023   5.615  -1.037  1.00  0.00     0.057 C 
HETATM   10  H10 UNL     1       1.134   4.013  -0.206  1.00  0.00     0.166 HD
ENDROOT
BRANCH   1  11
HETATM   11  C10 UNL     1       1.080   1.274   0.103  1.00  0.00     0.048 C 
HETATM   12  C9  UNL     1       2.323   1.533   0.547  1.00  0.00     0.047 A 
HETATM   13  C7  UNL     1       3.256   0.474   0.984  1.00  0.00     0.008 A 
HETATM   14  C26 UNL     1       3.059   2.840   0.735  1.00  0.00     0.257 A 
HETATM   15  C6  UNL     1       4.421   1.124   1.411  1.00  0.00     0.046 A 
HETATM   16  C8  UNL     1       3.170  -0.907   1.040  1.00  0.00     0.038 A 
HETATM   17  C5  UNL     1       5.521   0.450   1.905  1.00  0.00     0.032 A 
HETATM   18  N3  UNL     1       4.293   2.498   1.264  1.00  0.00    -0.322 N 
HETATM   19  C4  UNL     1       5.446  -0.942   1.967  1.00  0.00     0.026 A 
HETATM   20  C3  UNL     1       4.285  -1.609   1.524  1.00  0.00     0.060 A 
HETATM   21  H33 UNL     1       4.991   3.187   1.499  1.00  0.00     0.169 HD
HETATM   22  O4  UNL     1       2.685   3.967   0.476  1.00  0.00    -0.267 OA
BRANCH  20  23
HETATM   23  S1  UNL     1       4.227  -3.389   1.618  1.00  0.00     0.175 S 
HETATM   24  O1  UNL     1       2.836  -3.782   1.504  1.00  0.00    -0.223 OA
HETATM   25  O2  UNL     1       5.024  -3.775   2.766  1.00  0.00    -0.223 OA
BRANCH  23  26
HETATM   26  C2  UNL     1       5.080  -3.892   0.134  1.00  0.00     0.141 C 
HETATM   27  C1  UNL     1       5.142  -5.402   0.011  1.00  0.00     0.021 C 
ENDBRANCH  23  26
ENDBRANCH  20  23
ENDBRANCH   1  11
BRANCH   5  28
HETATM   28  C15 UNL     1      -1.978   0.611  -0.718  1.00  0.00     0.043 C 
BRANCH  28  29
HETATM   29  C16 UNL     1      -2.438   0.168   0.672  1.00  0.00     0.035 C 
BRANCH  29  30
HETATM   30  C17 UNL     1      -3.510  -0.933   0.681  1.00  0.00     0.273 C 
BRANCH  30  31
HETATM   31  N2  UNL     1      -3.020  -2.305   0.475  1.00  0.00     0.092 N 
HETATM   32  C18 UNL     1      -4.044  -3.305   0.863  1.00  0.00     0.298 C 
HETATM   33  C19 UNL     1      -4.889  -3.803  -0.319  1.00  0.00     0.198 C 
HETATM   34  O3  UNL     1      -4.114  -4.432  -1.349  1.00  0.00    -0.388 OA
HETATM   35  C20 UNL     1      -2.739  -4.025  -1.340  1.00  0.00     0.198 C 
HETATM   36  C21 UNL     1      -2.566  -2.558  -0.911  1.00  0.00     0.298 C 
ENDBRANCH  30  31
ENDBRANCH  29  30
ENDBRANCH  28  29
ENDBRANCH   5  28
TORSDOF 7
