REMARK  5 active torsions:
REMARK  status: ('A' for Active; 'I' for Inactive)
REMARK    1  A    between atoms: N1_2  and  C3_4 
REMARK    2  A    between atoms: C3_4  and  C4_5 
REMARK    3  A    between atoms: C4_5  and  C5_6 
REMARK    4  A    between atoms: C5_6  and  C6_7 
REMARK    5  A    between atoms: C7_8  and  C8_9 
ROOT
HETATM    1  C6  UNL     1      -0.603   0.533  -0.532  1.00  0.00    -0.023 A 
HETATM    2  C7  UNL     1       0.783   0.684  -0.446  1.00  0.00     0.040 A 
HETATM    3  N3  UNL     1       1.066   2.000  -0.735  1.00  0.00    -0.359 N 
HETATM    4  C17 UNL     1      -0.089   2.678  -0.997  1.00  0.00     0.016 A 
HETATM    5  C18 UNL     1      -1.145   1.806  -0.875  1.00  0.00    -0.027 A 
HETATM    6  C19 UNL     1      -2.558   2.226  -1.112  1.00  0.00     0.041 C 
HETATM    7  C20 UNL     1      -2.691   3.762  -1.095  1.00  0.00     0.005 C 
HETATM    8  C21 UNL     1      -1.565   4.452  -1.890  1.00  0.00     0.006 C 
HETATM    9  C22 UNL     1      -0.170   4.126  -1.326  1.00  0.00     0.057 C 
HETATM   10  H18 UNL     1       1.992   2.416  -0.752  1.00  0.00     0.166 HD
ENDROOT
BRANCH   2  11
HETATM   11  C8  UNL     1       1.800  -0.263  -0.132  1.00  0.00     0.048 C 
HETATM   12  C9  UNL     1       3.133  -0.104  -0.066  1.00  0.00     0.047 A 
HETATM   13  C10 UNL     1       4.004   1.110  -0.291  1.00  0.00     0.257 A 
HETATM   14  C16 UNL     1       4.054  -1.209   0.268  1.00  0.00     0.009 A 
HETATM   15  O1  UNL     1       3.668   2.244  -0.577  1.00  0.00    -0.267 OA
HETATM   16  N2  UNL     1       5.304   0.675  -0.095  1.00  0.00    -0.322 N 
HETATM   17  C11 UNL     1       5.347  -0.673   0.232  1.00  0.00     0.046 A 
HETATM   18  H14 UNL     1       6.099   1.289  -0.181  1.00  0.00     0.169 HD
HETATM   19  C12 UNL     1       6.478  -1.422   0.496  1.00  0.00     0.033 A 
HETATM   20  C13 UNL     1       6.292  -2.769   0.807  1.00  0.00     0.044 A 
HETATM   21  C14 UNL     1       5.000  -3.314   0.845  1.00  0.00     0.117 A 
HETATM   22  F1  UNL     1       4.851  -4.612   1.144  1.00  0.00    -0.206 F 
HETATM   23  C15 UNL     1       3.867  -2.546   0.577  1.00  0.00     0.057 A 
ENDBRANCH   2  11
BRANCH   1  24
HETATM   24  C5  UNL     1      -1.403  -0.719  -0.310  1.00  0.00     0.043 C 
BRANCH  24  25
HETATM   25  C4  UNL     1      -1.804  -0.885   1.159  1.00  0.00     0.035 C 
BRANCH  25  26
HETATM   26  C3  UNL     1      -2.576  -2.184   1.423  1.00  0.00     0.271 C 
BRANCH  26  27
HETATM   27  N1  UNL     1      -3.809  -2.336   0.632  1.00  0.00     0.080 N 
HETATM   28  C1  UNL     1      -4.351  -3.687   0.801  1.00  0.00     0.309 C 
HETATM   29  C2  UNL     1      -4.824  -1.348   1.004  1.00  0.00     0.309 C 
ENDBRANCH  26  27
ENDBRANCH  25  26
ENDBRANCH  24  25
ENDBRANCH   1  24
TORSDOF 5
