REMARK  7 active torsions:
REMARK  status: ('A' for Active; 'I' for Inactive)
REMARK    1  A    between atoms: N1_2  and  S1_3 
REMARK    2  A    between atoms: S1_3  and  C2_6 
REMARK    3  A    between atoms: C9_13  and  C10_14 
REMARK    4  A    between atoms: C13_18  and  C14_19 
REMARK    5  A    between atoms: C14_19  and  C15_20 
REMARK    6  A    between atoms: C15_20  and  C16_21 
REMARK    7  A    between atoms: C16_21  and  N3_22 
REMARK       I    between atoms: N4_25  and  C19_26 
ROOT
HETATM    1  C10 UNL     1      -1.236   0.372  -2.090  1.00  0.00     0.040 A 
HETATM    2  N2  UNL     1      -1.546  -0.164  -3.320  1.00  0.00    -0.359 N 
HETATM    3  C11 UNL     1      -0.698   0.331  -4.268  1.00  0.00     0.016 A 
HETATM    4  C12 UNL     1       0.169   1.213  -3.665  1.00  0.00    -0.027 A 
HETATM    5  C13 UNL     1      -0.166   1.250  -2.281  1.00  0.00    -0.023 A 
HETATM    6  C23 UNL     1       1.247   1.913  -4.425  1.00  0.00     0.041 C 
HETATM    7  C24 UNL     1       1.004   1.830  -5.945  1.00  0.00     0.005 C 
HETATM    8  C25 UNL     1       0.570   0.420  -6.390  1.00  0.00     0.006 C 
HETATM    9  C26 UNL     1      -0.739  -0.025  -5.712  1.00  0.00     0.057 C 
HETATM   10  H9  UNL     1      -2.284  -0.837  -3.503  1.00  0.00     0.166 HD
ENDROOT
BRANCH   1  11
HETATM   11  C9  UNL     1      -1.935   0.015  -0.902  1.00  0.00     0.048 C 
HETATM   12  C8  UNL     1      -2.937  -0.861  -0.721  1.00  0.00     0.047 A 
HETATM   13  C6  UNL     1      -3.528  -1.133   0.604  1.00  0.00     0.008 A 
HETATM   14  C27 UNL     1      -3.675  -1.747  -1.697  1.00  0.00     0.257 A 
HETATM   15  C5  UNL     1      -4.514  -2.107   0.407  1.00  0.00     0.046 A 
HETATM   16  C7  UNL     1      -3.281  -0.640   1.874  1.00  0.00     0.040 A 
HETATM   17  C4  UNL     1      -5.274  -2.625   1.438  1.00  0.00     0.032 A 
HETATM   18  N5  UNL     1      -4.591  -2.455  -0.935  1.00  0.00    -0.322 N 
HETATM   19  C3  UNL     1      -5.032  -2.138   2.724  1.00  0.00     0.027 A 
HETATM   20  C2  UNL     1      -4.051  -1.146   2.932  1.00  0.00     0.080 A 
HETATM   21  H35 UNL     1      -5.220  -3.134  -1.336  1.00  0.00     0.169 HD
HETATM   22  O4  UNL     1      -3.524  -1.839  -2.901  1.00  0.00    -0.267 OA
BRANCH  20  23
HETATM   23  S1  UNL     1      -3.731  -0.556   4.581  1.00  0.00     0.258 S 
HETATM   24  O1  UNL     1      -2.332  -0.200   4.650  1.00  0.00    -0.201 OA
HETATM   25  O2  UNL     1      -4.334  -1.481   5.514  1.00  0.00    -0.201 OA
BRANCH  23  26
HETATM   26  N1  UNL     1      -4.593   0.873   4.621  1.00  0.00    -0.320 N 
HETATM   27  C1  UNL     1      -6.038   0.881   4.467  1.00  0.00     0.159 C 
HETATM   28  H4  UNL     1      -4.058   1.724   4.460  1.00  0.00     0.171 HD
ENDBRANCH  23  26
ENDBRANCH  20  23
ENDBRANCH   1  11
BRANCH   5  29
HETATM   29  C14 UNL     1       0.526   2.070  -1.233  1.00  0.00     0.043 C 
BRANCH  29  30
HETATM   30  C15 UNL     1       1.592   1.266  -0.482  1.00  0.00     0.035 C 
BRANCH  30  31
HETATM   31  C16 UNL     1       2.219   2.112   0.634  1.00  0.00     0.273 C 
BRANCH  31  32
HETATM   32  N3  UNL     1       3.284   1.472   1.408  1.00  0.00     0.091 N 
HETATM   33  C17 UNL     1       2.832   0.342   2.232  1.00  0.00     0.292 C 
HETATM   34  C18 UNL     1       4.003  -0.400   2.905  1.00  0.00     0.156 C 
HETATM   35  N4  UNL     1       4.985  -0.893   1.934  1.00  0.00    -0.349 N 
HETATM   36  C19 UNL     1       5.941  -1.854   2.209  1.00  0.00     0.215 C 
HETATM   37  C21 UNL     1       4.926  -0.299   0.597  1.00  0.00     0.156 C 
HETATM   38  C20 UNL     1       5.982  -2.394   3.617  1.00  0.00     0.117 C 
HETATM   39  O3  UNL     1       6.726  -2.277   1.359  1.00  0.00    -0.274 OA
HETATM   40  C22 UNL     1       4.507   1.183   0.636  1.00  0.00     0.292 C 
ENDBRANCH  31  32
ENDBRANCH  30  31
ENDBRANCH  29  30
ENDBRANCH   5  29
TORSDOF 7
