REMARK  7 active torsions:
REMARK  status: ('A' for Active; 'I' for Inactive)
REMARK    1  A    between atoms: N1_2  and  C3_4 
REMARK    2  A    between atoms: C3_4  and  C4_5 
REMARK    3  A    between atoms: C4_5  and  C5_6 
REMARK    4  A    between atoms: C5_6  and  C6_7 
REMARK    5  A    between atoms: C7_8  and  C8_9 
REMARK    6  A    between atoms: C14_17  and  C15_18 
REMARK    7  A    between atoms: C15_18  and  O3_20 
ROOT
HETATM    1  C6  UNL     1      -0.865   1.375  -0.345  1.00  0.00    -0.023 A 
HETATM    2  C7  UNL     1       0.337   1.316   0.364  1.00  0.00     0.040 A 
HETATM    3  N3  UNL     1       0.348   2.384   1.232  1.00  0.00    -0.359 N 
HETATM    4  C18 UNL     1      -0.804   3.104   1.099  1.00  0.00     0.016 A 
HETATM    5  C19 UNL     1      -1.585   2.506   0.137  1.00  0.00    -0.027 A 
HETATM    6  C20 UNL     1      -2.915   3.053  -0.261  1.00  0.00     0.041 C 
HETATM    7  C21 UNL     1      -3.436   4.064   0.780  1.00  0.00     0.005 C 
HETATM    8  C22 UNL     1      -2.337   5.040   1.243  1.00  0.00     0.006 C 
HETATM    9  C23 UNL     1      -1.149   4.310   1.896  1.00  0.00     0.057 C 
HETATM   10  H19 UNL     1       1.095   2.611   1.881  1.00  0.00     0.166 HD
ENDROOT
BRANCH   2  11
HETATM   11  C8  UNL     1       1.407   0.378   0.293  1.00  0.00     0.048 C 
HETATM   12  C9  UNL     1       2.570   0.346   0.965  1.00  0.00     0.047 A 
HETATM   13  C10 UNL     1       3.143   1.277   2.008  1.00  0.00     0.257 A 
HETATM   14  C17 UNL     1       3.580  -0.715   0.769  1.00  0.00     0.007 A 
HETATM   15  O1  UNL     1       2.649   2.284   2.481  1.00  0.00    -0.267 OA
HETATM   16  N2  UNL     1       4.379   0.748   2.338  1.00  0.00    -0.322 N 
HETATM   17  C11 UNL     1       4.643  -0.413   1.624  1.00  0.00     0.046 A 
HETATM   18  H14 UNL     1       4.987   1.173   3.022  1.00  0.00     0.169 HD
HETATM   19  C12 UNL     1       5.778  -1.193   1.712  1.00  0.00     0.031 A 
HETATM   20  C13 UNL     1       5.840  -2.329   0.900  1.00  0.00     0.020 A 
HETATM   21  C14 UNL     1       4.776  -2.655   0.029  1.00  0.00     0.038 A 
HETATM   22  C16 UNL     1       3.633  -1.841  -0.039  1.00  0.00     0.033 A 
BRANCH  21  23
HETATM   23  C15 UNL     1       4.912  -3.877  -0.802  1.00  0.00     0.176 C 
HETATM   24  O2  UNL     1       5.859  -4.641  -0.794  1.00  0.00    -0.646 OA
BRANCH  23  25
HETATM   25  O3  UNL     1       3.854  -4.080  -1.605  1.00  0.00    -0.773 OA
HETATM   26  H17 UNL     1       4.072  -4.908  -2.083  1.00  0.00     0.167 HD
ENDBRANCH  23  25
ENDBRANCH  21  23
ENDBRANCH   2  11
BRANCH   1  27
HETATM   27  C5  UNL     1      -1.333   0.434  -1.416  1.00  0.00     0.043 C 
BRANCH  27  28
HETATM   28  C4  UNL     1      -1.983  -0.827  -0.839  1.00  0.00     0.035 C 
BRANCH  28  29
HETATM   29  C3  UNL     1      -2.492  -1.739  -1.962  1.00  0.00     0.271 C 
BRANCH  29  30
HETATM   30  N1  UNL     1      -2.968  -3.047  -1.480  1.00  0.00     0.080 N 
HETATM   31  C1  UNL     1      -3.248  -3.927  -2.618  1.00  0.00     0.309 C 
HETATM   32  C2  UNL     1      -4.165  -2.926  -0.645  1.00  0.00     0.309 C 
ENDBRANCH  29  30
ENDBRANCH  28  29
ENDBRANCH  27  28
ENDBRANCH   1  27
TORSDOF 7
