REMARK  7 active torsions:
REMARK  status: ('A' for Active; 'I' for Inactive)
REMARK    1  A    between atoms: N1_2  and  S1_3 
REMARK    2  A    between atoms: S1_3  and  C2_6 
REMARK    3  A    between atoms: C9_13  and  C10_14 
REMARK    4  A    between atoms: C13_18  and  C14_19 
REMARK    5  A    between atoms: C14_19  and  C15_20 
REMARK    6  A    between atoms: C15_20  and  C16_21 
REMARK    7  A    between atoms: C16_21  and  N3_22 
ROOT
HETATM    1  C10 UNL     1       0.351  -2.062  -0.782  1.00  0.00     0.040 A 
HETATM    2  N2  UNL     1       0.824  -3.351  -0.683  1.00  0.00    -0.359 N 
HETATM    3  C11 UNL     1      -0.219  -4.217  -0.521  1.00  0.00     0.016 A 
HETATM    4  C12 UNL     1      -1.389  -3.495  -0.503  1.00  0.00    -0.027 A 
HETATM    5  C13 UNL     1      -1.041  -2.125  -0.688  1.00  0.00    -0.023 A 
HETATM    6  C21 UNL     1      -2.725  -4.145  -0.352  1.00  0.00     0.041 C 
HETATM    7  C22 UNL     1      -2.584  -5.591   0.161  1.00  0.00     0.005 C 
HETATM    8  C23 UNL     1      -1.461  -6.356  -0.563  1.00  0.00     0.006 C 
HETATM    9  C24 UNL     1      -0.085  -5.690  -0.368  1.00  0.00     0.057 C 
HETATM   10  H9  UNL     1       1.799  -3.630  -0.737  1.00  0.00     0.166 HD
ENDROOT
BRANCH   1  11
HETATM   11  C9  UNL     1       1.216  -0.943  -0.941  1.00  0.00     0.048 C 
HETATM   12  C8  UNL     1       2.543  -0.903  -1.140  1.00  0.00     0.047 A 
HETATM   13  C6  UNL     1       3.288   0.361  -1.305  1.00  0.00     0.008 A 
HETATM   14  C25 UNL     1       3.565  -2.008  -1.268  1.00  0.00     0.257 A 
HETATM   15  C5  UNL     1       4.621   0.009  -1.547  1.00  0.00     0.046 A 
HETATM   16  C7  UNL     1       2.918   1.694  -1.255  1.00  0.00     0.040 A 
HETATM   17  C4  UNL     1       5.617   0.942  -1.761  1.00  0.00     0.032 A 
HETATM   18  N4  UNL     1       4.768  -1.371  -1.525  1.00  0.00    -0.322 N 
HETATM   19  C3  UNL     1       5.255   2.289  -1.720  1.00  0.00     0.027 A 
HETATM   20  C2  UNL     1       3.919   2.655  -1.453  1.00  0.00     0.080 A 
HETATM   21  H32 UNL     1       5.631  -1.877  -1.661  1.00  0.00     0.169 HD
HETATM   22  O4  UNL     1       3.402  -3.208  -1.160  1.00  0.00    -0.267 OA
BRANCH  20  23
HETATM   23  S1  UNL     1       3.494   4.381  -1.385  1.00  0.00     0.258 S 
HETATM   24  O1  UNL     1       2.053   4.488  -1.331  1.00  0.00    -0.201 OA
HETATM   25  O2  UNL     1       4.279   5.064  -2.388  1.00  0.00    -0.201 OA
BRANCH  23  26
HETATM   26  N1  UNL     1       4.106   4.838   0.101  1.00  0.00    -0.320 N 
HETATM   27  C1  UNL     1       3.619   4.230   1.327  1.00  0.00     0.159 C 
HETATM   28  H4  UNL     1       5.014   5.297   0.084  1.00  0.00     0.171 HD
ENDBRANCH  23  26
ENDBRANCH  20  23
ENDBRANCH   1  11
BRANCH   5  29
HETATM   29  C14 UNL     1      -2.011  -0.985  -0.780  1.00  0.00     0.043 C 
BRANCH  29  30
HETATM   30  C15 UNL     1      -2.199  -0.258   0.554  1.00  0.00     0.035 C 
BRANCH  30  31
HETATM   31  C16 UNL     1      -3.229   0.870   0.409  1.00  0.00     0.273 C 
BRANCH  31  32
HETATM   32  N3  UNL     1      -3.446   1.586   1.673  1.00  0.00     0.092 N 
HETATM   33  C17 UNL     1      -2.341   2.504   2.027  1.00  0.00     0.298 C 
HETATM   34  C18 UNL     1      -2.670   3.991   1.806  1.00  0.00     0.198 C 
HETATM   35  O3  UNL     1      -3.819   4.431   2.542  1.00  0.00    -0.388 OA
HETATM   36  C19 UNL     1      -4.793   3.395   2.733  1.00  0.00     0.198 C 
HETATM   37  C20 UNL     1      -4.735   2.313   1.645  1.00  0.00     0.298 C 
ENDBRANCH  31  32
ENDBRANCH  30  31
ENDBRANCH  29  30
ENDBRANCH   5  29
TORSDOF 7
