REMARK  5 active torsions:
REMARK  status: ('A' for Active; 'I' for Inactive)
REMARK    1  A    between atoms: C3_3  and  C4_4 
REMARK    2  A    between atoms: C6_6  and  N1_7 
REMARK    3  A    between atoms: N1_7  and  C7_8 
REMARK    4  A    between atoms: C18_28  and  N7_29 
REMARK       I    between atoms: N7_29  and  C19_30 
REMARK    5  A    between atoms: C19_30  and  C20_32 
ROOT
HETATM    1  C4  UNL     1      -0.206   1.078  -0.393  1.00  0.00     0.061 A 
HETATM    2  C5  UNL     1      -1.277   0.086  -0.612  1.00  0.00     0.067 A 
HETATM    3  C6  UNL     1      -2.414   0.176   0.097  1.00  0.00     0.106 A 
HETATM    4  C14 UNL     1      -2.479   1.275   1.139  1.00  0.00     0.286 A 
HETATM    5  O1  UNL     1      -3.425   1.440   1.905  1.00  0.00    -0.264 OA
HETATM    6  N5  UNL     1      -1.386   2.106   1.224  1.00  0.00    -0.264 N 
HETATM    7  N6  UNL     1      -0.249   2.031   0.480  1.00  0.00    -0.297 N 
ATOM      8  H6  UNL     1       0.522   2.687   0.603  1.00  0.00     0.187 HD
HETATM    9  H16 UNL     1      -1.427   2.843   1.919  1.00  0.00     0.190 HD
ENDROOT
BRANCH   1  10
HETATM   10  C3  UNL     1       0.994   0.934  -1.249  1.00  0.00     0.000 A 
HETATM   11  C2  UNL     1       2.256   0.596  -0.703  1.00  0.00    -0.020 A 
HETATM   12  C1  UNL     1       2.393   0.307   0.772  1.00  0.00     0.052 C 
HETATM   13  C18 UNL     1       3.379   0.553  -1.567  1.00  0.00     0.081 A 
HETATM   14  C17 UNL     1       3.196   0.856  -2.930  1.00  0.00     0.143 A 
HETATM   15  C16 UNL     1       1.940   1.158  -3.451  1.00  0.00     0.045 A 
HETATM   16  F1  UNL     1       4.230   0.975  -3.773  1.00  0.00    -0.204 F 
HETATM   17  C15 UNL     1       0.834   1.200  -2.615  1.00  0.00     0.017 A 
BRANCH  13  18
HETATM   18  N7  UNL     1       4.650   0.262  -1.010  1.00  0.00    -0.319 N 
HETATM   19  C19 UNL     1       5.781  -0.210  -1.658  1.00  0.00     0.263 C 
HETATM   20  O2  UNL     1       5.810  -0.587  -2.823  1.00  0.00    -0.267 OA
HETATM   21  H19 UNL     1       4.739   0.313  -0.005  1.00  0.00     0.169 HD
BRANCH  19  22
HETATM   22  C20 UNL     1       6.976  -0.285  -0.816  1.00  0.00     0.074 A 
HETATM   23  C21 UNL     1       8.247  -0.630  -1.231  1.00  0.00     0.037 A 
HETATM   24  C22 UNL     1       9.222  -0.603  -0.181  1.00  0.00    -0.018 A 
HETATM   25  C23 UNL     1      10.612  -0.871  -0.206  1.00  0.00     0.013 A 
HETATM   26  C27 UNL     1       8.639  -0.249   1.037  1.00  0.00     0.016 A 
HETATM   27  C24 UNL     1      11.371  -0.777   0.964  1.00  0.00     0.001 A 
HETATM   28  C25 UNL     1      10.767  -0.430   2.164  1.00  0.00     0.001 A 
HETATM   29  C26 UNL     1       9.397  -0.165   2.220  1.00  0.00     0.019 A 
HETATM   30  S1  UNL     1       6.953   0.049   0.861  1.00  0.00    -0.084 SA
ENDBRANCH  19  22
ENDBRANCH  13  18
ENDBRANCH   1  10
BRANCH   3  31
HETATM   31  N1  UNL     1      -3.433  -0.755  -0.051  1.00  0.00    -0.337 N 
HETATM   32  H5  UNL     1      -3.110  -1.669  -0.346  1.00  0.00     0.167 HD
BRANCH  31  33
HETATM   33  C7  UNL     1      -4.761  -0.713   0.180  1.00  0.00     0.122 A 
HETATM   34  C8  UNL     1      -5.577   0.443   0.261  1.00  0.00     0.078 A 
HETATM   35  C9  UNL     1      -6.855  -0.027   0.475  1.00  0.00     0.060 A 
HETATM   36  N2  UNL     1      -6.740  -1.384   0.472  1.00  0.00    -0.291 N 
HETATM   37  C13 UNL     1      -8.159   0.638   0.724  1.00  0.00     0.330 C 
HETATM   38  N3  UNL     1      -5.492  -1.830   0.253  1.00  0.00    -0.283 N 
HETATM   39  C10 UNL     1      -7.848  -2.300   0.644  1.00  0.00     0.179 C 
ATOM     40  H3  UNL     1      -5.176  -2.796   0.163  1.00  0.00     0.189 HD
HETATM   41  C11 UNL     1      -9.071  -1.564   1.200  1.00  0.00     0.294 C 
HETATM   42  N4  UNL     1      -9.290  -0.286   0.499  1.00  0.00     0.091 N 
HETATM   43  C12 UNL     1     -10.541   0.338   0.926  1.00  0.00     0.310 C 
ENDBRANCH  31  33
ENDBRANCH   3  31
TORSDOF 5
