REMARK  7 active torsions:
REMARK  status: ('A' for Active; 'I' for Inactive)
REMARK    1  A    between atoms: N1_2  and  S1_3 
REMARK    2  A    between atoms: S1_3  and  C2_6 
REMARK    3  A    between atoms: C9_13  and  C10_14 
REMARK    4  A    between atoms: C13_18  and  C14_19 
REMARK    5  A    between atoms: C14_19  and  C15_20 
REMARK    6  A    between atoms: C15_20  and  C16_21 
REMARK    7  A    between atoms: C16_21  and  N3_22 
ROOT
HETATM    1  C2  UNL     1       4.071   1.972  -0.083  1.00  0.00     0.080 A 
HETATM    2  C3  UNL     1       5.308   1.297  -0.058  1.00  0.00     0.027 A 
HETATM    3  C4  UNL     1       5.345  -0.099  -0.084  1.00  0.00     0.032 A 
HETATM    4  C5  UNL     1       4.137  -0.768  -0.130  1.00  0.00     0.046 A 
HETATM    5  C6  UNL     1       2.905  -0.106  -0.152  1.00  0.00     0.008 A 
HETATM    6  C7  UNL     1       2.854   1.276  -0.126  1.00  0.00     0.040 A 
HETATM    7  C8  UNL     1       1.867  -1.155  -0.187  1.00  0.00     0.047 A 
HETATM    8  C9  UNL     1       0.556  -0.869  -0.199  1.00  0.00     0.048 C 
HETATM    9  C23 UNL     1       2.601  -2.473  -0.192  1.00  0.00     0.257 A 
HETATM   10  O3  UNL     1       2.139  -3.598  -0.226  1.00  0.00    -0.267 OA
HETATM   11  N4  UNL     1       3.948  -2.144  -0.156  1.00  0.00    -0.322 N 
HETATM   12  H30 UNL     1       4.675  -2.841  -0.146  1.00  0.00     0.169 HD
ENDROOT
BRANCH   8  13
HETATM   13  C10 UNL     1      -0.570  -1.739  -0.203  1.00  0.00     0.040 A 
HETATM   14  N2  UNL     1      -0.453  -3.108  -0.259  1.00  0.00    -0.359 N 
HETATM   15  C11 UNL     1      -1.693  -3.679  -0.226  1.00  0.00     0.016 A 
HETATM   16  H9  UNL     1       0.420  -3.625  -0.303  1.00  0.00     0.166 HD
HETATM   17  C12 UNL     1      -2.637  -2.679  -0.159  1.00  0.00    -0.027 A 
HETATM   18  C22 UNL     1      -1.957  -5.142  -0.276  1.00  0.00     0.057 C 
HETATM   19  C13 UNL     1      -1.934  -1.441  -0.144  1.00  0.00    -0.023 A 
HETATM   20  C19 UNL     1      -4.099  -2.967  -0.077  1.00  0.00     0.041 C 
HETATM   21  C20 UNL     1      -4.404  -4.429  -0.462  1.00  0.00     0.005 C 
HETATM   22  C21 UNL     1      -3.405  -5.420   0.166  1.00  0.00     0.006 C 
BRANCH  19  23
HETATM   23  C14 UNL     1      -2.544  -0.070  -0.059  1.00  0.00     0.043 C 
BRANCH  23  24
HETATM   24  C15 UNL     1      -2.594   0.444   1.382  1.00  0.00     0.035 C 
BRANCH  24  25
HETATM   25  C16 UNL     1      -3.052   1.906   1.473  1.00  0.00     0.271 C 
BRANCH  25  26
HETATM   26  N3  UNL     1      -2.152   2.861   0.798  1.00  0.00     0.080 N 
HETATM   27  C17 UNL     1      -2.808   4.168   0.683  1.00  0.00     0.309 C 
HETATM   28  C18 UNL     1      -0.884   3.016   1.519  1.00  0.00     0.309 C 
ENDBRANCH  25  26
ENDBRANCH  24  25
ENDBRANCH  23  24
ENDBRANCH  19  23
ENDBRANCH   8  13
BRANCH   1  29
HETATM   29  S1  UNL     1       4.029   3.746  -0.017  1.00  0.00     0.258 S 
HETATM   30  O1  UNL     1       5.380   4.243   0.114  1.00  0.00    -0.201 OA
HETATM   31  O2  UNL     1       2.982   4.114   0.910  1.00  0.00    -0.201 OA
BRANCH  29  32
HETATM   32  N1  UNL     1       3.472   4.137  -1.549  1.00  0.00    -0.320 N 
HETATM   33  C1  UNL     1       4.427   4.206  -2.647  1.00  0.00     0.159 C 
HETATM   34  H4  UNL     1       2.697   4.800  -1.534  1.00  0.00     0.171 HD
ENDBRANCH  29  32
ENDBRANCH   1  29
TORSDOF 7
