REMARK  7 active torsions:
REMARK  status: ('A' for Active; 'I' for Inactive)
REMARK    1  A    between atoms: C2_2  and  S1_3 
REMARK    2  A    between atoms: S1_3  and  C3_6 
REMARK    3  A    between atoms: C10_13  and  C11_14 
REMARK    4  A    between atoms: C14_18  and  C15_19 
REMARK    5  A    between atoms: C15_19  and  C16_20 
REMARK    6  A    between atoms: C16_20  and  C17_21 
REMARK    7  A    between atoms: C17_21  and  O4_23 
ROOT
HETATM    1  C3  UNL     1       4.226   1.740  -0.354  1.00  0.00     0.060 A 
HETATM    2  C4  UNL     1       4.249   2.926   0.409  1.00  0.00     0.026 A 
HETATM    3  C5  UNL     1       3.115   3.325   1.119  1.00  0.00     0.032 A 
HETATM    4  C6  UNL     1       1.994   2.523   1.029  1.00  0.00     0.046 A 
HETATM    5  C7  UNL     1       1.957   1.356   0.259  1.00  0.00     0.008 A 
HETATM    6  C8  UNL     1       3.074   0.948  -0.450  1.00  0.00     0.038 A 
HETATM    7  C9  UNL     1       0.601   0.806   0.410  1.00  0.00     0.047 A 
HETATM    8  C10 UNL     1       0.171  -0.317  -0.184  1.00  0.00     0.048 C 
HETATM    9  C22 UNL     1      -0.153   1.756   1.312  1.00  0.00     0.257 A 
HETATM   10  O5  UNL     1      -1.315   1.717   1.673  1.00  0.00    -0.267 OA
HETATM   11  N2  UNL     1       0.768   2.738   1.648  1.00  0.00    -0.322 N 
HETATM   12  H24 UNL     1       0.527   3.534   2.218  1.00  0.00     0.169 HD
ENDROOT
BRANCH   8  13
HETATM   13  C11 UNL     1      -1.126  -0.859  -0.034  1.00  0.00     0.040 A 
HETATM   14  N1  UNL     1      -1.418  -1.539   1.125  1.00  0.00    -0.359 N 
HETATM   15  C12 UNL     1      -2.667  -2.080   1.027  1.00  0.00     0.016 A 
HETATM   16  H10 UNL     1      -0.802  -1.628   1.922  1.00  0.00     0.166 HD
HETATM   17  C13 UNL     1      -3.207  -1.720  -0.190  1.00  0.00    -0.027 A 
HETATM   18  C21 UNL     1      -3.336  -2.878   2.089  1.00  0.00     0.057 C 
HETATM   19  C14 UNL     1      -2.236  -0.925  -0.868  1.00  0.00    -0.023 A 
HETATM   20  C18 UNL     1      -4.573  -2.153  -0.612  1.00  0.00     0.041 C 
HETATM   21  C19 UNL     1      -5.394  -2.660   0.590  1.00  0.00     0.005 C 
HETATM   22  C20 UNL     1      -4.572  -3.587   1.506  1.00  0.00     0.006 C 
BRANCH  19  23
HETATM   23  C15 UNL     1      -2.395  -0.258  -2.204  1.00  0.00     0.052 C 
BRANCH  23  24
HETATM   24  C16 UNL     1      -3.254   1.003  -2.145  1.00  0.00     0.115 C 
BRANCH  24  25
HETATM   25  C17 UNL     1      -2.684   1.974  -1.152  1.00  0.00     0.139 C 
HETATM   26  O3  UNL     1      -1.671   2.639  -1.310  1.00  0.00    -0.650 OA
BRANCH  25  27
HETATM   27  O4  UNL     1      -3.368   1.964   0.009  1.00  0.00    -0.776 OA
HETATM   28  H15 UNL     1      -2.702   2.180   0.710  1.00  0.00     0.167 HD
ENDBRANCH  25  27
ENDBRANCH  24  25
ENDBRANCH  23  24
ENDBRANCH  19  23
ENDBRANCH   8  13
BRANCH   1  29
HETATM   29  S1  UNL     1       5.689   1.272  -1.257  1.00  0.00     0.175 S 
HETATM   30  O1  UNL     1       5.318   0.213  -2.176  1.00  0.00    -0.223 OA
HETATM   31  O2  UNL     1       6.285   2.500  -1.746  1.00  0.00    -0.223 OA
BRANCH  29  32
HETATM   32  C2  UNL     1       6.776   0.589  -0.022  1.00  0.00     0.141 C 
HETATM   33  C1  UNL     1       6.222  -0.649   0.654  1.00  0.00     0.021 C 
ENDBRANCH  29  32
ENDBRANCH   1  29
TORSDOF 7
