REMARK  6 active torsions:
REMARK  status: ('A' for Active; 'I' for Inactive)
REMARK    1  A    between atoms: N1_2  and  S1_3 
REMARK    2  A    between atoms: S1_3  and  C2_6 
REMARK    3  A    between atoms: C9_13  and  C10_14 
REMARK    4  A    between atoms: C13_18  and  C14_19 
REMARK    5  A    between atoms: C14_19  and  C15_20 
REMARK    6  A    between atoms: C15_20  and  C16_21 
REMARK       I    between atoms: C16_21  and  N3_23 
ROOT
HETATM    1  C10 UNL     1      -0.798  -2.034  -0.782  1.00  0.00     0.040 A 
HETATM    2  N2  UNL     1      -0.796  -3.206  -0.061  1.00  0.00    -0.359 N 
HETATM    3  C11 UNL     1       0.348  -3.904  -0.312  1.00  0.00     0.016 A 
HETATM    4  C12 UNL     1       1.110  -3.190  -1.209  1.00  0.00    -0.027 A 
HETATM    5  C13 UNL     1       0.389  -2.001  -1.522  1.00  0.00    -0.023 A 
HETATM    6  C22 UNL     1       2.448  -3.670  -1.669  1.00  0.00     0.041 C 
HETATM    7  C23 UNL     1       2.629  -5.173  -1.375  1.00  0.00     0.005 C 
HETATM    8  C24 UNL     1       2.171  -5.540   0.049  1.00  0.00     0.006 C 
HETATM    9  C25 UNL     1       0.681  -5.229   0.278  1.00  0.00     0.057 C 
HETATM   10  H9  UNL     1      -1.524  -3.507   0.581  1.00  0.00     0.166 HD
ENDROOT
BRANCH   1  11
HETATM   11  C9  UNL     1      -1.872  -1.100  -0.710  1.00  0.00     0.048 C 
HETATM   12  C8  UNL     1      -2.923  -1.064   0.127  1.00  0.00     0.047 A 
HETATM   13  C6  UNL     1      -3.920   0.026   0.113  1.00  0.00     0.008 A 
HETATM   14  C26 UNL     1      -3.344  -2.000   1.236  1.00  0.00     0.257 A 
HETATM   15  C5  UNL     1      -4.829  -0.254   1.139  1.00  0.00     0.046 A 
HETATM   16  C7  UNL     1      -4.070   1.167  -0.656  1.00  0.00     0.040 A 
HETATM   17  C4  UNL     1      -5.905   0.561   1.434  1.00  0.00     0.032 A 
HETATM   18  N5  UNL     1      -4.484  -1.434   1.785  1.00  0.00    -0.322 N 
HETATM   19  C3  UNL     1      -6.067   1.716   0.665  1.00  0.00     0.027 A 
HETATM   20  C2  UNL     1      -5.148   2.017  -0.360  1.00  0.00     0.080 A 
HETATM   21  H33 UNL     1      -4.980  -1.856   2.556  1.00  0.00     0.169 HD
HETATM   22  O4  UNL     1      -2.824  -3.040   1.591  1.00  0.00    -0.267 OA
BRANCH  20  23
HETATM   23  S1  UNL     1      -5.354   3.496  -1.319  1.00  0.00     0.258 S 
HETATM   24  O1  UNL     1      -6.597   4.130  -0.946  1.00  0.00    -0.201 OA
HETATM   25  O2  UNL     1      -5.038   3.169  -2.691  1.00  0.00    -0.201 OA
BRANCH  23  26
HETATM   26  N1  UNL     1      -4.088   4.448  -0.759  1.00  0.00    -0.320 N 
HETATM   27  C1  UNL     1      -4.289   5.223   0.459  1.00  0.00     0.159 C 
HETATM   28  H4  UNL     1      -3.566   4.879  -1.522  1.00  0.00     0.171 HD
ENDBRANCH  23  26
ENDBRANCH  20  23
ENDBRANCH   1  11
BRANCH   5  29
HETATM   29  C14 UNL     1       0.837  -0.915  -2.463  1.00  0.00     0.051 C 
BRANCH  29  30
HETATM   30  C15 UNL     1       1.397   0.306  -1.731  1.00  0.00     0.107 C 
BRANCH  30  31
HETATM   31  C16 UNL     1       2.873   0.175  -1.388  1.00  0.00     0.220 C 
HETATM   32  O3  UNL     1       3.599  -0.639  -1.960  1.00  0.00    -0.273 OA
HETATM   33  N3  UNL     1       3.369   1.045  -0.420  1.00  0.00    -0.349 N 
HETATM   34  C17 UNL     1       4.802   0.981  -0.119  1.00  0.00     0.156 C 
HETATM   35  C21 UNL     1       2.734   2.314  -0.052  1.00  0.00     0.156 C 
HETATM   36  C18 UNL     1       5.118   1.445   1.314  1.00  0.00     0.291 C 
HETATM   37  N4  UNL     1       4.549   2.778   1.610  1.00  0.00     0.087 N 
HETATM   38  C19 UNL     1       4.849   3.165   2.988  1.00  0.00     0.310 C 
HETATM   39  C20 UNL     1       3.091   2.748   1.383  1.00  0.00     0.291 C 
ENDBRANCH  30  31
ENDBRANCH  29  30
ENDBRANCH   5  29
TORSDOF 6
