REMARK  8 active torsions:
REMARK  status: ('A' for Active; 'I' for Inactive)
REMARK    1  A    between atoms: C2_2  and  C3_3 
REMARK       I    between atoms: C3_3  and  N1_5 
REMARK    2  A    between atoms: N2_8  and  C6_9 
REMARK    3  A    between atoms: C6_9  and  C7_10 
REMARK    4  A    between atoms: C7_10  and  C8_11 
REMARK    5  A    between atoms: C8_11  and  C9_12 
REMARK    6  A    between atoms: C10_13  and  C11_14 
REMARK    7  A    between atoms: C17_22  and  S1_23 
REMARK    8  A    between atoms: S1_23  and  N4_26 
ROOT
HETATM    1  C9  UNL     1      -0.426  -1.875   0.154  1.00  0.00    -0.023 A 
HETATM    2  C10 UNL     1      -1.800  -2.084   0.015  1.00  0.00     0.040 A 
HETATM    3  N5  UNL     1      -1.978  -3.414  -0.298  1.00  0.00    -0.359 N 
HETATM    4  C21 UNL     1      -0.766  -4.035  -0.392  1.00  0.00     0.016 A 
HETATM    5  C22 UNL     1       0.219  -3.119  -0.103  1.00  0.00    -0.027 A 
HETATM    6  C23 UNL     1       1.671  -3.471  -0.134  1.00  0.00     0.041 C 
HETATM    7  C24 UNL     1       1.876  -4.998  -0.149  1.00  0.00     0.005 C 
HETATM    8  C25 UNL     1       0.907  -5.707  -1.114  1.00  0.00     0.006 C 
HETATM    9  C26 UNL     1      -0.567  -5.468  -0.734  1.00  0.00     0.057 C 
HETATM   10  H25 UNL     1      -2.871  -3.869  -0.459  1.00  0.00     0.166 HD
ENDROOT
BRANCH   2  11
HETATM   11  C11 UNL     1      -2.889  -1.174   0.135  1.00  0.00     0.048 C 
HETATM   12  C12 UNL     1      -4.202  -1.373  -0.070  1.00  0.00     0.047 A 
HETATM   13  C13 UNL     1      -4.973  -2.612  -0.463  1.00  0.00     0.257 A 
HETATM   14  C20 UNL     1      -5.202  -0.290   0.041  1.00  0.00     0.008 A 
HETATM   15  O2  UNL     1      -4.558  -3.742  -0.636  1.00  0.00    -0.267 OA
HETATM   16  N3  UNL     1      -6.292  -2.205  -0.586  1.00  0.00    -0.322 N 
HETATM   17  C14 UNL     1      -6.438  -0.856  -0.294  1.00  0.00     0.046 A 
HETATM   18  H17 UNL     1      -7.035  -2.842  -0.831  1.00  0.00     0.169 HD
HETATM   19  C15 UNL     1      -7.615  -0.133  -0.309  1.00  0.00     0.032 A 
HETATM   20  C16 UNL     1      -7.541   1.223   0.019  1.00  0.00     0.027 A 
HETATM   21  C17 UNL     1      -6.299   1.808   0.348  1.00  0.00     0.080 A 
HETATM   22  C19 UNL     1      -5.118   1.052   0.378  1.00  0.00     0.040 A 
BRANCH  21  23
HETATM   23  S1  UNL     1      -6.245   3.527   0.797  1.00  0.00     0.258 S 
HETATM   24  O3  UNL     1      -7.559   3.894   1.280  1.00  0.00    -0.201 OA
HETATM   25  O4  UNL     1      -5.048   3.764   1.576  1.00  0.00    -0.201 OA
BRANCH  23  26
HETATM   26  N4  UNL     1      -6.073   4.273  -0.695  1.00  0.00    -0.320 N 
HETATM   27  C18 UNL     1      -4.736   4.453  -1.246  1.00  0.00     0.159 C 
HETATM   28  H20 UNL     1      -6.761   5.011  -0.844  1.00  0.00     0.171 HD
ENDBRANCH  23  26
ENDBRANCH  21  23
ENDBRANCH   2  11
BRANCH   1  29
HETATM   29  C8  UNL     1       0.273  -0.586   0.475  1.00  0.00     0.043 C 
BRANCH  29  30
HETATM   30  C7  UNL     1       0.511   0.255  -0.785  1.00  0.00     0.035 C 
BRANCH  30  31
HETATM   31  C6  UNL     1       1.285   1.549  -0.498  1.00  0.00     0.273 C 
BRANCH  31  32
HETATM   32  N2  UNL     1       2.623   1.320   0.057  1.00  0.00     0.091 N 
HETATM   33  C5  UNL     1       3.189   2.546   0.637  1.00  0.00     0.292 C 
HETATM   34  C4  UNL     1       4.630   2.334   1.136  1.00  0.00     0.156 C 
HETATM   35  N1  UNL     1       5.529   1.860   0.081  1.00  0.00    -0.349 N 
HETATM   36  C3  UNL     1       6.913   1.895   0.153  1.00  0.00     0.219 C 
HETATM   37  C28 UNL     1       4.890   1.393  -1.148  1.00  0.00     0.156 C 
HETATM   38  O1  UNL     1       7.625   1.594  -0.803  1.00  0.00    -0.273 OA
HETATM   39  C27 UNL     1       3.552   0.666  -0.893  1.00  0.00     0.292 C 
BRANCH  36  40
HETATM   40  C2  UNL     1       7.507   2.337   1.483  1.00  0.00     0.098 C 
HETATM   41  C1  UNL     1       9.020   2.189   1.516  1.00  0.00     0.014 C 
ENDBRANCH  36  40
ENDBRANCH  31  32
ENDBRANCH  30  31
ENDBRANCH  29  30
ENDBRANCH   1  29
TORSDOF 8
