REMARK  6 active torsions:
REMARK  status: ('A' for Active; 'I' for Inactive)
REMARK    1  A    between atoms: C2_2  and  S1_3 
REMARK    2  A    between atoms: S1_3  and  C3_6 
REMARK    3  A    between atoms: C10_13  and  C11_14 
REMARK    4  A    between atoms: C14_18  and  C15_19 
REMARK    5  A    between atoms: C15_19  and  C16_20 
REMARK    6  A    between atoms: C16_20  and  C17_21 
REMARK       I    between atoms: C17_21  and  N2_23 
ROOT
HETATM    1  C11 UNL     1      -0.482  -2.513   0.516  1.00  0.00     0.040 A 
HETATM    2  N1  UNL     1      -1.205  -3.674   0.678  1.00  0.00    -0.359 N 
HETATM    3  C12 UNL     1      -0.547  -4.716   0.091  1.00  0.00     0.016 A 
HETATM    4  C13 UNL     1       0.621  -4.242  -0.460  1.00  0.00    -0.027 A 
HETATM    5  C14 UNL     1       0.680  -2.845  -0.184  1.00  0.00    -0.023 A 
HETATM    6  C23 UNL     1       1.591  -5.133  -1.163  1.00  0.00     0.041 C 
HETATM    7  C24 UNL     1       0.950  -6.490  -1.513  1.00  0.00     0.005 C 
HETATM    8  C25 UNL     1       0.115  -7.058  -0.351  1.00  0.00     0.006 C 
HETATM    9  C26 UNL     1      -1.038  -6.119   0.051  1.00  0.00     0.057 C 
HETATM   10  H10 UNL     1      -2.089  -3.758   1.171  1.00  0.00     0.166 HD
ENDROOT
BRANCH   1  11
HETATM   11  C10 UNL     1      -0.942  -1.257   1.005  1.00  0.00     0.048 C 
HETATM   12  C9  UNL     1      -2.004  -0.971   1.776  1.00  0.00     0.047 A 
HETATM   13  C7  UNL     1      -2.327   0.402   2.210  1.00  0.00     0.008 A 
HETATM   14  C27 UNL     1      -3.054  -1.862   2.397  1.00  0.00     0.257 A 
HETATM   15  C6  UNL     1      -3.440   0.303   3.051  1.00  0.00     0.046 A 
HETATM   16  C8  UNL     1      -1.769   1.640   1.936  1.00  0.00     0.038 A 
HETATM   17  C5  UNL     1      -4.014   1.398   3.668  1.00  0.00     0.032 A 
HETATM   18  N4  UNL     1      -3.852  -1.019   3.154  1.00  0.00    -0.322 N 
HETATM   19  C4  UNL     1      -3.449   2.650   3.412  1.00  0.00     0.026 A 
HETATM   20  C3  UNL     1      -2.353   2.766   2.534  1.00  0.00     0.060 A 
HETATM   21  H34 UNL     1      -4.641  -1.354   3.686  1.00  0.00     0.169 HD
HETATM   22  O4  UNL     1      -3.202  -3.062   2.269  1.00  0.00    -0.267 OA
BRANCH  20  23
HETATM   23  S1  UNL     1      -1.640   4.369   2.225  1.00  0.00     0.175 S 
HETATM   24  O1  UNL     1      -0.259   4.139   1.840  1.00  0.00    -0.223 OA
HETATM   25  O2  UNL     1      -1.960   5.213   3.360  1.00  0.00    -0.223 OA
BRANCH  23  26
HETATM   26  C2  UNL     1      -2.499   4.980   0.791  1.00  0.00     0.141 C 
HETATM   27  C1  UNL     1      -3.979   5.214   1.015  1.00  0.00     0.021 C 
ENDBRANCH  23  26
ENDBRANCH  20  23
ENDBRANCH   1  11
BRANCH   5  28
HETATM   28  C15 UNL     1       1.803  -1.932  -0.580  1.00  0.00     0.051 C 
BRANCH  28  29
HETATM   29  C16 UNL     1       1.500  -1.162  -1.860  1.00  0.00     0.107 C 
BRANCH  29  30
HETATM   30  C17 UNL     1       2.734  -0.416  -2.320  1.00  0.00     0.220 C 
HETATM   31  O3  UNL     1       3.547  -0.982  -3.054  1.00  0.00    -0.273 OA
HETATM   32  N2  UNL     1       2.926   0.880  -1.874  1.00  0.00    -0.349 N 
HETATM   33  C18 UNL     1       2.025   1.621  -0.984  1.00  0.00     0.156 C 
HETATM   34  C22 UNL     1       4.104   1.618  -2.344  1.00  0.00     0.156 C 
HETATM   35  C19 UNL     1       2.724   2.801  -0.282  1.00  0.00     0.291 C 
HETATM   36  N3  UNL     1       3.415   3.746  -1.179  1.00  0.00     0.087 N 
HETATM   37  C20 UNL     1       2.634   4.958  -1.406  1.00  0.00     0.310 C 
HETATM   38  C21 UNL     1       3.817   3.125  -2.458  1.00  0.00     0.291 C 
ENDBRANCH  29  30
ENDBRANCH  28  29
ENDBRANCH   5  28
TORSDOF 6
