REMARK  9 active torsions:
REMARK  status: ('A' for Active; 'I' for Inactive)
REMARK    1  A    between atoms: N1_2  and  C3_4 
REMARK    2  A    between atoms: C3_4  and  C4_5 
REMARK    3  A    between atoms: C4_5  and  C5_6 
REMARK    4  A    between atoms: C5_6  and  C6_7 
REMARK    5  A    between atoms: C7_8  and  C8_9 
REMARK    6  A    between atoms: C14_17  and  S1_18 
REMARK    7  A    between atoms: S1_18  and  N3_21 
REMARK    8  A    between atoms: N3_21  and  C15_22 
REMARK    9  A    between atoms: C15_22  and  C16_23 
ROOT
HETATM    1  C8  UNL     1      -0.991   0.773  -0.405  1.00  0.00     0.048 C 
HETATM    2  C9  UNL     1      -0.353   1.180  -1.515  1.00  0.00     0.047 A 
HETATM    3  C10 UNL     1      -0.592   2.362  -2.424  1.00  0.00     0.257 A 
HETATM    4  O1  UNL     1      -1.428   3.240  -2.322  1.00  0.00    -0.267 OA
HETATM    5  N2  UNL     1       0.363   2.263  -3.422  1.00  0.00    -0.322 N 
HETATM    6  C11 UNL     1       1.184   1.159  -3.232  1.00  0.00     0.046 A 
HETATM    7  C12 UNL     1       2.240   0.770  -4.034  1.00  0.00     0.032 A 
HETATM    8  C13 UNL     1       2.950  -0.370  -3.651  1.00  0.00     0.027 A 
HETATM    9  C14 UNL     1       2.587  -1.072  -2.483  1.00  0.00     0.080 A 
HETATM   10  C22 UNL     1       1.500  -0.673  -1.691  1.00  0.00     0.040 A 
HETATM   11  C23 UNL     1       0.803   0.458  -2.082  1.00  0.00     0.008 A 
HETATM   12  H14 UNL     1       0.440   2.940  -4.163  1.00  0.00     0.169 HD
ENDROOT
BRANCH   1  13
HETATM   13  C7  UNL     1      -2.110   1.342   0.270  1.00  0.00     0.040 A 
HETATM   14  C6  UNL     1      -2.835   0.891   1.379  1.00  0.00    -0.023 A 
HETATM   15  C25 UNL     1      -3.838   1.871   1.648  1.00  0.00    -0.027 A 
HETATM   16  C24 UNL     1      -3.699   2.867   0.708  1.00  0.00     0.016 A 
HETATM   17  C26 UNL     1      -4.902   1.915   2.696  1.00  0.00     0.041 C 
HETATM   18  N4  UNL     1      -2.662   2.542  -0.118  1.00  0.00    -0.359 N 
HETATM   19  C29 UNL     1      -4.503   4.114   0.608  1.00  0.00     0.057 C 
HETATM   20  H25 UNL     1      -2.355   3.109  -0.904  1.00  0.00     0.166 HD
HETATM   21  C28 UNL     1      -5.764   3.993   1.485  1.00  0.00     0.006 C 
HETATM   22  C27 UNL     1      -5.471   3.339   2.849  1.00  0.00     0.005 C 
BRANCH  14  23
HETATM   23  C5  UNL     1      -2.611  -0.370   2.170  1.00  0.00     0.043 C 
BRANCH  23  24
HETATM   24  C4  UNL     1      -3.712  -1.420   2.001  1.00  0.00     0.035 C 
BRANCH  24  25
HETATM   25  C3  UNL     1      -3.830  -2.034   0.596  1.00  0.00     0.271 C 
BRANCH  25  26
HETATM   26  N1  UNL     1      -3.168  -3.344   0.450  1.00  0.00     0.080 N 
HETATM   27  C1  UNL     1      -1.711  -3.249   0.485  1.00  0.00     0.309 C 
HETATM   28  C2  UNL     1      -3.591  -3.974  -0.807  1.00  0.00     0.309 C 
ENDBRANCH  25  26
ENDBRANCH  24  25
ENDBRANCH  23  24
ENDBRANCH  14  23
ENDBRANCH   1  13
BRANCH   9  29
HETATM   29  S1  UNL     1       3.509  -2.516  -1.999  1.00  0.00     0.259 S 
HETATM   30  O2  UNL     1       2.581  -3.430  -1.372  1.00  0.00    -0.201 OA
HETATM   31  O3  UNL     1       4.341  -2.909  -3.113  1.00  0.00    -0.201 OA
BRANCH  29  32
HETATM   32  N3  UNL     1       4.500  -1.924  -0.795  1.00  0.00    -0.311 N 
HETATM   33  H17 UNL     1       4.151  -2.016   0.157  1.00  0.00     0.172 HD
BRANCH  32  34
HETATM   34  C15 UNL     1       5.462  -0.876  -1.100  1.00  0.00     0.170 C 
BRANCH  34  35
HETATM   35  C16 UNL     1       6.512  -0.763  -0.021  1.00  0.00    -0.040 A 
HETATM   36  C17 UNL     1       6.647   0.414   0.736  1.00  0.00     0.012 A 
HETATM   37  C18 UNL     1       7.625   0.507   1.728  1.00  0.00     0.043 A 
HETATM   38  C19 UNL     1       8.468  -0.573   1.964  1.00  0.00     0.116 A 
HETATM   39  F1  UNL     1       9.406  -0.479   2.915  1.00  0.00    -0.206 F 
HETATM   40  C20 UNL     1       8.350  -1.747   1.229  1.00  0.00     0.043 A 
HETATM   41  C21 UNL     1       7.374  -1.843   0.236  1.00  0.00     0.012 A 
ENDBRANCH  34  35
ENDBRANCH  32  34
ENDBRANCH  29  32
ENDBRANCH   9  29
TORSDOF 9
