REMARK  7 active torsions:
REMARK  status: ('A' for Active; 'I' for Inactive)
REMARK    1  A    between atoms: C2_2  and  S1_3 
REMARK    2  A    between atoms: S1_3  and  C3_6 
REMARK    3  A    between atoms: C10_13  and  C11_14 
REMARK    4  A    between atoms: C14_18  and  C15_19 
REMARK    5  A    between atoms: C15_19  and  C16_20 
REMARK    6  A    between atoms: C16_20  and  C17_21 
REMARK    7  A    between atoms: C17_21  and  N2_22 
REMARK       I    between atoms: N3_25  and  C20_26 
ROOT
HETATM    1  C11 UNL     1      -0.639  -2.820  -0.698  1.00  0.00     0.040 A 
HETATM    2  N1  UNL     1      -1.065  -4.117  -0.520  1.00  0.00    -0.359 N 
HETATM    3  C12 UNL     1      -0.084  -4.985  -0.903  1.00  0.00     0.016 A 
HETATM    4  C13 UNL     1       1.003  -4.257  -1.331  1.00  0.00    -0.027 A 
HETATM    5  C14 UNL     1       0.661  -2.879  -1.208  1.00  0.00    -0.023 A 
HETATM    6  C24 UNL     1       2.249  -4.905  -1.837  1.00  0.00     0.041 C 
HETATM    7  C25 UNL     1       2.291  -6.400  -1.469  1.00  0.00     0.005 C 
HETATM    8  C26 UNL     1       0.935  -7.099  -1.684  1.00  0.00     0.006 C 
HETATM    9  C27 UNL     1      -0.182  -6.467  -0.834  1.00  0.00     0.057 C 
HETATM   10  H10 UNL     1      -1.969  -4.396  -0.150  1.00  0.00     0.166 HD
ENDROOT
BRANCH   1  11
HETATM   11  C10 UNL     1      -1.459  -1.696  -0.396  1.00  0.00     0.048 C 
HETATM   12  C9  UNL     1      -2.671  -1.643   0.181  1.00  0.00     0.047 A 
HETATM   13  C7  UNL     1      -3.380  -0.371   0.432  1.00  0.00     0.008 A 
HETATM   14  C28 UNL     1      -3.580  -2.737   0.690  1.00  0.00     0.257 A 
HETATM   15  C6  UNL     1      -4.596  -0.710   1.034  1.00  0.00     0.046 A 
HETATM   16  C8  UNL     1      -3.072   0.956   0.182  1.00  0.00     0.038 A 
HETATM   17  C5  UNL     1      -5.539   0.230   1.402  1.00  0.00     0.032 A 
HETATM   18  N4  UNL     1      -4.699  -2.087   1.181  1.00  0.00    -0.322 N 
HETATM   19  C4  UNL     1      -5.239   1.572   1.157  1.00  0.00     0.026 A 
HETATM   20  C3  UNL     1      -4.011   1.926   0.563  1.00  0.00     0.060 A 
HETATM   21  H36 UNL     1      -5.486  -2.581   1.572  1.00  0.00     0.169 HD
HETATM   22  O4  UNL     1      -3.400  -3.940   0.673  1.00  0.00    -0.267 OA
BRANCH  20  23
HETATM   23  S1  UNL     1      -3.675   3.641   0.198  1.00  0.00     0.175 S 
HETATM   24  O1  UNL     1      -4.933   4.355   0.322  1.00  0.00    -0.223 OA
HETATM   25  O2  UNL     1      -2.922   3.656  -1.043  1.00  0.00    -0.223 OA
BRANCH  23  26
HETATM   26  C2  UNL     1      -2.608   4.145   1.533  1.00  0.00     0.141 C 
HETATM   27  C1  UNL     1      -2.154   5.579   1.368  1.00  0.00     0.021 C 
ENDBRANCH  23  26
ENDBRANCH  20  23
ENDBRANCH   1  11
BRANCH   5  28
HETATM   28  C15 UNL     1       1.545  -1.718  -1.558  1.00  0.00     0.043 C 
BRANCH  28  29
HETATM   29  C16 UNL     1       2.384  -1.262  -0.359  1.00  0.00     0.035 C 
BRANCH  29  30
HETATM   30  C17 UNL     1       3.192   0.010  -0.651  1.00  0.00     0.273 C 
BRANCH  30  31
HETATM   31  N2  UNL     1       2.367   1.203  -0.906  1.00  0.00     0.091 N 
HETATM   32  C18 UNL     1       1.522   1.551   0.258  1.00  0.00     0.292 C 
HETATM   33  C19 UNL     1       1.196   3.051   0.377  1.00  0.00     0.156 C 
HETATM   34  N3  UNL     1       2.411   3.856   0.478  1.00  0.00    -0.349 N 
HETATM   35  C20 UNL     1       2.396   5.011   1.237  1.00  0.00     0.215 C 
HETATM   36  C22 UNL     1       3.574   3.355  -0.260  1.00  0.00     0.156 C 
HETATM   37  C21 UNL     1       3.689   5.781   1.337  1.00  0.00     0.117 C 
HETATM   38  O3  UNL     1       1.383   5.413   1.811  1.00  0.00    -0.274 OA
HETATM   39  C23 UNL     1       3.182   2.349  -1.362  1.00  0.00     0.292 C 
ENDBRANCH  30  31
ENDBRANCH  29  30
ENDBRANCH  28  29
ENDBRANCH   5  28
TORSDOF 7
