REMARK  16 active torsions:
REMARK  status: ('A' for Active; 'I' for Inactive)
REMARK    1  A    between atoms: C1_2  and  C2_3 
REMARK       I    between atoms: C1_2  and  N1_10 
REMARK    2  A    between atoms: C2_3  and  C3_4 
REMARK    3  A    between atoms: N1_10  and  C9_11 
REMARK    4  A    between atoms: C9_11  and  C10_12 
REMARK    5  A    between atoms: C9_11  and  C17_24 
REMARK    6  A    between atoms: C10_12  and  C11_13 
REMARK    7  A    between atoms: C14_16  and  O2_17 
REMARK    8  A    between atoms: O2_17  and  P1_18 
REMARK    9  A    between atoms: P1_18  and  O4_20 
REMARK   10  A    between atoms: P1_18  and  O5_21 
REMARK       I    between atoms: C17_24  and  N2_26 
REMARK   11  A    between atoms: N2_26  and  C18_27 
REMARK   12  A    between atoms: C18_27  and  C19_28 
REMARK   13  A    between atoms: C18_27  and  C20_30 
REMARK   14  A    between atoms: C19_28  and  O7_29 
REMARK   15  A    between atoms: C21_33  and  C22_34 
REMARK   16  A    between atoms: C22_34  and  C23_35 
ROOT
HETATM    1  C9  UNL     1      -1.923  -1.305   0.911  1.00  0.00     0.180 C 
ENDROOT
BRANCH   1   2
HETATM    2  N1  UNL     1      -2.514  -2.135   1.961  1.00  0.00    -0.347 N 
HETATM    3  C1  UNL     1      -3.872  -2.302   2.088  1.00  0.00     0.222 C 
HETATM    4  O1  UNL     1      -4.681  -1.697   1.391  1.00  0.00    -0.273 OA
HETATM    5  H8  UNL     1      -1.871  -2.678   2.529  1.00  0.00     0.163 HD
BRANCH   3   6
HETATM    6  C2  UNL     1      -4.286  -3.292   3.164  1.00  0.00     0.141 C 
BRANCH   6   7
HETATM    7  C3  UNL     1      -4.806  -4.582   2.580  1.00  0.00    -0.050 A 
HETATM    8  C4  UNL     1      -6.140  -4.683   2.156  1.00  0.00     0.007 A 
HETATM    9  C5  UNL     1      -6.616  -5.870   1.597  1.00  0.00     0.001 A 
HETATM   10  C6  UNL     1      -5.763  -6.963   1.448  1.00  0.00     0.000 A 
HETATM   11  C7  UNL     1      -4.434  -6.871   1.859  1.00  0.00     0.001 A 
HETATM   12  C8  UNL     1      -3.955  -5.686   2.419  1.00  0.00     0.007 A 
ENDBRANCH   6   7
ENDBRANCH   3   6
ENDBRANCH   1   2
BRANCH   1  13
HETATM   13  C10 UNL     1      -2.106   0.196   1.209  1.00  0.00     0.073 C 
BRANCH  13  14
HETATM   14  C11 UNL     1      -1.701   1.118   0.079  1.00  0.00    -0.056 A 
HETATM   15  C12 UNL     1      -0.753   2.128   0.297  1.00  0.00     0.010 A 
HETATM   16  C13 UNL     1      -0.359   2.975  -0.744  1.00  0.00     0.038 A 
HETATM   17  C14 UNL     1      -0.905   2.812  -2.011  1.00  0.00     0.081 A 
HETATM   18  C15 UNL     1      -1.855   1.818  -2.240  1.00  0.00     0.038 A 
HETATM   19  C16 UNL     1      -2.271   0.989  -1.196  1.00  0.00     0.010 A 
BRANCH  17  20
HETATM   20  O2  UNL     1      -0.541   3.568  -3.085  1.00  0.00    -0.255 OA
BRANCH  20  21
HETATM   21  P1  UNL     1      -0.333   5.158  -3.055  1.00  0.00     0.396 P 
HETATM   22  O3  UNL     1      -0.349   5.855  -4.373  1.00  0.00    -0.631 OA
BRANCH  21  23
HETATM   23  O4  UNL     1      -1.434   5.746  -2.057  1.00  0.00    -0.307 OA
HETATM   24  H14 UNL     1      -2.289   5.874  -2.518  1.00  0.00     0.222 HD
ENDBRANCH  21  23
BRANCH  21  25
HETATM   25  O5  UNL     1       1.022   5.435  -2.244  1.00  0.00    -0.307 OA
HETATM   26  H15 UNL     1       1.276   6.371  -2.345  1.00  0.00     0.222 HD
ENDBRANCH  21  25
ENDBRANCH  20  21
ENDBRANCH  17  20
ENDBRANCH  13  14
ENDBRANCH   1  13
BRANCH   1  27
HETATM   27  C17 UNL     1      -0.428  -1.676   0.854  1.00  0.00     0.241 C 
HETATM   28  O6  UNL     1       0.145  -2.227   1.796  1.00  0.00    -0.271 OA
HETATM   29  N2  UNL     1       0.222  -1.355  -0.312  1.00  0.00    -0.345 N 
HETATM   30  H18 UNL     1      -0.250  -0.807  -1.025  1.00  0.00     0.163 HD
BRANCH  29  31
HETATM   31  C18 UNL     1       1.673  -1.450  -0.444  1.00  0.00     0.185 C 
BRANCH  31  32
HETATM   32  C19 UNL     1       2.040  -1.811  -1.895  1.00  0.00     0.197 C 
BRANCH  32  33
HETATM   33  O7  UNL     1       1.424  -0.923  -2.836  1.00  0.00    -0.398 OA
HETATM   34  H22 UNL     1       1.769  -0.027  -2.647  1.00  0.00     0.209 HD
ENDBRANCH  32  33
ENDBRANCH  31  32
BRANCH  31  35
HETATM   35  C20 UNL     1       2.275  -0.133  -0.064  1.00  0.00     0.173 A 
HETATM   36  N3  UNL     1       2.676   0.859  -0.836  1.00  0.00    -0.325 N 
HETATM   37  C21 UNL     1       3.077   1.795   0.087  1.00  0.00     0.108 A 
ATOM     38  H3  UNL     1       2.686   0.916  -1.854  1.00  0.00     0.169 HD
HETATM   39  N4  UNL     1       2.915   1.427   1.368  1.00  0.00    -0.247 N 
HETATM   40  O8  UNL     1       2.396   0.135   1.270  1.00  0.00    -0.221 OA
ATOM     41  H4  UNL     1       3.122   1.963   2.211  1.00  0.00     0.196 HD
BRANCH  37  42
HETATM   42  C22 UNL     1       3.590   3.134  -0.301  1.00  0.00     0.117 C 
BRANCH  42  43
HETATM   43  C23 UNL     1       5.085   2.977  -0.457  1.00  0.00    -0.049 A 
HETATM   44  C24 UNL     1       5.640   2.589  -1.685  1.00  0.00     0.009 A 
HETATM   45  C25 UNL     1       7.021   2.424  -1.819  1.00  0.00     0.026 A 
HETATM   46  C26 UNL     1       7.866   2.651  -0.729  1.00  0.00     0.055 A 
HETATM   47 CL1  UNL     1       9.563   2.430  -0.969  1.00  0.00    -0.083 Cl
HETATM   48  C27 UNL     1       7.325   3.042   0.501  1.00  0.00     0.056 A 
HETATM   49 CL2  UNL     1       8.306   3.346   1.891  1.00  0.00    -0.083 Cl
HETATM   50  C28 UNL     1       5.942   3.201   0.634  1.00  0.00     0.033 A 
ENDBRANCH  42  43
ENDBRANCH  37  42
ENDBRANCH  31  35
ENDBRANCH  29  31
ENDBRANCH   1  27
TORSDOF 16
