REMARK  6 active torsions:
REMARK  status: ('A' for Active; 'I' for Inactive)
REMARK    1  A    between atoms: O1_2  and  C2_3 
REMARK    2  A    between atoms: C9_10  and  C10_11 
REMARK    3  A    between atoms: C13_15  and  C14_16 
REMARK    4  A    between atoms: C14_16  and  C15_17 
REMARK    5  A    between atoms: C15_17  and  C16_18 
REMARK    6  A    between atoms: C16_18  and  N2_19 
ROOT
HETATM    1  C10 UNL     1       0.186  -1.411  -0.464  1.00  0.00     0.040 A 
HETATM    2  N1  UNL     1       0.317  -2.768  -0.273  1.00  0.00    -0.359 N 
HETATM    3  C11 UNL     1      -0.792  -3.413  -0.738  1.00  0.00     0.016 A 
HETATM    4  C12 UNL     1      -1.665  -2.476  -1.239  1.00  0.00    -0.027 A 
HETATM    5  C13 UNL     1      -1.051  -1.200  -1.080  1.00  0.00    -0.023 A 
HETATM    6  C19 UNL     1      -2.980  -2.852  -1.837  1.00  0.00     0.041 C 
HETATM    7  C20 UNL     1      -3.373  -4.293  -1.456  1.00  0.00     0.005 C 
HETATM    8  C21 UNL     1      -2.189  -5.272  -1.583  1.00  0.00     0.006 C 
HETATM    9  C22 UNL     1      -1.012  -4.882  -0.670  1.00  0.00     0.057 C 
HETATM   10  H8  UNL     1       1.114  -3.230   0.155  1.00  0.00     0.166 HD
ENDROOT
BRANCH   1  11
HETATM   11  C9  UNL     1       1.189  -0.483  -0.060  1.00  0.00     0.048 C 
HETATM   12  C8  UNL     1       2.381  -0.702   0.519  1.00  0.00     0.047 A 
HETATM   13  C6  UNL     1       3.309   0.391   0.876  1.00  0.00     0.009 A 
HETATM   14  C23 UNL     1       3.067  -1.982   0.936  1.00  0.00     0.257 A 
HETATM   15  C5  UNL     1       4.430  -0.212   1.448  1.00  0.00     0.046 A 
HETATM   16  C7  UNL     1       3.254   1.769   0.751  1.00  0.00     0.051 A 
HETATM   17  C4  UNL     1       5.512   0.511   1.905  1.00  0.00     0.033 A 
HETATM   18  N3  UNL     1       4.281  -1.592   1.477  1.00  0.00    -0.322 N 
HETATM   19  C3  UNL     1       5.459   1.904   1.779  1.00  0.00     0.039 A 
HETATM   20  C2  UNL     1       4.338   2.534   1.207  1.00  0.00     0.069 A 
HETATM   21  H29 UNL     1       4.950  -2.252   1.841  1.00  0.00     0.169 HD
HETATM   22  O2  UNL     1       2.666  -3.126   0.834  1.00  0.00    -0.267 OA
BRANCH  20  23
HETATM   23  O1  UNL     1       4.183   3.884   1.037  1.00  0.00    -0.356 OA
HETATM   24  C1  UNL     1       5.247   4.719   1.476  1.00  0.00     0.210 C 
ENDBRANCH  20  23
ENDBRANCH   1  11
BRANCH   5  25
HETATM   25  C14 UNL     1      -1.644   0.112  -1.500  1.00  0.00     0.043 C 
BRANCH  25  26
HETATM   26  C15 UNL     1      -2.411   0.792  -0.363  1.00  0.00     0.035 C 
BRANCH  26  27
HETATM   27  C16 UNL     1      -2.970   2.146  -0.819  1.00  0.00     0.271 C 
BRANCH  27  28
HETATM   28  N2  UNL     1      -3.832   2.791   0.187  1.00  0.00     0.080 N 
HETATM   29  C17 UNL     1      -3.087   3.191   1.382  1.00  0.00     0.309 C 
HETATM   30  C18 UNL     1      -4.493   3.961  -0.397  1.00  0.00     0.309 C 
ENDBRANCH  27  28
ENDBRANCH  26  27
ENDBRANCH  25  26
ENDBRANCH   5  25
TORSDOF 6
