REMARK  6 active torsions:
REMARK  status: ('A' for Active; 'I' for Inactive)
REMARK    1  A    between atoms: N1_2  and  C3_4 
REMARK    2  A    between atoms: C3_4  and  C4_5 
REMARK    3  A    between atoms: C4_5  and  C5_6 
REMARK    4  A    between atoms: C5_6  and  C6_7 
REMARK    5  A    between atoms: C7_8  and  C8_9 
REMARK    6  A    between atoms: C14_17  and  S1_18 
ROOT
HETATM    1  C6  UNL     1      -1.352  -0.341   0.715  1.00  0.00    -0.023 A 
HETATM    2  C7  UNL     1      -0.245  -1.119   0.360  1.00  0.00     0.040 A 
HETATM    3  N3  UNL     1      -0.719  -2.366   0.022  1.00  0.00    -0.359 N 
HETATM    4  C18 UNL     1      -2.076  -2.404   0.163  1.00  0.00     0.016 A 
HETATM    5  C19 UNL     1      -2.505  -1.171   0.598  1.00  0.00    -0.027 A 
HETATM    6  C20 UNL     1      -3.947  -0.875   0.847  1.00  0.00     0.041 C 
HETATM    7  C21 UNL     1      -4.768  -2.175   0.964  1.00  0.00     0.005 C 
HETATM    8  C22 UNL     1      -4.404  -3.191  -0.135  1.00  0.00     0.006 C 
HETATM    9  C23 UNL     1      -2.921  -3.603  -0.077  1.00  0.00     0.057 C 
HETATM   10  H21 UNL     1      -0.152  -3.153  -0.279  1.00  0.00     0.166 HD
ENDROOT
BRANCH   2  11
HETATM   11  C8  UNL     1       1.141  -0.795   0.326  1.00  0.00     0.048 C 
HETATM   12  C9  UNL     1       2.193  -1.547  -0.040  1.00  0.00     0.047 A 
HETATM   13  C10 UNL     1       2.274  -2.974  -0.531  1.00  0.00     0.257 A 
HETATM   14  C17 UNL     1       3.582  -1.046  -0.017  1.00  0.00     0.008 A 
HETATM   15  O1  UNL     1       1.370  -3.769  -0.707  1.00  0.00    -0.267 OA
HETATM   16  N2  UNL     1       3.620  -3.215  -0.751  1.00  0.00    -0.322 N 
HETATM   17  C11 UNL     1       4.392  -2.100  -0.454  1.00  0.00     0.046 A 
HETATM   18  H14 UNL     1       3.964  -4.105  -1.077  1.00  0.00     0.169 HD
HETATM   19  C12 UNL     1       5.766  -2.000  -0.556  1.00  0.00     0.032 A 
HETATM   20  C13 UNL     1       6.350  -0.781  -0.206  1.00  0.00     0.026 A 
HETATM   21  C14 UNL     1       5.542   0.293   0.220  1.00  0.00     0.059 A 
HETATM   22  C16 UNL     1       4.150   0.169   0.332  1.00  0.00     0.038 A 
BRANCH  21  23
HETATM   23  S1  UNL     1       6.315   1.830   0.680  1.00  0.00     0.171 S 
HETATM   24  C15 UNL     1       6.358   2.736  -0.844  1.00  0.00     0.167 C 
HETATM   25  O2  UNL     1       5.413   2.513   1.587  1.00  0.00    -0.223 OA
HETATM   26  O3  UNL     1       7.679   1.530   1.069  1.00  0.00    -0.223 OA
ENDBRANCH  21  23
ENDBRANCH   2  11
BRANCH   1  27
HETATM   27  C5  UNL     1      -1.345   1.095   1.161  1.00  0.00     0.043 C 
BRANCH  27  28
HETATM   28  C4  UNL     1      -1.161   2.094   0.014  1.00  0.00     0.035 C 
BRANCH  28  29
HETATM   29  C3  UNL     1      -2.383   2.243  -0.905  1.00  0.00     0.271 C 
BRANCH  29  30
HETATM   30  N1  UNL     1      -3.613   2.702  -0.234  1.00  0.00     0.080 N 
HETATM   31  C1  UNL     1      -4.742   2.637  -1.168  1.00  0.00     0.309 C 
HETATM   32  C2  UNL     1      -3.486   4.063   0.289  1.00  0.00     0.309 C 
ENDBRANCH  29  30
ENDBRANCH  28  29
ENDBRANCH  27  28
ENDBRANCH   1  27
TORSDOF 6
