REMARK  8 active torsions:
REMARK  status: ('A' for Active; 'I' for Inactive)
REMARK    1  A    between atoms: N1_2  and  S1_3 
REMARK    2  A    between atoms: S1_3  and  C2_6 
REMARK    3  A    between atoms: C9_13  and  C10_14 
REMARK    4  A    between atoms: C13_18  and  C14_19 
REMARK    5  A    between atoms: C14_19  and  C15_20 
REMARK    6  A    between atoms: C15_20  and  C16_21 
REMARK    7  A    between atoms: C16_21  and  N3_22 
REMARK    8  A    between atoms: C19_25  and  O3_26 
ROOT
HETATM    1  C10 UNL     1      -1.004  -1.895  -0.183  1.00  0.00     0.040 A 
HETATM    2  N2  UNL     1      -1.538  -3.161  -0.252  1.00  0.00    -0.359 N 
HETATM    3  C11 UNL     1      -0.537  -4.063  -0.471  1.00  0.00     0.016 A 
HETATM    4  C12 UNL     1       0.658  -3.378  -0.541  1.00  0.00    -0.027 A 
HETATM    5  C13 UNL     1       0.370  -1.993  -0.365  1.00  0.00    -0.023 A 
HETATM    6  C22 UNL     1       1.960  -4.066  -0.791  1.00  0.00     0.041 C 
HETATM    7  C23 UNL     1       1.838  -5.585  -0.559  1.00  0.00     0.005 C 
HETATM    8  C24 UNL     1       0.555  -6.167  -1.182  1.00  0.00     0.006 C 
HETATM    9  C25 UNL     1      -0.718  -5.534  -0.591  1.00  0.00     0.057 C 
HETATM   10  H9  UNL     1      -2.519  -3.387  -0.169  1.00  0.00     0.166 HD
ENDROOT
BRANCH   1  11
HETATM   11  C9  UNL     1      -1.886  -0.825   0.085  1.00  0.00     0.048 C 
HETATM   12  C8  UNL     1      -2.214   0.115  -0.813  1.00  0.00     0.047 A 
HETATM   13  C6  UNL     1      -3.094   1.260  -0.534  1.00  0.00     0.008 A 
HETATM   14  C26 UNL     1      -1.795   0.229  -2.261  1.00  0.00     0.257 A 
HETATM   15  C5  UNL     1      -3.170   1.993  -1.724  1.00  0.00     0.046 A 
HETATM   16  C7  UNL     1      -3.774   1.682   0.595  1.00  0.00     0.040 A 
HETATM   17  C4  UNL     1      -3.908   3.154  -1.843  1.00  0.00     0.032 A 
HETATM   18  N4  UNL     1      -2.411   1.386  -2.718  1.00  0.00    -0.322 N 
HETATM   19  C3  UNL     1      -4.599   3.592  -0.711  1.00  0.00     0.027 A 
HETATM   20  C2  UNL     1      -4.535   2.855   0.490  1.00  0.00     0.080 A 
HETATM   21  H34 UNL     1      -2.304   1.710  -3.667  1.00  0.00     0.169 HD
HETATM   22  O4  UNL     1      -1.093  -0.506  -2.925  1.00  0.00    -0.267 OA
BRANCH  20  23
HETATM   23  S1  UNL     1      -5.413   3.459   1.912  1.00  0.00     0.258 S 
HETATM   24  O1  UNL     1      -5.243   4.894   1.946  1.00  0.00    -0.201 OA
HETATM   25  O2  UNL     1      -5.099   2.621   3.047  1.00  0.00    -0.201 OA
BRANCH  23  26
HETATM   26  N1  UNL     1      -7.010   3.179   1.479  1.00  0.00    -0.320 N 
HETATM   27  C1  UNL     1      -7.577   1.859   1.720  1.00  0.00     0.159 C 
HETATM   28  H4  UNL     1      -7.603   3.996   1.624  1.00  0.00     0.171 HD
ENDBRANCH  23  26
ENDBRANCH  20  23
ENDBRANCH   1  11
BRANCH   5  29
HETATM   29  C14 UNL     1       1.366  -0.873  -0.372  1.00  0.00     0.043 C 
BRANCH  29  30
HETATM   30  C15 UNL     1       1.858  -0.533   1.036  1.00  0.00     0.035 C 
BRANCH  30  31
HETATM   31  C16 UNL     1       2.771   0.698   1.082  1.00  0.00     0.272 C 
BRANCH  31  32
HETATM   32  N3  UNL     1       4.035   0.451   0.371  1.00  0.00     0.088 N 
HETATM   33  C17 UNL     1       5.214   0.650   1.225  1.00  0.00     0.275 C 
HETATM   34  C18 UNL     1       5.527   2.118   1.505  1.00  0.00     0.062 C 
HETATM   35  C19 UNL     1       5.674   2.894   0.202  1.00  0.00     0.121 C 
HETATM   36  C20 UNL     1       4.447   2.698  -0.682  1.00  0.00     0.062 C 
HETATM   37  C21 UNL     1       4.149   1.212  -0.881  1.00  0.00     0.275 C 
BRANCH  35  38
HETATM   38  O3  UNL     1       5.842   4.276   0.503  1.00  0.00    -0.395 OA
HETATM   39  H21 UNL     1       5.941   4.749  -0.342  1.00  0.00     0.210 HD
ENDBRANCH  35  38
ENDBRANCH  31  32
ENDBRANCH  30  31
ENDBRANCH  29  30
ENDBRANCH   5  29
TORSDOF 8
