REMARK  5 active torsions:
REMARK  status: ('A' for Active; 'I' for Inactive)
REMARK    1  A    between atoms: C2_2  and  S1_3 
REMARK    2  A    between atoms: S1_3  and  C3_6 
REMARK    3  A    between atoms: C10_13  and  C11_14 
REMARK    4  A    between atoms: C14_18  and  C15_19 
REMARK    5  A    between atoms: C15_19  and  N2_20 
ROOT
HETATM    1  C11 UNL     1      -0.448  -0.366   1.616  1.00  0.00     0.042 A 
HETATM    2  N1  UNL     1      -0.517  -0.263   2.985  1.00  0.00    -0.359 N 
HETATM    3  C12 UNL     1      -1.814  -0.409   3.385  1.00  0.00     0.016 A 
HETATM    4  C13 UNL     1      -2.596  -0.600   2.266  1.00  0.00    -0.025 A 
HETATM    5  C14 UNL     1      -1.733  -0.570   1.126  1.00  0.00     0.005 A 
HETATM    6  C20 UNL     1      -4.070  -0.821   2.357  1.00  0.00     0.041 C 
HETATM    7  C21 UNL     1      -4.611  -0.409   3.739  1.00  0.00     0.005 C 
HETATM    8  C22 UNL     1      -3.715  -0.911   4.887  1.00  0.00     0.006 C 
HETATM    9  C23 UNL     1      -2.285  -0.349   4.794  1.00  0.00     0.057 C 
HETATM   10  H10 UNL     1       0.272  -0.119   3.601  1.00  0.00     0.166 HD
ENDROOT
BRANCH   1  11
HETATM   11  C10 UNL     1       0.818  -0.201   1.012  1.00  0.00     0.048 C 
HETATM   12  C9  UNL     1       1.478  -1.181   0.379  1.00  0.00     0.047 A 
HETATM   13  C7  UNL     1       2.776  -1.007  -0.290  1.00  0.00     0.008 A 
HETATM   14  C24 UNL     1       1.092  -2.633   0.211  1.00  0.00     0.257 A 
HETATM   15  C6  UNL     1       3.118  -2.259  -0.813  1.00  0.00     0.046 A 
HETATM   16  C8  UNL     1       3.615   0.079  -0.462  1.00  0.00     0.038 A 
HETATM   17  C5  UNL     1       4.289  -2.482  -1.511  1.00  0.00     0.032 A 
HETATM   18  N3  UNL     1       2.133  -3.194  -0.520  1.00  0.00    -0.322 N 
HETATM   19  C4  UNL     1       5.147  -1.395  -1.692  1.00  0.00     0.026 A 
HETATM   20  C3  UNL     1       4.800  -0.126  -1.182  1.00  0.00     0.060 A 
HETATM   21  H29 UNL     1       2.145  -4.170  -0.771  1.00  0.00     0.169 HD
HETATM   22  O4  UNL     1       0.112  -3.226   0.614  1.00  0.00    -0.267 OA
BRANCH  20  23
HETATM   23  S1  UNL     1       5.929   1.232  -1.409  1.00  0.00     0.175 S 
HETATM   24  O1  UNL     1       5.548   2.278  -0.478  1.00  0.00    -0.223 OA
HETATM   25  O2  UNL     1       7.266   0.670  -1.374  1.00  0.00    -0.223 OA
BRANCH  23  26
HETATM   26  C2  UNL     1       5.618   1.804  -3.066  1.00  0.00     0.141 C 
HETATM   27  C1  UNL     1       4.216   2.341  -3.269  1.00  0.00     0.021 C 
ENDBRANCH  23  26
ENDBRANCH  20  23
ENDBRANCH   1  11
BRANCH   5  28
HETATM   28  C15 UNL     1      -2.145  -0.739  -0.309  1.00  0.00     0.314 C 
BRANCH  28  29
HETATM   29  N2  UNL     1      -1.909   0.498  -1.076  1.00  0.00     0.096 N 
HETATM   30  C16 UNL     1      -2.744   1.616  -0.580  1.00  0.00     0.299 C 
HETATM   31  C17 UNL     1      -2.971   2.682  -1.662  1.00  0.00     0.198 C 
HETATM   32  O3  UNL     1      -3.700   2.181  -2.792  1.00  0.00    -0.388 OA
HETATM   33  C18 UNL     1      -3.503   0.777  -3.006  1.00  0.00     0.198 C 
HETATM   34  C19 UNL     1      -2.132   0.284  -2.521  1.00  0.00     0.299 C 
ENDBRANCH  28  29
ENDBRANCH   5  28
TORSDOF 5
