MODEL 1
REMARK minimizedAffinity -9.14857197
REMARK  13 active torsions:
REMARK  status: ('A' for Active; 'I' for Inactive)
REMARK    1  A    between atoms: C2_2  and  C3_3 
REMARK    2  A    between atoms: C3_3  and  O1_5 
REMARK    3  A    between atoms: C3_3  and  C5_6 
REMARK    4  A    between atoms: C5_6  and  C6_7 
REMARK    5  A    between atoms: C6_7  and  C7_8 
REMARK    6  A    between atoms: C13_14  and  C15_16 
REMARK    7  A    between atoms: C15_16  and  O2_17 
REMARK    8  A    between atoms: O2_17  and  C16_18 
REMARK    9  A    between atoms: C17_20  and  C18_21 
REMARK   10  A    between atoms: C18_21  and  O4_22 
REMARK   11  A    between atoms: C19_23  and  O5_24 
REMARK   12  A    between atoms: C20_25  and  O6_26 
REMARK   13  A    between atoms: C21_27  and  O7_28 
ROOT
HETATM    1  C7  UNL     1      -4.075   5.736  12.985  1.00  0.00     0.022 C 
HETATM    2  C8  UNL     1      -3.487   4.437  12.446  1.00  0.00    -0.084 C 
HETATM    3  C9  UNL     1      -3.715   3.202  12.922  1.00  0.00     0.014 C 
HETATM    4  C10 UNL     1      -2.523   4.665  11.304  1.00  0.00     0.034 C 
HETATM    5  C11 UNL     1      -1.403   5.648  11.680  1.00  0.00     0.010 C 
HETATM    6  C12 UNL     1      -1.486   6.095  13.156  1.00  0.00     0.005 C 
HETATM    7  C13 UNL     1      -0.219   6.855  13.693  1.00  0.00    -0.018 C 
HETATM    8  C14 UNL     1       1.020   5.914  13.606  1.00  0.00     0.018 C 
HETATM    9  C22 UNL     1      -0.419   7.150  15.204  1.00  0.00     0.012 C 
HETATM   10  C23 UNL     1      -1.757   7.790  15.547  1.00  0.00     0.002 C 
HETATM   11  C24 UNL     1      -2.936   6.966  15.026  1.00  0.00     0.010 C 
HETATM   12  C25 UNL     1      -2.905   6.717  13.493  1.00  0.00    -0.032 C 
HETATM   13  C26 UNL     1      -3.183   8.068  12.784  1.00  0.00     0.016 C 
ENDROOT
BRANCH   7  14
HETATM   14  C15 UNL     1       0.139   8.133  12.896  1.00  0.00     0.180 C 
BRANCH  14  15
HETATM   15  O2  UNL     1      -0.319   8.002  11.542  1.00  0.00    -0.358 OA
BRANCH  15  16
HETATM   16  C16 UNL     1       0.675   8.376  10.584  1.00  0.00     0.291 C 
HETATM   17  O3  UNL     1       1.893   7.641  10.746  1.00  0.00    -0.348 OA
HETATM   18  C17 UNL     1       1.893   6.389  10.041  1.00  0.00     0.179 C 
HETATM   19  C19 UNL     1       1.868   6.619   8.507  1.00  0.00     0.180 C 
HETATM   20  C20 UNL     1       1.158   7.939   8.148  1.00  0.00     0.183 C 
HETATM   21  C21 UNL     1       0.055   8.216   9.175  1.00  0.00     0.204 C 
BRANCH  18  22
HETATM   22  C18 UNL     1       3.099   5.571  10.509  1.00  0.00     0.198 C 
BRANCH  22  23
HETATM   23  O4  UNL     1       3.055   4.238  10.015  1.00  0.00    -0.398 OA
HETATM   24  H29 UNL     1       3.261   4.311   9.060  1.00  0.00     0.209 HD
ENDBRANCH  22  23
ENDBRANCH  18  22
BRANCH  19  25
HETATM   25  O5  UNL     1       3.192   6.624   7.943  1.00  0.00    -0.390 OA
HETATM   26  H31 UNL     1       3.333   7.524   7.576  1.00  0.00     0.210 HD
ENDBRANCH  19  25
BRANCH  20  27
HETATM   27  O6  UNL     1       2.144   8.994   8.096  1.00  0.00    -0.390 OA
HETATM   28  H33 UNL     1       2.519   9.103   8.990  1.00  0.00     0.210 HD
ENDBRANCH  20  27
BRANCH  21  29
HETATM   29  O7  UNL     1      -0.717   9.371   8.820  1.00  0.00    -0.388 OA
HETATM   30  H35 UNL     1      -1.370   9.500   9.531  1.00  0.00     0.210 HD
ENDBRANCH  21  29
ENDBRANCH  15  16
ENDBRANCH  14  15
ENDBRANCH   7  14
BRANCH   1  31
HETATM   31  C6  UNL     1      -5.259   5.589  13.974  1.00  0.00     0.013 C 
BRANCH  31  32
HETATM   32  C5  UNL     1      -6.560   6.272  13.503  1.00  0.00     0.042 C 
BRANCH  32  33
HETATM   33  C3  UNL     1      -7.781   5.322  13.426  1.00  0.00     0.071 C 
HETATM   34  C4  UNL     1      -8.576   5.486  12.121  1.00  0.00     0.050 C 
BRANCH  33  35
HETATM   35  C2  UNL     1      -7.316   3.907  13.687  1.00  0.00    -0.000 C 
HETATM   36  C1  UNL     1      -7.614   2.797  12.999  1.00  0.00     0.010 C 
ENDBRANCH  33  35
BRANCH  33  37
HETATM   37  O1  UNL     1      -8.656   5.621  14.523  1.00  0.00    -0.386 OA
HETATM   38  H7  UNL     1      -9.167   6.417  14.295  1.00  0.00     0.211 HD
ENDBRANCH  33  37
ENDBRANCH  32  33
ENDBRANCH  31  32
ENDBRANCH   1  31
TORSDOF 13
ENDMDL
