MODEL 1
REMARK minimizedAffinity -8.8303051
REMARK CNNscore 0.745593846
REMARK CNNaffinity 7.41689682
REMARK  10 active torsions:
REMARK  status: ('A' for Active; 'I' for Inactive)
REMARK    1  A    between atoms: N1_6  and  O1_8 
REMARK    2  A    between atoms: O1_8  and  C6_9 
REMARK    3  A    between atoms: C6_9  and  C7_10 
REMARK       I    between atoms: C7_10  and  N2_12 
REMARK    4  A    between atoms: N2_12  and  C8_13 
REMARK    5  A    between atoms: C8_13  and  C9_14 
REMARK    6  A    between atoms: C20_27  and  O3_28 
REMARK    7  A    between atoms: C27_35  and  O4_36 
REMARK    8  A    between atoms: C27_35  and  C28_37 
REMARK    9  A    between atoms: C28_37  and  C29_39 
REMARK   10  A    between atoms: C29_39  and  O6_40 
ROOT
HETATM    1  C1  UNL     1      -1.455   7.330  12.363  1.00  0.00     0.020 C 
HETATM    2  C2  UNL     1      -2.214   6.811  13.610  1.00  0.00    -0.014 C 
HETATM    3  C3  UNL     1      -1.712   5.380  13.935  1.00  0.00     0.020 C 
HETATM    4  C4  UNL     1      -2.033   4.353  12.852  1.00  0.00     0.060 C 
HETATM    5  C5  UNL     1      -3.464   4.420  12.358  1.00  0.00     0.032 C 
HETATM    6  N1  UNL     1      -3.878   3.405  11.660  1.00  0.00    -0.271 N 
ATOM      7  H1  UNL     1      -3.309   2.584  11.453  1.00  0.00     0.194 HD
HETATM    8  C14 UNL     1      -4.267   5.626  12.704  1.00  0.00     0.030 C 
HETATM    9  C15 UNL     1      -3.713   6.705  13.287  1.00  0.00    -0.069 C 
HETATM   10  C16 UNL     1      -4.616   7.829  13.743  1.00  0.00     0.035 C 
HETATM   11  C17 UNL     1      -3.937   9.191  13.733  1.00  0.00     0.010 C 
HETATM   12  C18 UNL     1      -2.586   9.215  14.475  1.00  0.00    -0.002 C 
HETATM   13  C19 UNL     1      -2.045   7.799  14.835  1.00  0.00     0.031 C 
HETATM   14  C20 UNL     1      -0.624   7.952  15.430  1.00  0.00     0.124 C 
HETATM   15  C21 UNL     1      -0.624   8.895  16.643  1.00  0.00     0.045 C 
HETATM   16  C22 UNL     1      -1.225  10.301  16.384  1.00  0.00     0.001 C 
HETATM   17  C23 UNL     1      -0.213  11.113  15.555  1.00  0.00     0.019 C 
HETATM   18  C24 UNL     1      -2.591  10.189  15.669  1.00  0.00     0.002 C 
HETATM   19  C25 UNL     1      -3.593   9.859  16.788  1.00  0.00     0.009 C 
HETATM   20  C26 UNL     1      -2.956  10.336  18.098  1.00  0.00     0.047 C 
HETATM   21  C27 UNL     1      -1.619  11.004  17.723  1.00  0.00     0.128 C 
ENDROOT
BRANCH   6  22
HETATM   22  O1  UNL     1      -5.203   3.571  11.224  1.00  0.00    -0.271 OA
BRANCH  22  23
HETATM   23  C6  UNL     1      -5.993   2.535  11.782  1.00  0.00     0.303 C 
BRANCH  23  24
HETATM   24  C7  UNL     1      -7.234   3.083  12.482  1.00  0.00     0.244 C 
HETATM   25  O2  UNL     1      -8.113   2.383  12.975  1.00  0.00    -0.271 OA
HETATM   26  N2  UNL     1      -7.272   4.467  12.517  1.00  0.00    -0.355 N 
HETATM   27  H10 UNL     1      -6.627   4.985  11.936  1.00  0.00     0.162 HD
BRANCH  26  28
HETATM   28  C8  UNL     1      -8.407   5.180  13.058  1.00  0.00     0.161 C 
BRANCH  28  29
HETATM   29  C9  UNL     1      -8.068   5.816  14.379  1.00  0.00    -0.038 A 
HETATM   30  C10 UNL     1      -8.754   6.956  14.812  1.00  0.00     0.025 A 
HETATM   31  C11 UNL     1      -8.403   7.524  16.026  1.00  0.00     0.088 A 
HETATM   32  N3  UNL     1      -7.427   7.042  16.827  1.00  0.00    -0.375 N 
HETATM   33  C12 UNL     1      -6.772   5.946  16.388  1.00  0.00     0.088 A 
ATOM     34  H3  UNL     1      -7.197   7.483  17.716  1.00  0.00     0.164 HD
HETATM   35  C13 UNL     1      -7.047   5.308  15.187  1.00  0.00     0.025 A 
ENDBRANCH  28  29
ENDBRANCH  26  28
ENDBRANCH  23  24
ENDBRANCH  22  23
ENDBRANCH   6  22
BRANCH  14  36
HETATM   36  O3  UNL     1      -0.137   6.698  15.901  1.00  0.00    -0.395 OA
HETATM   37  H25 UNL     1       0.763   6.840  16.243  1.00  0.00     0.210 HD
ENDBRANCH  14  36
BRANCH  21  38
HETATM   38  O4  UNL     1      -0.654  10.741  18.737  1.00  0.00    -0.381 OA
HETATM   39  H36 UNL     1      -1.090  10.817  19.605  1.00  0.00     0.211 HD
ENDBRANCH  21  38
BRANCH  21  40
HETATM   40  C28 UNL     1      -1.824  12.536  17.587  1.00  0.00     0.184 C 
HETATM   41  O5  UNL     1      -1.771  13.125  16.502  1.00  0.00    -0.292 OA
BRANCH  40  42
HETATM   42  C29 UNL     1      -2.107  13.324  18.863  1.00  0.00     0.245 C 
BRANCH  42  43
HETATM   43  O6  UNL     1      -3.446  13.800  18.897  1.00  0.00    -0.393 OA
HETATM   44  H39 UNL     1      -3.956  13.224  18.291  1.00  0.00     0.209 HD
ENDBRANCH  42  43
ENDBRANCH  40  42
ENDBRANCH  21  40
TORSDOF 10
ENDMDL
