MODEL 1
REMARK minimizedAffinity -10.4518728
REMARK CNNscore 0.594009399
REMARK CNNaffinity 7.60625887
REMARK  14 active torsions:
REMARK  status: ('A' for Active; 'I' for Inactive)
REMARK    1  A    between atoms: C19_20  and  O2_21 
REMARK    2  A    between atoms: C19_20  and  C20_22 
REMARK    3  A    between atoms: C20_22  and  C21_24 
REMARK    4  A    between atoms: C21_24  and  O4_25 
REMARK    5  A    between atoms: O4_25  and  C22_26 
REMARK    6  A    between atoms: C22_26  and  C23_28 
REMARK    7  A    between atoms: C23_28  and  C24_29 
REMARK    8  A    between atoms: C24_29  and  C25_30 
REMARK       I    between atoms: C25_30  and  N1_32 
REMARK    9  A    between atoms: N1_32  and  C26_33 
REMARK   10  A    between atoms: C26_33  and  C27_34 
REMARK   11  A    between atoms: C26_33  and  C36_45 
REMARK   12  A    between atoms: C27_34  and  C28_35 
REMARK   13  A    between atoms: C33_41  and  O7_42 
REMARK   14  A    between atoms: C36_45  and  O9_47 
ROOT
HETATM    1  O4  UNL     1      -0.854   9.214  16.987  1.00  0.00    -0.314 OA
ENDROOT
BRANCH   1   2
HETATM    2  C21 UNL     1      -1.051   9.321  15.583  1.00  0.00     0.260 C 
BRANCH   2   3
HETATM    3  C20 UNL     1      -1.025   7.957  14.904  1.00  0.00     0.185 C 
HETATM    4  O3  UNL     1      -0.052   7.210  15.058  1.00  0.00    -0.292 OA
BRANCH   3   5
HETATM    5  C19 UNL     1      -2.238   7.528  14.038  1.00  0.00     0.128 C 
HETATM    6  C14 UNL     1      -3.580   7.277  14.796  1.00  0.00    -0.002 C 
HETATM    7  C13 UNL     1      -4.417   8.516  15.170  1.00  0.00     0.013 C 
HETATM    8  C15 UNL     1      -3.323   6.430  16.075  1.00  0.00     0.019 C 
HETATM    9  C16 UNL     1      -4.362   6.499  13.694  1.00  0.00     0.002 C 
HETATM   10  C12 UNL     1      -5.861   8.158  15.580  1.00  0.00     0.007 C 
HETATM   11  C11 UNL     1      -6.583   7.315  14.506  1.00  0.00     0.002 C 
HETATM   12  C2  UNL     1      -8.076   6.958  14.813  1.00  0.00    -0.016 C 
HETATM   13  C10 UNL     1      -5.751   6.040  14.158  1.00  0.00    -0.004 C 
HETATM   14  C1  UNL     1      -8.193   5.953  15.983  1.00  0.00     0.020 C 
HETATM   15  C3  UNL     1      -8.893   8.231  15.156  1.00  0.00     0.022 C 
HETATM   16  C7  UNL     1      -8.678   6.343  13.545  1.00  0.00    -0.068 C 
HETATM   17  C4  UNL     1     -10.396   7.974  15.275  1.00  0.00     0.084 C 
HETATM   18  C5  UNL     1     -10.937   7.154  14.128  1.00  0.00     0.149 C 
HETATM   19  O1  UNL     1     -12.143   7.066  13.907  1.00  0.00    -0.293 OA
HETATM   20  C6  UNL     1      -9.989   6.426  13.252  1.00  0.00     0.053 C 
HETATM   21  C8  UNL     1      -7.730   5.726  12.541  1.00  0.00     0.035 C 
HETATM   22  C9  UNL     1      -6.479   5.113  13.163  1.00  0.00     0.010 C 
HETATM   23  C17 UNL     1      -3.358   5.456  13.220  1.00  0.00     0.009 C 
HETATM   24  C18 UNL     1      -1.990   6.158  13.333  1.00  0.00     0.047 C 
BRANCH   5  25
HETATM   25  O2  UNL     1      -2.438   8.497  13.000  1.00  0.00    -0.381 OA
HETATM   26  H27 UNL     1      -1.622   8.523  12.467  1.00  0.00     0.211 HD
ENDBRANCH   5  25
ENDBRANCH   3   5
ENDBRANCH   2   3
ENDBRANCH   1   2
BRANCH   1  27
HETATM   27  C22 UNL     1      -0.825  10.403  17.644  1.00  0.00     0.259 C 
HETATM   28  O5  UNL     1      -1.804  11.109  17.847  1.00  0.00    -0.265 OA
BRANCH  27  29
HETATM   29  C23 UNL     1       0.584  10.830  17.985  1.00  0.00     0.120 C 
BRANCH  29  30
HETATM   30  C24 UNL     1       0.833  11.117  19.462  1.00  0.00     0.112 C 
BRANCH  30  31
HETATM   31  C25 UNL     1       2.013  10.334  19.999  1.00  0.00     0.218 C 
HETATM   32  O6  UNL     1       2.727   9.628  19.302  1.00  0.00    -0.274 OA
HETATM   33  N1  UNL     1       2.207  10.509  21.352  1.00  0.00    -0.346 N 
HETATM   34  H34 UNL     1       1.390  10.783  21.885  1.00  0.00     0.163 HD
BRANCH  33  35
HETATM   35  C26 UNL     1       3.179   9.665  22.068  1.00  0.00     0.186 C 
BRANCH  35  36
HETATM   36  C27 UNL     1       3.917  10.488  23.131  1.00  0.00     0.077 C 
BRANCH  36  37
HETATM   37  C28 UNL     1       4.179  11.904  22.724  1.00  0.00    -0.028 A 
HETATM   38  C29 UNL     1       3.256  12.792  22.208  1.00  0.00     0.096 A 
HETATM   39  N2  UNL     1       3.889  13.984  21.974  1.00  0.00    -0.365 N 
HETATM   40  C30 UNL     1       5.216  13.893  22.320  1.00  0.00     0.043 A 
HETATM   41  H39 UNL     1       3.450  14.814  21.599  1.00  0.00     0.165 HD
HETATM   42  C31 UNL     1       6.233  14.856  22.253  1.00  0.00     0.033 A 
HETATM   43  C35 UNL     1       5.431  12.598  22.791  1.00  0.00     0.001 A 
HETATM   44  C32 UNL     1       7.511  14.481  22.679  1.00  0.00     0.039 A 
HETATM   45  C33 UNL     1       7.746  13.193  23.147  1.00  0.00     0.066 A 
HETATM   46  C34 UNL     1       6.728  12.243  23.215  1.00  0.00     0.050 A 
BRANCH  45  47
HETATM   47  O7  UNL     1       8.991  12.811  23.561  1.00  0.00    -0.361 OA
HETATM   48  H42 UNL     1       9.590  13.571  23.488  1.00  0.00     0.217 HD
ENDBRANCH  45  47
ENDBRANCH  36  37
ENDBRANCH  35  36
BRANCH  35  49
HETATM   49  C36 UNL     1       2.381   8.552  22.744  1.00  0.00     0.163 C 
HETATM   50  O8  UNL     1       1.798   7.644  22.166  1.00  0.00    -0.648 OA
BRANCH  49  51
HETATM   51  O9  UNL     1       2.365   8.631  24.087  1.00  0.00    -0.775 OA
HETATM   52  H44 UNL     1       1.863   7.846  24.381  1.00  0.00     0.167 HD
ENDBRANCH  49  51
ENDBRANCH  35  49
ENDBRANCH  33  35
ENDBRANCH  30  31
ENDBRANCH  29  30
ENDBRANCH  27  29
ENDBRANCH   1  27
TORSDOF 14
ENDMDL
