MODEL 1
REMARK minimizedAffinity -7.07784748
REMARK CNNscore 0.649880886
REMARK CNNaffinity 6.59254837
REMARK  4 active torsions:
REMARK  status: ('A' for Active; 'I' for Inactive)
REMARK    1  A    between atoms: C4_4  and  C5_5 
REMARK    2  A    between atoms: C5_5  and  C6_6 
REMARK    3  A    between atoms: C6_6  and  C7_7 
REMARK    4  A    between atoms: C7_7  and  C9_9 
ROOT
HETATM    1  C9  UNL     1      -0.453   8.476  13.890  1.00  0.00    -0.002 C 
HETATM    2  C10 UNL     1      -0.754   7.243  14.803  1.00  0.00     0.007 C 
HETATM    3  C11 UNL     1      -1.224   7.778  16.170  1.00  0.00     0.015 C 
HETATM    4  C12 UNL     1      -0.828   9.267  16.152  1.00  0.00    -0.013 C 
HETATM    5  C13 UNL     1       0.686   9.303  16.531  1.00  0.00     0.021 C 
HETATM    6  C14 UNL     1      -1.550  10.264  17.057  1.00  0.00    -0.070 C 
HETATM    7  C15 UNL     1      -2.529   9.925  17.913  1.00  0.00    -0.022 C 
HETATM    8  C16 UNL     1      -3.369  10.913  18.669  1.00  0.00     0.034 C 
HETATM    9  C17 UNL     1      -3.265  12.346  18.102  1.00  0.00     0.013 C 
HETATM   10  C18 UNL     1      -4.134  13.437  18.840  1.00  0.00     0.018 C 
HETATM   11  C19 UNL     1      -4.909  12.884  20.055  1.00  0.00     0.023 C 
HETATM   12  C20 UNL     1      -5.182  14.007  17.858  1.00  0.00     0.023 C 
HETATM   13  C21 UNL     1      -3.304  14.642  19.313  1.00  0.00     0.135 C 
HETATM   14  O1  UNL     1      -3.547  15.225  20.375  1.00  0.00    -0.297 OA
HETATM   15  C22 UNL     1      -2.219  15.189  18.413  1.00  0.00     0.080 C 
HETATM   16  C23 UNL     1      -1.705  14.184  17.396  1.00  0.00     0.017 C 
HETATM   17  C24 UNL     1      -1.764  12.723  17.888  1.00  0.00    -0.031 C 
HETATM   18  C25 UNL     1      -0.944  12.595  19.209  1.00  0.00     0.016 C 
HETATM   19  C26 UNL     1      -1.115  11.724  16.845  1.00  0.00     0.024 C 
HETATM   20  C27 UNL     1      -1.279  12.104  15.354  1.00  0.00     0.010 C 
HETATM   21  C28 UNL     1      -0.668  11.073  14.374  1.00  0.00     0.011 C 
HETATM   22  C29 UNL     1      -1.165   9.637  14.652  1.00  0.00    -0.029 C 
HETATM   23  C30 UNL     1      -2.695   9.592  14.340  1.00  0.00     0.016 C 
ENDROOT
BRANCH   1  24
HETATM   24  C7  UNL     1      -0.794   8.178  12.396  1.00  0.00    -0.014 C 
HETATM   25  C8  UNL     1      -2.094   8.852  11.951  1.00  0.00     0.010 C 
BRANCH  24  26
HETATM   26  C6  UNL     1       0.385   8.633  11.488  1.00  0.00     0.008 C 
BRANCH  26  27
HETATM   27  C5  UNL     1       0.285   8.275   9.999  1.00  0.00     0.028 C 
BRANCH  27  28
HETATM   28  C4  UNL     1       1.167   7.124   9.599  1.00  0.00    -0.025 C 
HETATM   29  C2  UNL     1       2.143   7.125   8.671  1.00  0.00    -0.091 C 
HETATM   30  C1  UNL     1       2.907   5.865   8.358  1.00  0.00     0.042 C 
HETATM   31  C3  UNL     1       2.579   8.328   7.880  1.00  0.00     0.042 C 
ENDBRANCH  27  28
ENDBRANCH  26  27
ENDBRANCH  24  26
ENDBRANCH   1  24
TORSDOF 4
ENDMDL
