MODEL 1
REMARK minimizedAffinity -8.47934437
REMARK CNNscore 0.232279345
REMARK CNNaffinity 6.35545921
REMARK  13 active torsions:
REMARK  status: ('A' for Active; 'I' for Inactive)
REMARK    1  A    between atoms: C3_3  and  O1_4 
REMARK    2  A    between atoms: N1_14  and  O2_16 
REMARK    3  A    between atoms: O2_16  and  C13_17 
REMARK    4  A    between atoms: C13_17  and  C14_18 
REMARK       I    between atoms: C14_18  and  N2_20 
REMARK    5  A    between atoms: N2_20  and  C15_21 
REMARK    6  A    between atoms: C15_21  and  C16_22 
REMARK    7  A    between atoms: C15_21  and  C21_33 
REMARK       I    between atoms: C16_22  and  N3_24 
REMARK    8  A    between atoms: N3_24  and  C17_25 
REMARK    9  A    between atoms: C17_25  and  C18_26 
REMARK   10  A    between atoms: C17_25  and  C20_30 
REMARK   11  A    between atoms: C18_26  and  C19_27 
REMARK   12  A    between atoms: C19_27  and  O6_29 
REMARK   13  A    between atoms: C20_30  and  O8_32 
ROOT
HETATM    1  C1  UNL     1       0.259  55.595 -26.442  1.00  0.00     0.015 C 
HETATM    2  C2  UNL     1      -0.064  54.450 -26.598  1.00  0.00    -0.078 C 
HETATM    3  C3  UNL     1      -0.452  53.044 -26.807  1.00  0.00     0.128 C 
HETATM    4  C4  UNL     1       0.769  52.118 -26.822  1.00  0.00     0.052 C 
HETATM    5  C5  UNL     1       0.142  50.738 -26.665  1.00  0.00     0.010 C 
HETATM    6  C6  UNL     1      -0.892  50.947 -25.551  1.00  0.00     0.002 C 
HETATM    7  C7  UNL     1      -1.981  49.851 -25.419  1.00  0.00    -0.004 C 
HETATM    8  C8  UNL     1      -2.492  49.225 -26.728  1.00  0.00     0.010 C 
HETATM    9  C9  UNL     1      -3.503  48.108 -26.467  1.00  0.00     0.035 C 
HETATM   10  C10 UNL     1      -4.617  48.496 -25.519  1.00  0.00    -0.069 C 
HETATM   11  C11 UNL     1      -5.884  48.160 -25.810  1.00  0.00     0.030 C 
HETATM   12  C12 UNL     1      -7.001  48.382 -24.854  1.00  0.00     0.032 C 
HETATM   13  N1  UNL     1      -8.200  48.097 -25.271  1.00  0.00    -0.271 N 
ATOM     14  H1  UNL     1      -8.403  47.750 -26.209  1.00  0.00     0.194 HD
HETATM   15  C24 UNL     1      -6.657  48.871 -23.461  1.00  0.00     0.060 C 
HETATM   16  C25 UNL     1      -5.460  49.819 -23.517  1.00  0.00     0.020 C 
HETATM   17  C26 UNL     1      -4.214  49.221 -24.237  1.00  0.00    -0.016 C 
HETATM   18  C27 UNL     1      -3.573  48.188 -23.277  1.00  0.00     0.020 C 
HETATM   19  C28 UNL     1      -3.165  50.359 -24.558  1.00  0.00     0.002 C 
HETATM   20  C29 UNL     1      -3.795  51.634 -25.181  1.00  0.00     0.007 C 
HETATM   21  C30 UNL     1      -2.877  52.470 -26.080  1.00  0.00     0.014 C 
HETATM   22  C31 UNL     1      -1.387  52.427 -25.695  1.00  0.00     0.003 C 
HETATM   23  C32 UNL     1      -1.195  53.142 -24.330  1.00  0.00     0.020 C 
ENDROOT
BRANCH   3  24
HETATM   24  O1  UNL     1      -1.064  52.946 -28.096  1.00  0.00    -0.377 OA
HETATM   25  H2  UNL     1      -0.538  53.489 -28.706  1.00  0.00     0.211 HD
ENDBRANCH   3  24
BRANCH  13  26
HETATM   26  O2  UNL     1      -9.184  48.314 -24.296  1.00  0.00    -0.271 OA
BRANCH  26  27
HETATM   27  C13 UNL     1      -9.925  47.106 -24.162  1.00  0.00     0.303 C 
BRANCH  27  28
HETATM   28  C14 UNL     1     -11.083  46.989 -25.143  1.00  0.00     0.244 C 
HETATM   29  O3  UNL     1     -11.611  47.984 -25.646  1.00  0.00    -0.271 OA
HETATM   30  N2  UNL     1     -11.470  45.712 -25.483  1.00  0.00    -0.346 N 
HETATM   31  H16 UNL     1     -10.825  44.958 -25.262  1.00  0.00     0.163 HD
BRANCH  30  32
HETATM   32  C15 UNL     1     -12.522  45.469 -26.476  1.00  0.00     0.180 C 
BRANCH  32  33
HETATM   33  C16 UNL     1     -13.873  45.800 -25.788  1.00  0.00     0.241 C 
HETATM   34  O4  UNL     1     -14.433  46.892 -25.872  1.00  0.00    -0.271 OA
HETATM   35  N3  UNL     1     -14.389  44.756 -25.039  1.00  0.00    -0.344 N 
HETATM   36  H18 UNL     1     -13.735  44.002 -24.825  1.00  0.00     0.163 HD
BRANCH  35  37
HETATM   37  C17 UNL     1     -15.464  45.005 -24.070  1.00  0.00     0.192 C 
BRANCH  37  38
HETATM   38  C18 UNL     1     -14.907  45.737 -22.854  1.00  0.00     0.146 C 
BRANCH  38  39
HETATM   39  C19 UNL     1     -14.741  47.205 -23.125  1.00  0.00     0.141 C 
HETATM   40  O5  UNL     1     -15.291  47.841 -24.011  1.00  0.00    -0.650 OA
BRANCH  39  41
HETATM   41  O6  UNL     1     -13.872  47.797 -22.294  1.00  0.00    -0.776 OA
HETATM   42  H22 UNL     1     -13.886  48.741 -22.570  1.00  0.00     0.167 HD
ENDBRANCH  39  41
ENDBRANCH  38  39
ENDBRANCH  37  38
BRANCH  37  43
HETATM   43  C20 UNL     1     -16.585  45.851 -24.698  1.00  0.00     0.164 C 
HETATM   44  O7  UNL     1     -17.348  46.590 -24.095  1.00  0.00    -0.648 OA
BRANCH  43  45
HETATM   45  O8  UNL     1     -16.639  45.800 -26.045  1.00  0.00    -0.775 OA
HETATM   46  H23 UNL     1     -17.360  46.425 -26.272  1.00  0.00     0.167 HD
ENDBRANCH  43  45
ENDBRANCH  37  43
ENDBRANCH  35  37
ENDBRANCH  32  33
BRANCH  32  47
HETATM   47  C21 UNL     1     -12.291  46.297 -27.762  1.00  0.00     0.009 C 
HETATM   48  C22 UNL     1     -13.474  46.154 -28.730  1.00  0.00     0.012 C 
HETATM   49  C23 UNL     1     -11.007  45.857 -28.478  1.00  0.00     0.012 C 
ENDBRANCH  32  47
ENDBRANCH  30  32
ENDBRANCH  27  28
ENDBRANCH  26  27
ENDBRANCH  13  26
TORSDOF 13
ENDMDL
