MODEL 1
REMARK minimizedAffinity -9.53421116
REMARK  9 active torsions:
REMARK  status: ('A' for Active; 'I' for Inactive)
REMARK    1  A    between atoms: C5_5  and  O1_6 
REMARK    2  A    between atoms: C8_9  and  C9_10 
REMARK    3  A    between atoms: C19_20  and  C20_21 
REMARK    4  A    between atoms: C20_21  and  C22_23 
REMARK    5  A    between atoms: C23_24  and  C24_25 
REMARK    6  A    between atoms: C24_25  and  O2_27 
REMARK    7  A    between atoms: C24_25  and  C26_28 
REMARK    8  A    between atoms: C26_28  and  C28_30 
REMARK    9  A    between atoms: C28_30  and  O3_31 
ROOT
HETATM    1  C9  UNL     1      -4.883  50.373 -20.251  1.00  0.00     0.004 C 
HETATM    2  C10 UNL     1      -3.687  49.966 -20.727  1.00  0.00    -0.075 C 
HETATM    3  C11 UNL     1      -3.414  48.647 -21.404  1.00  0.00     0.034 C 
HETATM    4  C12 UNL     1      -2.750  48.868 -22.759  1.00  0.00     0.005 C 
HETATM    5  C13 UNL     1      -1.425  49.605 -22.594  1.00  0.00     0.010 C 
HETATM    6  C14 UNL     1      -1.555  50.977 -21.878  1.00  0.00    -0.032 C 
HETATM    7  C15 UNL     1      -2.172  52.007 -22.844  1.00  0.00     0.016 C 
HETATM    8  C16 UNL     1      -2.492  50.899 -20.624  1.00  0.00     0.023 C 
HETATM    9  C17 UNL     1      -1.550  50.607 -19.464  1.00  0.00     0.010 C 
HETATM   10  C18 UNL     1      -0.405  51.564 -19.766  1.00  0.00     0.007 C 
HETATM   11  C19 UNL     1      -0.138  51.365 -21.273  1.00  0.00     0.002 C 
ENDROOT
BRANCH  11  12
HETATM   12  C20 UNL     1       0.671  52.506 -21.955  1.00  0.00     0.009 C 
HETATM   13  C21 UNL     1       0.725  53.753 -21.056  1.00  0.00     0.014 C 
BRANCH  12  14
HETATM   14  C22 UNL     1       0.142  52.820 -23.349  1.00  0.00    -0.023 C 
HETATM   15  C23 UNL     1       0.736  52.582 -24.533  1.00  0.00     0.007 C 
BRANCH  15  16
HETATM   16  C24 UNL     1       0.189  52.891 -25.921  1.00  0.00     0.077 C 
HETATM   17  C25 UNL     1      -1.263  52.445 -26.138  1.00  0.00     0.051 C 
BRANCH  16  18
HETATM   18  O2  UNL     1       0.149  54.329 -25.994  1.00  0.00    -0.386 OA
HETATM   19  H37 UNL     1       1.045  54.664 -25.833  1.00  0.00     0.211 HD
ENDBRANCH  16  18
BRANCH  16  20
HETATM   20  C26 UNL     1       1.181  52.380 -27.016  1.00  0.00     0.043 C 
HETATM   21  C27 UNL     1       0.468  51.683 -28.186  1.00  0.00     0.015 C 
BRANCH  20  22
HETATM   22  C28 UNL     1       2.317  51.492 -26.480  1.00  0.00     0.171 C 
BRANCH  22  23
HETATM   23  O3  UNL     1       3.438  51.482 -27.351  1.00  0.00    -0.400 OA
HETATM   24  H44 UNL     1       4.103  50.892 -26.958  1.00  0.00     0.209 HD
ENDBRANCH  22  23
ENDBRANCH  20  22
ENDBRANCH  16  20
ENDBRANCH  15  16
ENDBRANCH  12  14
ENDBRANCH  11  12
BRANCH   1  25
HETATM   25  C8  UNL     1      -6.140  49.649 -20.279  1.00  0.00     0.008 C 
HETATM   26  C7  UNL     1      -6.820  49.255 -21.375  1.00  0.00    -0.050 C 
HETATM   27  C2  UNL     1      -6.435  49.513 -22.758  1.00  0.00    -0.061 C 
HETATM   28  C6  UNL     1      -8.071  48.399 -21.245  1.00  0.00     0.070 C 
HETATM   29  C1  UNL     1      -6.308  50.755 -23.250  1.00  0.00     0.019 C 
HETATM   30  C3  UNL     1      -6.305  48.297 -23.647  1.00  0.00     0.041 C 
HETATM   31  C4  UNL     1      -6.842  47.013 -23.005  1.00  0.00     0.036 C 
HETATM   32  C5  UNL     1      -8.168  47.262 -22.283  1.00  0.00     0.122 C 
BRANCH  32  33
HETATM   33  O1  UNL     1      -9.180  47.581 -23.243  1.00  0.00    -0.395 OA
HETATM   34  H8  UNL     1      -9.237  46.839 -23.869  1.00  0.00     0.210 HD
ENDBRANCH  32  33
ENDBRANCH   1  25
TORSDOF 9
ENDMDL
