MODEL 1
REMARK minimizedAffinity -8.72574902
REMARK CNNscore 0.330465764
REMARK CNNaffinity 7.05149317
REMARK  13 active torsions:
REMARK  status: ('A' for Active; 'I' for Inactive)
REMARK    1  A    between atoms: O1_2  and  C2_3 
REMARK    2  A    between atoms: C12_14  and  C13_15 
REMARK    3  A    between atoms: C13_15  and  C15_17 
REMARK    4  A    between atoms: C15_17  and  C16_18 
REMARK    5  A    between atoms: C17_19  and  C18_20 
REMARK    6  A    between atoms: C18_20  and  O3_23 
REMARK    7  A    between atoms: C29_32  and  O4_33 
REMARK    8  A    between atoms: O4_33  and  C30_34 
REMARK    9  A    between atoms: C31_36  and  C32_37 
REMARK   10  A    between atoms: C32_37  and  O6_38 
REMARK   11  A    between atoms: C33_39  and  O7_40 
REMARK   12  A    between atoms: C34_41  and  O8_42 
REMARK   13  A    between atoms: C35_43  and  O9_44 
ROOT
HETATM    1  C2  UNL     1      -5.414  48.656 -21.022  1.00  0.00     0.270 C 
HETATM    2  O2  UNL     1      -6.023  47.839 -19.995  1.00  0.00    -0.344 OA
HETATM    3  C3  UNL     1      -4.982  47.394 -19.102  1.00  0.00     0.095 C 
HETATM    4  C4  UNL     1      -4.873  48.507 -18.066  1.00  0.00     0.008 C 
HETATM    5  C5  UNL     1      -4.205  49.643 -18.314  1.00  0.00    -0.021 C 
HETATM    6  C6  UNL     1      -3.570  49.907 -19.664  1.00  0.00     0.030 C 
HETATM    7  C7  UNL     1      -3.878  48.746 -20.706  1.00  0.00     0.024 C 
HETATM    8  C8  UNL     1      -3.088  48.936 -22.020  1.00  0.00     0.016 C 
HETATM    9  C9  UNL     1      -1.630  49.415 -21.901  1.00  0.00     0.011 C 
HETATM   10  C10 UNL     1      -1.493  50.645 -20.984  1.00  0.00    -0.032 C 
HETATM   11  C11 UNL     1      -2.253  51.837 -21.653  1.00  0.00     0.016 C 
HETATM   12  C12 UNL     1      -0.058  51.121 -20.608  1.00  0.00    -0.002 C 
HETATM   13  C22 UNL     1      -0.307  51.930 -19.292  1.00  0.00     0.006 C 
HETATM   14  C23 UNL     1      -1.695  51.516 -18.755  1.00  0.00     0.011 C 
HETATM   15  C24 UNL     1      -2.047  50.249 -19.558  1.00  0.00    -0.029 C 
HETATM   16  C25 UNL     1      -1.245  49.086 -18.864  1.00  0.00     0.016 C 
HETATM   17  C26 UNL     1      -3.728  47.372 -20.009  1.00  0.00     0.039 C 
HETATM   18  C27 UNL     1      -3.685  46.175 -20.973  1.00  0.00     0.011 C 
HETATM   19  C28 UNL     1      -3.925  44.850 -20.261  1.00  0.00     0.033 C 
HETATM   20  C29 UNL     1      -5.254  44.854 -19.502  1.00  0.00     0.136 C 
HETATM   21  C36 UNL     1      -5.329  46.009 -18.450  1.00  0.00     0.014 C 
HETATM   22  C37 UNL     1      -6.753  46.022 -17.820  1.00  0.00     0.021 C 
HETATM   23  C38 UNL     1      -4.325  45.677 -17.311  1.00  0.00     0.021 C 
ENDROOT
BRANCH  20  24
HETATM   24  O4  UNL     1      -6.298  44.998 -20.476  1.00  0.00    -0.352 OA
BRANCH  24  25
HETATM   25  C30 UNL     1      -7.413  44.132 -20.238  1.00  0.00     0.292 C 
HETATM   26  O5  UNL     1      -6.973  42.784 -20.335  1.00  0.00    -0.348 OA
HETATM   27  C31 UNL     1      -7.320  42.097 -21.538  1.00  0.00     0.179 C 
HETATM   28  C33 UNL     1      -7.155  42.996 -22.773  1.00  0.00     0.180 C 
HETATM   29  C34 UNL     1      -8.025  44.262 -22.669  1.00  0.00     0.183 C 
HETATM   30  C35 UNL     1      -8.510  44.534 -21.242  1.00  0.00     0.204 C 
BRANCH  27  31
HETATM   31  C32 UNL     1      -6.431  40.843 -21.642  1.00  0.00     0.198 C 
BRANCH  31  32
HETATM   32  O6  UNL     1      -5.407  40.787 -20.650  1.00  0.00    -0.398 OA
HETATM   33  H50 UNL     1      -5.677  41.389 -19.918  1.00  0.00     0.209 HD
ENDBRANCH  31  32
ENDBRANCH  27  31
BRANCH  28  34
HETATM   34  O7  UNL     1      -7.525  42.280 -23.974  1.00  0.00    -0.390 OA
HETATM   35  H52 UNL     1      -7.291  42.881 -24.710  1.00  0.00     0.210 HD
ENDBRANCH  28  34
BRANCH  29  36
HETATM   36  O8  UNL     1      -7.268  45.367 -23.191  1.00  0.00    -0.390 OA
HETATM   37  H54 UNL     1      -6.740  45.729 -22.446  1.00  0.00     0.210 HD
ENDBRANCH  29  36
BRANCH  30  38
HETATM   38  O9  UNL     1      -9.717  43.812 -20.971  1.00  0.00    -0.388 OA
HETATM   39  H56 UNL     1     -10.426  44.185 -21.529  1.00  0.00     0.210 HD
ENDBRANCH  30  38
ENDBRANCH  24  25
ENDBRANCH  20  24
BRANCH   1  40
HETATM   40  O1  UNL     1      -6.006  49.943 -21.150  1.00  0.00    -0.365 OA
HETATM   41  C1  UNL     1      -7.021  49.979 -22.142  1.00  0.00     0.204 C 
ENDBRANCH   1  40
BRANCH  12  42
HETATM   42  C13 UNL     1       0.811  51.929 -21.616  1.00  0.00    -0.010 C 
HETATM   43  C14 UNL     1       1.569  53.086 -20.953  1.00  0.00     0.010 C 
BRANCH  42  44
HETATM   44  C15 UNL     1      -0.083  52.472 -22.768  1.00  0.00     0.031 C 
BRANCH  44  45
HETATM   45  C16 UNL     1       0.230  51.862 -24.108  1.00  0.00    -0.027 C 
HETATM   46  C17 UNL     1       0.735  52.567 -25.138  1.00  0.00     0.006 C 
BRANCH  46  47
HETATM   47  C18 UNL     1       1.074  52.078 -26.533  1.00  0.00     0.070 C 
HETATM   48  C19 UNL     1       2.473  51.434 -26.531  1.00  0.00     0.050 C 
HETATM   49  C20 UNL     1       0.087  51.028 -27.069  1.00  0.00     0.050 C 
BRANCH  47  50
HETATM   50  O3  UNL     1       0.978  53.177 -27.461  1.00  0.00    -0.382 OA
HETATM   51  C21 UNL     1      -0.311  53.485 -27.972  1.00  0.00     0.202 C 
ENDBRANCH  47  50
ENDBRANCH  46  47
ENDBRANCH  44  45
ENDBRANCH  42  44
ENDBRANCH  12  42
TORSDOF 13
ENDMDL
