MODEL 1
REMARK minimizedAffinity -7.72135401
REMARK  7 active torsions:
REMARK  status: ('A' for Active; 'I' for Inactive)
REMARK    1  A    between atoms: O1_2  and  C2_3 
REMARK    2  A    between atoms: C2_3  and  C3_5 
REMARK    3  A    between atoms: C17_20  and  C18_21 
REMARK    4  A    between atoms: C18_21  and  O5_23 
REMARK    5  A    between atoms: O5_23  and  C19_24 
REMARK    6  A    between atoms: C19_24  and  C20_25 
REMARK    7  A    between atoms: C20_25  and  N1_26 
ROOT
HETATM    1  C3  UNL     1      -1.623   6.408  13.787  1.00  0.00     0.049 C 
HETATM    2  C4  UNL     1      -0.841   5.073  13.780  1.00  0.00     0.026 C 
HETATM    3  C5  UNL     1      -1.200   7.174  15.067  1.00  0.00     0.020 C 
HETATM    4  C6  UNL     1      -1.996   8.453  15.287  1.00  0.00     0.002 C 
HETATM    5  C7  UNL     1      -3.490   8.167  15.379  1.00  0.00     0.010 C 
HETATM    6  C8  UNL     1      -4.069   7.410  14.151  1.00  0.00    -0.034 C 
HETATM    7  C9  UNL     1      -4.119   8.389  12.955  1.00  0.00     0.016 C 
HETATM    8  C10 UNL     1      -3.174   6.144  13.863  1.00  0.00     0.019 C 
HETATM    9  C11 UNL     1      -3.741   5.309  12.704  1.00  0.00     0.085 C 
HETATM   10  C12 UNL     1      -5.159   4.877  12.995  1.00  0.00     0.132 C 
HETATM   11  O3  UNL     1      -5.516   3.723  12.754  1.00  0.00    -0.298 OA
HETATM   12  C13 UNL     1      -6.133   5.961  13.438  1.00  0.00     0.068 C 
HETATM   13  C14 UNL     1      -7.498   5.375  13.882  1.00  0.00     0.022 C 
HETATM   14  C15 UNL     1      -7.428   4.402  15.072  1.00  0.00     0.015 C 
HETATM   15  C16 UNL     1      -8.458   6.515  14.217  1.00  0.00    -0.070 C 
HETATM   16  C17 UNL     1      -9.656   6.584  13.602  1.00  0.00     0.085 C 
HETATM   17  C23 UNL     1      -7.920   7.508  15.221  1.00  0.00     0.035 C 
HETATM   18  C24 UNL     1      -6.533   8.024  14.823  1.00  0.00     0.010 C 
HETATM   19  C25 UNL     1      -5.523   6.894  14.513  1.00  0.00     0.006 C 
ENDROOT
BRANCH  16  20
HETATM   20  C18 UNL     1     -10.738   7.574  13.791  1.00  0.00     0.283 C 
HETATM   21  O4  UNL     1     -10.887   8.183  14.839  1.00  0.00    -0.260 OA
BRANCH  20  22
HETATM   22  O5  UNL     1     -11.439   7.762  12.650  1.00  0.00    -0.316 OA
BRANCH  22  23
HETATM   23  C19 UNL     1     -12.360   8.868  12.667  1.00  0.00     0.209 C 
BRANCH  23  24
HETATM   24  C20 UNL     1     -13.711   8.437  13.257  1.00  0.00     0.298 C 
BRANCH  24  25
HETATM   25  N1  UNL     1     -14.136   7.085  12.841  1.00  0.00     0.082 N 
HETATM   26  C21 UNL     1     -14.293   6.196  13.996  1.00  0.00     0.309 C 
HETATM   27  C22 UNL     1     -15.404   7.164  12.110  1.00  0.00     0.309 C 
ENDBRANCH  24  25
ENDBRANCH  23  24
ENDBRANCH  22  23
ENDBRANCH  20  22
ENDBRANCH  16  20
BRANCH   1  28
HETATM   28  C2  UNL     1      -1.180   7.124  12.497  1.00  0.00     0.267 C 
HETATM   29  O2  UNL     1      -1.231   8.336  12.328  1.00  0.00    -0.264 OA
BRANCH  28  30
HETATM   30  O1  UNL     1      -0.782   6.246  11.537  1.00  0.00    -0.326 OA
HETATM   31  C1  UNL     1       0.185   6.767  10.623  1.00  0.00     0.213 C 
ENDBRANCH  28  30
ENDBRANCH   1  28
TORSDOF 7
ENDMDL
