MODEL 1
REMARK minimizedAffinity -8.00927544
REMARK CNNscore 0.640555382
REMARK CNNaffinity 6.60830927
REMARK  11 active torsions:
REMARK  status: ('A' for Active; 'I' for Inactive)
REMARK    1  A    between atoms: C2_2  and  O1_3 
REMARK    2  A    between atoms: C2_2  and  C3_4 
REMARK    3  A    between atoms: C3_4  and  N1_5 
REMARK    4  A    between atoms: N1_5  and  C4_6 
REMARK    5  A    between atoms: C4_6  and  C5_7 
REMARK    6  A    between atoms: C6_8  and  C7_9 
REMARK    7  A    between atoms: C7_9  and  O2_10 
REMARK    8  A    between atoms: C7_9  and  C8_11 
REMARK    9  A    between atoms: C8_11  and  O3_13 
REMARK   10  A    between atoms: C8_11  and  C10_14 
REMARK   11  A    between atoms: C17_22  and  C18_23 
ROOT
HETATM    1  C10 UNL     1     -12.629  44.697 -27.020  1.00  0.00     0.034 C 
HETATM    2  C11 UNL     1     -12.845  46.202 -27.314  1.00  0.00     0.012 C 
HETATM    3  C12 UNL     1     -14.266  46.552 -26.826  1.00  0.00     0.044 C 
HETATM    4  C13 UNL     1     -14.650  45.392 -25.875  1.00  0.00     0.093 C 
HETATM    5  O4  UNL     1     -13.918  45.518 -24.623  1.00  0.00    -0.363 OA
HETATM    6  C14 UNL     1     -14.054  46.752 -23.911  1.00  0.00     0.263 C 
HETATM    7  C15 UNL     1     -14.655  46.553 -22.586  1.00  0.00    -0.080 C 
HETATM    8  C16 UNL     1     -15.182  46.517 -21.503  1.00  0.00    -0.093 C 
HETATM    9  C17 UNL     1     -15.870  46.493 -20.187  1.00  0.00     0.121 C 
HETATM   10  C24 UNL     1     -17.398  46.267 -20.323  1.00  0.00     0.190 C 
HETATM   11  O5  UNL     1     -17.773  44.905 -20.574  1.00  0.00    -0.384 OA
HETATM   12  C25 UNL     1     -17.707  44.520 -21.946  1.00  0.00     0.122 C 
HETATM   13  C26 UNL     1     -17.649  42.997 -22.012  1.00  0.00     0.033 C 
HETATM   14  C27 UNL     1     -18.038  42.422 -23.380  1.00  0.00     0.013 C 
HETATM   15  C28 UNL     1     -17.869  43.411 -24.564  1.00  0.00    -0.026 C 
HETATM   16  C29 UNL     1     -18.458  42.740 -25.836  1.00  0.00     0.016 C 
HETATM   17  C30 UNL     1     -18.762  44.659 -24.258  1.00  0.00     0.071 C 
HETATM   18  C31 UNL     1     -18.878  45.043 -22.766  1.00  0.00     0.045 C 
HETATM   19  C32 UNL     1     -18.414  45.882 -25.090  1.00  0.00     0.154 C 
HETATM   20  O6  UNL     1     -19.214  46.803 -25.254  1.00  0.00    -0.293 OA
HETATM   21  C33 UNL     1     -17.058  46.027 -25.655  1.00  0.00     0.057 C 
HETATM   22  C34 UNL     1     -16.096  45.104 -25.485  1.00  0.00    -0.036 C 
HETATM   23  C35 UNL     1     -16.335  43.765 -24.774  1.00  0.00     0.026 C 
HETATM   24  C36 UNL     1     -15.530  42.580 -25.384  1.00  0.00     0.011 C 
HETATM   25  C37 UNL     1     -14.095  42.926 -25.800  1.00  0.00     0.014 C 
HETATM   26  C38 UNL     1     -14.070  44.177 -26.696  1.00  0.00    -0.002 C 
HETATM   27  C39 UNL     1     -14.895  43.902 -27.983  1.00  0.00     0.019 C 
ENDROOT
BRANCH   1  28
HETATM   28  C8  UNL     1     -11.667  43.974 -28.020  1.00  0.00     0.087 C 
HETATM   29  C9  UNL     1     -12.315  43.574 -29.356  1.00  0.00     0.049 C 
BRANCH  28  30
HETATM   30  C7  UNL     1     -10.386  44.847 -28.339  1.00  0.00     0.181 C 
BRANCH  30  31
HETATM   31  C6  UNL     1     -10.467  45.672 -29.646  1.00  0.00     0.159 C 
HETATM   32  C5  UNL     1      -9.563  45.329 -30.843  1.00  0.00     0.051 C 
HETATM   33  C41 UNL     1      -9.601  46.641 -31.633  1.00  0.00     0.014 C 
HETATM   34  C40 UNL     1      -9.741  47.703 -30.547  1.00  0.00     0.173 C 
HETATM   35  C42 UNL     1     -10.783  46.694 -32.607  1.00  0.00     0.012 C 
HETATM   36  O7  UNL     1     -10.262  47.072 -29.371  1.00  0.00    -0.382 OA
BRANCH  32  37
HETATM   37  C4  UNL     1      -8.124  44.840 -30.574  1.00  0.00     0.277 C 
BRANCH  37  38
HETATM   38  N1  UNL     1      -7.183  45.003 -31.684  1.00  0.00     0.086 N 
HETATM   39  H8  UNL     1      -6.695  44.123 -31.852  1.00  0.00     0.315 HD
BRANCH  38  40
HETATM   40  C3  UNL     1      -6.177  46.032 -31.354  1.00  0.00     0.300 C 
BRANCH  40  41
HETATM   41  C2  UNL     1      -4.926  45.807 -32.224  1.00  0.00     0.142 C 
HETATM   42  C1  UNL     1      -4.708  44.336 -32.532  1.00  0.00     0.041 C 
BRANCH  41  43
HETATM   43  O1  UNL     1      -3.778  46.312 -31.538  1.00  0.00    -0.394 OA
HETATM   44  H5  UNL     1      -4.130  47.027 -30.969  1.00  0.00     0.210 HD
ENDBRANCH  41  43
ENDBRANCH  40  41
ENDBRANCH  38  40
ENDBRANCH  37  38
ENDBRANCH  32  37
ENDBRANCH  30  31
BRANCH  30  45
HETATM   45  O2  UNL     1     -10.183  45.730 -27.229  1.00  0.00    -0.390 OA
HETATM   46  H14 UNL     1     -10.972  46.310 -27.206  1.00  0.00     0.210 HD
ENDBRANCH  30  45
ENDBRANCH  28  30
BRANCH  28  47
HETATM   47  O3  UNL     1     -11.250  42.732 -27.432  1.00  0.00    -0.387 OA
HETATM   48  H18 UNL     1     -10.553  42.934 -26.772  1.00  0.00     0.210 HD
ENDBRANCH  28  47
ENDBRANCH   1  28
BRANCH   9  49
HETATM   49  C18 UNL     1     -15.604  47.797 -19.439  1.00  0.00    -0.040 A 
HETATM   50  C19 UNL     1     -14.444  48.558 -19.688  1.00  0.00     0.008 A 
HETATM   51  C20 UNL     1     -14.217  49.756 -19.010  1.00  0.00     0.001 A 
HETATM   52  C21 UNL     1     -15.144  50.216 -18.076  1.00  0.00     0.000 A 
HETATM   53  C22 UNL     1     -16.288  49.465 -17.811  1.00  0.00     0.001 A 
HETATM   54  C23 UNL     1     -16.524  48.267 -18.487  1.00  0.00     0.008 A 
ENDBRANCH   9  49
TORSDOF 11
ENDMDL
