MODEL 1
REMARK minimizedAffinity -6.10567522
REMARK CNNscore 0.400773495
REMARK CNNaffinity 6.12096453
REMARK  10 active torsions:
REMARK  status: ('A' for Active; 'I' for Inactive)
REMARK    1  A    between atoms: O1_2  and  C2_3 
REMARK    2  A    between atoms: C11_15  and  O3_16 
REMARK    3  A    between atoms: O3_16  and  C12_17 
REMARK    4  A    between atoms: C12_17  and  C13_19 
REMARK    5  A    between atoms: C13_19  and  C14_20 
REMARK    6  A    between atoms: C14_20  and  C16_22 
REMARK    7  A    between atoms: C16_22  and  O5_23 
REMARK    8  A    between atoms: C24_32  and  O7_33 
REMARK    9  A    between atoms: C25_36  and  O8_37 
REMARK   10  A    between atoms: C26_39  and  O10_40 
ROOT
HETATM    1  C2  UNL     1      -9.050  16.443  -5.809  1.00  0.00     0.092 A 
HETATM    2  C3  UNL     1      -9.364  15.136  -6.196  1.00  0.00     0.046 A 
HETATM    3  C4  UNL     1     -10.156  14.315  -5.383  1.00  0.00    -0.049 A 
HETATM    4  C5  UNL     1     -10.641  14.825  -4.167  1.00  0.00     0.039 A 
HETATM    5  C6  UNL     1     -10.380  16.146  -3.763  1.00  0.00     0.061 A 
HETATM    6  C7  UNL     1      -9.554  16.944  -4.588  1.00  0.00     0.094 A 
HETATM    7 CL1  UNL     1      -9.010  18.518  -4.065  1.00  0.00    -0.079 Cl
HETATM    8  N1  UNL     1     -10.999  16.634  -2.557  1.00  0.00    -0.321 N 
HETATM    9  C8  UNL     1     -11.704  17.913  -2.644  1.00  0.00     0.159 C 
HETATM   10  C9  UNL     1     -11.005  15.854  -1.385  1.00  0.00     0.226 C 
HETATM   11  O2  UNL     1     -10.445  14.760  -1.299  1.00  0.00    -0.273 OA
HETATM   12  C10 UNL     1     -11.649  16.497  -0.159  1.00  0.00     0.139 C 
HETATM   13  C11 UNL     1     -11.981  15.518   0.978  1.00  0.00     0.177 C 
HETATM   14  C17 UNL     1     -12.983  14.429   0.577  1.00  0.00     0.111 A 
HETATM   15  C18 UNL     1     -12.526  13.002   0.638  1.00  0.00     0.051 C 
HETATM   16  O6  UNL     1     -13.782  14.730  -0.590  1.00  0.00    -0.366 OA
HETATM   17  C19 UNL     1     -14.471  14.820   0.648  1.00  0.00     0.165 A 
HETATM   18  C20 UNL     1     -15.670  13.932   0.862  1.00  0.00     0.043 C 
HETATM   19  C21 UNL     1     -15.841  13.740   2.382  1.00  0.00     0.015 C 
HETATM   20  C22 UNL     1     -15.790  12.568   0.145  1.00  0.00     0.143 C 
HETATM   21  C23 UNL     1     -15.633  12.602  -1.371  1.00  0.00     0.097 C 
HETATM   22  C24 UNL     1     -15.947  11.206  -1.917  1.00  0.00     0.166 C 
HETATM   23  N2  UNL     1     -17.321  10.843  -1.565  1.00  0.00    -0.316 N 
ATOM     24  H2  UNL     1     -17.913  10.289  -2.183  1.00  0.00     0.166 HD
HETATM   25  C25 UNL     1     -17.728  11.266  -0.433  1.00  0.00     0.260 C 
HETATM   26  O9  UNL     1     -17.116  12.063   0.454  1.00  0.00    -0.311 OA
HETATM   27  C26 UNL     1     -15.821  11.150  -3.494  1.00  0.00     0.199 C 
HETATM   28  C28 UNL     1     -14.487  11.661  -4.004  1.00  0.00     0.010 C 
HETATM   29  C29 UNL     1     -13.472  10.914  -4.468  1.00  0.00    -0.001 C 
HETATM   30  C30 UNL     1     -12.169  11.449  -4.784  1.00  0.00     0.002 C 
HETATM   31  C31 UNL     1     -11.861  12.430  -5.654  1.00  0.00    -0.080 C 
HETATM   32  C32 UNL     1     -12.845  13.119  -6.562  1.00  0.00     0.043 C 
HETATM   33  C33 UNL     1     -10.418  12.879  -5.795  1.00  0.00     0.072 C 
ENDROOT
BRANCH  13  34
HETATM   34  O3  UNL     1     -10.795  14.929   1.547  1.00  0.00    -0.312 OA
BRANCH  34  35
HETATM   35  C12 UNL     1     -10.335  15.469   2.704  1.00  0.00     0.259 C 
HETATM   36  O4  UNL     1     -10.466  16.640   3.034  1.00  0.00    -0.265 OA
BRANCH  35  37
HETATM   37  C13 UNL     1      -9.627  14.420   3.525  1.00  0.00     0.117 C 
BRANCH  37  38
HETATM   38  C14 UNL     1      -9.640  14.763   5.024  1.00  0.00     0.014 C 
HETATM   39  C15 UNL     1      -8.618  15.854   5.351  1.00  0.00     0.012 C 
BRANCH  38  40
HETATM   40  C16 UNL     1     -11.038  15.212   5.462  1.00  0.00     0.168 C 
BRANCH  40  41
HETATM   41  O5  UNL     1     -11.880  14.091   5.686  1.00  0.00    -0.400 OA
HETATM   42  H20 UNL     1     -11.486  13.563   6.403  1.00  0.00     0.209 HD
ENDBRANCH  40  41
ENDBRANCH  38  40
ENDBRANCH  37  38
ENDBRANCH  35  37
ENDBRANCH  34  35
ENDBRANCH  13  34
BRANCH   1  43
HETATM   43  O1  UNL     1      -8.267  17.293  -6.551  1.00  0.00    -0.354 OA
HETATM   44  C1  UNL     1      -6.886  16.988  -6.678  1.00  0.00     0.210 C 
ENDBRANCH   1  43
BRANCH  22  45
HETATM   45  O7  UNL     1     -15.001  10.279  -1.375  1.00  0.00    -0.368 OA
HETATM   46  H32 UNL     1     -15.099   9.492  -1.949  1.00  0.00     0.212 HD
ENDBRANCH  22  45
BRANCH  25  47
HETATM   47  O8  UNL     1     -18.955  10.938  -0.017  1.00  0.00    -0.327 OA
HETATM   48  H33 UNL     1     -19.331  10.349  -0.690  1.00  0.00     0.221 HD
ENDBRANCH  25  47
BRANCH  27  49
HETATM   49  O10 UNL     1     -15.961   9.765  -3.890  1.00  0.00    -0.382 OA
HETATM   50  C27 UNL     1     -14.886   8.962  -3.425  1.00  0.00     0.202 C 
ENDBRANCH  27  49
TORSDOF 10
ENDMDL
