MODEL 1
REMARK minimizedAffinity -8.50644588
REMARK CNNscore 0.598783612
REMARK CNNaffinity 6.49874735
REMARK  7 active torsions:
REMARK  status: ('A' for Active; 'I' for Inactive)
REMARK    1  A    between atoms: C2_2  and  C4_4 
REMARK    2  A    between atoms: C7_7  and  O1_9 
REMARK    3  A    between atoms: C9_10  and  C10_11 
REMARK    4  A    between atoms: C11_12  and  C12_13 
REMARK    5  A    between atoms: C14_15  and  C15_16 
REMARK    6  A    between atoms: C24_26  and  C26_28 
REMARK    7  A    between atoms: C29_32  and  O4_34 
ROOT
HETATM    1  C15 UNL     1      -4.820  47.914 -28.671  1.00  0.00     0.149 C 
HETATM    2  C16 UNL     1      -5.721  46.788 -29.190  1.00  0.00     0.054 C 
HETATM    3  C17 UNL     1      -6.530  47.388 -30.368  1.00  0.00     0.050 C 
HETATM    4  C18 UNL     1      -5.548  48.519 -30.772  1.00  0.00     0.272 C 
HETATM    5  O2  UNL     1      -4.427  48.082 -31.537  1.00  0.00    -0.360 OA
HETATM    6  C19 UNL     1      -4.659  48.066 -32.933  1.00  0.00     0.171 C 
HETATM    7  C20 UNL     1      -5.127  46.697 -33.392  1.00  0.00     0.027 C 
HETATM    8  C21 UNL     1      -5.627  45.780 -32.279  1.00  0.00     0.012 C 
HETATM    9  C22 UNL     1      -6.834  46.286 -31.457  1.00  0.00     0.032 C 
HETATM   10  C23 UNL     1      -8.042  46.610 -32.364  1.00  0.00    -0.066 C 
HETATM   11  C24 UNL     1      -8.793  45.685 -33.014  1.00  0.00    -0.021 C 
HETATM   12  C25 UNL     1      -9.950  46.009 -33.919  1.00  0.00     0.052 C 
HETATM   13  C27 UNL     1      -8.371  48.081 -32.437  1.00  0.00     0.038 C 
HETATM   14  C28 UNL     1      -8.654  48.681 -31.063  1.00  0.00     0.042 C 
HETATM   15  C29 UNL     1      -7.918  47.993 -29.886  1.00  0.00     0.067 C 
HETATM   16  C30 UNL     1      -8.856  46.953 -29.232  1.00  0.00     0.047 C 
HETATM   17  O5  UNL     1      -5.006  49.028 -29.546  1.00  0.00    -0.351 OA
ENDROOT
BRANCH   1  18
HETATM   18  C14 UNL     1      -5.126  48.347 -27.265  1.00  0.00     0.011 C 
HETATM   19  C12 UNL     1      -4.266  48.507 -26.235  1.00  0.00    -0.064 C 
HETATM   20  C13 UNL     1      -2.776  48.313 -26.358  1.00  0.00     0.048 C 
BRANCH  19  21
HETATM   21  C11 UNL     1      -4.803  48.928 -24.942  1.00  0.00     0.003 C 
HETATM   22  C10 UNL     1      -4.406  48.495 -23.733  1.00  0.00    -0.018 C 
BRANCH  22  23
HETATM   23  C9  UNL     1      -4.938  48.945 -22.387  1.00  0.00     0.050 C 
HETATM   24  C4  UNL     1      -4.581  48.093 -21.127  1.00  0.00     0.024 C 
HETATM   25  C5  UNL     1      -5.722  48.443 -20.157  1.00  0.00     0.013 C 
HETATM   26  C6  UNL     1      -6.955  48.426 -21.047  1.00  0.00     0.039 C 
HETATM   27  C7  UNL     1      -6.497  49.124 -22.337  1.00  0.00     0.062 C 
HETATM   28  C8  UNL     1      -7.292  48.601 -23.532  1.00  0.00     0.046 C 
BRANCH  24  29
HETATM   29  C2  UNL     1      -3.170  48.304 -20.578  1.00  0.00    -0.088 C 
HETATM   30  C1  UNL     1      -2.857  49.139 -19.570  1.00  0.00     0.014 C 
HETATM   31  C3  UNL     1      -2.079  47.465 -21.198  1.00  0.00     0.043 C 
ENDBRANCH  24  29
BRANCH  27  32
HETATM   32  O1  UNL     1      -6.802  50.524 -22.238  1.00  0.00    -0.390 OA
HETATM   33  H14 UNL     1      -6.387  50.874 -21.432  1.00  0.00     0.210 HD
ENDBRANCH  27  32
ENDBRANCH  22  23
ENDBRANCH  19  21
ENDBRANCH   1  18
BRANCH  15  34
HETATM   34  O4  UNL     1      -7.732  48.996 -28.884  1.00  0.00    -0.389 OA
HETATM   35  H44 UNL     1      -8.593  49.396 -28.671  1.00  0.00     0.210 HD
ENDBRANCH  15  34
BRANCH  11  36
HETATM   36  C26 UNL     1      -8.539  44.215 -32.900  1.00  0.00     0.265 C 
HETATM   37  O3  UNL     1      -9.353  43.409 -32.472  1.00  0.00    -0.302 OA
ENDBRANCH  11  36
TORSDOF 7
ENDMDL
