MODEL 1
REMARK minimizedAffinity -8.37107086
REMARK CNNscore 0.617059469
REMARK CNNaffinity 6.71412468
REMARK  10 active torsions:
REMARK  status: ('A' for Active; 'I' for Inactive)
REMARK    1  A    between atoms: O1_2  and  C2_3 
REMARK    2  A    between atoms: C4_5  and  O2_6 
REMARK    3  A    between atoms: O2_6  and  C5_7 
REMARK    4  A    between atoms: C8_10  and  C9_11 
REMARK    5  A    between atoms: N1_12  and  C10_14 
REMARK    6  A    between atoms: C10_14  and  C11_15 
REMARK    7  A    between atoms: C21_27  and  C22_28 
REMARK    8  A    between atoms: C28_36  and  O5_37 
REMARK    9  A    between atoms: C32_41  and  O6_42 
REMARK   10  A    between atoms: C36_47  and  O8_48 
ROOT
HETATM    1  C5  UNL     1       0.388  55.282  -7.411  1.00  0.00     0.127 C 
HETATM    2  C6  UNL     1      -0.366  55.918  -8.588  1.00  0.00     0.033 C 
HETATM    3  C7  UNL     1      -0.401  55.214  -9.948  1.00  0.00     0.021 C 
HETATM    4  C8  UNL     1       0.402  53.890 -10.120  1.00  0.00     0.026 C 
HETATM    5  C16 UNL     1      -0.267  53.082 -11.316  1.00  0.00     0.009 C 
HETATM    6  C17 UNL     1       0.632  52.743 -12.520  1.00  0.00     0.007 C 
HETATM    7  C18 UNL     1      -0.200  52.219 -13.696  1.00  0.00     0.013 C 
HETATM    8  C19 UNL     1      -1.025  50.952 -13.345  1.00  0.00    -0.005 C 
HETATM    9  C20 UNL     1      -0.072  49.735 -13.259  1.00  0.00     0.019 C 
HETATM   10  C21 UNL     1      -2.176  50.696 -14.369  1.00  0.00     0.028 C 
HETATM   11  C26 UNL     1      -3.263  51.710 -13.972  1.00  0.00     0.013 C 
HETATM   12  C27 UNL     1      -3.084  51.968 -12.469  1.00  0.00     0.040 C 
HETATM   13  C28 UNL     1      -1.842  51.161 -12.031  1.00  0.00     0.070 C 
HETATM   14  C29 UNL     1      -1.019  51.796 -10.872  1.00  0.00     0.026 C 
HETATM   15  C30 UNL     1      -1.853  52.077  -9.611  1.00  0.00     0.011 C 
HETATM   16  C31 UNL     1      -1.040  52.625  -8.432  1.00  0.00     0.039 C 
HETATM   17  C32 UNL     1       0.381  53.097  -8.793  1.00  0.00     0.073 C 
HETATM   18  C33 UNL     1       1.009  53.908  -7.652  1.00  0.00     0.071 C 
ENDROOT
BRANCH   1  19
HETATM   19  O2  UNL     1      -0.567  55.169  -6.343  1.00  0.00    -0.356 OA
BRANCH  19  20
HETATM   20  C4  UNL     1      -0.216  55.891  -5.156  1.00  0.00     0.263 C 
HETATM   21  C3  UNL     1       1.316  55.984  -5.124  1.00  0.00     0.095 C 
HETATM   22  C2  UNL     1       1.832  57.093  -4.200  1.00  0.00     0.156 C 
HETATM   23  C36 UNL     1       0.741  57.463  -3.180  1.00  0.00     0.175 C 
HETATM   24  C34 UNL     1      -0.525  57.933  -3.928  1.00  0.00     0.151 C 
HETATM   25  O7  UNL     1      -0.803  57.179  -5.124  1.00  0.00    -0.354 OA
HETATM   26  C35 UNL     1      -1.762  57.878  -3.025  1.00  0.00     0.042 C 
BRANCH  22  27
HETATM   27  O1  UNL     1       2.171  58.209  -5.037  1.00  0.00    -0.388 OA
HETATM   28  C1  UNL     1       3.528  58.617  -4.908  1.00  0.00     0.202 C 
ENDBRANCH  22  27
BRANCH  23  29
HETATM   29  O8  UNL     1       1.209  58.432  -2.244  1.00  0.00    -0.390 OA
HETATM   30  H50 UNL     1       0.574  58.495  -1.509  1.00  0.00     0.210 HD
ENDBRANCH  23  29
ENDBRANCH  19  20
ENDBRANCH   1  19
BRANCH  17  31
HETATM   31  O6  UNL     1       1.196  51.918  -8.946  1.00  0.00    -0.389 OA
HETATM   32  H42 UNL     1       1.243  51.472  -8.075  1.00  0.00     0.210 HD
ENDBRANCH  17  31
BRANCH   4  33
HETATM   33  C9  UNL     1       1.872  54.194 -10.447  1.00  0.00     0.069 C 
HETATM   34  N1  UNL     1       2.271  55.352 -10.842  1.00  0.00    -0.397 N 
ATOM     35  H1  UNL     1       1.638  56.144 -10.949  1.00  0.00     0.159 HD
BRANCH  34  36
HETATM   36  C10 UNL     1       3.711  55.445 -11.125  1.00  0.00     0.158 C 
BRANCH  36  37
HETATM   37  C11 UNL     1       4.497  55.625  -9.857  1.00  0.00    -0.025 A 
HETATM   38  C12 UNL     1       5.771  55.061  -9.720  1.00  0.00     0.011 A 
HETATM   39  C13 UNL     1       6.487  55.250  -8.545  1.00  0.00     0.018 A 
HETATM   40  C14 UNL     1       5.898  55.989  -7.529  1.00  0.00     0.087 A 
HETATM   41  N2  UNL     1       4.675  56.553  -7.626  1.00  0.00    -0.375 N 
HETATM   42  C15 UNL     1       4.011  56.368  -8.789  1.00  0.00     0.096 A 
ATOM     43  H2  UNL     1       4.273  57.092  -6.860  1.00  0.00     0.164 HD
ENDBRANCH  36  37
ENDBRANCH  34  36
ENDBRANCH   4  33
BRANCH  13  44
HETATM   44  O5  UNL     1      -2.316  49.873 -11.604  1.00  0.00    -0.389 OA
HETATM   45  H36 UNL     1      -2.929  49.981 -10.856  1.00  0.00     0.210 HD
ENDBRANCH  13  44
BRANCH  10  46
HETATM   46  C22 UNL     1      -1.804  50.689 -15.827  1.00  0.00    -0.045 A 
HETATM   47  C23 UNL     1      -0.605  50.713 -16.403  1.00  0.00     0.087 A 
HETATM   48  C24 UNL     1      -0.818  50.788 -17.849  1.00  0.00     0.283 A 
HETATM   49  O3  UNL     1       0.074  50.847 -18.681  1.00  0.00    -0.260 OA
HETATM   50  O4  UNL     1      -2.151  50.805 -18.107  1.00  0.00    -0.314 OA
HETATM   51  C25 UNL     1      -2.866  50.723 -16.871  1.00  0.00     0.213 A 
ENDBRANCH  10  46
TORSDOF 10
ENDMDL
