MODEL 1
REMARK minimizedAffinity -9.77903938
REMARK  7 active torsions:
REMARK  status: ('A' for Active; 'I' for Inactive)
REMARK    1  A    between atoms: C2_2  and  C30_33 
REMARK    2  A    between atoms: C3_3  and  C4_4 
REMARK    3  A    between atoms: C4_4  and  C5_5 
REMARK    4  A    between atoms: C5_5  and  C6_6 
REMARK    5  A    between atoms: C6_6  and  C8_8 
REMARK    6  A    between atoms: C10_10  and  O1_11 
REMARK    7  A    between atoms: C30_33  and  O5_35 
ROOT
HETATM    1  C8  UNL     1      -5.748   7.076  14.681  1.00  0.00     0.001 C 
HETATM    2  C9  UNL     1      -5.645   8.424  15.441  1.00  0.00     0.038 C 
HETATM    3  C10 UNL     1      -4.208   8.949  15.209  1.00  0.00     0.131 C 
HETATM    4  C11 UNL     1      -3.662   8.105  14.024  1.00  0.00     0.014 C 
HETATM    5  C12 UNL     1      -4.184   8.731  12.690  1.00  0.00     0.023 C 
HETATM    6  C13 UNL     1      -2.156   7.949  13.812  1.00  0.00    -0.058 C 
HETATM    7  C14 UNL     1      -1.645   6.865  13.171  1.00  0.00    -0.000 C 
HETATM    8  C15 UNL     1      -2.591   5.732  12.775  1.00  0.00     0.157 C 
HETATM    9  O2  UNL     1      -2.198   4.786  12.094  1.00  0.00    -0.293 OA
HETATM   10  C16 UNL     1      -4.050   5.757  13.217  1.00  0.00     0.094 C 
HETATM   11  C17 UNL     1      -4.262   6.706  14.395  1.00  0.00    -0.019 C 
HETATM   12  C18 UNL     1      -3.606   6.055  15.651  1.00  0.00     0.017 C 
HETATM   13  C19 UNL     1      -0.140   6.712  12.829  1.00  0.00    -0.008 C 
HETATM   14  C20 UNL     1       0.417   5.639  13.796  1.00  0.00     0.021 C 
HETATM   15  C21 UNL     1       0.079   6.230  11.359  1.00  0.00     0.022 C 
HETATM   16  C22 UNL     1       1.371   6.687  10.687  1.00  0.00     0.080 C 
HETATM   17  C23 UNL     1       2.459   6.982  11.688  1.00  0.00     0.135 C 
HETATM   18  O3  UNL     1       3.560   6.437  11.606  1.00  0.00    -0.297 OA
HETATM   19  C24 UNL     1       2.147   8.053  12.738  1.00  0.00     0.018 C 
HETATM   20  C25 UNL     1       2.972   7.793  14.012  1.00  0.00     0.023 C 
HETATM   21  C26 UNL     1       2.624   9.397  12.147  1.00  0.00     0.023 C 
HETATM   22  C27 UNL     1       0.596   8.098  12.971  1.00  0.00     0.014 C 
HETATM   23  C28 UNL     1       0.197   8.809  14.268  1.00  0.00     0.011 C 
HETATM   24  C29 UNL     1      -1.300   9.098  14.285  1.00  0.00     0.036 C 
ENDROOT
BRANCH   1  25
HETATM   25  C6  UNL     1      -6.679   5.988  15.293  1.00  0.00    -0.013 C 
HETATM   26  C7  UNL     1      -7.390   6.390  16.591  1.00  0.00     0.010 C 
BRANCH  25  27
HETATM   27  C5  UNL     1      -7.726   5.557  14.231  1.00  0.00     0.008 C 
BRANCH  27  28
HETATM   28  C4  UNL     1      -7.513   4.141  13.686  1.00  0.00     0.028 C 
BRANCH  28  29
HETATM   29  C3  UNL     1      -6.555   4.143  12.526  1.00  0.00    -0.013 C 
HETATM   30  C2  UNL     1      -6.166   3.107  11.755  1.00  0.00     0.008 C 
HETATM   31  C1  UNL     1      -5.122   3.265  10.688  1.00  0.00     0.055 C 
BRANCH  30  32
HETATM   32  C30 UNL     1      -6.687   1.724  11.873  1.00  0.00     0.171 C 
HETATM   33  O4  UNL     1      -6.217   0.747  11.317  1.00  0.00    -0.646 OA
BRANCH  32  34
HETATM   34  O5  UNL     1      -7.818   1.635  12.589  1.00  0.00    -0.773 OA
HETATM   35  H44 UNL     1      -8.046   0.684  12.532  1.00  0.00     0.167 HD
ENDBRANCH  32  34
ENDBRANCH  30  32
ENDBRANCH  28  29
ENDBRANCH  27  28
ENDBRANCH  25  27
ENDBRANCH   1  25
BRANCH   3  36
HETATM   36  O1  UNL     1      -4.218  10.345  14.947  1.00  0.00    -0.394 OA
HETATM   37  H17 UNL     1      -4.645  10.782  15.704  1.00  0.00     0.210 HD
ENDBRANCH   3  36
TORSDOF 7
ENDMDL
