MODEL 1
REMARK minimizedAffinity -10.1032391
REMARK CNNscore 0.711318612
REMARK CNNaffinity 7.51643038
REMARK  10 active torsions:
REMARK  status: ('A' for Active; 'I' for Inactive)
REMARK    1  A    between atoms: C19_21  and  O3_22 
REMARK    2  A    between atoms: C19_21  and  C20_23 
REMARK    3  A    between atoms: C20_23  and  C21_25 
REMARK    4  A    between atoms: C21_25  and  O5_26 
REMARK    5  A    between atoms: O5_26  and  C22_27 
REMARK    6  A    between atoms: C22_27  and  C23_29 
REMARK    7  A    between atoms: C23_29  and  C24_30 
REMARK    8  A    between atoms: C24_30  and  C25_31 
REMARK       I    between atoms: C25_31  and  N1_33 
REMARK    9  A    between atoms: N1_33  and  C26_34 
REMARK   10  A    between atoms: C26_34  and  C27_35 
ROOT
HETATM    1  C1  UNL     1      -0.306  49.848 -21.002  1.00  0.00     0.021 C 
HETATM    2  C2  UNL     1      -0.959  51.235 -21.189  1.00  0.00    -0.009 C 
HETATM    3  C3  UNL     1      -0.157  52.057 -22.245  1.00  0.00     0.022 C 
HETATM    4  C4  UNL     1       1.192  52.557 -21.745  1.00  0.00     0.084 C 
HETATM    5  C5  UNL     1       1.018  53.357 -20.484  1.00  0.00     0.149 C 
HETATM    6  O1  UNL     1       1.787  54.265 -20.167  1.00  0.00    -0.293 OA
HETATM    7  C6  UNL     1      -0.061  52.958 -19.548  1.00  0.00     0.053 C 
HETATM    8  C7  UNL     1      -0.917  51.962 -19.832  1.00  0.00    -0.067 C 
HETATM    9  C8  UNL     1      -1.888  51.493 -18.771  1.00  0.00     0.035 C 
HETATM   10  C9  UNL     1      -3.316  51.422 -19.289  1.00  0.00     0.010 C 
HETATM   11  C10 UNL     1      -3.407  50.564 -20.560  1.00  0.00     0.003 C 
HETATM   12  C11 UNL     1      -2.457  51.134 -21.656  1.00  0.00     0.072 C 
HETATM   13  C12 UNL     1      -2.686  50.400 -22.991  1.00  0.00     0.133 C 
HETATM   14  O2  UNL     1      -1.777  49.999 -23.714  1.00  0.00    -0.297 OA
HETATM   15  C13 UNL     1      -4.124  50.281 -23.471  1.00  0.00     0.091 C 
HETATM   16  C14 UNL     1      -4.997  49.656 -22.376  1.00  0.00     0.005 C 
HETATM   17  C15 UNL     1      -4.565  48.181 -22.157  1.00  0.00     0.019 C 
HETATM   18  C16 UNL     1      -4.841  50.533 -21.107  1.00  0.00     0.002 C 
HETATM   19  C17 UNL     1      -5.957  50.039 -20.193  1.00  0.00     0.009 C 
HETATM   20  C18 UNL     1      -7.096  49.624 -21.148  1.00  0.00     0.047 C 
HETATM   21  C19 UNL     1      -6.540  49.761 -22.596  1.00  0.00     0.128 C 
ENDROOT
BRANCH  21  22
HETATM   22  O3  UNL     1      -6.857  51.095 -23.006  1.00  0.00    -0.381 OA
HETATM   23  H25 UNL     1      -7.526  51.056 -23.720  1.00  0.00     0.211 HD
ENDBRANCH  21  22
BRANCH  21  24
HETATM   24  C20 UNL     1      -7.122  48.674 -23.550  1.00  0.00     0.185 C 
HETATM   25  O4  UNL     1      -8.336  48.462 -23.636  1.00  0.00    -0.292 OA
BRANCH  24  26
HETATM   26  C21 UNL     1      -6.147  47.789 -24.317  1.00  0.00     0.260 C 
BRANCH  26  27
HETATM   27  O5  UNL     1      -5.671  48.455 -25.481  1.00  0.00    -0.314 OA
BRANCH  27  28
HETATM   28  C22 UNL     1      -5.999  47.848 -26.649  1.00  0.00     0.259 C 
HETATM   29  O6  UNL     1      -7.032  47.223 -26.852  1.00  0.00    -0.265 OA
BRANCH  28  30
HETATM   30  C23 UNL     1      -4.921  48.069 -27.683  1.00  0.00     0.120 C 
BRANCH  30  31
HETATM   31  C24 UNL     1      -3.643  48.545 -27.008  1.00  0.00     0.112 C 
BRANCH  31  32
HETATM   32  C25 UNL     1      -3.173  49.875 -27.571  1.00  0.00     0.218 C 
HETATM   33  O7  UNL     1      -3.431  50.245 -28.711  1.00  0.00    -0.274 OA
HETATM   34  N1  UNL     1      -2.430  50.606 -26.677  1.00  0.00    -0.355 N 
HETATM   35  H32 UNL     1      -2.297  50.265 -25.735  1.00  0.00     0.162 HD
BRANCH  34  36
HETATM   36  C26 UNL     1      -1.877  51.900 -27.008  1.00  0.00     0.187 C 
BRANCH  36  37
HETATM   37  C27 UNL     1      -0.399  51.791 -27.073  1.00  0.00     0.070 A 
HETATM   38  C28 UNL     1       0.508  51.812 -28.115  1.00  0.00     0.036 A 
HETATM   39  C29 UNL     1       1.791  51.700 -27.523  1.00  0.00     0.027 A 
HETATM   40  C30 UNL     1       1.587  51.610 -26.167  1.00  0.00     0.142 A 
HETATM   41  O8  UNL     1       0.259  51.665 -25.884  1.00  0.00    -0.325 OA
ENDBRANCH  36  37
ENDBRANCH  34  36
ENDBRANCH  31  32
ENDBRANCH  30  31
ENDBRANCH  28  30
ENDBRANCH  27  28
ENDBRANCH  26  27
ENDBRANCH  24  26
ENDBRANCH  21  24
TORSDOF 10
ENDMDL
