MODEL 1
REMARK minimizedAffinity -6.9254241
REMARK CNNscore 0.679234803
REMARK CNNaffinity 6.35424566
REMARK  5 active torsions:
REMARK  status: ('A' for Active; 'I' for Inactive)
REMARK    1  A    between atoms: C2_2  and  C4_4 
REMARK    2  A    between atoms: C7_7  and  C8_8 
REMARK    3  A    between atoms: C8_8  and  O2_10 
REMARK    4  A    between atoms: C11_13  and  C12_14 
REMARK    5  A    between atoms: C12_14  and  O4_16 
ROOT
HETATM    1  C4  UNL     1      -2.298  52.123 -11.634  1.00  0.00     0.019 C 
HETATM    2  C5  UNL     1      -3.014  50.757 -11.808  1.00  0.00     0.011 C 
HETATM    3  C6  UNL     1      -2.015  49.671 -11.378  1.00  0.00     0.021 C 
HETATM    4  C7  UNL     1      -0.646  50.338 -11.556  1.00  0.00     0.050 C 
HETATM    5  C9  UNL     1       0.495  49.711 -10.744  1.00  0.00     0.022 C 
HETATM    6  C10 UNL     1       1.750  50.611 -10.781  1.00  0.00     0.023 C 
HETATM    7  C11 UNL     1       1.504  52.074 -10.260  1.00  0.00     0.057 C 
HETATM    8  C13 UNL     1       0.286  52.678 -11.077  1.00  0.00     0.011 C 
HETATM    9  C14 UNL     1      -0.012  54.143 -10.729  1.00  0.00     0.007 C 
HETATM   10  C15 UNL     1       1.227  55.040 -10.777  1.00  0.00     0.006 C 
HETATM   11  C16 UNL     1       2.409  54.483  -9.951  1.00  0.00     0.003 C 
HETATM   12  C17 UNL     1       3.576  55.534  -9.715  1.00  0.00    -0.035 C 
HETATM   13  C18 UNL     1       4.061  56.184 -11.043  1.00  0.00     0.016 C 
HETATM   14  C19 UNL     1       3.004  56.714  -8.857  1.00  0.00     0.017 C 
HETATM   15  C20 UNL     1       4.061  57.469  -8.073  1.00  0.00     0.080 C 
HETATM   16  C21 UNL     1       4.817  56.569  -7.121  1.00  0.00     0.135 C 
HETATM   17  O5  UNL     1       5.395  57.071  -6.151  1.00  0.00    -0.297 OA
HETATM   18  C22 UNL     1       4.874  55.059  -7.432  1.00  0.00     0.017 C 
HETATM   19  C23 UNL     1       3.757  54.366  -6.641  1.00  0.00     0.023 C 
HETATM   20  C24 UNL     1       6.217  54.530  -6.872  1.00  0.00     0.023 C 
HETATM   21  C25 UNL     1       4.832  54.902  -8.998  1.00  0.00     0.009 C 
HETATM   22  C26 UNL     1       5.170  53.500  -9.544  1.00  0.00     0.007 C 
HETATM   23  C27 UNL     1       3.995  52.532  -9.588  1.00  0.00     0.011 C 
HETATM   24  C28 UNL     1       2.798  53.034 -10.432  1.00  0.00    -0.022 C 
HETATM   25  C29 UNL     1       3.259  53.018 -11.921  1.00  0.00     0.017 C 
HETATM   26  C30 UNL     1      -0.945  51.744 -10.986  1.00  0.00     0.018 C 
ENDROOT
BRANCH   4  27
HETATM   27  C8  UNL     1      -0.288  50.188 -13.045  1.00  0.00     0.149 C 
HETATM   28  O1  UNL     1       0.004  51.109 -13.793  1.00  0.00    -0.649 OA
BRANCH  27  29
HETATM   29  O2  UNL     1      -0.276  48.936 -13.521  1.00  0.00    -0.776 OA
HETATM   30  H11 UNL     1       0.025  49.038 -14.448  1.00  0.00     0.167 HD
ENDBRANCH  27  29
ENDBRANCH   4  27
BRANCH   1  31
HETATM   31  C2  UNL     1      -3.177  53.111 -10.885  1.00  0.00    -0.088 C 
HETATM   32  C1  UNL     1      -4.429  52.785 -10.521  1.00  0.00     0.014 C 
HETATM   33  C3  UNL     1      -2.610  54.458 -10.521  1.00  0.00     0.043 C 
ENDBRANCH   1  31
BRANCH   7  34
HETATM   34  C12 UNL     1       1.127  51.965  -8.754  1.00  0.00     0.149 C 
HETATM   35  O3  UNL     1       1.719  51.344  -7.886  1.00  0.00    -0.649 OA
BRANCH  34  36
HETATM   36  O4  UNL     1       0.017  52.646  -8.406  1.00  0.00    -0.776 OA
HETATM   37  H16 UNL     1      -0.071  52.484  -7.444  1.00  0.00     0.167 HD
ENDBRANCH  34  36
ENDBRANCH   7  34
TORSDOF 5
ENDMDL
