MODEL 1
REMARK minimizedAffinity -8.71918964
REMARK CNNscore 0.701365232
REMARK CNNaffinity 7.11115694
REMARK  8 active torsions:
REMARK  status: ('A' for Active; 'I' for Inactive)
REMARK    1  A    between atoms: C4_4  and  C5_5 
REMARK    2  A    between atoms: C5_5  and  C6_6 
REMARK    3  A    between atoms: C6_6  and  C7_7 
REMARK    4  A    between atoms: C7_7  and  C9_9 
REMARK    5  A    between atoms: C22_22  and  O1_23 
REMARK    6  A    between atoms: C24_25  and  O2_26 
REMARK    7  A    between atoms: C25_27  and  C27_29 
REMARK    8  A    between atoms: C27_29  and  O4_31 
ROOT
HETATM    1  C9  UNL     1      -6.198   6.848  14.758  1.00  0.00    -0.002 C 
HETATM    2  C10 UNL     1      -6.025   8.174  15.538  1.00  0.00     0.007 C 
HETATM    3  C11 UNL     1      -4.600   8.687  15.225  1.00  0.00     0.015 C 
HETATM    4  C12 UNL     1      -4.110   7.840  14.027  1.00  0.00    -0.005 C 
HETATM    5  C13 UNL     1      -4.678   8.513  12.739  1.00  0.00     0.021 C 
HETATM    6  C14 UNL     1      -2.625   7.660  13.736  1.00  0.00    -0.000 C 
HETATM    7  C15 UNL     1      -2.159   6.544  13.110  1.00  0.00    -0.058 C 
HETATM    8  C16 UNL     1      -3.123   5.399  12.749  1.00  0.00     0.036 C 
HETATM    9  C17 UNL     1      -4.596   5.518  13.198  1.00  0.00     0.015 C 
HETATM   10  C18 UNL     1      -4.738   6.446  14.405  1.00  0.00    -0.028 C 
HETATM   11  C19 UNL     1      -4.043   5.765  15.621  1.00  0.00     0.016 C 
HETATM   12  C20 UNL     1      -0.647   6.315  12.769  1.00  0.00     0.011 C 
HETATM   13  C21 UNL     1      -0.080   5.425  13.902  1.00  0.00     0.023 C 
HETATM   14  C22 UNL     1      -0.449   5.597  11.382  1.00  0.00     0.133 C 
HETATM   15  C23 UNL     1       0.998   5.589  10.894  1.00  0.00     0.065 C 
HETATM   16  C24 UNL     1       1.594   6.986  10.838  1.00  0.00     0.139 C 
HETATM   17  C25 UNL     1       1.552   7.726  12.201  1.00  0.00     0.072 C 
HETATM   18  C26 UNL     1       2.070   9.166  11.970  1.00  0.00     0.030 C 
HETATM   19  C28 UNL     1       0.054   7.727  12.682  1.00  0.00     0.029 C 
HETATM   20  C29 UNL     1      -0.213   8.546  13.950  1.00  0.00     0.090 C 
HETATM   21  C30 UNL     1      -1.693   8.768  14.116  1.00  0.00     0.157 C 
HETATM   22  O5  UNL     1      -2.112   9.830  14.570  1.00  0.00    -0.293 OA
ENDROOT
BRANCH   1  23
HETATM   23  C7  UNL     1      -7.145   5.784  15.392  1.00  0.00    -0.014 C 
HETATM   24  C8  UNL     1      -7.438   4.714  14.323  1.00  0.00     0.010 C 
BRANCH  23  25
HETATM   25  C6  UNL     1      -8.477   6.329  15.963  1.00  0.00     0.008 C 
BRANCH  25  26
HETATM   26  C5  UNL     1      -9.133   7.427  15.108  1.00  0.00     0.028 C 
BRANCH  26  27
HETATM   27  C4  UNL     1     -10.404   7.003  14.427  1.00  0.00    -0.025 C 
HETATM   28  C2  UNL     1     -11.327   7.779  13.825  1.00  0.00    -0.091 C 
HETATM   29  C1  UNL     1     -12.540   7.160  13.180  1.00  0.00     0.042 C 
HETATM   30  C3  UNL     1     -11.283   9.280  13.737  1.00  0.00     0.042 C 
ENDBRANCH  26  27
ENDBRANCH  25  26
ENDBRANCH  23  25
ENDBRANCH   1  23
BRANCH  14  31
HETATM   31  O1  UNL     1      -0.859   4.227  11.440  1.00  0.00    -0.394 OA
HETATM   32  H35 UNL     1      -0.813   3.864  10.537  1.00  0.00     0.210 HD
ENDBRANCH  14  31
BRANCH  17  33
HETATM   33  C27 UNL     1       2.494   7.140  13.253  1.00  0.00     0.151 C 
HETATM   34  O3  UNL     1       3.710   7.236  13.263  1.00  0.00    -0.649 OA
BRANCH  33  35
HETATM   35  O4  UNL     1       1.892   6.412  14.214  1.00  0.00    -0.776 OA
HETATM   36  H43 UNL     1       2.645   6.092  14.760  1.00  0.00     0.167 HD
ENDBRANCH  33  35
ENDBRANCH  17  33
BRANCH  16  37
HETATM   37  O2  UNL     1       2.902   6.918  10.275  1.00  0.00    -0.394 OA
HETATM   38  H39 UNL     1       3.468   6.452  10.924  1.00  0.00     0.210 HD
ENDBRANCH  16  37
TORSDOF 8
ENDMDL
