MODEL 1
REMARK minimizedAffinity -7.87109947
REMARK  13 active torsions:
REMARK  status: ('A' for Active; 'I' for Inactive)
REMARK    1  A    between atoms: C2_2  and  C3_3 
REMARK    2  A    between atoms: C3_3  and  C4_4 
REMARK    3  A    between atoms: C4_4  and  C5_5 
REMARK    4  A    between atoms: C5_5  and  C6_6 
REMARK    5  A    between atoms: C6_6  and  C7_7 
REMARK    6  A    between atoms: C7_7  and  C8_8 
REMARK    7  A    between atoms: C8_8  and  C9_9 
REMARK    8  A    between atoms: C9_9  and  C10_10 
REMARK    9  A    between atoms: C10_10  and  C11_11 
REMARK   10  A    between atoms: C11_11  and  C12_12 
REMARK   11  A    between atoms: C12_12  and  C13_13 
REMARK   12  A    between atoms: C13_13  and  O2_15 
REMARK   13  A    between atoms: O2_15  and  C14_16 
ROOT
HETATM    1  C14 UNL     1      -2.064  49.296 -19.089  1.00  0.00     0.140 C 
HETATM    2  C15 UNL     1      -2.285  50.792 -18.772  1.00  0.00     0.034 C 
HETATM    3  C16 UNL     1      -2.974  51.402 -20.005  1.00  0.00     0.008 C 
HETATM    4  C17 UNL     1      -3.303  50.195 -20.878  1.00  0.00     0.001 C 
HETATM    5  C18 UNL     1      -3.588  50.409 -22.367  1.00  0.00    -0.004 C 
HETATM    6  C19 UNL     1      -4.761  51.384 -22.592  1.00  0.00     0.010 C 
HETATM    7  C20 UNL     1      -5.105  51.580 -24.075  1.00  0.00     0.035 C 
HETATM    8  C21 UNL     1      -4.311  50.641 -24.950  1.00  0.00    -0.068 C 
HETATM    9  C22 UNL     1      -3.536  51.142 -25.929  1.00  0.00     0.053 C 
HETATM   10  C23 UNL     1      -2.541  50.298 -26.627  1.00  0.00     0.149 C 
HETATM   11  O3  UNL     1      -1.930  50.747 -27.591  1.00  0.00    -0.293 OA
HETATM   12  C24 UNL     1      -2.245  48.947 -26.033  1.00  0.00     0.084 C 
HETATM   13  C25 UNL     1      -3.539  48.303 -25.562  1.00  0.00     0.022 C 
HETATM   14  C26 UNL     1      -4.346  49.161 -24.544  1.00  0.00    -0.016 C 
HETATM   15  C27 UNL     1      -5.810  48.648 -24.657  1.00  0.00     0.020 C 
HETATM   16  C28 UNL     1      -3.913  49.025 -23.024  1.00  0.00     0.002 C 
HETATM   17  C29 UNL     1      -2.837  47.955 -22.707  1.00  0.00     0.007 C 
HETATM   18  C30 UNL     1      -2.481  47.867 -21.211  1.00  0.00     0.012 C 
HETATM   19  C31 UNL     1      -2.118  49.241 -20.633  1.00  0.00    -0.013 C 
HETATM   20  C32 UNL     1      -0.770  49.714 -21.238  1.00  0.00     0.018 C 
ENDROOT
BRANCH   1  21
HETATM   21  O2  UNL     1      -0.816  48.814 -18.587  1.00  0.00    -0.315 OA
BRANCH  21  22
HETATM   22  C13 UNL     1      -0.421  49.342 -17.396  1.00  0.00     0.259 C 
HETATM   23  O1  UNL     1      -0.138  48.700 -16.394  1.00  0.00    -0.265 OA
BRANCH  22  24
HETATM   24  C12 UNL     1      -0.402  50.850 -17.475  1.00  0.00     0.111 C 
BRANCH  24  25
HETATM   25  C11 UNL     1       0.919  51.431 -16.976  1.00  0.00     0.010 C 
BRANCH  25  26
HETATM   26  C10 UNL     1       1.485  52.565 -17.840  1.00  0.00     0.000 C 
BRANCH  26  27
HETATM   27  C9  UNL     1       0.601  53.013 -19.009  1.00  0.00     0.000 C 
BRANCH  27  28
HETATM   28  C8  UNL     1       1.333  53.289 -20.327  1.00  0.00     0.000 C 
BRANCH  28  29
HETATM   29  C7  UNL     1       0.946  52.382 -21.501  1.00  0.00     0.000 C 
BRANCH  29  30
HETATM   30  C6  UNL     1       0.577  53.159 -22.767  1.00  0.00     0.000 C 
BRANCH  30  31
HETATM   31  C5  UNL     1      -0.496  52.463 -23.612  1.00  0.00     0.000 C 
BRANCH  31  32
HETATM   32  C4  UNL     1       0.086  51.662 -24.781  1.00  0.00     0.000 C 
BRANCH  32  33
HETATM   33  C3  UNL     1       1.530  52.081 -25.075  1.00  0.00    -0.000 C 
BRANCH  33  34
HETATM   34  C2  UNL     1       2.062  51.528 -26.399  1.00  0.00    -0.005 C 
HETATM   35  C1  UNL     1       1.149  51.810 -27.583  1.00  0.00     0.005 C 
ENDBRANCH  33  34
ENDBRANCH  32  33
ENDBRANCH  31  32
ENDBRANCH  30  31
ENDBRANCH  29  30
ENDBRANCH  28  29
ENDBRANCH  27  28
ENDBRANCH  26  27
ENDBRANCH  25  26
ENDBRANCH  24  25
ENDBRANCH  22  24
ENDBRANCH  21  22
ENDBRANCH   1  21
TORSDOF 13
ENDMDL
