MODEL 1
REMARK minimizedAffinity -7.14391661
REMARK CNNscore 0.556469917
REMARK CNNaffinity 6.94457006
REMARK  8 active torsions:
REMARK  status: ('A' for Active; 'I' for Inactive)
REMARK    1  A    between atoms: C2_2  and  C3_3 
REMARK    2  A    between atoms: C2_2  and  C29_30 
REMARK    3  A    between atoms: C3_3  and  C4_4 
REMARK    4  A    between atoms: C4_4  and  C5_5 
REMARK    5  A    between atoms: C5_5  and  C7_7 
REMARK    6  A    between atoms: C29_30  and  C31_32 
REMARK    7  A    between atoms: C31_32  and  O2_33 
REMARK    8  A    between atoms: O2_33  and  C32_34 
ROOT
HETATM    1  C7  UNL     1       1.557  53.528 -11.374  1.00  0.00    -0.002 C 
HETATM    2  C8  UNL     1       0.395  54.436 -10.858  1.00  0.00     0.006 C 
HETATM    3  C9  UNL     1       0.923  55.227  -9.639  1.00  0.00     0.011 C 
HETATM    4  C10 UNL     1       2.438  54.999  -9.676  1.00  0.00    -0.032 C 
HETATM    5  C11 UNL     1       2.991  56.022 -10.745  1.00  0.00     0.016 C 
HETATM    6  C12 UNL     1       3.255  55.299  -8.394  1.00  0.00     0.004 C 
HETATM    7  C13 UNL     1       2.751  54.722  -7.027  1.00  0.00     0.007 C 
HETATM    8  C14 UNL     1       3.845  54.001  -6.171  1.00  0.00     0.007 C 
HETATM    9  C15 UNL     1       5.127  54.842  -6.097  1.00  0.00     0.010 C 
HETATM   10  C16 UNL     1       6.424  54.375  -5.437  1.00  0.00     0.018 C 
HETATM   11  C17 UNL     1       7.028  53.154  -6.139  1.00  0.00     0.023 C 
HETATM   12  C18 UNL     1       6.204  54.051  -3.952  1.00  0.00     0.023 C 
HETATM   13  C19 UNL     1       7.410  55.574  -5.529  1.00  0.00     0.135 C 
HETATM   14  O1  UNL     1       8.606  55.431  -5.262  1.00  0.00    -0.297 OA
HETATM   15  C20 UNL     1       6.854  56.980  -5.848  1.00  0.00     0.080 C 
HETATM   16  C21 UNL     1       5.748  57.027  -6.934  1.00  0.00     0.018 C 
HETATM   17  C22 UNL     1       5.453  55.602  -7.367  1.00  0.00    -0.026 A 
HETATM   18  C23 UNL     1       6.021  55.499  -8.747  1.00  0.00     0.021 A 
HETATM   19  C24 UNL     1       4.700  54.860  -8.578  1.00  0.00    -0.027 A 
HETATM   20  C25 UNL     1       4.849  53.414  -9.117  1.00  0.00     0.011 C 
HETATM   21  C26 UNL     1       3.998  53.154 -10.384  1.00  0.00     0.011 C 
HETATM   22  C27 UNL     1       2.517  53.489 -10.140  1.00  0.00    -0.032 C 
HETATM   23  C28 UNL     1       1.956  52.435  -9.141  1.00  0.00     0.016 C 
ENDROOT
BRANCH   1  24
HETATM   24  C5  UNL     1       1.029  52.211 -12.013  1.00  0.00    -0.014 C 
HETATM   25  C6  UNL     1      -0.005  51.507 -11.128  1.00  0.00     0.010 C 
BRANCH  24  26
HETATM   26  C4  UNL     1       2.168  51.220 -12.381  1.00  0.00     0.009 C 
BRANCH  26  27
HETATM   27  C3  UNL     1       2.810  51.451 -13.757  1.00  0.00     0.034 C 
BRANCH  27  28
HETATM   28  C2  UNL     1       1.849  51.189 -14.908  1.00  0.00    -0.083 C 
HETATM   29  C1  UNL     1       1.144  50.042 -14.925  1.00  0.00     0.015 C 
BRANCH  28  30
HETATM   30  C29 UNL     1       1.764  52.268 -15.996  1.00  0.00     0.034 C 
HETATM   31  C30 UNL     1       3.170  52.646 -16.478  1.00  0.00     0.017 C 
BRANCH  30  32
HETATM   32  C31 UNL     1       0.897  51.924 -17.228  1.00  0.00     0.187 C 
BRANCH  32  33
HETATM   33  O2  UNL     1       1.322  52.706 -18.357  1.00  0.00    -0.321 OA
BRANCH  33  34
HETATM   34  C32 UNL     1       0.319  53.043 -19.213  1.00  0.00     0.254 C 
HETATM   35  C33 UNL     1       0.833  53.980 -20.263  1.00  0.00     0.126 C 
HETATM   36  O3  UNL     1      -0.836  52.646 -19.145  1.00  0.00    -0.266 OA
ENDBRANCH  33  34
ENDBRANCH  32  33
ENDBRANCH  30  32
ENDBRANCH  28  30
ENDBRANCH  27  28
ENDBRANCH  26  27
ENDBRANCH  24  26
ENDBRANCH   1  24
TORSDOF 8
ENDMDL
