MODEL 1
REMARK minimizedAffinity -9.66942596
REMARK  6 active torsions:
REMARK  status: ('A' for Active; 'I' for Inactive)
REMARK    1  A    between atoms: C2_2  and  C30_31 
REMARK    2  A    between atoms: C3_3  and  C4_4 
REMARK    3  A    between atoms: C4_4  and  C5_5 
REMARK    4  A    between atoms: C5_5  and  C6_6 
REMARK    5  A    between atoms: C6_6  and  C8_8 
REMARK    6  A    between atoms: C30_31  and  O3_33 
ROOT
HETATM    1  C8  UNL     1       1.154   6.961  11.888  1.00  0.00    -0.002 C 
HETATM    2  C9  UNL     1       1.291   5.535  11.293  1.00  0.00     0.007 C 
HETATM    3  C10 UNL     1      -0.037   4.802  11.595  1.00  0.00     0.015 C 
HETATM    4  C11 UNL     1      -0.764   5.696  12.626  1.00  0.00    -0.013 C 
HETATM    5  C12 UNL     1      -0.166   5.316  14.021  1.00  0.00     0.021 C 
HETATM    6  C13 UNL     1      -2.274   5.569  12.782  1.00  0.00    -0.070 C 
HETATM    7  C14 UNL     1      -2.917   4.397  12.618  1.00  0.00    -0.022 C 
HETATM    8  C15 UNL     1      -4.376   4.182  12.906  1.00  0.00     0.034 C 
HETATM    9  C16 UNL     1      -5.165   5.482  13.182  1.00  0.00     0.013 C 
HETATM   10  C17 UNL     1      -6.669   5.288  13.616  1.00  0.00     0.018 C 
HETATM   11  C18 UNL     1      -7.598   5.838  12.512  1.00  0.00     0.023 C 
HETATM   12  C19 UNL     1      -7.059   3.812  13.842  1.00  0.00     0.023 C 
HETATM   13  C20 UNL     1      -7.017   6.074  14.888  1.00  0.00     0.135 C 
HETATM   14  O1  UNL     1      -7.792   5.628  15.739  1.00  0.00    -0.297 OA
HETATM   15  C21 UNL     1      -6.473   7.474  15.054  1.00  0.00     0.080 C 
HETATM   16  C22 UNL     1      -5.184   7.733  14.290  1.00  0.00     0.017 C 
HETATM   17  C23 UNL     1      -4.324   6.468  14.070  1.00  0.00    -0.031 C 
HETATM   18  C24 UNL     1      -3.934   5.852  15.437  1.00  0.00     0.016 C 
HETATM   19  C25 UNL     1      -3.028   6.828  13.235  1.00  0.00     0.024 C 
HETATM   20  C26 UNL     1      -2.111   7.897  13.882  1.00  0.00     0.010 C 
HETATM   21  C27 UNL     1      -0.776   8.184  13.152  1.00  0.00     0.011 C 
HETATM   22  C28 UNL     1      -0.384   7.124  12.104  1.00  0.00    -0.029 C 
HETATM   23  C29 UNL     1      -1.062   7.500  10.753  1.00  0.00     0.016 C 
ENDROOT
BRANCH   1  24
HETATM   24  C6  UNL     1       1.938   8.102  11.170  1.00  0.00    -0.014 C 
HETATM   25  C7  UNL     1       2.943   8.700  12.174  1.00  0.00     0.010 C 
BRANCH  24  26
HETATM   26  C5  UNL     1       2.685   7.689   9.877  1.00  0.00     0.008 C 
BRANCH  26  27
HETATM   27  C4  UNL     1       2.828   6.171   9.679  1.00  0.00     0.028 C 
BRANCH  27  28
HETATM   28  C3  UNL     1       2.897   5.720   8.248  1.00  0.00    -0.013 C 
HETATM   29  C2  UNL     1       3.461   4.602   7.748  1.00  0.00     0.008 C 
HETATM   30  C1  UNL     1       3.405   4.301   6.276  1.00  0.00     0.055 C 
BRANCH  29  31
HETATM   31  C30 UNL     1       4.190   3.632   8.606  1.00  0.00     0.171 C 
HETATM   32  O2  UNL     1       5.323   3.212   8.459  1.00  0.00    -0.646 OA
BRANCH  31  33
HETATM   33  O3  UNL     1       3.439   3.214   9.641  1.00  0.00    -0.773 OA
HETATM   34  H46 UNL     1       4.036   2.596  10.112  1.00  0.00     0.167 HD
ENDBRANCH  31  33
ENDBRANCH  29  31
ENDBRANCH  27  28
ENDBRANCH  26  27
ENDBRANCH  24  26
ENDBRANCH   1  24
TORSDOF 6
ENDMDL
