MODEL 1
REMARK minimizedAffinity -8.27326012
REMARK CNNscore 0.483147562
REMARK CNNaffinity 6.75113153
REMARK  12 active torsions:
REMARK  status: ('A' for Active; 'I' for Inactive)
REMARK    1  A    between atoms: C3_3  and  O1_4 
REMARK    2  A    between atoms: N1_14  and  O2_16 
REMARK    3  A    between atoms: O2_16  and  C13_17 
REMARK    4  A    between atoms: C13_17  and  C14_18 
REMARK       I    between atoms: C14_18  and  N2_20 
REMARK    5  A    between atoms: N2_20  and  C15_21 
REMARK    6  A    between atoms: C15_21  and  C16_22 
REMARK    7  A    between atoms: C15_21  and  C27_38 
REMARK       I    between atoms: C16_22  and  N3_24 
REMARK    8  A    between atoms: N3_24  and  C17_25 
REMARK    9  A    between atoms: C17_25  and  C18_26 
REMARK   10  A    between atoms: C17_25  and  C20_30 
REMARK   11  A    between atoms: C18_26  and  C19_27 
REMARK   12  A    between atoms: C19_27  and  O6_29 
ROOT
HETATM    1  C1  UNL     1       3.851   3.809   9.586  1.00  0.00     0.015 C 
HETATM    2  C2  UNL     1       3.256   4.828   9.811  1.00  0.00    -0.078 C 
HETATM    3  C3  UNL     1       2.546   6.088  10.080  1.00  0.00     0.128 C 
HETATM    4  C4  UNL     1       1.971   6.709   8.803  1.00  0.00     0.052 C 
HETATM    5  C5  UNL     1       1.031   7.784   9.338  1.00  0.00     0.010 C 
HETATM    6  C6  UNL     1       0.380   7.143  10.573  1.00  0.00     0.002 C 
HETATM    7  C7  UNL     1      -0.054   8.112  11.696  1.00  0.00    -0.004 C 
HETATM    8  C8  UNL     1       0.951   9.206  12.115  1.00  0.00     0.010 C 
HETATM    9  C9  UNL     1       1.135   9.434  13.625  1.00  0.00     0.035 C 
HETATM   10  C10 UNL     1      -0.061   9.193  14.517  1.00  0.00    -0.069 C 
HETATM   11  C11 UNL     1      -0.086   9.713  15.759  1.00  0.00     0.030 C 
HETATM   12  C12 UNL     1      -1.202   9.432  16.713  1.00  0.00     0.032 C 
HETATM   13  N1  UNL     1      -1.406  10.040  17.846  1.00  0.00    -0.271 N 
ATOM     14  H1  UNL     1      -2.188   9.833  18.469  1.00  0.00     0.194 HD
HETATM   15  C30 UNL     1      -2.217   8.362  16.340  1.00  0.00     0.060 C 
HETATM   16  C31 UNL     1      -1.755   7.476  15.186  1.00  0.00     0.020 C 
HETATM   17  C32 UNL     1      -1.163   8.283  14.002  1.00  0.00    -0.016 C 
HETATM   18  C33 UNL     1      -2.284   9.172  13.396  1.00  0.00     0.020 C 
HETATM   19  C34 UNL     1      -0.597   7.314  12.903  1.00  0.00     0.002 C 
HETATM   20  C35 UNL     1       0.441   6.282  13.429  1.00  0.00     0.007 C 
HETATM   21  C36 UNL     1       1.650   6.046  12.514  1.00  0.00     0.014 C 
HETATM   22  C37 UNL     1       1.298   5.960  11.018  1.00  0.00     0.003 C 
HETATM   23  C38 UNL     1       0.522   4.636  10.769  1.00  0.00     0.020 C 
ENDROOT
BRANCH   3  24
HETATM   24  O1  UNL     1       3.487   7.019  10.618  1.00  0.00    -0.377 OA
HETATM   25  H2  UNL     1       4.265   7.005  10.035  1.00  0.00     0.211 HD
ENDBRANCH   3  24
BRANCH  13  26
HETATM   26  O2  UNL     1      -0.428  11.012  18.113  1.00  0.00    -0.271 OA
BRANCH  26  27
HETATM   27  C13 UNL     1      -0.204  11.078  19.512  1.00  0.00     0.303 C 
BRANCH  27  28
HETATM   28  C14 UNL     1       1.249  10.831  19.925  1.00  0.00     0.244 C 
HETATM   29  O3  UNL     1       2.103  10.325  19.196  1.00  0.00    -0.271 OA
HETATM   30  N2  UNL     1       1.522  11.245  21.222  1.00  0.00    -0.346 N 
HETATM   31  H16 UNL     1       0.898  11.944  21.611  1.00  0.00     0.163 HD
BRANCH  30  32
HETATM   32  C15 UNL     1       2.894  11.304  21.725  1.00  0.00     0.180 C 
BRANCH  32  33
HETATM   33  C16 UNL     1       3.120  12.752  22.216  1.00  0.00     0.241 C 
HETATM   34  O4  UNL     1       2.289  13.337  22.910  1.00  0.00    -0.271 OA
HETATM   35  N3  UNL     1       4.334  13.301  21.865  1.00  0.00    -0.354 N 
HETATM   36  H18 UNL     1       4.948  12.772  21.258  1.00  0.00     0.162 HD
BRANCH  35  37
HETATM   37  C17 UNL     1       4.781  14.621  22.339  1.00  0.00     0.098 C 
BRANCH  37  38
HETATM   38  C18 UNL     1       4.249  15.688  21.377  1.00  0.00     0.135 C 
BRANCH  38  39
HETATM   39  C19 UNL     1       3.614  16.869  22.046  1.00  0.00     0.141 C 
HETATM   40  O5  UNL     1       4.026  18.015  22.004  1.00  0.00    -0.650 OA
BRANCH  39  41
HETATM   41  O6  UNL     1       2.461  16.582  22.672  1.00  0.00    -0.776 OA
HETATM   42  H22 UNL     1       2.141  17.447  23.007  1.00  0.00     0.167 HD
ENDBRANCH  39  41
ENDBRANCH  38  39
ENDBRANCH  37  38
BRANCH  37  43
HETATM   43  C20 UNL     1       6.320  14.558  22.554  1.00  0.00     0.014 C 
HETATM   44  C21 UNL     1       6.837  13.149  22.864  1.00  0.00     0.033 C 
HETATM   45  C22 UNL     1       8.356  13.158  22.983  1.00  0.00     0.169 C 
HETATM   46  O7  UNL     1       8.791  14.080  23.979  1.00  0.00    -0.381 OA
HETATM   47  C23 UNL     1       8.384  15.443  23.782  1.00  0.00     0.054 C 
HETATM   48  C24 UNL     1       9.128  16.069  22.594  1.00  0.00     0.045 C 
HETATM   49  C25 UNL     1       8.799  16.195  25.056  1.00  0.00     0.045 C 
HETATM   50  C26 UNL     1       6.850  15.528  23.624  1.00  0.00     0.044 C 
ENDBRANCH  37  43
ENDBRANCH  35  37
ENDBRANCH  32  33
BRANCH  32  51
HETATM   51  C27 UNL     1       3.119  10.247  22.833  1.00  0.00     0.009 C 
HETATM   52  C28 UNL     1       2.541   8.880  22.452  1.00  0.00     0.012 C 
HETATM   53  C29 UNL     1       4.586  10.087  23.246  1.00  0.00     0.012 C 
ENDBRANCH  32  51
ENDBRANCH  30  32
ENDBRANCH  27  28
ENDBRANCH  26  27
ENDBRANCH  13  26
TORSDOF 12
ENDMDL
