MODEL 1
REMARK minimizedAffinity -9.08354568
REMARK CNNscore 0.393803924
REMARK CNNaffinity 6.79688025
REMARK  6 active torsions:
REMARK  status: ('A' for Active; 'I' for Inactive)
REMARK       I    between atoms: N1_1  and  C1_2 
REMARK       I    between atoms: C1_2  and  N2_3 
REMARK    1  A    between atoms: N3_4  and  C2_6 
REMARK    2  A    between atoms: C11_16  and  S1_17 
REMARK    3  A    between atoms: S1_17  and  O4_20 
REMARK    4  A    between atoms: C23_33  and  O6_34 
REMARK    5  A    between atoms: C29_40  and  C30_41 
REMARK    6  A    between atoms: C30_41  and  O7_42 
ROOT
HETATM    1  C2  UNL     1      -2.417  10.067  16.066  1.00  0.00     0.263 C 
HETATM    2  O1  UNL     1      -3.566  10.580  16.822  1.00  0.00    -0.322 OA
HETATM    3  C3  UNL     1      -3.474  11.886  17.231  1.00  0.00     0.071 C 
HETATM    4  C4  UNL     1      -3.137  12.937  16.383  1.00  0.00     0.037 C 
HETATM    5  C5  UNL     1      -2.833  14.191  16.922  1.00  0.00     0.010 C 
HETATM    6  C6  UNL     1      -2.889  14.405  18.306  1.00  0.00    -0.058 C 
HETATM    7  C7  UNL     1      -3.363  13.375  19.131  1.00  0.00     0.010 C 
HETATM    8  C8  UNL     1      -3.663  12.123  18.592  1.00  0.00     0.037 C 
HETATM    9  C9  UNL     1      -2.386  15.698  18.906  1.00  0.00     0.040 C 
HETATM   10  C10 UNL     1      -1.099  15.516  19.738  1.00  0.00     0.027 C 
HETATM   11  C11 UNL     1       0.132  15.048  18.914  1.00  0.00     0.130 C 
HETATM   12  C12 UNL     1       0.938  13.933  19.647  1.00  0.00     0.037 C 
HETATM   13  C13 UNL     1       1.670  14.368  20.896  1.00  0.00    -0.014 C 
HETATM   14  C14 UNL     1       2.987  14.117  21.060  1.00  0.00    -0.050 C 
HETATM   15  C15 UNL     1       3.846  13.719  19.901  1.00  0.00     0.042 C 
HETATM   16  C16 UNL     1       3.157  12.521  19.272  1.00  0.00     0.001 C 
HETATM   17  C17 UNL     1       3.203  11.329  20.264  1.00  0.00     0.038 C 
HETATM   18  C18 UNL     1       2.607  11.426  21.704  1.00  0.00     0.130 C 
HETATM   19  O5  UNL     1       3.158  12.350  22.659  1.00  0.00    -0.371 OA
HETATM   20  C19 UNL     1       3.484  13.717  22.419  1.00  0.00     0.185 C 
HETATM   21  C20 UNL     1       4.955  14.042  22.728  1.00  0.00    -0.006 A 
HETATM   22  C21 UNL     1       5.323  15.406  22.744  1.00  0.00     0.014 A 
HETATM   23  C22 UNL     1       6.632  15.802  23.026  1.00  0.00     0.037 A 
HETATM   24  C23 UNL     1       7.594  14.837  23.301  1.00  0.00     0.067 A 
HETATM   25  C24 UNL     1       7.268  13.487  23.299  1.00  0.00     0.057 A 
HETATM   26  C25 UNL     1       5.960  13.080  23.015  1.00  0.00     0.029 A 
HETATM   27  C26 UNL     1       5.682  11.674  23.004  1.00  0.00    -0.066 C 
HETATM   28  C27 UNL     1       5.174  10.590  22.885  1.00  0.00    -0.101 C 
HETATM   29  C28 UNL     1       4.221   9.515  22.571  1.00  0.00     0.103 C 
HETATM   30  C29 UNL     1       2.752  10.042  22.450  1.00  0.00     0.049 C 
HETATM   31  C31 UNL     1       1.808  13.034  18.685  1.00  0.00     0.032 C 
HETATM   32  C32 UNL     1       0.959  11.994  17.965  1.00  0.00    -0.053 C 
HETATM   33  C33 UNL     1       0.788  12.099  16.577  1.00  0.00     0.008 C 
HETATM   34  C34 UNL     1      -0.219  11.384  15.930  1.00  0.00     0.012 C 
HETATM   35  C35 UNL     1      -1.075  10.544  16.655  1.00  0.00    -0.010 C 
HETATM   36  C36 UNL     1      -0.788  10.304  18.007  1.00  0.00     0.012 C 
HETATM   37  C37 UNL     1       0.209  11.034  18.658  1.00  0.00     0.008 C 
ENDROOT
BRANCH   1  38
HETATM   38  N3  UNL     1      -2.471  10.210  14.600  1.00  0.00    -0.341 N 
HETATM   39  C1  UNL     1      -2.184   9.193  13.883  1.00  0.00     0.124 C 
HETATM   40  N1  UNL     1      -2.190   9.293  12.535  1.00  0.00    -0.279 NA
HETATM   41  N2  UNL     1      -1.845   7.935  14.245  1.00  0.00    -0.279 NA
HETATM   42  H1  UNL     1      -1.373   8.867  12.114  1.00  0.00     0.126 HD
HETATM   43  H2  UNL     1      -2.268  10.267  12.256  1.00  0.00     0.126 HD
HETATM   44  H3  UNL     1      -2.258   7.245  13.628  1.00  0.00     0.126 HD
HETATM   45  H4  UNL     1      -2.104   7.726  15.208  1.00  0.00     0.126 HD
ATOM     46  H3  UNL     1      -2.732  11.098  14.170  1.00  0.00     0.164 HD
ENDBRANCH   1  38
BRANCH  11  47
HETATM   47  S1  UNL     1       1.185  16.455  18.460  1.00  0.00     0.099 S 
HETATM   48  O2  UNL     1       2.520  16.019  18.116  1.00  0.00    -0.601 OA
HETATM   49  O3  UNL     1       0.460  17.406  17.648  1.00  0.00    -0.601 OA
BRANCH  47  50
HETATM   50  O4  UNL     1       1.335  17.126  19.921  1.00  0.00    -0.295 OA
HETATM   51  H15 UNL     1       2.278  17.369  20.041  1.00  0.00     0.232 HD
ENDBRANCH  47  50
ENDBRANCH  11  47
BRANCH  30  52
HETATM   52  C30 UNL     1       1.845   8.969  21.835  1.00  0.00     0.172 C 
BRANCH  52  53
HETATM   53  O7  UNL     1       2.003   7.720  22.501  1.00  0.00    -0.400 OA
HETATM   54  H34 UNL     1       2.837   7.321  22.203  1.00  0.00     0.209 HD
ENDBRANCH  52  53
ENDBRANCH  30  52
BRANCH  24  55
HETATM   55  O6  UNL     1       8.883  15.181  23.581  1.00  0.00    -0.361 OA
HETATM   56  H27 UNL     1       8.963  16.148  23.536  1.00  0.00     0.217 HD
ENDBRANCH  24  55
TORSDOF 6
ENDMDL
