MODEL 1
REMARK minimizedAffinity -9.65288162
REMARK  7 active torsions:
REMARK  status: ('A' for Active; 'I' for Inactive)
REMARK    1  A    between atoms: C19_20  and  O2_21 
REMARK    2  A    between atoms: O2_21  and  C20_22 
REMARK    3  A    between atoms: C20_22  and  C21_24 
REMARK    4  A    between atoms: C21_24  and  C22_25 
REMARK    5  A    between atoms: C22_25  and  C23_26 
REMARK       I    between atoms: C23_26  and  N1_28 
REMARK    6  A    between atoms: N1_28  and  C24_29 
REMARK    7  A    between atoms: C24_29  and  C25_30 
ROOT
HETATM    1  C1  UNL     1       1.133   9.509  13.615  1.00  0.00     0.018 C 
HETATM    2  C2  UNL     1       0.434   8.180  13.231  1.00  0.00    -0.013 C 
HETATM    3  C3  UNL     1       1.410   7.010  13.440  1.00  0.00     0.012 C 
HETATM    4  C4  UNL     1       2.576   7.039  12.435  1.00  0.00     0.007 C 
HETATM    5  C5  UNL     1       2.101   7.112  10.962  1.00  0.00     0.002 C 
HETATM    6  C6  UNL     1       1.075   8.282  10.751  1.00  0.00    -0.004 C 
HETATM    7  C7  UNL     1       0.539   8.318   9.306  1.00  0.00     0.010 C 
HETATM    8  C8  UNL     1       1.661   8.322   8.264  1.00  0.00     0.035 C 
HETATM    9  C9  UNL     1       2.574   7.152   8.534  1.00  0.00    -0.068 C 
HETATM   10  C10 UNL     1       2.621   6.125   7.667  1.00  0.00     0.053 C 
HETATM   11  C11 UNL     1       3.242   4.831   8.041  1.00  0.00     0.149 C 
HETATM   12  O1  UNL     1       3.289   3.924   7.216  1.00  0.00    -0.293 OA
HETATM   13  C12 UNL     1       3.673   4.649   9.474  1.00  0.00     0.084 C 
HETATM   14  C13 UNL     1       4.241   5.951  10.009  1.00  0.00     0.022 C 
HETATM   15  C14 UNL     1       3.262   7.156   9.905  1.00  0.00    -0.016 C 
HETATM   16  C15 UNL     1       4.144   8.419  10.072  1.00  0.00     0.020 C 
HETATM   17  C16 UNL     1      -0.060   8.121  11.770  1.00  0.00     0.001 C 
HETATM   18  C17 UNL     1      -1.214   9.115  11.740  1.00  0.00     0.008 C 
HETATM   19  C18 UNL     1      -1.866   8.983  13.130  1.00  0.00     0.034 C 
HETATM   20  C19 UNL     1      -0.915   8.114  13.988  1.00  0.00     0.140 C 
ENDROOT
BRANCH  20  21
HETATM   21  O2  UNL     1      -1.462   6.782  13.995  1.00  0.00    -0.315 OA
BRANCH  21  22
HETATM   22  C20 UNL     1      -2.782   6.674  13.684  1.00  0.00     0.259 C 
HETATM   23  O3  UNL     1      -3.221   6.189  12.648  1.00  0.00    -0.265 OA
BRANCH  22  24
HETATM   24  C21 UNL     1      -3.660   7.337  14.719  1.00  0.00     0.120 C 
BRANCH  24  25
HETATM   25  C22 UNL     1      -4.290   6.384  15.729  1.00  0.00     0.112 C 
BRANCH  25  26
HETATM   26  C23 UNL     1      -5.695   5.980  15.335  1.00  0.00     0.218 C 
HETATM   27  O4  UNL     1      -6.659   6.072  16.085  1.00  0.00    -0.274 OA
HETATM   28  N1  UNL     1      -5.775   5.490  14.050  1.00  0.00    -0.357 N 
HETATM   29  H32 UNL     1      -4.918   5.279  13.556  1.00  0.00     0.162 HD
BRANCH  28  30
HETATM   30  C24 UNL     1      -7.001   4.913  13.542  1.00  0.00     0.162 C 
BRANCH  30  31
HETATM   31  C25 UNL     1      -6.720   3.671  12.749  1.00  0.00    -0.025 A 
HETATM   32  C26 UNL     1      -5.653   3.596  11.848  1.00  0.00     0.011 A 
HETATM   33  C27 UNL     1      -5.419   2.414  11.151  1.00  0.00     0.018 A 
HETATM   34  C28 UNL     1      -6.260   1.338  11.383  1.00  0.00     0.087 A 
HETATM   35  N2  UNL     1      -7.292   1.367  12.252  1.00  0.00    -0.375 N 
HETATM   36  C29 UNL     1      -7.499   2.528  12.915  1.00  0.00     0.096 A 
ATOM     37  H2  UNL     1      -7.888   0.552  12.401  1.00  0.00     0.164 HD
ENDBRANCH  30  31
ENDBRANCH  28  30
ENDBRANCH  25  26
ENDBRANCH  24  25
ENDBRANCH  22  24
ENDBRANCH  21  22
ENDBRANCH  20  21
TORSDOF 7
ENDMDL
