MODEL 1
REMARK minimizedAffinity -8.72964668
REMARK CNNscore 0.595378041
REMARK CNNaffinity 7.26886702
REMARK  6 active torsions:
REMARK  status: ('A' for Active; 'I' for Inactive)
REMARK    1  A    between atoms: C3_3  and  O1_4 
REMARK    2  A    between atoms: N1_14  and  O2_16 
REMARK    3  A    between atoms: O2_16  and  C13_17 
REMARK    4  A    between atoms: C13_17  and  C14_18 
REMARK       I    between atoms: C14_18  and  N2_20 
REMARK    5  A    between atoms: N2_20  and  C15_21 
REMARK    6  A    between atoms: C15_21  and  C17_23 
ROOT
HETATM    1  C1  UNL     1       2.214  51.148 -27.331  1.00  0.00     0.015 C 
HETATM    2  C2  UNL     1       1.194  51.776 -27.254  1.00  0.00    -0.078 C 
HETATM    3  C3  UNL     1      -0.071  52.537 -27.160  1.00  0.00     0.128 C 
HETATM    4  C4  UNL     1       0.177  53.904 -26.466  1.00  0.00     0.052 C 
HETATM    5  C5  UNL     1      -0.276  53.744 -24.999  1.00  0.00     0.010 C 
HETATM    6  C6  UNL     1      -0.603  52.259 -24.853  1.00  0.00     0.002 C 
HETATM    7  C7  UNL     1      -1.518  51.813 -23.705  1.00  0.00    -0.004 C 
HETATM    8  C8  UNL     1      -0.956  52.246 -22.345  1.00  0.00     0.010 C 
HETATM    9  C9  UNL     1      -1.873  51.796 -21.215  1.00  0.00     0.035 C 
HETATM   10  C10 UNL     1      -2.113  50.306 -21.232  1.00  0.00    -0.069 C 
HETATM   11  C11 UNL     1      -1.993  49.608 -20.089  1.00  0.00     0.030 C 
HETATM   12  C12 UNL     1      -2.367  48.175 -19.994  1.00  0.00     0.032 C 
HETATM   13  N1  UNL     1      -2.310  47.616 -18.816  1.00  0.00    -0.271 N 
ATOM     14  H1  UNL     1      -1.999  48.096 -17.972  1.00  0.00     0.194 HD
HETATM   15  C23 UNL     1      -2.868  47.484 -21.244  1.00  0.00     0.060 C 
HETATM   16  C24 UNL     1      -2.322  48.144 -22.504  1.00  0.00     0.020 C 
HETATM   17  C25 UNL     1      -2.541  49.683 -22.565  1.00  0.00    -0.016 C 
HETATM   18  C26 UNL     1      -4.044  49.981 -22.770  1.00  0.00     0.020 C 
HETATM   19  C27 UNL     1      -1.666  50.259 -23.749  1.00  0.00     0.002 C 
HETATM   20  C28 UNL     1      -2.117  49.775 -25.154  1.00  0.00     0.007 C 
HETATM   21  C29 UNL     1      -1.259  50.334 -26.304  1.00  0.00     0.014 C 
HETATM   22  C30 UNL     1      -1.145  51.869 -26.247  1.00  0.00     0.003 C 
HETATM   23  C31 UNL     1      -2.543  52.480 -26.563  1.00  0.00     0.020 C 
ENDROOT
BRANCH   3  24
HETATM   24  O1  UNL     1      -0.559  52.745 -28.479  1.00  0.00    -0.377 OA
HETATM   25  H2  UNL     1       0.192  53.063 -29.008  1.00  0.00     0.211 HD
ENDBRANCH   3  24
BRANCH  13  26
HETATM   26  O2  UNL     1      -2.730  46.277 -18.849  1.00  0.00    -0.271 OA
BRANCH  26  27
HETATM   27  C13 UNL     1      -3.130  45.883 -17.539  1.00  0.00     0.303 C 
BRANCH  27  28
HETATM   28  C14 UNL     1      -3.033  44.373 -17.389  1.00  0.00     0.244 C 
HETATM   29  O3  UNL     1      -3.612  43.593 -18.138  1.00  0.00    -0.271 OA
HETATM   30  N2  UNL     1      -2.296  43.969 -16.294  1.00  0.00    -0.351 N 
HETATM   31  H16 UNL     1      -1.693  44.665 -15.864  1.00  0.00     0.163 HD
BRANCH  30  32
HETATM   32  C15 UNL     1      -2.050  42.567 -16.002  1.00  0.00     0.113 C 
HETATM   33  C16 UNL     1      -2.013  42.297 -14.494  1.00  0.00     0.037 C 
BRANCH  32  34
HETATM   34  C17 UNL     1      -0.757  42.110 -16.662  1.00  0.00    -0.036 A 
HETATM   35  C18 UNL     1      -0.747  41.090 -17.629  1.00  0.00     0.009 A 
HETATM   36  C19 UNL     1       0.447  40.698 -18.240  1.00  0.00     0.001 A 
HETATM   37  C20 UNL     1       1.645  41.323 -17.898  1.00  0.00     0.000 A 
HETATM   38  C21 UNL     1       1.652  42.330 -16.936  1.00  0.00     0.001 A 
HETATM   39  C22 UNL     1       0.461  42.717 -16.318  1.00  0.00     0.009 A 
ENDBRANCH  32  34
ENDBRANCH  30  32
ENDBRANCH  27  28
ENDBRANCH  26  27
ENDBRANCH  13  26
TORSDOF 6
ENDMDL
