MODEL 1
REMARK minimizedAffinity -6.47724056
REMARK CNNscore 0.846785188
REMARK CNNaffinity 6.6675086
REMARK  11 active torsions:
REMARK  status: ('A' for Active; 'I' for Inactive)
REMARK    1  A    between atoms: C4_4  and  C5_5 
REMARK    2  A    between atoms: C5_5  and  O2_7 
REMARK    3  A    between atoms: O2_7  and  C6_8 
REMARK    4  A    between atoms: C6_8  and  C7_9 
REMARK    5  A    between atoms: C7_9  and  N1_10 
REMARK    6  A    between atoms: C14_17  and  O3_18 
REMARK    7  A    between atoms: C20_24  and  O4_25 
REMARK    8  A    between atoms: O4_25  and  C21_26 
REMARK    9  A    between atoms: C21_26  and  C22_28 
REMARK   10  A    between atoms: C22_28  and  C23_29 
REMARK   11  A    between atoms: C23_29  and  O6_32 
ROOT
HETATM    1  C1  UNL     1       7.013  55.385  -3.742  1.00  0.00     0.015 C 
HETATM    2  C2  UNL     1       7.170  56.090  -5.098  1.00  0.00     0.017 C 
HETATM    3  C3  UNL     1       7.339  57.584  -4.878  1.00  0.00    -0.070 C 
HETATM    4  C4  UNL     1       8.504  58.271  -4.906  1.00  0.00     0.085 C 
HETATM    5  C10 UNL     1       6.057  58.351  -4.638  1.00  0.00     0.035 C 
HETATM    6  C11 UNL     1       4.864  57.834  -5.451  1.00  0.00     0.010 C 
HETATM    7  C12 UNL     1       5.288  56.962  -6.657  1.00  0.00     0.001 C 
HETATM    8  C13 UNL     1       5.989  55.722  -6.057  1.00  0.00     0.027 C 
HETATM    9  C14 UNL     1       6.469  54.799  -7.178  1.00  0.00     0.123 C 
HETATM   10  C15 UNL     1       5.316  54.378  -8.075  1.00  0.00     0.038 C 
HETATM   11  C16 UNL     1       4.577  55.557  -8.749  1.00  0.00     0.007 C 
HETATM   12  C17 UNL     1       3.417  55.016  -9.694  1.00  0.00    -0.016 C 
HETATM   13  C18 UNL     1       2.992  56.068 -10.752  1.00  0.00     0.018 C 
HETATM   14  C19 UNL     1       3.890  53.795 -10.536  1.00  0.00     0.018 C 
HETATM   15  C20 UNL     1       2.208  54.560  -8.828  1.00  0.00     0.140 C 
HETATM   16  C26 UNL     1       1.740  55.624  -7.837  1.00  0.00     0.034 C 
HETATM   17  C27 UNL     1       2.862  56.120  -6.929  1.00  0.00     0.012 C 
HETATM   18  C28 UNL     1       4.118  56.633  -7.678  1.00  0.00    -0.035 C 
HETATM   19  C29 UNL     1       3.782  57.976  -8.390  1.00  0.00     0.016 C 
ENDROOT
BRANCH   4  20
HETATM   20  C5  UNL     1       9.912  57.841  -5.095  1.00  0.00     0.283 C 
HETATM   21  O1  UNL     1      10.206  56.658  -5.210  1.00  0.00    -0.260 OA
BRANCH  20  22
HETATM   22  O2  UNL     1      10.768  58.878  -5.159  1.00  0.00    -0.316 OA
BRANCH  22  23
HETATM   23  C6  UNL     1      10.526  59.964  -4.252  1.00  0.00     0.209 C 
BRANCH  23  24
HETATM   24  C7  UNL     1      10.707  61.347  -4.913  1.00  0.00     0.298 C 
BRANCH  24  25
HETATM   25  N1  UNL     1       9.531  61.864  -5.644  1.00  0.00     0.082 N 
HETATM   26  C8  UNL     1       8.632  62.567  -4.727  1.00  0.00     0.309 C 
HETATM   27  C9  UNL     1       9.908  62.741  -6.756  1.00  0.00     0.309 C 
ENDBRANCH  24  25
ENDBRANCH  23  24
ENDBRANCH  22  23
ENDBRANCH  20  22
ENDBRANCH   4  20
BRANCH   9  28
HETATM   28  O3  UNL     1       7.058  53.613  -6.635  1.00  0.00    -0.395 OA
HETATM   29  H23 UNL     1       6.384  53.154  -6.108  1.00  0.00     0.210 HD
ENDBRANCH   9  28
BRANCH  15  30
HETATM   30  O4  UNL     1       1.098  54.228  -9.690  1.00  0.00    -0.315 OA
BRANCH  30  31
HETATM   31  C21 UNL     1      -0.151  54.371  -9.162  1.00  0.00     0.262 C 
HETATM   32  O5  UNL     1      -0.429  54.264  -7.977  1.00  0.00    -0.265 OA
BRANCH  31  33
HETATM   33  C22 UNL     1      -1.131  54.719 -10.255  1.00  0.00     0.148 C 
BRANCH  33  34
HETATM   34  C23 UNL     1      -2.124  53.602 -10.611  1.00  0.00     0.059 C 
HETATM   35  C24 UNL     1      -1.773  52.277  -9.930  1.00  0.00     0.045 C 
HETATM   36  C25 UNL     1      -3.582  53.981 -10.339  1.00  0.00     0.045 C 
BRANCH  34  37
HETATM   37  O6  UNL     1      -2.003  53.366 -12.026  1.00  0.00    -0.390 OA
HETATM   38  H42 UNL     1      -2.371  54.136 -12.496  1.00  0.00     0.210 HD
ENDBRANCH  34  37
ENDBRANCH  33  34
ENDBRANCH  31  33
ENDBRANCH  30  31
ENDBRANCH  15  30
TORSDOF 11
ENDMDL
