MODEL 1
REMARK minimizedAffinity -6.78429794
REMARK CNNscore 0.541072845
REMARK CNNaffinity 6.18502855
REMARK  10 active torsions:
REMARK  status: ('A' for Active; 'I' for Inactive)
REMARK    1  A    between atoms: C14_14  and  C15_15 
REMARK    2  A    between atoms: C15_15  and  C17_17 
REMARK    3  A    between atoms: C17_17  and  C18_18 
REMARK    4  A    between atoms: C18_18  and  C19_19 
REMARK    5  A    between atoms: C20_20  and  C22_22 
REMARK    6  A    between atoms: C22_22  and  O2_24 
REMARK    7  A    between atoms: C27_29  and  C28_30 
REMARK    8  A    between atoms: C28_30  and  C29_31 
REMARK    9  A    between atoms: C29_31  and  C30_32 
REMARK   10  A    between atoms: C30_32  and  O4_34 
ROOT
HETATM    1  C1  UNL     1     -18.243  42.933 -27.551  1.00  0.00     0.043 C 
HETATM    2  C2  UNL     1     -17.523  43.736 -26.484  1.00  0.00    -0.085 C 
HETATM    3  C3  UNL     1     -17.893  43.244 -25.108  1.00  0.00     0.043 C 
HETATM    4  C4  UNL     1     -16.632  44.720 -26.786  1.00  0.00    -0.073 C 
HETATM    5  C5  UNL     1     -16.149  44.851 -28.226  1.00  0.00     0.035 C 
HETATM    6  C6  UNL     1     -14.818  45.587 -28.372  1.00  0.00     0.010 C 
HETATM    7  C7  UNL     1     -13.774  45.236 -27.276  1.00  0.00     0.003 C 
HETATM    8  C8  UNL     1     -14.368  45.291 -25.780  1.00  0.00    -0.032 C 
HETATM    9  C9  UNL     1     -14.305  43.893 -25.101  1.00  0.00     0.016 C 
HETATM   10  C10 UNL     1     -13.546  46.246 -24.855  1.00  0.00     0.011 C 
HETATM   11  C11 UNL     1     -12.006  46.238 -24.974  1.00  0.00     0.011 C 
HETATM   12  C12 UNL     1     -11.438  45.755 -26.321  1.00  0.00    -0.032 C 
HETATM   13  C13 UNL     1     -11.099  44.240 -26.229  1.00  0.00     0.016 C 
HETATM   14  C14 UNL     1     -10.156  46.502 -26.829  1.00  0.00    -0.002 C 
HETATM   15  C23 UNL     1     -10.216  46.303 -28.372  1.00  0.00     0.006 C 
HETATM   16  C24 UNL     1     -11.628  45.774 -28.705  1.00  0.00     0.011 C 
HETATM   17  C25 UNL     1     -12.471  46.094 -27.454  1.00  0.00    -0.032 C 
HETATM   18  C26 UNL     1     -12.847  47.614 -27.574  1.00  0.00     0.016 C 
HETATM   19  C27 UNL     1     -15.898  45.719 -25.861  1.00  0.00     0.024 C 
ENDROOT
BRANCH  14  20
HETATM   20  C15 UNL     1      -8.738  46.302 -26.205  1.00  0.00    -0.014 C 
HETATM   21  C16 UNL     1      -7.798  45.597 -27.191  1.00  0.00     0.010 C 
BRANCH  20  22
HETATM   22  C17 UNL     1      -8.047  47.543 -25.589  1.00  0.00     0.008 C 
BRANCH  22  23
HETATM   23  C18 UNL     1      -6.579  47.742 -26.008  1.00  0.00     0.028 C 
BRANCH  23  24
HETATM   24  C19 UNL     1      -5.735  48.348 -24.922  1.00  0.00    -0.013 C 
HETATM   25  C20 UNL     1      -4.414  48.617 -24.949  1.00  0.00     0.008 C 
HETATM   26  C21 UNL     1      -3.478  48.357 -26.091  1.00  0.00     0.055 C 
BRANCH  25  27
HETATM   27  C22 UNL     1      -3.840  49.224 -23.719  1.00  0.00     0.171 C 
HETATM   28  O1  UNL     1      -4.360  50.065 -23.007  1.00  0.00    -0.646 OA
BRANCH  27  29
HETATM   29  O2  UNL     1      -2.620  48.742 -23.430  1.00  0.00    -0.773 OA
HETATM   30  H35 UNL     1      -2.375  49.220 -22.612  1.00  0.00     0.167 HD
ENDBRANCH  27  29
ENDBRANCH  25  27
ENDBRANCH  23  24
ENDBRANCH  22  23
ENDBRANCH  20  22
ENDBRANCH  14  20
BRANCH  19  31
HETATM   31  C28 UNL     1     -16.588  46.127 -24.529  1.00  0.00     0.020 C 
BRANCH  31  32
HETATM   32  C29 UNL     1     -17.679  47.189 -24.708  1.00  0.00     0.110 C 
BRANCH  32  33
HETATM   33  C30 UNL     1     -19.072  46.721 -24.403  1.00  0.00     0.139 C 
HETATM   34  O3  UNL     1     -20.024  46.744 -25.166  1.00  0.00    -0.650 OA
BRANCH  33  35
HETATM   35  O4  UNL     1     -19.210  46.273 -23.143  1.00  0.00    -0.776 OA
HETATM   36  H48 UNL     1     -20.146  45.982 -23.107  1.00  0.00     0.167 HD
ENDBRANCH  33  35
ENDBRANCH  32  33
ENDBRANCH  31  32
ENDBRANCH  19  31
TORSDOF 10
ENDMDL
