MODEL 1
REMARK minimizedAffinity -9.24651527
REMARK  4 active torsions:
REMARK  status: ('A' for Active; 'I' for Inactive)
REMARK    1  A    between atoms: C12_13  and  C13_14 
REMARK    2  A    between atoms: C20_21  and  C21_22 
REMARK    3  A    between atoms: C21_22  and  C22_23 
REMARK    4  A    between atoms: C23_24  and  O2_25 
ROOT
HETATM    1  C1  UNL     1      -6.664  48.944 -24.359  1.00  0.00     0.015 C 
HETATM    2  C2  UNL     1      -5.812  49.690 -23.636  1.00  0.00    -0.084 C 
HETATM    3  C3  UNL     1      -6.225  50.330 -22.331  1.00  0.00     0.034 C 
HETATM    4  C4  UNL     1      -5.260  49.993 -21.192  1.00  0.00     0.010 C 
HETATM    5  C5  UNL     1      -3.781  50.224 -21.583  1.00  0.00     0.006 C 
HETATM    6  C6  UNL     1      -3.394  49.447 -22.893  1.00  0.00    -0.032 C 
HETATM    7  C7  UNL     1      -3.570  47.909 -22.742  1.00  0.00     0.016 C 
HETATM    8  C8  UNL     1      -1.900  49.688 -23.270  1.00  0.00     0.013 C 
HETATM    9  C9  UNL     1      -1.162  50.616 -22.309  1.00  0.00     0.039 C 
HETATM   10  C10 UNL     1      -1.280  50.153 -20.844  1.00  0.00     0.066 C 
HETATM   11  C11 UNL     1      -0.476  48.857 -20.646  1.00  0.00     0.047 C 
HETATM   12  O1  UNL     1      -0.587  51.144 -20.049  1.00  0.00    -0.371 OA
HETATM   13  C12 UNL     1      -1.460  51.707 -19.067  1.00  0.00     0.146 C 
HETATM   14  C17 UNL     1      -2.872  51.398 -19.528  1.00  0.00     0.048 C 
HETATM   15  C18 UNL     1      -2.771  50.110 -20.375  1.00  0.00    -0.006 C 
HETATM   16  C19 UNL     1      -3.097  48.918 -19.448  1.00  0.00     0.019 C 
HETATM   17  C20 UNL     1      -4.361  49.914 -24.063  1.00  0.00     0.027 C 
ENDROOT
BRANCH  17  18
HETATM   18  C21 UNL     1      -4.161  51.384 -24.547  1.00  0.00     0.057 C 
BRANCH  18  19
HETATM   19  C22 UNL     1      -2.979  51.549 -25.480  1.00  0.00     0.052 A 
HETATM   20  C23 UNL     1      -2.033  52.486 -25.311  1.00  0.00     0.086 A 
HETATM   21  C24 UNL     1      -0.904  52.627 -26.218  1.00  0.00     0.001 A 
HETATM   22  C25 UNL     1       0.045  53.781 -26.035  1.00  0.00     0.054 C 
HETATM   23  C26 UNL     1      -0.792  51.730 -27.217  1.00  0.00     0.061 A 
HETATM   24  C27 UNL     1       0.307  51.650 -28.233  1.00  0.00     0.077 C 
HETATM   25  O3  UNL     1      -1.766  50.719 -27.407  1.00  0.00    -0.279 OA
HETATM   26  C28 UNL     1      -2.888  50.628 -26.636  1.00  0.00     0.297 A 
HETATM   27  O4  UNL     1      -3.770  49.815 -26.896  1.00  0.00    -0.259 OA
BRANCH  20  28
HETATM   28  O2  UNL     1      -2.108  53.341 -24.226  1.00  0.00    -0.359 OA
HETATM   29  H34 UNL     1      -1.234  53.717 -24.039  1.00  0.00     0.217 HD
ENDBRANCH  20  28
ENDBRANCH  18  19
ENDBRANCH  17  18
BRANCH  13  30
HETATM   30  C13 UNL     1      -1.095  51.142 -17.723  1.00  0.00     0.007 C 
HETATM   31  C14 UNL     1       0.052  51.343 -17.042  1.00  0.00    -0.089 C 
HETATM   32  C15 UNL     1       1.180  52.219 -17.513  1.00  0.00     0.042 C 
HETATM   33  C16 UNL     1       0.286  50.681 -15.710  1.00  0.00     0.042 C 
ENDBRANCH  13  30
TORSDOF 4
ENDMDL
