MODEL 1
REMARK minimizedAffinity -9.63924789
REMARK  4 active torsions:
REMARK  status: ('A' for Active; 'I' for Inactive)
REMARK    1  A    between atoms: C4_4  and  C5_5 
REMARK    2  A    between atoms: C5_5  and  C6_7 
REMARK    3  A    between atoms: C6_7  and  C7_8 
REMARK    4  A    between atoms: C7_8  and  C9_10 
ROOT
HETATM    1  C9  UNL     1       0.907   6.400  12.287  1.00  0.00    -0.001 C 
HETATM    2  C10 UNL     1       0.957   4.899  11.875  1.00  0.00     0.007 C 
HETATM    3  C11 UNL     1      -0.432   4.295  12.167  1.00  0.00     0.015 C 
HETATM    4  C12 UNL     1      -1.148   5.355  13.027  1.00  0.00    -0.013 C 
HETATM    5  C13 UNL     1      -0.665   5.120  14.497  1.00  0.00     0.021 C 
HETATM    6  C14 UNL     1      -2.674   5.330  13.076  1.00  0.00    -0.070 C 
HETATM    7  C15 UNL     1      -3.375   4.182  13.029  1.00  0.00    -0.022 C 
HETATM    8  C16 UNL     1      -4.864   4.087  13.192  1.00  0.00     0.034 C 
HETATM    9  C17 UNL     1      -5.589   5.451  13.154  1.00  0.00     0.013 C 
HETATM   10  C18 UNL     1      -7.141   5.399  13.427  1.00  0.00     0.018 C 
HETATM   11  C19 UNL     1      -7.638   4.013  13.895  1.00  0.00     0.023 C 
HETATM   12  C20 UNL     1      -7.902   5.740  12.125  1.00  0.00     0.023 C 
HETATM   13  C21 UNL     1      -7.597   6.436  14.466  1.00  0.00     0.135 C 
HETATM   14  O2  UNL     1      -8.521   6.209  15.251  1.00  0.00    -0.297 OA
HETATM   15  C22 UNL     1      -6.968   7.809  14.460  1.00  0.00     0.080 C 
HETATM   16  C23 UNL     1      -5.577   7.858  13.849  1.00  0.00     0.017 C 
HETATM   17  C24 UNL     1      -4.789   6.532  13.965  1.00  0.00    -0.031 C 
HETATM   18  C25 UNL     1      -4.620   6.143  15.454  1.00  0.00     0.016 C 
HETATM   19  C26 UNL     1      -3.380   6.681  13.263  1.00  0.00     0.024 C 
HETATM   20  C27 UNL     1      -2.451   7.750  13.890  1.00  0.00     0.010 C 
HETATM   21  C28 UNL     1      -1.052   7.881  13.239  1.00  0.00     0.011 C 
HETATM   22  C29 UNL     1      -0.631   6.680  12.363  1.00  0.00    -0.029 C 
HETATM   23  C30 UNL     1      -1.157   6.900  10.908  1.00  0.00     0.016 C 
ENDROOT
BRANCH   1  24
HETATM   24  C7  UNL     1       1.807   7.294  11.388  1.00  0.00    -0.007 C 
HETATM   25  C8  UNL     1       1.736   8.780  11.754  1.00  0.00     0.011 C 
BRANCH  24  26
HETATM   26  C6  UNL     1       3.279   6.819  11.338  1.00  0.00     0.087 C 
BRANCH  26  27
HETATM   27  C5  UNL     1       3.740   6.167  10.042  1.00  0.00     0.149 C 
HETATM   28  O1  UNL     1       4.835   5.632   9.906  1.00  0.00    -0.293 OA
BRANCH  27  29
HETATM   29  C4  UNL     1       2.780   6.270   8.898  1.00  0.00     0.052 C 
HETATM   30  C2  UNL     1       2.597   7.357   8.124  1.00  0.00    -0.084 C 
HETATM   31  C1  UNL     1       1.554   7.353   7.037  1.00  0.00     0.043 C 
HETATM   32  C3  UNL     1       3.370   8.644   8.240  1.00  0.00     0.043 C 
ENDBRANCH  27  29
ENDBRANCH  26  27
ENDBRANCH  24  26
ENDBRANCH   1  24
TORSDOF 4
ENDMDL
