MODEL 1
REMARK minimizedAffinity -6.19903708
REMARK CNNscore 0.300659597
REMARK CNNaffinity 5.33522177
REMARK  4 active torsions:
REMARK  status: ('A' for Active; 'I' for Inactive)
REMARK    1  A    between atoms: C2_2  and  C3_3 
REMARK    2  A    between atoms: C7_7  and  C8_8 
REMARK    3  A    between atoms: C8_8  and  C9_9 
REMARK    4  A    between atoms: C26_31  and  O5_32 
ROOT
HETATM    1  C3  UNL     1     -22.605   0.382   9.962  1.00  0.00     0.008 C 
HETATM    2  C4  UNL     1     -21.931  -0.967  10.104  1.00  0.00    -0.026 C 
HETATM    3  C5  UNL     1     -21.961  -1.662  11.255  1.00  0.00    -0.028 C 
HETATM    4  C6  UNL     1     -21.327  -3.008  11.470  1.00  0.00     0.059 C 
HETATM    5  C7  UNL     1     -20.484  -3.186  12.764  1.00  0.00     0.135 C 
HETATM    6  O1  UNL     1     -19.212  -2.506  12.713  1.00  0.00    -0.315 OA
HETATM    7  C12 UNL     1     -18.263  -3.074  11.915  1.00  0.00     0.276 C 
HETATM    8  O2  UNL     1     -18.485  -4.012  11.151  1.00  0.00    -0.264 OA
HETATM    9  C13 UNL     1     -16.821  -2.558  12.226  1.00  0.00     0.095 C 
HETATM   10  C14 UNL     1     -15.989  -2.635  10.924  1.00  0.00     0.036 C 
HETATM   11  C15 UNL     1     -16.297  -3.665  13.129  1.00  0.00     0.003 C 
HETATM   12  C16 UNL     1     -15.432  -3.660  14.144  1.00  0.00     0.072 C 
HETATM   13  C17 UNL     1     -14.664  -2.549  14.705  1.00  0.00     0.245 C 
HETATM   14  O3  UNL     1     -13.741  -2.806  15.477  1.00  0.00    -0.268 OA
HETATM   15  N1  UNL     1     -14.972  -1.266  14.435  1.00  0.00    -0.320 N 
HETATM   16  C18 UNL     1     -15.913  -0.613  13.678  1.00  0.00     0.098 C 
HETATM   17  C19 UNL     1     -16.752  -1.123  12.760  1.00  0.00     0.045 C 
HETATM   18  C20 UNL     1     -17.648  -0.157  12.029  1.00  0.00     0.194 C 
HETATM   19  O4  UNL     1     -18.164  -0.481  10.967  1.00  0.00    -0.287 OA
HETATM   20  C21 UNL     1     -17.818   1.224  12.512  1.00  0.00     0.046 A 
HETATM   21  C22 UNL     1     -16.856   1.749  13.356  1.00  0.00     0.032 A 
HETATM   22  C23 UNL     1     -16.852   3.114  13.691  1.00  0.00     0.026 A 
HETATM   23  C24 UNL     1     -17.833   3.981  13.190  1.00  0.00    -0.027 A 
HETATM   24  C25 UNL     1     -17.784   5.437  13.554  1.00  0.00     0.051 C 
HETATM   25  C26 UNL     1     -18.852   3.435  12.404  1.00  0.00     0.086 A 
HETATM   26  C27 UNL     1     -18.847   2.068  12.073  1.00  0.00     0.059 A 
HETATM   27  C28 UNL     1     -20.085   1.516  11.500  1.00  0.00     0.163 C 
HETATM   28  O6  UNL     1     -20.913   1.116  12.313  1.00  0.00    -0.292 OA
HETATM   29  C29 UNL     1     -20.231   1.509   9.990  1.00  0.00     0.084 C 
HETATM   30  C30 UNL     1     -21.670   1.511   9.468  1.00  0.00     0.016 C 
HETATM   31  C31 UNL     1     -15.841   0.869  13.933  1.00  0.00     0.210 C 
HETATM   32  O7  UNL     1     -14.949   1.330  14.641  1.00  0.00    -0.285 OA
HETATM   33  H26 UNL     1     -14.377  -0.638  14.981  1.00  0.00     0.169 HD
ENDROOT
BRANCH   5  34
HETATM   34  C8  UNL     1     -21.232  -2.721  14.030  1.00  0.00     0.037 C 
BRANCH  34  35
HETATM   35  C9  UNL     1     -20.378  -2.423  15.284  1.00  0.00    -0.020 C 
HETATM   36  C10 UNL     1     -19.384  -3.539  15.602  1.00  0.00     0.009 C 
HETATM   37  C11 UNL     1     -19.666  -1.072  15.229  1.00  0.00     0.009 C 
ENDBRANCH  34  35
ENDBRANCH   5  34
BRANCH   1  38
HETATM   38  C2  UNL     1     -23.889   0.287   9.106  1.00  0.00     0.004 C 
HETATM   39  C1  UNL     1     -23.721   0.570   7.618  1.00  0.00     0.006 C 
ENDBRANCH   1  38
BRANCH  25  40
HETATM   40  O5  UNL     1     -19.877   4.212  11.939  1.00  0.00    -0.359 OA
HETATM   41  H31 UNL     1     -19.977   5.001  12.499  1.00  0.00     0.217 HD
ENDBRANCH  25  40
TORSDOF 4
ENDMDL
