MODEL 1
REMARK minimizedAffinity -8.62368679
REMARK CNNscore 0.544563174
REMARK CNNaffinity 7.14505053
REMARK  9 active torsions:
REMARK  status: ('A' for Active; 'I' for Inactive)
REMARK    1  A    between atoms: C2_2  and  C3_3 
REMARK    2  A    between atoms: C2_2  and  C9_12 
REMARK    3  A    between atoms: C3_3  and  C4_4 
REMARK    4  A    between atoms: C4_4  and  C5_5 
REMARK    5  A    between atoms: C5_5  and  O1_6 
REMARK    6  A    between atoms: C5_5  and  C6_7 
REMARK    7  A    between atoms: C6_7  and  O2_9 
REMARK    8  A    between atoms: C6_7  and  C8_10 
REMARK    9  A    between atoms: C8_10  and  O3_11 
ROOT
HETATM    1  C9  UNL     1      -2.404  49.515 -21.620  1.00  0.00    -0.002 C 
HETATM    2  C10 UNL     1      -3.020  50.908 -21.373  1.00  0.00     0.007 C 
HETATM    3  C11 UNL     1      -2.157  51.634 -20.347  1.00  0.00     0.015 C 
HETATM    4  C12 UNL     1      -0.919  50.751 -20.083  1.00  0.00    -0.005 C 
HETATM    5  C13 UNL     1       0.210  51.129 -21.082  1.00  0.00     0.021 C 
HETATM    6  C14 UNL     1      -0.430  50.936 -18.633  1.00  0.00    -0.000 C 
HETATM    7  C15 UNL     1      -0.579  50.012 -17.652  1.00  0.00    -0.060 C 
HETATM    8  C16 UNL     1      -1.380  48.747 -17.900  1.00  0.00     0.036 C 
HETATM    9  C17 UNL     1      -2.251  48.789 -19.153  1.00  0.00     0.015 C 
HETATM   10  C18 UNL     1      -1.466  49.293 -20.382  1.00  0.00    -0.028 C 
HETATM   11  C19 UNL     1      -0.315  48.308 -20.699  1.00  0.00     0.016 C 
HETATM   12  C20 UNL     1      -0.005  50.192 -16.221  1.00  0.00    -0.014 C 
HETATM   13  C21 UNL     1      -1.146  50.797 -15.373  1.00  0.00     0.020 C 
HETATM   14  C22 UNL     1       0.433  48.832 -15.612  1.00  0.00     0.021 C 
HETATM   15  C23 UNL     1       1.148  48.965 -14.277  1.00  0.00     0.080 C 
HETATM   16  C24 UNL     1       2.371  49.834 -14.417  1.00  0.00     0.135 C 
HETATM   17  O4  UNL     1       3.445  49.463 -13.940  1.00  0.00    -0.297 OA
HETATM   18  C25 UNL     1       2.190  51.215 -15.065  1.00  0.00     0.018 C 
HETATM   19  C26 UNL     1       3.592  51.719 -15.497  1.00  0.00     0.023 C 
HETATM   20  C27 UNL     1       1.680  52.181 -13.985  1.00  0.00     0.023 C 
HETATM   21  C28 UNL     1       1.277  51.085 -16.335  1.00  0.00     0.020 C 
HETATM   22  C29 UNL     1       0.916  52.430 -16.967  1.00  0.00     0.090 C 
HETATM   23  C30 UNL     1       0.172  52.270 -18.271  1.00  0.00     0.157 C 
HETATM   24  O5  UNL     1       0.021  53.252 -18.998  1.00  0.00    -0.293 OA
ENDROOT
BRANCH   1  25
HETATM   25  C2  UNL     1      -3.501  48.454 -21.965  1.00  0.00    -0.014 C 
HETATM   26  C1  UNL     1      -3.015  47.016 -21.754  1.00  0.00     0.010 C 
BRANCH  25  27
HETATM   27  C3  UNL     1      -3.985  48.641 -23.433  1.00  0.00     0.007 C 
BRANCH  27  28
HETATM   28  C4  UNL     1      -2.847  48.789 -24.455  1.00  0.00     0.035 C 
BRANCH  28  29
HETATM   29  C5  UNL     1      -3.156  49.704 -25.656  1.00  0.00     0.154 C 
BRANCH  29  30
HETATM   30  O1  UNL     1      -4.584  49.735 -25.821  1.00  0.00    -0.392 OA
HETATM   31  H10 UNL     1      -4.755  50.265 -26.630  1.00  0.00     0.210 HD
ENDBRANCH  29  30
BRANCH  29  32
HETATM   32  C6  UNL     1      -2.623  51.167 -25.583  1.00  0.00     0.101 C 
HETATM   33  C7  UNL     1      -1.374  51.305 -24.715  1.00  0.00     0.051 C 
BRANCH  32  34
HETATM   34  O2  UNL     1      -3.648  52.022 -25.044  1.00  0.00    -0.385 OA
HETATM   35  H14 UNL     1      -4.494  51.573 -25.243  1.00  0.00     0.210 HD
ENDBRANCH  32  34
BRANCH  32  36
HETATM   36  C8  UNL     1      -2.313  51.698 -27.003  1.00  0.00     0.204 C 
BRANCH  36  37
HETATM   37  O3  UNL     1      -2.412  53.125 -27.035  1.00  0.00    -0.398 OA
HETATM   38  H17 UNL     1      -1.633  53.444 -26.538  1.00  0.00     0.209 HD
ENDBRANCH  36  37
ENDBRANCH  32  36
ENDBRANCH  29  32
ENDBRANCH  28  29
ENDBRANCH  27  28
ENDBRANCH  25  27
ENDBRANCH   1  25
TORSDOF 9
ENDMDL
