MODEL 1
REMARK minimizedAffinity -7.83711815
REMARK CNNscore 0.378016531
REMARK CNNaffinity 7.03237104
REMARK  11 active torsions:
REMARK  status: ('A' for Active; 'I' for Inactive)
REMARK    1  A    between atoms: C2_2  and  O2_4 
REMARK    2  A    between atoms: O2_4  and  C3_5 
REMARK    3  A    between atoms: C4_6  and  O3_7 
REMARK    4  A    between atoms: O3_7  and  C5_8 
REMARK    5  A    between atoms: C15_18  and  C16_19 
REMARK    6  A    between atoms: C20_23  and  C21_24 
REMARK    7  A    between atoms: C21_24  and  O4_27 
REMARK    8  A    between atoms: C24_29  and  O6_30 
REMARK    9  A    between atoms: C30_36  and  O7_37 
REMARK   10  A    between atoms: C36_44  and  O9_45 
REMARK   11  A    between atoms: C37_46  and  O10_47 
ROOT
HETATM    1  C5  UNL     1      -3.443  14.202  16.706  1.00  0.00     0.133 C 
HETATM    2  C6  UNL     1      -4.588  13.442  16.014  1.00  0.00     0.034 C 
HETATM    3  C7  UNL     1      -4.367  11.929  15.905  1.00  0.00     0.013 C 
HETATM    4  C8  UNL     1      -2.894  11.576  15.974  1.00  0.00    -0.025 A 
HETATM    5  C9  UNL     1      -2.119  11.800  14.708  1.00  0.00     0.021 A 
HETATM    6  C10 UNL     1      -2.303  10.364  15.196  1.00  0.00    -0.027 A 
HETATM    7  C11 UNL     1      -3.269   9.523  14.347  1.00  0.00     0.011 C 
HETATM    8  C12 UNL     1      -2.869   8.110  13.919  1.00  0.00     0.011 C 
HETATM    9  C13 UNL     1      -1.361   7.894  13.853  1.00  0.00    -0.028 C 
HETATM   10  C14 UNL     1      -0.791   8.797  12.730  1.00  0.00     0.016 C 
HETATM   11  C15 UNL     1      -0.861   6.401  13.680  1.00  0.00     0.057 C 
HETATM   12  C24 UNL     1       0.555   6.459  14.350  1.00  0.00     0.126 C 
HETATM   13  C25 UNL     1       0.626   7.749  15.173  1.00  0.00     0.042 C 
HETATM   14  C26 UNL     1      -0.828   8.229  15.300  1.00  0.00    -0.029 C 
HETATM   15  C27 UNL     1      -1.513   7.406  16.440  1.00  0.00     0.016 C 
HETATM   16  C28 UNL     1      -0.950   9.749  15.624  1.00  0.00     0.006 C 
HETATM   17  C29 UNL     1      -0.615  10.081  17.092  1.00  0.00     0.038 C 
HETATM   18  C30 UNL     1      -0.815  11.548  17.475  1.00  0.00     0.124 C 
HETATM   19  C31 UNL     1      -2.307  11.932  17.358  1.00  0.00     0.034 C 
HETATM   20  C32 UNL     1      -2.733  13.390  17.837  1.00  0.00    -0.015 C 
HETATM   21  C33 UNL     1      -1.562  14.236  18.377  1.00  0.00     0.018 C 
HETATM   22  C34 UNL     1      -3.728  13.254  19.023  1.00  0.00     0.018 C 
ENDROOT
BRANCH   1  23
HETATM   23  O3  UNL     1      -2.480  14.562  15.697  1.00  0.00    -0.352 OA
BRANCH  23  24
HETATM   24  C4  UNL     1      -2.534  15.941  15.320  1.00  0.00     0.292 C 
HETATM   25  C3  UNL     1      -3.255  16.051  13.958  1.00  0.00     0.218 C 
HETATM   26  C37 UNL     1      -3.603  17.517  13.683  1.00  0.00     0.183 C 
HETATM   27  C36 UNL     1      -4.372  18.151  14.862  1.00  0.00     0.173 C 
HETATM   28  C35 UNL     1      -4.427  17.212  16.071  1.00  0.00     0.205 C 
HETATM   29  O8  UNL     1      -3.127  16.711  16.369  1.00  0.00    -0.356 OA
BRANCH  25  30
HETATM   30  O2  UNL     1      -2.353  15.595  12.918  1.00  0.00    -0.309 OA
BRANCH  30  31
HETATM   31  C2  UNL     1      -1.142  16.207  12.846  1.00  0.00     0.255 C 
HETATM   32  C1  UNL     1      -0.054  15.221  13.137  1.00  0.00     0.126 C 
HETATM   33  O1  UNL     1      -0.941  17.383  12.573  1.00  0.00    -0.266 OA
ENDBRANCH  30  31
ENDBRANCH  25  30
BRANCH  26  34
HETATM   34  O10 UNL     1      -4.414  17.604  12.497  1.00  0.00    -0.390 OA
HETATM   35  H60 UNL     1      -4.474  18.544  12.273  1.00  0.00     0.210 HD
ENDBRANCH  26  34
BRANCH  27  36
HETATM   36  O9  UNL     1      -3.700  19.383  15.192  1.00  0.00    -0.391 OA
HETATM   37  H58 UNL     1      -3.874  19.575  16.138  1.00  0.00     0.210 HD
ENDBRANCH  27  36
ENDBRANCH  23  24
ENDBRANCH   1  23
BRANCH  18  38
HETATM   38  O7  UNL     1      -0.360  11.674  18.826  1.00  0.00    -0.395 OA
HETATM   39  H47 UNL     1      -0.874  11.065  19.381  1.00  0.00     0.210 HD
ENDBRANCH  18  38
BRANCH  11  40
HETATM   40  C16 UNL     1      -0.940   5.622  12.333  1.00  0.00     0.065 C 
HETATM   41  C17 UNL     1      -0.228   6.420  11.204  1.00  0.00     0.046 C 
HETATM   42  C18 UNL     1      -0.289   4.237  12.409  1.00  0.00     0.041 C 
HETATM   43  C19 UNL     1      -0.963   3.463  11.298  1.00  0.00     0.038 C 
HETATM   44  C20 UNL     1      -2.298   4.183  11.077  1.00  0.00     0.156 C 
HETATM   45  O5  UNL     1      -2.290   5.351  11.933  1.00  0.00    -0.372 OA
BRANCH  44  46
HETATM   46  C21 UNL     1      -3.576   3.322  11.304  1.00  0.00     0.076 C 
HETATM   47  C22 UNL     1      -4.478   3.929  12.384  1.00  0.00     0.048 C 
HETATM   48  C23 UNL     1      -3.186   1.889  11.705  1.00  0.00     0.048 C 
BRANCH  46  49
HETATM   49  O4  UNL     1      -4.375   3.198  10.115  1.00  0.00    -0.388 OA
HETATM   50  H35 UNL     1      -4.328   4.032   9.622  1.00  0.00     0.210 HD
ENDBRANCH  46  49
ENDBRANCH  44  46
ENDBRANCH  11  40
BRANCH  12  51
HETATM   51  O6  UNL     1       1.650   6.436  13.449  1.00  0.00    -0.395 OA
HETATM   52  H37 UNL     1       1.377   6.868  12.617  1.00  0.00     0.210 HD
ENDBRANCH  12  51
TORSDOF 11
ENDMDL
