MODEL 1
REMARK minimizedAffinity -9.15893459
REMARK  7 active torsions:
REMARK  status: ('A' for Active; 'I' for Inactive)
REMARK    1  A    between atoms: C2_2  and  C4_4 
REMARK    2  A    between atoms: C7_7  and  O1_9 
REMARK    3  A    between atoms: C9_10  and  C10_11 
REMARK    4  A    between atoms: C11_12  and  C12_13 
REMARK    5  A    between atoms: C14_15  and  C15_16 
REMARK    6  A    between atoms: C24_26  and  C26_28 
REMARK    7  A    between atoms: C29_32  and  O4_34 
ROOT
HETATM    1  C15 UNL     1      -6.935  50.212 -22.010  1.00  0.00     0.149 C 
HETATM    2  C16 UNL     1      -6.333  49.678 -20.705  1.00  0.00     0.054 C 
HETATM    3  C17 UNL     1      -6.717  48.169 -20.640  1.00  0.00     0.050 C 
HETATM    4  C18 UNL     1      -8.026  48.262 -21.450  1.00  0.00     0.272 C 
HETATM    5  O2  UNL     1      -8.631  47.065 -21.875  1.00  0.00    -0.360 OA
HETATM    6  C19 UNL     1      -7.970  46.393 -22.928  1.00  0.00     0.171 C 
HETATM    7  C20 UNL     1      -7.058  45.323 -22.371  1.00  0.00     0.027 C 
HETATM    8  C21 UNL     1      -5.821  45.805 -21.620  1.00  0.00     0.012 C 
HETATM    9  C22 UNL     1      -5.602  47.321 -21.372  1.00  0.00     0.032 C 
HETATM   10  C23 UNL     1      -4.255  47.444 -20.614  1.00  0.00    -0.066 C 
HETATM   11  C24 UNL     1      -3.090  47.803 -21.220  1.00  0.00    -0.021 C 
HETATM   12  C25 UNL     1      -2.930  48.121 -22.687  1.00  0.00     0.052 C 
HETATM   13  C27 UNL     1      -4.387  47.072 -19.141  1.00  0.00     0.038 C 
HETATM   14  C28 UNL     1      -5.540  47.772 -18.422  1.00  0.00     0.042 C 
HETATM   15  C29 UNL     1      -6.891  47.672 -19.165  1.00  0.00     0.067 C 
HETATM   16  C30 UNL     1      -7.952  48.418 -18.333  1.00  0.00     0.047 C 
HETATM   17  O5  UNL     1      -7.755  49.160 -22.543  1.00  0.00    -0.351 OA
ENDROOT
BRANCH   1  18
HETATM   18  C14 UNL     1      -5.902  50.567 -23.036  1.00  0.00     0.011 C 
HETATM   19  C12 UNL     1      -4.737  51.234 -22.870  1.00  0.00    -0.064 C 
HETATM   20  C13 UNL     1      -4.256  51.787 -21.553  1.00  0.00     0.048 C 
BRANCH  19  21
HETATM   21  C11 UNL     1      -3.876  51.398 -24.041  1.00  0.00     0.003 C 
HETATM   22  C10 UNL     1      -2.576  51.737 -24.041  1.00  0.00    -0.018 C 
BRANCH  22  23
HETATM   23  C9  UNL     1      -1.686  51.852 -25.264  1.00  0.00     0.050 C 
HETATM   24  C4  UNL     1      -1.325  50.536 -26.011  1.00  0.00     0.024 C 
HETATM   25  C5  UNL     1      -0.053  50.910 -26.784  1.00  0.00     0.013 C 
HETATM   26  C6  UNL     1       0.740  51.691 -25.744  1.00  0.00     0.039 C 
HETATM   27  C7  UNL     1      -0.312  52.573 -25.040  1.00  0.00     0.062 C 
HETATM   28  C8  UNL     1       0.094  52.844 -23.589  1.00  0.00     0.046 C 
BRANCH  24  29
HETATM   29  C2  UNL     1      -2.441  49.964 -26.872  1.00  0.00    -0.088 C 
HETATM   30  C1  UNL     1      -2.946  50.665 -27.906  1.00  0.00     0.014 C 
HETATM   31  C3  UNL     1      -2.979  48.595 -26.541  1.00  0.00     0.043 C 
ENDBRANCH  24  29
BRANCH  27  32
HETATM   32  O1  UNL     1      -0.343  53.835 -25.726  1.00  0.00    -0.390 OA
HETATM   33  H14 UNL     1      -0.995  54.400 -25.275  1.00  0.00     0.210 HD
ENDBRANCH  27  32
ENDBRANCH  22  23
ENDBRANCH  19  21
ENDBRANCH   1  18
BRANCH  15  34
HETATM   34  O4  UNL     1      -7.300  46.299 -19.161  1.00  0.00    -0.389 OA
HETATM   35  H44 UNL     1      -7.430  46.014 -18.240  1.00  0.00     0.210 HD
ENDBRANCH  15  34
BRANCH  11  36
HETATM   36  C26 UNL     1      -1.788  47.944 -20.486  1.00  0.00     0.265 C 
HETATM   37  O3  UNL     1      -0.712  47.613 -20.975  1.00  0.00    -0.302 OA
ENDBRANCH  11  36
TORSDOF 7
ENDMDL
