MODEL 1
REMARK minimizedAffinity -8.18208027
REMARK CNNscore 0.590436637
REMARK CNNaffinity 6.42131472
REMARK  5 active torsions:
REMARK  status: ('A' for Active; 'I' for Inactive)
REMARK    1  A    between atoms: C2_2  and  C4_4 
REMARK    2  A    between atoms: C7_7  and  C8_8 
REMARK    3  A    between atoms: C8_8  and  O2_10 
REMARK    4  A    between atoms: C11_13  and  C12_14 
REMARK    5  A    between atoms: C12_14  and  O4_16 
ROOT
HETATM    1  C4  UNL     1       2.258   8.401   9.238  1.00  0.00     0.019 C 
HETATM    2  C5  UNL     1       3.711   7.941   8.943  1.00  0.00     0.011 C 
HETATM    3  C6  UNL     1       4.189   7.154  10.175  1.00  0.00     0.021 C 
HETATM    4  C7  UNL     1       3.306   7.679  11.313  1.00  0.00     0.050 C 
HETATM    5  C9  UNL     1       3.187   6.749  12.528  1.00  0.00     0.022 C 
HETATM    6  C10 UNL     1       2.075   7.236  13.482  1.00  0.00     0.023 C 
HETATM    7  C11 UNL     1       0.662   7.366  12.805  1.00  0.00     0.057 C 
HETATM    8  C13 UNL     1       0.823   8.286  11.524  1.00  0.00     0.011 C 
HETATM    9  C14 UNL     1      -0.505   8.570  10.808  1.00  0.00     0.007 C 
HETATM   10  C15 UNL     1      -1.605   9.065  11.749  1.00  0.00     0.006 C 
HETATM   11  C16 UNL     1      -1.802   8.154  12.982  1.00  0.00     0.003 C 
HETATM   12  C17 UNL     1      -3.134   8.454  13.793  1.00  0.00    -0.035 C 
HETATM   13  C18 UNL     1      -3.273   9.958  14.164  1.00  0.00     0.016 C 
HETATM   14  C19 UNL     1      -4.354   8.140  12.860  1.00  0.00     0.017 C 
HETATM   15  C20 UNL     1      -5.630   7.811  13.611  1.00  0.00     0.080 C 
HETATM   16  C21 UNL     1      -5.464   6.616  14.524  1.00  0.00     0.135 C 
HETATM   17  O5  UNL     1      -6.467   5.984  14.874  1.00  0.00    -0.297 OA
HETATM   18  C22 UNL     1      -4.046   6.266  15.019  1.00  0.00     0.017 C 
HETATM   19  C23 UNL     1      -3.468   5.191  14.089  1.00  0.00     0.023 C 
HETATM   20  C24 UNL     1      -4.199   5.617  16.416  1.00  0.00     0.023 C 
HETATM   21  C25 UNL     1      -3.241   7.615  15.125  1.00  0.00     0.009 C 
HETATM   22  C26 UNL     1      -1.895   7.539  15.875  1.00  0.00     0.007 C 
HETATM   23  C27 UNL     1      -0.713   7.101  15.021  1.00  0.00     0.011 C 
HETATM   24  C28 UNL     1      -0.457   8.004  13.789  1.00  0.00    -0.022 C 
HETATM   25  C29 UNL     1       0.054   9.372  14.333  1.00  0.00     0.017 C 
HETATM   26  C30 UNL     1       1.935   7.737  10.598  1.00  0.00     0.018 C 
ENDROOT
BRANCH   4  27
HETATM   27  C8  UNL     1       3.960   8.985  11.795  1.00  0.00     0.149 C 
HETATM   28  O1  UNL     1       3.397   9.857  12.441  1.00  0.00    -0.649 OA
BRANCH  27  29
HETATM   29  O2  UNL     1       5.257   9.135  11.494  1.00  0.00    -0.776 OA
HETATM   30  H11 UNL     1       5.504   9.979  11.926  1.00  0.00     0.167 HD
ENDBRANCH  27  29
ENDBRANCH   4  27
BRANCH   1  31
HETATM   31  C2  UNL     1       1.336   8.087   8.072  1.00  0.00    -0.088 C 
HETATM   32  C1  UNL     1       0.026   8.381   8.128  1.00  0.00     0.014 C 
HETATM   33  C3  UNL     1       1.921   7.471   6.828  1.00  0.00     0.043 C 
ENDBRANCH   1  31
BRANCH   7  34
HETATM   34  C12 UNL     1       0.228   5.934  12.375  1.00  0.00     0.149 C 
HETATM   35  O3  UNL     1       0.248   4.920  13.054  1.00  0.00    -0.649 OA
BRANCH  34  36
HETATM   36  O4  UNL     1      -0.213   5.843  11.105  1.00  0.00    -0.776 OA
HETATM   37  H16 UNL     1      -0.451   4.898  11.002  1.00  0.00     0.167 HD
ENDBRANCH  34  36
ENDBRANCH   7  34
TORSDOF 5
ENDMDL
