MODEL 1
REMARK minimizedAffinity -7.79492807
REMARK CNNscore 0.681946933
REMARK CNNaffinity 6.91599131
REMARK  13 active torsions:
REMARK  status: ('A' for Active; 'I' for Inactive)
REMARK    1  A    between atoms: C2_2  and  C3_3 
REMARK    2  A    between atoms: C2_2  and  C9_11 
REMARK    3  A    between atoms: C3_3  and  C4_4 
REMARK    4  A    between atoms: C4_4  and  C5_6 
REMARK    5  A    between atoms: C5_6  and  C6_7 
REMARK    6  A    between atoms: C6_7  and  O2_10 
REMARK    7  A    between atoms: C20_23  and  C21_24 
REMARK    8  A    between atoms: C21_24  and  O4_25 
REMARK    9  A    between atoms: C27_31  and  O5_32 
REMARK   10  A    between atoms: O5_32  and  C28_33 
REMARK   11  A    between atoms: C30_36  and  O7_37 
REMARK   12  A    between atoms: C31_38  and  O8_39 
REMARK   13  A    between atoms: C32_40  and  O9_41 
ROOT
HETATM    1  C9  UNL     1       1.149  53.554 -10.704  1.00  0.00     0.068 C 
HETATM    2  C10 UNL     1       0.199  54.710 -10.346  1.00  0.00     0.133 C 
HETATM    3  O3  UNL     1      -0.837  54.971 -10.948  1.00  0.00    -0.298 OA
HETATM    4  C11 UNL     1       0.719  55.574  -9.215  1.00  0.00     0.089 C 
HETATM    5  C12 UNL     1       2.214  55.236  -9.258  1.00  0.00    -0.022 C 
HETATM    6  C13 UNL     1       2.833  56.066 -10.442  1.00  0.00     0.017 C 
HETATM    7  C14 UNL     1       2.998  55.540  -7.950  1.00  0.00     0.024 C 
HETATM    8  C15 UNL     1       2.883  57.023  -7.549  1.00  0.00     0.010 C 
HETATM    9  C16 UNL     1       3.768  57.306  -6.351  1.00  0.00     0.010 C 
HETATM   10  C17 UNL     1       5.249  57.066  -6.699  1.00  0.00     0.025 C 
HETATM   11  C18 UNL     1       5.473  55.818  -7.570  1.00  0.00    -0.072 C 
HETATM   12  C19 UNL     1       4.456  55.063  -8.069  1.00  0.00    -0.066 C 
HETATM   13  C20 UNL     1       4.702  53.732  -8.820  1.00  0.00     0.039 C 
HETATM   14  C22 UNL     1       3.630  53.262  -9.855  1.00  0.00     0.021 C 
HETATM   15  C23 UNL     1       2.187  53.683  -9.526  1.00  0.00    -0.024 C 
HETATM   16  C24 UNL     1       1.681  52.843  -8.318  1.00  0.00     0.017 C 
HETATM   17  C25 UNL     1       6.942  55.565  -7.875  1.00  0.00     0.037 C 
HETATM   18  C26 UNL     1       7.852  55.621  -6.658  1.00  0.00     0.037 C 
HETATM   19  C27 UNL     1       7.653  56.914  -5.870  1.00  0.00     0.133 C 
HETATM   20  C33 UNL     1       6.167  57.087  -5.419  1.00  0.00    -0.014 C 
HETATM   21  C34 UNL     1       5.777  55.986  -4.401  1.00  0.00     0.018 C 
HETATM   22  C35 UNL     1       6.043  58.452  -4.695  1.00  0.00     0.018 C 
ENDROOT
BRANCH  19  23
HETATM   23  O5  UNL     1       8.507  56.932  -4.721  1.00  0.00    -0.353 OA
BRANCH  23  24
HETATM   24  C28 UNL     1       9.879  56.628  -4.997  1.00  0.00     0.291 C 
HETATM   25  O6  UNL     1      10.208  55.374  -4.384  1.00  0.00    -0.356 OA
HETATM   26  C29 UNL     1      11.220  55.444  -3.384  1.00  0.00     0.205 C 
HETATM   27  C30 UNL     1      12.489  56.052  -3.975  1.00  0.00     0.173 C 
HETATM   28  C31 UNL     1      12.218  57.478  -4.477  1.00  0.00     0.182 C 
HETATM   29  C32 UNL     1      10.729  57.824  -4.511  1.00  0.00     0.204 C 
BRANCH  27  30
HETATM   30  O7  UNL     1      13.578  56.056  -3.047  1.00  0.00    -0.391 OA
HETATM   31  H46 UNL     1      13.900  55.141  -2.984  1.00  0.00     0.210 HD
ENDBRANCH  27  30
BRANCH  28  32
HETATM   32  O8  UNL     1      12.879  58.450  -3.646  1.00  0.00    -0.390 OA
HETATM   33  H48 UNL     1      13.609  57.958  -3.212  1.00  0.00     0.210 HD
ENDBRANCH  28  32
BRANCH  29  34
HETATM   34  O9  UNL     1      10.547  58.976  -5.351  1.00  0.00    -0.388 OA
HETATM   35  H50 UNL     1      11.121  59.666  -4.966  1.00  0.00     0.210 HD
ENDBRANCH  29  34
ENDBRANCH  23  24
ENDBRANCH  19  23
BRANCH  13  36
HETATM   36  C21 UNL     1       5.067  52.606  -7.824  1.00  0.00     0.173 C 
BRANCH  36  37
HETATM   37  O4  UNL     1       4.928  51.334  -8.451  1.00  0.00    -0.400 OA
HETATM   38  H31 UNL     1       5.179  50.662  -7.788  1.00  0.00     0.209 HD
ENDBRANCH  36  37
ENDBRANCH  13  36
BRANCH   1  39
HETATM   39  C2  UNL     1       0.443  52.185 -10.938  1.00  0.00     0.000 C 
HETATM   40  C1  UNL     1       1.467  51.044 -11.000  1.00  0.00     0.011 C 
BRANCH  39  41
HETATM   41  C3  UNL     1      -0.394  52.147 -12.243  1.00  0.00     0.083 C 
BRANCH  41  42
HETATM   42  C4  UNL     1      -1.759  51.482 -12.072  1.00  0.00     0.130 C 
HETATM   43  O1  UNL     1      -1.882  50.260 -11.953  1.00  0.00    -0.298 OA
BRANCH  42  44
HETATM   44  C5  UNL     1      -2.962  52.413 -12.088  1.00  0.00     0.115 C 
BRANCH  44  45
HETATM   45  C6  UNL     1      -3.696  52.534 -10.741  1.00  0.00     0.057 C 
HETATM   46  C7  UNL     1      -4.166  53.967 -10.458  1.00  0.00     0.045 C 
HETATM   47  C8  UNL     1      -2.763  52.073  -9.616  1.00  0.00     0.045 C 
BRANCH  45  48
HETATM   48  O2  UNL     1      -4.827  51.659 -10.708  1.00  0.00    -0.390 OA
HETATM   49  H15 UNL     1      -5.394  51.905 -11.471  1.00  0.00     0.210 HD
ENDBRANCH  45  48
ENDBRANCH  44  45
ENDBRANCH  42  44
ENDBRANCH  41  42
ENDBRANCH  39  41
ENDBRANCH   1  39
TORSDOF 13
ENDMDL
