MODEL 1
REMARK minimizedAffinity -7.92661619
REMARK CNNscore 0.607022166
REMARK CNNaffinity 7.0494175
REMARK  9 active torsions:
REMARK  status: ('A' for Active; 'I' for Inactive)
REMARK    1  A    between atoms: C4_4  and  C5_5 
REMARK    2  A    between atoms: C7_7  and  O1_9 
REMARK    3  A    between atoms: C20_21  and  O2_22 
REMARK    4  A    between atoms: O2_22  and  C21_23 
REMARK    5  A    between atoms: C22_25  and  C23_26 
REMARK    6  A    between atoms: C23_26  and  O4_27 
REMARK    7  A    between atoms: C24_28  and  O5_29 
REMARK    8  A    between atoms: C25_30  and  O6_31 
REMARK    9  A    between atoms: C26_32  and  O7_33 
ROOT
HETATM    1  C5  UNL     1       0.910  16.882  11.200  1.00  0.00     0.147 C 
HETATM    2  C6  UNL     1       2.364  16.380  11.032  1.00  0.00     0.074 C 
HETATM    3  C7  UNL     1       3.064  16.948   9.777  1.00  0.00     0.064 C 
HETATM    4  C8  UNL     1       4.419  16.263   9.582  1.00  0.00     0.046 C 
HETATM    5  C9  UNL     1       2.104  16.729   8.597  1.00  0.00     0.058 C 
HETATM    6  C10 UNL     1       0.782  17.461   8.933  1.00  0.00     0.131 C 
HETATM    7  C11 UNL     1      -0.014  17.557   7.615  1.00  0.00     0.042 C 
HETATM    8  C12 UNL     1       0.897  16.892   6.544  1.00  0.00    -0.029 C 
HETATM    9  C13 UNL     1       0.461  15.389   6.554  1.00  0.00     0.016 C 
HETATM   10  C14 UNL     1       0.835  17.503   5.112  1.00  0.00     0.014 C 
HETATM   11  C15 UNL     1      -0.564  17.499   4.473  1.00  0.00     0.034 C 
HETATM   12  C16 UNL     1      -0.825  16.400   3.484  1.00  0.00    -0.022 C 
HETATM   13  C17 UNL     1       0.071  15.502   3.036  1.00  0.00    -0.059 C 
HETATM   14  C18 UNL     1       1.539  15.567   3.474  1.00  0.00     0.057 C 
HETATM   15  C19 UNL     1       2.476  15.144   2.352  1.00  0.00     0.024 C 
HETATM   16  C20 UNL     1       2.128  14.674   1.140  1.00  0.00     0.116 C 
HETATM   17  C27 UNL     1       0.665  14.513   0.848  1.00  0.00     0.194 C 
HETATM   18  O8  UNL     1       0.293  14.425  -0.328  1.00  0.00    -0.289 OA
HETATM   19  C28 UNL     1      -0.293  14.381   2.042  1.00  0.00     0.044 C 
HETATM   20  C29 UNL     1      -1.738  14.464   1.504  1.00  0.00     0.028 C 
HETATM   21  C30 UNL     1      -0.119  12.991   2.679  1.00  0.00     0.028 C 
HETATM   22  C31 UNL     1       1.945  16.942   4.135  1.00  0.00     0.032 C 
HETATM   23  C32 UNL     1       2.168  18.023   3.034  1.00  0.00     0.025 C 
HETATM   24  C33 UNL     1       3.311  16.746   4.860  1.00  0.00     0.137 C 
HETATM   25  O9  UNL     1       4.380  16.836   4.246  1.00  0.00    -0.297 OA
HETATM   26  C34 UNL     1       3.352  16.346   6.333  1.00  0.00     0.089 C 
HETATM   27  C35 UNL     1       2.343  17.160   7.137  1.00  0.00    -0.021 C 
HETATM   28  C36 UNL     1       2.811  18.649   7.084  1.00  0.00     0.017 C 
HETATM   29  O10 UNL     1       0.148  16.741   9.981  1.00  0.00    -0.376 OA
ENDROOT
BRANCH  16  30
HETATM   30  O2  UNL     1       2.972  14.320   0.121  1.00  0.00    -0.314 OA
BRANCH  30  31
HETATM   31  C21 UNL     1       4.145  15.076  -0.173  1.00  0.00     0.298 C 
HETATM   32  O3  UNL     1       4.312  15.203  -1.591  1.00  0.00    -0.348 OA
HETATM   33  C22 UNL     1       4.403  13.958  -2.306  1.00  0.00     0.179 C 
HETATM   34  C24 UNL     1       5.060  12.830  -1.489  1.00  0.00     0.180 C 
HETATM   35  C25 UNL     1       6.064  13.456  -0.524  1.00  0.00     0.183 C 
HETATM   36  C26 UNL     1       5.352  14.356   0.483  1.00  0.00     0.205 C 
BRANCH  33  37
HETATM   37  C23 UNL     1       3.030  13.539  -2.856  1.00  0.00     0.198 C 
BRANCH  37  38
HETATM   38  O4  UNL     1       3.011  12.177  -3.272  1.00  0.00    -0.398 OA
HETATM   39  H32 UNL     1       3.592  11.664  -2.688  1.00  0.00     0.209 HD
ENDBRANCH  37  38
ENDBRANCH  33  37
BRANCH  34  40
HETATM   40  O5  UNL     1       5.758  11.914  -2.339  1.00  0.00    -0.390 OA
HETATM   41  H34 UNL     1       5.105  11.289  -2.702  1.00  0.00     0.210 HD
ENDBRANCH  34  40
BRANCH  35  42
HETATM   42  O6  UNL     1       6.783  12.439   0.188  1.00  0.00    -0.390 OA
HETATM   43  H36 UNL     1       7.177  11.877  -0.512  1.00  0.00     0.210 HD
ENDBRANCH  35  42
BRANCH  36  44
HETATM   44  O7  UNL     1       6.307  15.296   1.003  1.00  0.00    -0.388 OA
HETATM   45  H38 UNL     1       7.043  14.749   1.340  1.00  0.00     0.210 HD
ENDBRANCH  36  44
ENDBRANCH  30  31
ENDBRANCH  16  30
BRANCH   3  46
HETATM   46  O1  UNL     1       3.306  18.338   9.996  1.00  0.00    -0.390 OA
HETATM   47  H14 UNL     1       3.968  18.426  10.705  1.00  0.00     0.210 HD
ENDBRANCH   3  46
BRANCH   1  48
HETATM   48  C4  UNL     1       0.198  16.070  12.248  1.00  0.00     0.007 C 
HETATM   49  C2  UNL     1      -1.014  16.289  12.802  1.00  0.00    -0.089 C 
HETATM   50  C1  UNL     1      -1.550  15.344  13.847  1.00  0.00     0.042 C 
HETATM   51  C3  UNL     1      -1.931  17.432  12.474  1.00  0.00     0.042 C 
ENDBRANCH   1  48
TORSDOF 9
ENDMDL
