MODEL 1
REMARK minimizedAffinity -8.47349644
REMARK CNNscore 0.844287574
REMARK CNNaffinity 6.78566599
REMARK  12 active torsions:
REMARK  status: ('A' for Active; 'I' for Inactive)
REMARK    1  A    between atoms: O1_2  and  C2_3 
REMARK    2  A    between atoms: C2_3  and  C3_4 
REMARK    3  A    between atoms: C3_4  and  C4_5 
REMARK    4  A    between atoms: C4_5  and  O2_6 
REMARK    5  A    between atoms: O2_6  and  C5_7 
REMARK    6  A    between atoms: C20_23  and  C21_24 
REMARK    7  A    between atoms: C21_24  and  O4_26 
REMARK    8  A    between atoms: C21_24  and  C23_27 
REMARK    9  A    between atoms: C23_27  and  O5_28 
REMARK   10  A    between atoms: C23_27  and  C24_29 
REMARK   11  A    between atoms: C29_36  and  O7_37 
REMARK   12  A    between atoms: C36_44  and  O8_45 
ROOT
HETATM    1  C5  UNL     1       6.671  12.773  22.358  1.00  0.00     0.122 C 
HETATM    2  C6  UNL     1       5.860  11.637  22.987  1.00  0.00     0.033 C 
HETATM    3  C7  UNL     1       4.738  11.135  22.080  1.00  0.00     0.013 C 
HETATM    4  C8  UNL     1       3.783  12.264  21.570  1.00  0.00    -0.026 C 
HETATM    5  C9  UNL     1       3.032  12.848  22.792  1.00  0.00     0.016 C 
HETATM    6  C10 UNL     1       4.652  13.366  20.898  1.00  0.00     0.071 C 
HETATM    7  C11 UNL     1       5.757  13.891  21.835  1.00  0.00     0.045 C 
HETATM    8  C12 UNL     1       5.285  12.880  19.586  1.00  0.00     0.161 C 
HETATM    9  O3  UNL     1       6.427  13.188  19.242  1.00  0.00    -0.292 OA
HETATM   10  C13 UNL     1       4.443  12.084  18.660  1.00  0.00    -0.006 C 
HETATM   11  C14 UNL     1       3.254  11.644  19.105  1.00  0.00    -0.030 C 
HETATM   12  C15 UNL     1       2.762  11.634  20.545  1.00  0.00     0.027 C 
HETATM   13  C16 UNL     1       1.283  12.108  20.620  1.00  0.00     0.011 C 
HETATM   14  C17 UNL     1       0.353  11.364  19.615  1.00  0.00     0.014 C 
HETATM   15  C18 UNL     1       0.845  11.533  18.162  1.00  0.00    -0.002 C 
HETATM   16  C19 UNL     1       0.731  13.045  17.807  1.00  0.00     0.019 C 
HETATM   17  C20 UNL     1       0.252  10.595  17.027  1.00  0.00     0.034 C 
HETATM   18  C32 UNL     1       1.479  10.478  15.998  1.00  0.00     0.016 C 
HETATM   19  C33 UNL     1       2.652  11.192  16.671  1.00  0.00     0.026 C 
HETATM   20  C34 UNL     1       4.104  10.848  16.404  1.00  0.00     0.013 C 
HETATM   21  C35 UNL     1       4.973  11.814  17.258  1.00  0.00     0.043 C 
HETATM   22  C36 UNL     1       2.312  11.010  18.142  1.00  0.00     0.094 C 
ENDROOT
BRANCH  17  23
HETATM   23  C21 UNL     1      -1.104  10.855  16.284  1.00  0.00     0.087 C 
HETATM   24  C22 UNL     1      -1.411  12.371  16.283  1.00  0.00     0.049 C 
BRANCH  23  25
HETATM   25  O4  UNL     1      -2.175  10.256  17.041  1.00  0.00    -0.387 OA
HETATM   26  H33 UNL     1      -2.240   9.337  16.705  1.00  0.00     0.210 HD
ENDBRANCH  23  25
BRANCH  23  27
HETATM   27  C23 UNL     1      -1.260  10.321  14.816  1.00  0.00     0.181 C 
BRANCH  27  28
HETATM   28  O5  UNL     1      -1.387  11.462  13.957  1.00  0.00    -0.390 OA
HETATM   29  H35 UNL     1      -0.973  11.250  13.103  1.00  0.00     0.210 HD
ENDBRANCH  27  28
BRANCH  27  30
HETATM   30  C24 UNL     1      -2.358   9.250  14.603  1.00  0.00     0.158 C 
HETATM   31  O6  UNL     1      -3.659   9.827  14.512  1.00  0.00    -0.373 OA
HETATM   32  C25 UNL     1      -4.561   8.834  13.994  1.00  0.00     0.185 C 
HETATM   33  C26 UNL     1      -3.719   7.923  13.098  1.00  0.00     0.027 C 
HETATM   34  C29 UNL     1      -5.291   8.083  15.141  1.00  0.00     0.383 C 
HETATM   35  C27 UNL     1      -4.035   6.444  13.320  1.00  0.00     0.038 C 
HETATM   36  C30 UNL     1      -2.255   8.309  13.391  1.00  0.00     0.020 C 
HETATM   37  C28 UNL     1      -4.006   6.027  14.792  1.00  0.00     0.273 C 
HETATM   38  N1  UNL     1      -4.494   7.026  15.738  1.00  0.00     0.114 N 
HETATM   39  H43 UNL     1      -4.995   6.579  16.501  1.00  0.00     0.319 HD
HETATM   40  C31 UNL     1      -1.606   8.886  12.134  1.00  0.00     0.013 C 
BRANCH  34  41
HETATM   41  O7  UNL     1      -6.509   7.530  14.677  1.00  0.00    -0.366 OA
HETATM   42  H45 UNL     1      -6.955   7.177  15.465  1.00  0.00     0.212 HD
ENDBRANCH  34  41
ENDBRANCH  27  30
ENDBRANCH  23  27
ENDBRANCH  17  23
BRANCH  22  43
HETATM   43  O8  UNL     1       2.346   9.611  18.484  1.00  0.00    -0.384 OA
HETATM   44  H57 UNL     1       3.258   9.299  18.366  1.00  0.00     0.211 HD
ENDBRANCH  22  43
BRANCH   1  45
HETATM   45  O2  UNL     1       7.558  13.261  23.374  1.00  0.00    -0.386 OA
BRANCH  45  46
HETATM   46  C4  UNL     1       8.262  14.446  22.995  1.00  0.00     0.170 C 
BRANCH  46  47
HETATM   47  C3  UNL     1       7.769  15.601  23.865  1.00  0.00     0.052 C 
BRANCH  47  48
HETATM   48  C2  UNL     1       8.798  15.990  24.924  1.00  0.00     0.169 C 
BRANCH  48  49
HETATM   49  O1  UNL     1       9.928  16.579  24.280  1.00  0.00    -0.396 OA
HETATM   50  C1  UNL     1       9.639  17.881  23.791  1.00  0.00     0.201 C 
ENDBRANCH  48  49
ENDBRANCH  47  48
ENDBRANCH  46  47
ENDBRANCH  45  46
ENDBRANCH   1  45
TORSDOF 12
ENDMDL
