MODEL 1
REMARK minimizedAffinity -8.16939449
REMARK CNNscore 0.357521892
REMARK CNNaffinity 6.11287069
REMARK  7 active torsions:
REMARK  status: ('A' for Active; 'I' for Inactive)
REMARK    1  A    between atoms: C5_5  and  C6_6 
REMARK    2  A    between atoms: C8_8  and  O1_9 
REMARK    3  A    between atoms: C10_11  and  C11_12 
REMARK    4  A    between atoms: C11_12  and  O2_13 
REMARK    5  A    between atoms: C20_24  and  O5_25 
REMARK    6  A    between atoms: C25_30  and  C26_31 
REMARK    7  A    between atoms: C26_31  and  O6_32 
ROOT
HETATM    1  C1  UNL     1      -8.995 -12.112   3.498  1.00  0.00     0.036 C 
HETATM    2  C2  UNL     1      -9.479 -10.802   4.034  1.00  0.00    -0.018 C 
HETATM    3  C3  UNL     1      -8.970 -10.085   5.061  1.00  0.00     0.015 C 
HETATM    4  C4  UNL     1      -9.557  -8.746   5.453  1.00  0.00     0.066 C 
HETATM    5  C5  UNL     1     -10.701  -8.750   6.506  1.00  0.00     0.102 C 
HETATM    6  C13 UNL     1     -10.177  -8.800   7.887  1.00  0.00    -0.096 C 
HETATM    7  C14 UNL     1      -9.682  -8.759   8.983  1.00  0.00    -0.096 C 
HETATM    8  C15 UNL     1      -8.928  -8.680  10.255  1.00  0.00     0.110 C 
HETATM    9  C16 UNL     1      -9.532  -9.636  11.270  1.00  0.00     0.133 C 
HETATM   10  C17 UNL     1      -8.699  -9.679  12.516  1.00  0.00     0.265 C 
HETATM   11  O3  UNL     1      -9.187  -9.616  13.640  1.00  0.00    -0.265 OA
HETATM   12  O4  UNL     1      -7.341  -9.888  12.319  1.00  0.00    -0.278 OA
HETATM   13  C18 UNL     1      -6.756  -9.640  11.067  1.00  0.00     0.089 A 
HETATM   14  C19 UNL     1      -5.426 -10.014  10.898  1.00  0.00     0.075 A 
HETATM   15  C20 UNL     1      -4.798  -9.763   9.680  1.00  0.00     0.074 A 
HETATM   16  C21 UNL     1      -5.475  -9.123   8.638  1.00  0.00    -0.022 A 
HETATM   17  C22 UNL     1      -6.796  -8.707   8.862  1.00  0.00     0.021 A 
HETATM   18  C23 UNL     1      -7.469  -9.012  10.051  1.00  0.00    -0.007 A 
HETATM   19  C24 UNL     1      -4.927  -8.995   7.229  1.00  0.00     0.077 C 
HETATM   20  C25 UNL     1      -5.521 -10.099   6.324  1.00  0.00     0.171 C 
HETATM   21  O8  UNL     1      -6.826  -9.648   5.868  1.00  0.00    -0.309 OA
HETATM   22  C36 UNL     1      -7.783 -10.611   5.781  1.00  0.00     0.289 C 
HETATM   23  O9  UNL     1      -7.661 -11.767   6.151  1.00  0.00    -0.260 OA
ENDROOT
BRANCH  20  24
HETATM   24  C26 UNL     1      -4.630 -10.477   5.083  1.00  0.00     0.089 C 
HETATM   25  C27 UNL     1      -5.432 -10.285   3.778  1.00  0.00     0.041 C 
HETATM   26  C28 UNL     1      -4.566 -10.449   2.526  1.00  0.00     0.004 C 
HETATM   27  C29 UNL     1      -3.474 -11.510   2.678  1.00  0.00     0.005 C 
HETATM   28  C30 UNL     1      -3.821 -12.562   3.737  1.00  0.00    -0.001 C 
HETATM   29  C31 UNL     1      -2.771 -13.684   3.725  1.00  0.00     0.083 C 
HETATM   30  C35 UNL     1      -4.040 -11.925   5.150  1.00  0.00     0.027 C 
HETATM   31  C32 UNL     1      -2.713 -14.368   5.066  1.00  0.00     0.127 C 
HETATM   32  O7  UNL     1      -2.881 -15.580   5.188  1.00  0.00    -0.298 OA
HETATM   33  C33 UNL     1      -2.376 -13.496   6.251  1.00  0.00     0.079 C 
HETATM   34  C34 UNL     1      -2.742 -12.037   5.980  1.00  0.00     0.015 C 
BRANCH  24  35
HETATM   35  O6  UNL     1      -3.526  -9.555   5.016  1.00  0.00    -0.387 OA
HETATM   36  H24 UNL     1      -3.863  -8.652   5.189  1.00  0.00     0.210 HD
ENDBRANCH  24  35
ENDBRANCH  20  24
BRANCH  15  37
HETATM   37  O5  UNL     1      -3.510 -10.194   9.558  1.00  0.00    -0.360 OA
HETATM   38  H19 UNL     1      -3.007  -9.529   9.062  1.00  0.00     0.217 HD
ENDBRANCH  15  37
BRANCH   5  39
HETATM   39  C6  UNL     1     -11.798  -9.760   6.210  1.00  0.00    -0.039 A 
HETATM   40  C7  UNL     1     -11.873 -10.999   6.865  1.00  0.00     0.045 A 
HETATM   41  C8  UNL     1     -12.864 -11.915   6.524  1.00  0.00     0.066 A 
HETATM   42  C9  UNL     1     -13.786 -11.637   5.521  1.00  0.00     0.045 A 
HETATM   43  C10 UNL     1     -13.716 -10.417   4.835  1.00  0.00    -0.032 A 
HETATM   44  C12 UNL     1     -12.736  -9.481   5.200  1.00  0.00     0.018 A 
BRANCH  41  45
HETATM   45  O1  UNL     1     -12.898 -13.093   7.209  1.00  0.00    -0.361 OA
HETATM   46  H9  UNL     1     -13.623 -13.641   6.871  1.00  0.00     0.217 HD
ENDBRANCH  41  45
BRANCH  43  47
HETATM   47  C11 UNL     1     -14.710 -10.087   3.754  1.00  0.00     0.203 C 
BRANCH  47  48
HETATM   48  O2  UNL     1     -14.178  -9.122   2.859  1.00  0.00    -0.396 OA
HETATM   49  H13 UNL     1     -13.293  -8.866   3.178  1.00  0.00     0.209 HD
ENDBRANCH  47  48
ENDBRANCH  43  47
ENDBRANCH   5  39
TORSDOF 7
ENDMDL
