MODEL 1
REMARK minimizedAffinity -8.97595692
REMARK CNNscore 0.807512939
REMARK CNNaffinity 7.11078978
REMARK  10 active torsions:
REMARK  status: ('A' for Active; 'I' for Inactive)
REMARK    1  A    between atoms: C3_3  and  O1_4 
REMARK    2  A    between atoms: N1_14  and  O2_16 
REMARK    3  A    between atoms: O2_16  and  C13_17 
REMARK    4  A    between atoms: C13_17  and  C14_18 
REMARK       I    between atoms: C14_18  and  N2_20 
REMARK    5  A    between atoms: N2_20  and  C15_21 
REMARK    6  A    between atoms: C15_21  and  C16_22 
REMARK       I    between atoms: C16_22  and  N3_24 
REMARK    7  A    between atoms: N3_24  and  C17_25 
REMARK    8  A    between atoms: C17_25  and  C18_26 
REMARK    9  A    between atoms: C17_25  and  C19_29 
REMARK   10  A    between atoms: C18_26  and  O6_28 
ROOT
HETATM    1  C1  UNL     1       5.270   5.518  10.247  1.00  0.00     0.015 C 
HETATM    2  C2  UNL     1       4.237   6.131  10.268  1.00  0.00    -0.078 C 
HETATM    3  C3  UNL     1       2.985   6.903  10.293  1.00  0.00     0.128 C 
HETATM    4  C4  UNL     1       2.371   7.050   8.898  1.00  0.00     0.052 C 
HETATM    5  C5  UNL     1       0.974   7.576   9.209  1.00  0.00     0.010 C 
HETATM    6  C6  UNL     1       0.522   6.722  10.399  1.00  0.00     0.002 C 
HETATM    7  C7  UNL     1      -0.619   7.299  11.268  1.00  0.00    -0.004 C 
HETATM    8  C8  UNL     1      -0.548   8.799  11.603  1.00  0.00     0.010 C 
HETATM    9  C9  UNL     1      -1.748   9.256  12.433  1.00  0.00     0.035 C 
HETATM   10  C10 UNL     1      -2.039   8.384  13.636  1.00  0.00    -0.069 C 
HETATM   11  C11 UNL     1      -2.318   8.954  14.823  1.00  0.00     0.030 C 
HETATM   12  C12 UNL     1      -2.768   8.147  15.996  1.00  0.00     0.032 C 
HETATM   13  N1  UNL     1      -2.988   8.599  17.192  1.00  0.00    -0.271 N 
ATOM     14  H1  UNL     1      -3.328   8.027  17.966  1.00  0.00     0.194 HD
HETATM   15  C22 UNL     1      -3.064   6.680  15.752  1.00  0.00     0.060 C 
HETATM   16  C23 UNL     1      -2.075   6.098  14.753  1.00  0.00     0.020 C 
HETATM   17  C24 UNL     1      -2.042   6.874  13.402  1.00  0.00    -0.016 C 
HETATM   18  C25 UNL     1      -3.330   6.503  12.621  1.00  0.00     0.020 C 
HETATM   19  C26 UNL     1      -0.772   6.458  12.562  1.00  0.00     0.002 C 
HETATM   20  C27 UNL     1       0.544   6.460  13.386  1.00  0.00     0.007 C 
HETATM   21  C28 UNL     1       1.833   6.748  12.609  1.00  0.00     0.014 C 
HETATM   22  C29 UNL     1       1.824   6.275  11.147  1.00  0.00     0.003 C 
HETATM   23  C30 UNL     1       1.878   4.722  11.132  1.00  0.00     0.020 C 
ENDROOT
BRANCH   3  24
HETATM   24  O1  UNL     1       3.292   8.222  10.755  1.00  0.00    -0.377 OA
HETATM   25  H2  UNL     1       4.062   8.530  10.246  1.00  0.00     0.211 HD
ENDBRANCH   3  24
BRANCH  13  26
HETATM   26  O2  UNL     1      -2.703   9.970  17.292  1.00  0.00    -0.271 OA
BRANCH  26  27
HETATM   27  C13 UNL     1      -2.561  10.304  18.664  1.00  0.00     0.303 C 
BRANCH  27  28
HETATM   28  C14 UNL     1      -1.428  11.306  18.871  1.00  0.00     0.244 C 
HETATM   29  O3  UNL     1      -1.588  12.520  18.951  1.00  0.00    -0.271 OA
HETATM   30  N2  UNL     1      -0.177  10.718  18.945  1.00  0.00    -0.350 N 
HETATM   31  H16 UNL     1      -0.133   9.734  19.182  1.00  0.00     0.163 HD
BRANCH  30  32
HETATM   32  C15 UNL     1       0.985  11.524  19.302  1.00  0.00     0.225 C 
BRANCH  32  33
HETATM   33  C16 UNL     1       2.092  10.681  19.938  1.00  0.00     0.236 C 
HETATM   34  O4  UNL     1       2.711   9.824  19.316  1.00  0.00    -0.272 OA
HETATM   35  N3  UNL     1       2.275  10.909  21.284  1.00  0.00    -0.345 N 
HETATM   36  H19 UNL     1       1.526  11.387  21.781  1.00  0.00     0.163 HD
BRANCH  35  37
HETATM   37  C17 UNL     1       3.188  10.104  22.104  1.00  0.00     0.185 C 
BRANCH  37  38
HETATM   38  C18 UNL     1       2.419   8.919  22.711  1.00  0.00     0.163 C 
HETATM   39  O5  UNL     1       1.745   8.097  22.114  1.00  0.00    -0.648 OA
BRANCH  38  40
HETATM   40  O6  UNL     1       2.547   8.829  24.057  1.00  0.00    -0.775 OA
HETATM   41  H21 UNL     1       1.993   8.049  24.285  1.00  0.00     0.167 HD
ENDBRANCH  38  40
ENDBRANCH  37  38
BRANCH  37  42
HETATM   42  C19 UNL     1       3.882  10.986  23.167  1.00  0.00     0.010 C 
HETATM   43  C20 UNL     1       3.217  12.359  23.301  1.00  0.00     0.012 C 
HETATM   44  C21 UNL     1       5.386  11.147  22.920  1.00  0.00     0.012 C 
ENDBRANCH  37  42
ENDBRANCH  35  37
ENDBRANCH  32  33
ENDBRANCH  30  32
ENDBRANCH  27  28
ENDBRANCH  26  27
ENDBRANCH  13  26
TORSDOF 10
ENDMDL
