MODEL 1
REMARK minimizedAffinity -9.85497284
REMARK  8 active torsions:
REMARK  status: ('A' for Active; 'I' for Inactive)
REMARK    1  A    between atoms: C5_5  and  O1_6 
REMARK    2  A    between atoms: C9_10  and  C10_11 
REMARK    3  A    between atoms: C10_11  and  C11_12 
REMARK    4  A    between atoms: C11_12  and  C12_13 
REMARK    5  A    between atoms: C14_15  and  C15_16 
REMARK    6  A    between atoms: C15_16  and  C16_17 
REMARK    7  A    between atoms: C16_17  and  C17_18 
REMARK    8  A    between atoms: C23_24  and  O2_25 
ROOT
HETATM    1  C12 UNL     1      -3.261  48.051 -21.612  1.00  0.00    -0.087 C 
HETATM    2  C13 UNL     1      -4.213  47.287 -20.730  1.00  0.00     0.043 C 
HETATM    3  C14 UNL     1      -2.004  48.405 -21.278  1.00  0.00    -0.024 C 
ENDROOT
BRANCH   3   4
HETATM    4  C15 UNL     1      -1.265  48.125 -20.001  1.00  0.00     0.030 C 
BRANCH   4   5
HETATM    5  C16 UNL     1      -1.600  49.083 -18.844  1.00  0.00     0.042 C 
BRANCH   5   6
HETATM    6  C17 UNL     1      -1.262  50.592 -19.025  1.00  0.00     0.065 C 
HETATM    7  C18 UNL     1      -2.479  51.466 -18.683  1.00  0.00     0.046 C 
HETATM    8  C19 UNL     1      -0.058  50.895 -18.111  1.00  0.00     0.043 C 
HETATM    9  C20 UNL     1       0.459  52.310 -18.310  1.00  0.00     0.044 C 
HETATM   10  C21 UNL     1       0.549  52.637 -19.770  1.00  0.00    -0.021 A 
HETATM   11  C22 UNL     1       1.307  53.743 -20.181  1.00  0.00     0.046 A 
HETATM   12  C27 UNL     1      -0.136  51.875 -20.726  1.00  0.00     0.082 A 
HETATM   13  C23 UNL     1       1.392  54.061 -21.533  1.00  0.00     0.066 A 
HETATM   14  C24 UNL     1       0.731  53.296 -22.484  1.00  0.00     0.046 A 
HETATM   15  C25 UNL     1      -0.033  52.189 -22.092  1.00  0.00    -0.025 A 
HETATM   16  C26 UNL     1      -0.762  51.383 -23.128  1.00  0.00     0.051 C 
HETATM   17  O3  UNL     1      -0.910  50.790 -20.405  1.00  0.00    -0.340 OA
BRANCH  13  18
HETATM   18  O2  UNL     1       2.121  55.127 -21.968  1.00  0.00    -0.361 OA
HETATM   19  H36 UNL     1       2.528  55.558 -21.198  1.00  0.00     0.217 HD
ENDBRANCH  13  18
ENDBRANCH   5   6
ENDBRANCH   4   5
ENDBRANCH   3   4
BRANCH   1  20
HETATM   20  C11 UNL     1      -3.826  48.455 -22.966  1.00  0.00     0.034 C 
BRANCH  20  21
HETATM   21  C10 UNL     1      -2.747  48.546 -24.058  1.00  0.00     0.014 C 
BRANCH  21  22
HETATM   22  C9  UNL     1      -3.280  48.530 -25.520  1.00  0.00     0.024 C 
HETATM   23  C2  UNL     1      -4.808  48.325 -25.617  1.00  0.00    -0.084 C 
HETATM   24  C1  UNL     1      -5.660  48.178 -24.585  1.00  0.00     0.015 C 
HETATM   25  C3  UNL     1      -5.395  48.361 -27.015  1.00  0.00     0.036 C 
HETATM   26  C4  UNL     1      -4.333  48.315 -28.102  1.00  0.00     0.037 C 
HETATM   27  C5  UNL     1      -3.252  49.390 -27.926  1.00  0.00     0.127 C 
HETATM   28  C6  UNL     1      -2.905  49.757 -26.437  1.00  0.00    -0.014 C 
HETATM   29  C7  UNL     1      -3.635  51.048 -25.979  1.00  0.00     0.018 C 
HETATM   30  C8  UNL     1      -1.399  50.100 -26.416  1.00  0.00     0.018 C 
BRANCH  27  31
HETATM   31  O1  UNL     1      -3.613  50.559 -28.664  1.00  0.00    -0.395 OA
HETATM   32  H8  UNL     1      -3.717  50.301 -29.595  1.00  0.00     0.210 HD
ENDBRANCH  27  31
ENDBRANCH  21  22
ENDBRANCH  20  21
ENDBRANCH   1  20
TORSDOF 8
ENDMDL
