MODEL 1
REMARK minimizedAffinity -7.83869839
REMARK CNNscore 0.568829298
REMARK CNNaffinity 6.67281961
REMARK  4 active torsions:
REMARK  status: ('A' for Active; 'I' for Inactive)
REMARK    1  A    between atoms: C4_4  and  C5_5 
REMARK    2  A    between atoms: C5_5  and  C6_6 
REMARK    3  A    between atoms: C6_6  and  C7_7 
REMARK    4  A    between atoms: C7_7  and  C9_9 
ROOT
HETATM    1  C9  UNL     1       0.372  52.240  -9.337  1.00  0.00    -0.002 C 
HETATM    2  C10 UNL     1       0.121  52.669  -7.886  1.00  0.00     0.006 C 
HETATM    3  C11 UNL     1       1.044  53.855  -7.683  1.00  0.00     0.011 C 
HETATM    4  C12 UNL     1       0.866  54.702  -8.963  1.00  0.00    -0.032 C 
HETATM    5  C13 UNL     1      -0.411  55.571  -8.743  1.00  0.00     0.016 C 
HETATM    6  C14 UNL     1       2.083  55.683  -9.212  1.00  0.00     0.004 C 
HETATM    7  C15 UNL     1       2.355  56.574  -7.978  1.00  0.00     0.007 C 
HETATM    8  C16 UNL     1       3.585  57.459  -8.118  1.00  0.00     0.007 C 
HETATM    9  C17 UNL     1       4.904  56.682  -8.275  1.00  0.00     0.010 C 
HETATM   10  C18 UNL     1       5.624  56.282  -6.940  1.00  0.00     0.018 C 
HETATM   11  C19 UNL     1       5.970  57.537  -6.109  1.00  0.00     0.023 C 
HETATM   12  C20 UNL     1       4.816  55.318  -6.058  1.00  0.00     0.023 C 
HETATM   13  C21 UNL     1       6.962  55.594  -7.269  1.00  0.00     0.135 C 
HETATM   14  O1  UNL     1       7.847  55.443  -6.422  1.00  0.00    -0.297 OA
HETATM   15  C22 UNL     1       7.183  55.114  -8.679  1.00  0.00     0.080 C 
HETATM   16  C23 UNL     1       5.902  54.491  -9.193  1.00  0.00     0.018 C 
HETATM   17  C24 UNL     1       4.764  55.502  -9.254  1.00  0.00    -0.026 A 
HETATM   18  C25 UNL     1       4.247  55.847 -10.631  1.00  0.00     0.021 A 
HETATM   19  C26 UNL     1       3.373  55.006  -9.714  1.00  0.00    -0.027 A 
HETATM   20  C27 UNL     1       3.203  53.572 -10.168  1.00  0.00     0.011 C 
HETATM   21  C28 UNL     1       1.925  53.439 -10.978  1.00  0.00     0.011 C 
HETATM   22  C29 UNL     1       0.648  53.606 -10.113  1.00  0.00    -0.032 C 
HETATM   23  C30 UNL     1      -0.484  54.001 -11.089  1.00  0.00     0.016 C 
ENDROOT
BRANCH   1  24
HETATM   24  C7  UNL     1      -0.709  51.257  -9.893  1.00  0.00    -0.014 C 
HETATM   25  C8  UNL     1      -0.062  49.974 -10.440  1.00  0.00     0.010 C 
BRANCH  24  26
HETATM   26  C6  UNL     1      -1.760  50.885  -8.809  1.00  0.00     0.008 C 
BRANCH  26  27
HETATM   27  C5  UNL     1      -3.220  51.042  -9.263  1.00  0.00     0.028 C 
BRANCH  27  28
HETATM   28  C4  UNL     1      -3.289  51.436 -10.715  1.00  0.00    -0.025 C 
HETATM   29  C2  UNL     1      -3.649  52.623 -11.243  1.00  0.00    -0.091 C 
HETATM   30  C1  UNL     1      -3.647  52.821 -12.738  1.00  0.00     0.042 C 
HETATM   31  C3  UNL     1      -4.074  53.840 -10.468  1.00  0.00     0.042 C 
ENDBRANCH  27  28
ENDBRANCH  26  27
ENDBRANCH  24  26
ENDBRANCH   1  24
TORSDOF 4
ENDMDL
