MODEL 1
REMARK minimizedAffinity -10.7959585
REMARK  0 active torsions:
REMARK  status: ('A' for Active; 'I' for Inactive)
ROOT
HETATM    1  C1  UNL     1      -7.960  46.618 -20.312  1.00  0.00     0.023 C 
HETATM    2  C2  UNL     1      -7.421  47.907 -19.672  1.00  0.00     0.017 C 
HETATM    3  C3  UNL     1      -8.646  48.789 -19.315  1.00  0.00     0.023 C 
HETATM    4  C4  UNL     1      -6.731  47.526 -18.350  1.00  0.00     0.135 C 
HETATM    5  O1  UNL     1      -7.333  47.519 -17.273  1.00  0.00    -0.297 OA
HETATM    6  C5  UNL     1      -5.309  47.026 -18.409  1.00  0.00     0.080 C 
HETATM    7  C6  UNL     1      -4.441  47.928 -19.278  1.00  0.00     0.017 C 
HETATM    8  C7  UNL     1      -4.980  48.158 -20.724  1.00  0.00    -0.035 C 
HETATM    9  C8  UNL     1      -4.935  46.782 -21.447  1.00  0.00     0.016 C 
HETATM   10  C9  UNL     1      -6.431  48.733 -20.573  1.00  0.00     0.009 C 
HETATM   11  C10 UNL     1      -7.015  49.111 -21.946  1.00  0.00     0.007 C 
HETATM   12  C11 UNL     1      -6.186  50.216 -22.591  1.00  0.00     0.011 C 
HETATM   13  C12 UNL     1      -4.697  49.863 -22.850  1.00  0.00    -0.032 C 
HETATM   14  C13 UNL     1      -4.667  48.794 -23.980  1.00  0.00     0.016 C 
HETATM   15  C14 UNL     1      -4.043  49.193 -21.546  1.00  0.00     0.003 C 
HETATM   16  C15 UNL     1      -3.386  50.265 -20.658  1.00  0.00     0.006 C 
HETATM   17  C16 UNL     1      -2.285  51.060 -21.365  1.00  0.00     0.006 C 
HETATM   18  C17 UNL     1      -2.370  51.055 -22.895  1.00  0.00    -0.000 C 
HETATM   19  C18 UNL     1      -1.438  52.117 -23.540  1.00  0.00     0.009 C 
HETATM   20  C19 UNL     1       0.084  52.086 -23.275  1.00  0.00     0.067 A 
HETATM   21  C20 UNL     1       0.688  52.780 -24.536  1.00  0.00     0.140 A 
HETATM   22  C21 UNL     1      -0.483  53.098 -25.474  1.00  0.00     0.042 C 
HETATM   23  C22 UNL     1      -1.534  52.057 -25.084  1.00  0.00    -0.037 C 
HETATM   24  C23 UNL     1      -1.127  50.695 -25.708  1.00  0.00     0.015 C 
HETATM   25  C24 UNL     1      -2.962  52.426 -25.497  1.00  0.00     0.010 C 
HETATM   26  C25 UNL     1      -3.971  51.424 -24.909  1.00  0.00     0.011 C 
HETATM   27  C26 UNL     1      -3.872  51.205 -23.351  1.00  0.00    -0.032 C 
HETATM   28  C27 UNL     1      -4.468  52.521 -22.744  1.00  0.00     0.016 C 
HETATM   29  O2  UNL     1       1.342  53.999 -24.159  1.00  0.00    -0.313 OA
HETATM   30  C28 UNL     1       1.330  54.134 -22.804  1.00  0.00     0.297 A 
HETATM   31  O3  UNL     1       1.849  55.043 -22.178  1.00  0.00    -0.262 OA
HETATM   32  C29 UNL     1       0.635  52.979 -22.218  1.00  0.00     0.175 A 
HETATM   33  C30 UNL     1       1.035  52.448 -20.862  1.00  0.00     0.218 A 
HETATM   34  O4  UNL     1      -0.163  53.212 -21.057  1.00  0.00    -0.364 OA
ENDROOT
TORSDOF 0
ENDMDL
