MODEL 1
REMARK minimizedAffinity -6.91739511
REMARK CNNscore 0.729126513
REMARK CNNaffinity 6.73953581
REMARK  15 active torsions:
REMARK  status: ('A' for Active; 'I' for Inactive)
REMARK    1  A    between atoms: C19_20  and  O2_21 
REMARK    2  A    between atoms: C19_20  and  C20_22 
REMARK    3  A    between atoms: C20_22  and  C21_24 
REMARK    4  A    between atoms: C21_24  and  O4_25 
REMARK    5  A    between atoms: O4_25  and  C22_26 
REMARK    6  A    between atoms: C22_26  and  C23_28 
REMARK    7  A    between atoms: C23_28  and  C24_29 
REMARK    8  A    between atoms: C24_29  and  C25_30 
REMARK       I    between atoms: C25_30  and  N1_32 
REMARK    9  A    between atoms: N1_32  and  C26_33 
REMARK   10  A    between atoms: C26_33  and  C27_34 
REMARK   11  A    between atoms: C27_34  and  C28_35 
REMARK   12  A    between atoms: C28_35  and  C29_36 
REMARK   13  A    between atoms: C29_36  and  C30_37 
REMARK   14  A    between atoms: C30_37  and  C31_38 
REMARK   15  A    between atoms: C31_38  and  O8_40 
ROOT
HETATM    1  C1  UNL     1      -0.155  49.451 -20.290  1.00  0.00     0.020 C 
HETATM    2  C2  UNL     1      -0.616  50.815 -20.866  1.00  0.00    -0.016 C 
HETATM    3  C3  UNL     1       0.498  51.233 -21.871  1.00  0.00     0.022 C 
HETATM    4  C4  UNL     1       0.490  52.715 -22.210  1.00  0.00     0.084 C 
HETATM    5  C5  UNL     1       0.642  53.509 -20.938  1.00  0.00     0.149 C 
HETATM    6  O1  UNL     1       1.303  54.544 -20.878  1.00  0.00    -0.293 OA
HETATM    7  C6  UNL     1      -0.119  53.052 -19.752  1.00  0.00     0.053 C 
HETATM    8  C7  UNL     1      -0.736  51.857 -19.744  1.00  0.00    -0.068 C 
HETATM    9  C8  UNL     1      -1.731  51.531 -18.659  1.00  0.00     0.035 C 
HETATM   10  C9  UNL     1      -3.122  51.386 -19.279  1.00  0.00     0.010 C 
HETATM   11  C10 UNL     1      -3.145  50.386 -20.450  1.00  0.00    -0.004 C 
HETATM   12  C11 UNL     1      -2.044  50.720 -21.517  1.00  0.00     0.002 C 
HETATM   13  C12 UNL     1      -2.133  49.767 -22.736  1.00  0.00     0.007 C 
HETATM   14  C13 UNL     1      -3.550  49.663 -23.330  1.00  0.00     0.013 C 
HETATM   15  C14 UNL     1      -4.602  49.292 -22.267  1.00  0.00    -0.002 C 
HETATM   16  C15 UNL     1      -4.342  47.846 -21.762  1.00  0.00     0.019 C 
HETATM   17  C16 UNL     1      -4.512  50.359 -21.149  1.00  0.00     0.002 C 
HETATM   18  C17 UNL     1      -5.752  50.098 -20.303  1.00  0.00     0.009 C 
HETATM   19  C18 UNL     1      -6.826  49.672 -21.322  1.00  0.00     0.047 C 
HETATM   20  C19 UNL     1      -6.098  49.456 -22.679  1.00  0.00     0.128 C 
ENDROOT
BRANCH  20  21
HETATM   21  O2  UNL     1      -6.264  50.651 -23.448  1.00  0.00    -0.381 OA
HETATM   22  H27 UNL     1      -7.218  50.752 -23.642  1.00  0.00     0.211 HD
ENDBRANCH  20  21
BRANCH  20  23
HETATM   23  C20 UNL     1      -6.664  48.262 -23.477  1.00  0.00     0.185 C 
HETATM   24  O3  UNL     1      -6.580  47.100 -23.075  1.00  0.00    -0.292 OA
BRANCH  23  25
HETATM   25  C21 UNL     1      -7.325  48.582 -24.818  1.00  0.00     0.260 C 
BRANCH  25  26
HETATM   26  O4  UNL     1      -8.722  48.282 -24.812  1.00  0.00    -0.314 OA
BRANCH  26  27
HETATM   27  C22 UNL     1      -9.359  48.631 -25.966  1.00  0.00     0.259 C 
HETATM   28  O5  UNL     1     -10.270  49.453 -26.028  1.00  0.00    -0.265 OA
BRANCH  27  29
HETATM   29  C23 UNL     1      -8.888  47.820 -27.153  1.00  0.00     0.120 C 
BRANCH  29  30
HETATM   30  C24 UNL     1      -8.618  48.634 -28.413  1.00  0.00     0.112 C 
BRANCH  30  31
HETATM   31  C25 UNL     1      -8.180  47.758 -29.569  1.00  0.00     0.217 C 
HETATM   32  O6  UNL     1      -8.438  48.006 -30.740  1.00  0.00    -0.274 OA
HETATM   33  N1  UNL     1      -7.474  46.644 -29.165  1.00  0.00    -0.361 N 
HETATM   34  H34 UNL     1      -7.066  46.660 -28.237  1.00  0.00     0.162 HD
BRANCH  33  35
HETATM   35  C26 UNL     1      -6.902  45.748 -30.150  1.00  0.00     0.122 C 
BRANCH  35  36
HETATM   36  C27 UNL     1      -7.092  44.288 -29.751  1.00  0.00     0.020 C 
BRANCH  36  37
HETATM   37  C28 UNL     1      -8.131  44.091 -28.643  1.00  0.00     0.002 C 
BRANCH  37  38
HETATM   38  C29 UNL     1      -9.595  44.101 -29.090  1.00  0.00     0.010 C 
BRANCH  38  39
HETATM   39  C30 UNL     1      -9.832  43.368 -30.412  1.00  0.00     0.110 C 
BRANCH  39  40
HETATM   40  C31 UNL     1     -10.000  41.887 -30.200  1.00  0.00     0.139 C 
HETATM   41  O7  UNL     1     -10.652  41.329 -29.336  1.00  0.00    -0.650 OA
BRANCH  40  42
HETATM   42  O8  UNL     1      -9.329  41.171 -31.122  1.00  0.00    -0.776 OA
HETATM   43  H45 UNL     1      -9.507  40.239 -30.872  1.00  0.00     0.167 HD
ENDBRANCH  40  42
ENDBRANCH  39  40
ENDBRANCH  38  39
ENDBRANCH  37  38
ENDBRANCH  36  37
ENDBRANCH  35  36
ENDBRANCH  33  35
ENDBRANCH  30  31
ENDBRANCH  29  30
ENDBRANCH  27  29
ENDBRANCH  26  27
ENDBRANCH  25  26
ENDBRANCH  23  25
ENDBRANCH  20  23
TORSDOF 15
ENDMDL
