MODEL 1
REMARK minimizedAffinity -6.17668486
REMARK CNNscore 0.524149954
REMARK CNNaffinity 6.05096006
REMARK  5 active torsions:
REMARK  status: ('A' for Active; 'I' for Inactive)
REMARK    1  A    between atoms: C2_2  and  C3_3 
REMARK    2  A    between atoms: C6_6  and  C7_7 
REMARK    3  A    between atoms: C7_7  and  O1_9 
REMARK    4  A    between atoms: C23_29  and  O6_30 
REMARK    5  A    between atoms: C28_36  and  O8_37 
ROOT
HETATM    1  C3  UNL     1       0.839  14.216   2.950  1.00  0.00     0.008 C 
HETATM    2  C4  UNL     1      -0.189  13.323   2.275  1.00  0.00    -0.023 C 
HETATM    3  C5  UNL     1      -1.334  13.660   1.659  1.00  0.00     0.004 C 
HETATM    4  C6  UNL     1      -2.024  15.005   1.536  1.00  0.00     0.183 C 
HETATM    5  O2  UNL     1      -2.049  15.301   0.123  1.00  0.00    -0.306 OA
HETATM    6  C9  UNL     1      -2.115  16.606  -0.220  1.00  0.00     0.289 C 
HETATM    7  O3  UNL     1      -2.235  17.548   0.551  1.00  0.00    -0.260 OA
HETATM    8  C10 UNL     1      -2.065  16.779  -1.698  1.00  0.00     0.010 C 
HETATM    9  C11 UNL     1      -3.090  17.740  -2.224  1.00  0.00     0.054 C 
HETATM   10  C12 UNL     1      -1.136  16.211  -2.496  1.00  0.00     0.004 C 
HETATM   11  C13 UNL     1      -0.040  15.245  -2.114  1.00  0.00     0.147 C 
HETATM   12  C14 UNL     1       0.183  14.185  -3.211  1.00  0.00     0.233 C 
HETATM   13  O4  UNL     1      -0.650  13.702  -3.962  1.00  0.00    -0.272 OA
HETATM   14  N1  UNL     1       1.516  13.807  -3.145  1.00  0.00    -0.327 N 
HETATM   15  C15 UNL     1       2.190  14.533  -2.206  1.00  0.00     0.056 C 
HETATM   16  C16 UNL     1       3.265  14.113  -1.547  1.00  0.00     0.084 C 
HETATM   17  C17 UNL     1       3.670  14.846  -0.326  1.00  0.00     0.185 C 
HETATM   18  O5  UNL     1       4.698  14.519   0.249  1.00  0.00    -0.287 OA
HETATM   19  C18 UNL     1       2.774  15.917   0.202  1.00  0.00     0.040 C 
HETATM   20  C19 UNL     1       1.748  16.435  -0.612  1.00  0.00    -0.001 C 
HETATM   21  C20 UNL     1       1.075  17.600  -0.194  1.00  0.00     0.021 C 
HETATM   22  C21 UNL     1       1.334  18.201   1.043  1.00  0.00    -0.027 C 
HETATM   23  C22 UNL     1       0.606  19.448   1.449  1.00  0.00     0.051 C 
HETATM   24  C23 UNL     1       2.291  17.621   1.872  1.00  0.00     0.086 C 
HETATM   25  C24 UNL     1       2.974  16.456   1.482  1.00  0.00     0.058 C 
HETATM   26  C25 UNL     1       3.802  15.821   2.524  1.00  0.00     0.163 C 
HETATM   27  O7  UNL     1       4.660  16.531   3.057  1.00  0.00    -0.292 OA
HETATM   28  C26 UNL     1       3.477  14.430   3.063  1.00  0.00     0.084 C 
HETATM   29  C27 UNL     1       2.243  13.667   2.561  1.00  0.00     0.016 C 
HETATM   30  C28 UNL     1       1.406  15.795  -1.933  1.00  0.00     0.143 C 
HETATM   31  H20 UNL     1       1.831  12.953  -3.588  1.00  0.00     0.168 HD
ENDROOT
BRANCH   4  32
HETATM   32  C7  UNL     1      -3.456  14.893   2.148  1.00  0.00     0.147 C 
HETATM   33  C8  UNL     1      -3.882  16.082   2.999  1.00  0.00     0.042 C 
BRANCH  32  34
HETATM   34  O1  UNL     1      -4.440  14.717   1.118  1.00  0.00    -0.393 OA
HETATM   35  H14 UNL     1      -5.300  14.603   1.556  1.00  0.00     0.210 HD
ENDBRANCH  32  34
ENDBRANCH   4  32
BRANCH   1  36
HETATM   36  C2  UNL     1       0.658  14.262   4.479  1.00  0.00     0.004 C 
HETATM   37  C1  UNL     1      -0.467  15.178   4.947  1.00  0.00     0.006 C 
ENDBRANCH   1  36
BRANCH  30  38
HETATM   38  O8  UNL     1       1.725  16.752  -2.951  1.00  0.00    -0.377 OA
HETATM   39  H31 UNL     1       1.890  16.271  -3.783  1.00  0.00     0.211 HD
ENDBRANCH  30  38
BRANCH  24  40
HETATM   40  O6  UNL     1       2.543  18.228   3.079  1.00  0.00    -0.359 OA
HETATM   41  H26 UNL     1       3.449  17.969   3.368  1.00  0.00     0.217 HD
ENDBRANCH  24  40
TORSDOF 5
ENDMDL
