MODEL 1
REMARK minimizedAffinity -7.47221088
REMARK CNNscore 0.54961133
REMARK CNNaffinity 6.97504616
REMARK  9 active torsions:
REMARK  status: ('A' for Active; 'I' for Inactive)
REMARK    1  A    between atoms: O1_2  and  C2_3 
REMARK    2  A    between atoms: C2_3  and  C3_4 
REMARK    3  A    between atoms: C3_4  and  C4_5 
REMARK    4  A    between atoms: C4_5  and  O2_6 
REMARK    5  A    between atoms: O2_6  and  C5_7 
REMARK    6  A    between atoms: C15_18  and  O4_19 
REMARK    7  A    between atoms: C21_25  and  O5_27 
REMARK    8  A    between atoms: C23_28  and  O6_29 
REMARK    9  A    between atoms: C29_37  and  O8_38 
ROOT
HETATM    1  C5  UNL     1      -1.458  53.472  -9.552  1.00  0.00     0.122 C 
HETATM    2  C6  UNL     1      -0.307  52.866 -10.383  1.00  0.00     0.033 C 
HETATM    3  C7  UNL     1       1.044  52.920  -9.662  1.00  0.00     0.014 C 
HETATM    4  C8  UNL     1       1.471  54.379  -9.242  1.00  0.00    -0.010 C 
HETATM    5  C9  UNL     1       1.964  55.064 -10.550  1.00  0.00     0.018 C 
HETATM    6  C10 UNL     1       0.211  55.219  -8.838  1.00  0.00     0.073 C 
HETATM    7  C11 UNL     1      -0.969  54.348  -8.391  1.00  0.00     0.045 C 
HETATM    8  C12 UNL     1       0.441  56.395  -7.896  1.00  0.00     0.161 C 
HETATM    9  O3  UNL     1      -0.482  57.177  -7.643  1.00  0.00    -0.292 OA
HETATM   10  C13 UNL     1       1.764  56.627  -7.253  1.00  0.00    -0.005 C 
HETATM   11  C14 UNL     1       2.711  55.671  -7.322  1.00  0.00    -0.013 C 
HETATM   12  C15 UNL     1       3.869  55.789  -6.372  1.00  0.00     0.095 C 
HETATM   13  C16 UNL     1       4.239  57.195  -5.906  1.00  0.00     0.026 C 
HETATM   14  C17 UNL     1       3.017  57.877  -5.312  1.00  0.00     0.013 C 
HETATM   15  C18 UNL     1       1.875  57.869  -6.364  1.00  0.00     0.043 C 
HETATM   16  C19 UNL     1       5.483  56.936  -5.018  1.00  0.00     0.016 C 
HETATM   17  C20 UNL     1       6.013  55.505  -5.432  1.00  0.00     0.034 C 
HETATM   18  C21 UNL     1       7.505  55.179  -5.096  1.00  0.00     0.087 C 
HETATM   19  C22 UNL     1       8.485  56.277  -5.562  1.00  0.00     0.049 C 
HETATM   20  C23 UNL     1       7.669  54.964  -3.522  1.00  0.00     0.181 C 
HETATM   21  C24 UNL     1       7.269  53.620  -2.818  1.00  0.00     0.158 C 
HETATM   22  O7  UNL     1       7.223  53.941  -1.366  1.00  0.00    -0.373 OA
HETATM   23  C25 UNL     1       5.821  54.160  -0.992  1.00  0.00     0.185 C 
HETATM   24  C26 UNL     1       5.013  53.946  -2.272  1.00  0.00     0.028 C 
HETATM   25  C27 UNL     1       3.573  53.560  -1.979  1.00  0.00     0.053 C 
HETATM   26  C28 UNL     1       3.461  52.260  -1.180  1.00  0.00     0.309 C 
HETATM   27  N1  UNL     1       4.624  52.020  -0.300  1.00  0.00     0.128 N 
HETATM   28  C29 UNL     1       5.311  53.217   0.157  1.00  0.00     0.384 C 
HETATM   29  C30 UNL     1       3.221  51.072  -2.155  1.00  0.00     0.233 C 
HETATM   30  O9  UNL     1       3.996  50.127  -2.305  1.00  0.00    -0.277 OA
HETATM   31  N2  UNL     1       1.991  51.194  -2.837  1.00  0.00    -0.243 NA
HETATM   32  C31 UNL     1       1.362  50.023  -3.371  1.00  0.00     0.120 A 
HETATM   33  C32 UNL     1       1.895  51.090  -4.279  1.00  0.00     0.090 A 
HETATM   34  C33 UNL     1       0.893  51.939  -5.017  1.00  0.00     0.115 C 
HETATM   35  C34 UNL     1       1.582  52.689  -6.089  1.00  0.00    -0.104 C 
HETATM   36  C35 UNL     1       2.022  53.384  -6.973  1.00  0.00    -0.090 C 
HETATM   37  C36 UNL     1       2.572  54.322  -8.052  1.00  0.00     0.062 C 
HETATM   38  C37 UNL     1       4.035  53.752  -8.447  1.00  0.00     0.012 C 
HETATM   39  C38 UNL     1       4.800  54.447  -9.606  1.00  0.00     0.007 C 
HETATM   40  C39 UNL     1       6.129  55.087  -9.207  1.00  0.00     0.001 C 
HETATM   41  C40 UNL     1       5.881  55.984  -7.998  1.00  0.00     0.013 C 
HETATM   42  C41 UNL     1       5.264  55.212  -6.791  1.00  0.00     0.002 C 
HETATM   43  C42 UNL     1       4.986  53.753  -7.205  1.00  0.00     0.020 C 
HETATM   44  C43 UNL     1       5.926  52.935  -2.964  1.00  0.00     0.020 C 
HETATM   45  C44 UNL     1       5.523  52.334  -4.280  1.00  0.00     0.013 C 
HETATM   46  H42 UNL     1       4.388  51.384   0.456  1.00  0.00     0.320 HD
ENDROOT
BRANCH   1  47
HETATM   47  O2  UNL     1      -2.245  54.304 -10.419  1.00  0.00    -0.386 OA
BRANCH  47  48
HETATM   48  C4  UNL     1      -3.617  53.929 -10.507  1.00  0.00     0.170 C 
BRANCH  48  49
HETATM   49  C3  UNL     1      -3.939  53.166 -11.794  1.00  0.00     0.052 C 
BRANCH  49  50
HETATM   50  C2  UNL     1      -3.907  51.651 -11.591  1.00  0.00     0.169 C 
BRANCH  50  51
HETATM   51  O1  UNL     1      -4.275  51.345 -10.249  1.00  0.00    -0.396 OA
HETATM   52  C1  UNL     1      -5.185  50.247 -10.182  1.00  0.00     0.201 C 
ENDBRANCH  50  51
ENDBRANCH  49  50
ENDBRANCH  48  49
ENDBRANCH  47  48
ENDBRANCH   1  47
BRANCH  12  53
HETATM   53  O4  UNL     1       3.411  55.097  -5.176  1.00  0.00    -0.384 OA
HETATM   54  H21 UNL     1       2.444  55.166  -5.118  1.00  0.00     0.211 HD
ENDBRANCH  12  53
BRANCH  18  55
HETATM   55  O5  UNL     1       7.911  53.987  -5.777  1.00  0.00    -0.387 OA
HETATM   56  H33 UNL     1       8.814  53.789  -5.466  1.00  0.00     0.210 HD
ENDBRANCH  18  55
BRANCH  20  57
HETATM   57  O6  UNL     1       9.076  55.124  -3.181  1.00  0.00    -0.390 OA
HETATM   58  H35 UNL     1       9.130  54.958  -2.216  1.00  0.00     0.210 HD
ENDBRANCH  20  57
BRANCH  28  59
HETATM   59  O8  UNL     1       4.418  53.933   0.990  1.00  0.00    -0.366 OA
HETATM   60  H44 UNL     1       4.339  53.415   1.802  1.00  0.00     0.212 HD
ENDBRANCH  28  59
TORSDOF 9
ENDMDL
