MODEL 1
REMARK minimizedAffinity -10.0537014
REMARK  7 active torsions:
REMARK  status: ('A' for Active; 'I' for Inactive)
REMARK    1  A    between atoms: C2_2  and  C30_33 
REMARK    2  A    between atoms: C3_3  and  C4_4 
REMARK    3  A    between atoms: C4_4  and  C5_5 
REMARK    4  A    between atoms: C5_5  and  C6_6 
REMARK    5  A    between atoms: C6_6  and  C8_8 
REMARK    6  A    between atoms: C15_15  and  O1_16 
REMARK    7  A    between atoms: C30_33  and  O5_35 
ROOT
HETATM    1  C8  UNL     1      -0.643  50.275 -21.795  1.00  0.00    -0.002 C 
HETATM    2  C9  UNL     1      -0.742  49.787 -20.326  1.00  0.00     0.007 C 
HETATM    3  C10 UNL     1      -2.059  49.006 -20.176  1.00  0.00     0.015 C 
HETATM    4  C11 UNL     1      -2.537  48.737 -21.613  1.00  0.00    -0.005 C 
HETATM    5  C12 UNL     1      -1.782  47.467 -22.113  1.00  0.00     0.021 C 
HETATM    6  C13 UNL     1      -4.011  48.456 -21.890  1.00  0.00     0.002 C 
HETATM    7  C14 UNL     1      -4.583  48.774 -23.084  1.00  0.00    -0.032 C 
HETATM    8  C15 UNL     1      -3.728  49.440 -24.182  1.00  0.00     0.149 C 
HETATM    9  C16 UNL     1      -2.295  49.900 -23.816  1.00  0.00     0.047 C 
HETATM   10  C17 UNL     1      -2.113  50.092 -22.301  1.00  0.00    -0.026 C 
HETATM   11  C18 UNL     1      -2.967  51.309 -21.822  1.00  0.00     0.016 C 
HETATM   12  C19 UNL     1      -6.068  48.427 -23.430  1.00  0.00    -0.012 C 
HETATM   13  C20 UNL     1      -6.923  49.707 -23.256  1.00  0.00     0.021 C 
HETATM   14  C21 UNL     1      -6.179  47.914 -24.894  1.00  0.00     0.021 C 
HETATM   15  C22 UNL     1      -7.412  47.085 -25.241  1.00  0.00     0.080 C 
HETATM   16  C23 UNL     1      -8.488  47.108 -24.189  1.00  0.00     0.135 C 
HETATM   17  O2  UNL     1      -9.669  47.245 -24.517  1.00  0.00    -0.297 OA
HETATM   18  C24 UNL     1      -8.071  46.832 -22.739  1.00  0.00     0.018 C 
HETATM   19  C25 UNL     1      -8.195  45.307 -22.529  1.00  0.00     0.023 C 
HETATM   20  C26 UNL     1      -9.083  47.514 -21.792  1.00  0.00     0.023 C 
HETATM   21  C27 UNL     1      -6.581  47.267 -22.507  1.00  0.00     0.020 C 
HETATM   22  C28 UNL     1      -6.276  47.562 -21.039  1.00  0.00     0.090 C 
HETATM   23  C29 UNL     1      -4.801  47.753 -20.829  1.00  0.00     0.157 C 
HETATM   24  O3  UNL     1      -4.275  47.362 -19.790  1.00  0.00    -0.293 OA
ENDROOT
BRANCH   1  25
HETATM   25  C6  UNL     1       0.051  51.670 -21.923  1.00  0.00    -0.014 C 
HETATM   26  C7  UNL     1      -0.343  52.609 -20.774  1.00  0.00     0.010 C 
BRANCH  25  27
HETATM   27  C5  UNL     1      -0.296  52.404 -23.253  1.00  0.00     0.008 C 
BRANCH  27  28
HETATM   28  C4  UNL     1       0.814  52.548 -24.307  1.00  0.00     0.028 C 
BRANCH  28  29
HETATM   29  C3  UNL     1       0.370  52.387 -25.736  1.00  0.00    -0.013 C 
HETATM   30  C2  UNL     1       1.060  51.886 -26.782  1.00  0.00     0.008 C 
HETATM   31  C1  UNL     1       0.445  51.763 -28.145  1.00  0.00     0.055 C 
BRANCH  30  32
HETATM   32  C30 UNL     1       2.471  51.455 -26.645  1.00  0.00     0.171 C 
HETATM   33  O4  UNL     1       2.908  50.573 -25.929  1.00  0.00    -0.646 OA
BRANCH  32  34
HETATM   34  O5  UNL     1       3.283  52.187 -27.426  1.00  0.00    -0.773 OA
HETATM   35  H44 UNL     1       4.169  51.808 -27.249  1.00  0.00     0.167 HD
ENDBRANCH  32  34
ENDBRANCH  30  32
ENDBRANCH  28  29
ENDBRANCH  27  28
ENDBRANCH  25  27
ENDBRANCH   1  25
BRANCH   8  36
HETATM   36  O1  UNL     1      -4.419  50.567 -24.713  1.00  0.00    -0.391 OA
HETATM   37  H22 UNL     1      -4.395  51.274 -24.048  1.00  0.00     0.210 HD
ENDBRANCH   8  36
TORSDOF 7
ENDMDL
