MODEL 1
REMARK minimizedAffinity -8.15394115
REMARK CNNscore 0.582651496
REMARK CNNaffinity 7.19401169
REMARK  20 active torsions:
REMARK  status: ('A' for Active; 'I' for Inactive)
REMARK    1  A    between atoms: C2_2  and  C3_3 
REMARK    2  A    between atoms: C2_2  and  C27_34 
REMARK    3  A    between atoms: C4_4  and  C5_5 
REMARK    4  A    between atoms: C6_6  and  C7_7 
REMARK    5  A    between atoms: C6_6  and  C10_12 
REMARK    6  A    between atoms: C7_7  and  O1_8 
REMARK    7  A    between atoms: O1_8  and  C8_9 
REMARK    8  A    between atoms: C8_9  and  C9_10 
REMARK    9  A    between atoms: C9_10  and  O2_11 
REMARK   10  A    between atoms: C14_16  and  O3_17 
REMARK   11  A    between atoms: C15_18  and  C16_19 
REMARK   12  A    between atoms: C16_19  and  C17_20 
REMARK   13  A    between atoms: C17_20  and  C18_21 
REMARK   14  A    between atoms: C18_21  and  O4_22 
REMARK   15  A    between atoms: C20_24  and  C22_26 
REMARK   16  A    between atoms: C25_30  and  O6_31 
REMARK   17  A    between atoms: C25_30  and  C26_32 
REMARK   18  A    between atoms: C26_32  and  O7_33 
REMARK   19  A    between atoms: C27_34  and  C28_35 
REMARK   20  A    between atoms: C28_35  and  C29_36 
ROOT
HETATM    1  C10 UNL     1      -3.350  48.998 -25.107  1.00  0.00     0.046 C 
HETATM    2  C11 UNL     1      -4.455  47.993 -24.766  1.00  0.00     0.013 C 
HETATM    3  C12 UNL     1      -4.569  48.096 -23.254  1.00  0.00     0.017 C 
HETATM    4  C13 UNL     1      -4.458  49.616 -22.919  1.00  0.00     0.027 C 
HETATM    5  C14 UNL     1      -3.738  50.199 -24.197  1.00  0.00     0.138 C 
HETATM    6  C15 UNL     1      -3.492  49.785 -21.660  1.00  0.00     0.029 C 
HETATM    7  C19 UNL     1      -4.135  49.155 -20.420  1.00  0.00    -0.066 C 
HETATM    8  C20 UNL     1      -3.594  48.165 -19.668  1.00  0.00    -0.021 C 
HETATM    9  C21 UNL     1      -4.226  47.586 -18.437  1.00  0.00     0.052 C 
HETATM   10  C23 UNL     1      -5.461  49.798 -20.078  1.00  0.00     0.038 C 
HETATM   11  C24 UNL     1      -6.439  49.693 -21.240  1.00  0.00     0.045 C 
HETATM   12  C25 UNL     1      -5.902  50.205 -22.605  1.00  0.00     0.090 C 
ENDROOT
BRANCH   5  13
HETATM   13  O3  UNL     1      -4.567  51.132 -24.872  1.00  0.00    -0.394 OA
HETATM   14  H19 UNL     1      -4.768  51.829 -24.208  1.00  0.00     0.210 HD
ENDBRANCH   5  13
BRANCH   6  15
HETATM   15  C16 UNL     1      -3.020  51.238 -21.336  1.00  0.00     0.012 C 
BRANCH  15  16
HETATM   16  C17 UNL     1      -3.425  51.685 -19.919  1.00  0.00     0.027 C 
BRANCH  16  17
HETATM   17  C18 UNL     1      -2.261  51.641 -18.937  1.00  0.00     0.164 C 
BRANCH  17  18
HETATM   18  O4  UNL     1      -2.743  51.363 -17.632  1.00  0.00    -0.401 OA
HETATM   19  H27 UNL     1      -1.968  51.341 -17.043  1.00  0.00     0.209 HD
ENDBRANCH  17  18
ENDBRANCH  16  17
ENDBRANCH  15  16
ENDBRANCH   6  15
BRANCH  12  20
HETATM   20  O6  UNL     1      -5.785  51.641 -22.528  1.00  0.00    -0.387 OA
HETATM   21  H36 UNL     1      -6.679  52.011 -22.668  1.00  0.00     0.210 HD
ENDBRANCH  12  20
BRANCH  12  22
HETATM   22  C26 UNL     1      -7.044  49.882 -23.633  1.00  0.00     0.202 C 
BRANCH  22  23
HETATM   23  O7  UNL     1      -8.026  48.975 -23.157  1.00  0.00    -0.398 OA
HETATM   24  H39 UNL     1      -8.316  49.289 -22.271  1.00  0.00     0.209 HD
ENDBRANCH  22  23
ENDBRANCH  12  22
BRANCH   1  25
HETATM   25  C6  UNL     1      -3.058  49.175 -26.604  1.00  0.00    -0.050 C 
HETATM   26  C5  UNL     1      -2.160  49.991 -27.203  1.00  0.00     0.005 C 
BRANCH  26  27
HETATM   27  C4  UNL     1      -1.253  50.971 -26.650  1.00  0.00     0.001 C 
HETATM   28  C3  UNL     1       0.025  50.674 -26.358  1.00  0.00     0.006 C 
BRANCH  28  29
HETATM   29  C2  UNL     1       1.052  51.589 -25.873  1.00  0.00    -0.067 C 
HETATM   30  C1  UNL     1       2.321  51.435 -26.289  1.00  0.00     0.019 C 
BRANCH  29  31
HETATM   31  C27 UNL     1       0.689  52.756 -24.978  1.00  0.00     0.041 C 
BRANCH  31  32
HETATM   32  C28 UNL     1      -0.122  52.337 -23.747  1.00  0.00     0.032 C 
BRANCH  32  33
HETATM   33  C29 UNL     1       0.403  53.017 -22.508  1.00  0.00    -0.024 C 
HETATM   34  C30 UNL     1       0.675  52.463 -21.311  1.00  0.00    -0.091 C 
HETATM   35  C31 UNL     1       1.202  53.305 -20.181  1.00  0.00     0.042 C 
HETATM   36  C32 UNL     1       0.526  51.003 -20.975  1.00  0.00     0.042 C 
ENDBRANCH  32  33
ENDBRANCH  31  32
ENDBRANCH  29  31
ENDBRANCH  28  29
ENDBRANCH  26  27
BRANCH  25  37
HETATM   37  C7  UNL     1      -3.801  48.218 -27.536  1.00  0.00     0.202 C 
BRANCH  37  38
HETATM   38  O1  UNL     1      -4.757  48.905 -28.343  1.00  0.00    -0.385 OA
BRANCH  38  39
HETATM   39  C8  UNL     1      -5.534  48.052 -29.191  1.00  0.00     0.194 C 
BRANCH  39  40
HETATM   40  C9  UNL     1      -5.377  48.435 -30.662  1.00  0.00     0.190 C 
BRANCH  40  41
HETATM   41  O2  UNL     1      -4.698  49.685 -30.799  1.00  0.00    -0.399 OA
HETATM   42  H12 UNL     1      -4.615  49.853 -31.752  1.00  0.00     0.209 HD
ENDBRANCH  40  41
ENDBRANCH  39  40
ENDBRANCH  38  39
ENDBRANCH  37  38
ENDBRANCH  25  37
ENDBRANCH   1  25
BRANCH   8  43
HETATM   43  C22 UNL     1      -2.256  47.577 -19.971  1.00  0.00     0.265 C 
HETATM   44  O5  UNL     1      -1.194  48.088 -19.645  1.00  0.00    -0.302 OA
ENDBRANCH   8  43
TORSDOF 20
ENDMDL
