MODEL 1
REMARK minimizedAffinity -7.32863903
REMARK CNNscore 0.562594414
REMARK CNNaffinity 7.0384388
REMARK  4 active torsions:
REMARK  status: ('A' for Active; 'I' for Inactive)
REMARK    1  A    between atoms: C12_13  and  C13_14 
REMARK    2  A    between atoms: C20_21  and  C21_22 
REMARK    3  A    between atoms: C21_22  and  C22_23 
REMARK    4  A    between atoms: C23_24  and  O2_25 
ROOT
HETATM    1  C1  UNL     1      -3.359  53.387 -10.202  1.00  0.00     0.015 C 
HETATM    2  C2  UNL     1      -2.093  53.724 -10.500  1.00  0.00    -0.084 C 
HETATM    3  C3  UNL     1      -1.601  55.148 -10.383  1.00  0.00     0.034 C 
HETATM    4  C4  UNL     1      -0.327  55.251  -9.540  1.00  0.00     0.010 C 
HETATM    5  C5  UNL     1       0.751  54.230  -9.972  1.00  0.00     0.006 C 
HETATM    6  C6  UNL     1       0.198  52.759  -9.973  1.00  0.00    -0.032 C 
HETATM    7  C7  UNL     1      -0.289  52.310  -8.566  1.00  0.00     0.016 C 
HETATM    8  C8  UNL     1       1.299  51.743 -10.407  1.00  0.00     0.013 C 
HETATM    9  C9  UNL     1       2.640  52.391 -10.739  1.00  0.00     0.039 C 
HETATM   10  C10 UNL     1       3.154  53.288  -9.597  1.00  0.00     0.066 C 
HETATM   11  C11 UNL     1       3.561  52.415  -8.399  1.00  0.00     0.047 C 
HETATM   12  O1  UNL     1       4.393  53.872 -10.067  1.00  0.00    -0.371 OA
HETATM   13  C12 UNL     1       4.324  55.299 -10.035  1.00  0.00     0.146 C 
HETATM   14  C17 UNL     1       2.851  55.651  -9.968  1.00  0.00     0.048 C 
HETATM   15  C18 UNL     1       2.156  54.450  -9.287  1.00  0.00    -0.006 C 
HETATM   16  C19 UNL     1       2.031  54.778  -7.783  1.00  0.00     0.019 C 
HETATM   17  C20 UNL     1      -1.057  52.691 -10.944  1.00  0.00     0.027 C 
ENDROOT
BRANCH  17  18
HETATM   18  C21 UNL     1      -0.736  52.864 -12.462  1.00  0.00     0.057 C 
BRANCH  18  19
HETATM   19  C22 UNL     1      -1.190  51.691 -13.305  1.00  0.00     0.052 A 
HETATM   20  C23 UNL     1      -0.359  50.726 -13.731  1.00  0.00     0.086 A 
HETATM   21  C24 UNL     1      -0.815  49.606 -14.540  1.00  0.00     0.001 A 
HETATM   22  C25 UNL     1       0.198  48.634 -15.085  1.00  0.00     0.054 C 
HETATM   23  C26 UNL     1      -2.135  49.521 -14.799  1.00  0.00     0.061 A 
HETATM   24  C27 UNL     1      -2.831  48.435 -15.561  1.00  0.00     0.077 C 
HETATM   25  O3  UNL     1      -3.036  50.514 -14.345  1.00  0.00    -0.279 OA
HETATM   26  C28 UNL     1      -2.623  51.629 -13.675  1.00  0.00     0.297 A 
HETATM   27  O4  UNL     1      -3.410  52.528 -13.396  1.00  0.00    -0.259 OA
BRANCH  20  28
HETATM   28  O2  UNL     1       0.977  50.774 -13.378  1.00  0.00    -0.359 OA
HETATM   29  H34 UNL     1       1.372  49.891 -13.453  1.00  0.00     0.217 HD
ENDBRANCH  20  28
ENDBRANCH  18  19
ENDBRANCH  17  18
BRANCH  13  30
HETATM   30  C13 UNL     1       5.147  55.791  -8.877  1.00  0.00     0.007 C 
HETATM   31  C14 UNL     1       6.296  55.258  -8.413  1.00  0.00    -0.089 C 
HETATM   32  C15 UNL     1       6.985  54.065  -9.013  1.00  0.00     0.042 C 
HETATM   33  C16 UNL     1       6.994  55.851  -7.217  1.00  0.00     0.042 C 
ENDBRANCH  13  30
TORSDOF 4
ENDMDL
