MODEL 1
REMARK minimizedAffinity -8.36431026
REMARK  10 active torsions:
REMARK  status: ('A' for Active; 'I' for Inactive)
REMARK    1  A    between atoms: C7_7  and  C9_9 
REMARK    2  A    between atoms: C9_9  and  C10_10 
REMARK    3  A    between atoms: C10_10  and  O1_11 
REMARK    4  A    between atoms: C10_10  and  C13_15 
REMARK    5  A    between atoms: O1_11  and  C11_12 
REMARK    6  A    between atoms: C13_15  and  C16_19 
REMARK    7  A    between atoms: C14_16  and  C15_17 
REMARK    8  A    between atoms: C15_17  and  O3_18 
REMARK    9  A    between atoms: C16_19  and  O4_20 
REMARK   10  A    between atoms: O4_20  and  C17_21 
ROOT
HETATM    1  C9  UNL     1       5.672  63.932 -36.121  1.00  0.00     0.047 C 
ENDROOT
BRANCH   1   2
HETATM    2  C7  UNL     1       5.727  65.494 -36.440  1.00  0.00    -0.034 C 
HETATM    3  C6  UNL     1       4.398  65.982 -37.182  1.00  0.00     0.006 C 
HETATM    4  C5  UNL     1       3.160  66.184 -36.267  1.00  0.00     0.007 C 
HETATM    5  C23 UNL     1       4.498  67.249 -38.131  1.00  0.00    -0.017 C 
HETATM    6  C4  UNL     1       1.878  66.542 -37.035  1.00  0.00     0.005 C 
HETATM    7  C3  UNL     1       2.039  66.484 -38.550  1.00  0.00     0.034 C 
HETATM    8  C2  UNL     1       3.223  67.306 -39.012  1.00  0.00    -0.081 C 
HETATM    9  C1  UNL     1       3.110  68.054 -40.127  1.00  0.00     0.015 C 
HETATM   10  C22 UNL     1       5.757  67.143 -39.012  1.00  0.00     0.014 C 
HETATM   11  C24 UNL     1       4.545  68.598 -37.364  1.00  0.00     0.020 C 
HETATM   12  C21 UNL     1       7.022  66.953 -38.193  1.00  0.00     0.006 C 
HETATM   13  C19 UNL     1       6.979  65.639 -37.414  1.00  0.00    -0.010 C 
HETATM   14  C20 UNL     1       8.353  65.439 -36.748  1.00  0.00     0.011 C 
HETATM   15  C8  UNL     1       5.982  66.280 -35.139  1.00  0.00     0.016 C 
ENDBRANCH   1   2
BRANCH   1  16
HETATM   16  C10 UNL     1       6.023  63.329 -34.739  1.00  0.00     0.163 C 
BRANCH  16  17
HETATM   17  O1  UNL     1       4.782  62.945 -34.091  1.00  0.00    -0.312 OA
BRANCH  17  18
HETATM   18  C11 UNL     1       4.591  63.423 -32.830  1.00  0.00     0.255 C 
HETATM   19  C12 UNL     1       3.539  62.620 -32.129  1.00  0.00     0.126 C 
HETATM   20  O2  UNL     1       5.154  64.394 -32.341  1.00  0.00    -0.266 OA
ENDBRANCH  17  18
ENDBRANCH  16  17
BRANCH  16  21
HETATM   21  C13 UNL     1       6.871  62.066 -34.689  1.00  0.00    -0.028 C 
HETATM   22  C14 UNL     1       6.359  60.820 -34.796  1.00  0.00     0.006 C 
BRANCH  22  23
HETATM   23  C15 UNL     1       7.110  59.525 -34.766  1.00  0.00     0.192 C 
BRANCH  23  24
HETATM   24  O3  UNL     1       6.975  58.903 -36.036  1.00  0.00    -0.397 OA
HETATM   25  H22 UNL     1       6.027  58.760 -36.190  1.00  0.00     0.209 HD
ENDBRANCH  23  24
ENDBRANCH  22  23
BRANCH  21  26
HETATM   26  C16 UNL     1       8.347  62.320 -34.450  1.00  0.00     0.215 C 
BRANCH  26  27
HETATM   27  O4  UNL     1       8.843  61.420 -33.448  1.00  0.00    -0.317 OA
BRANCH  27  28
HETATM   28  C17 UNL     1       9.851  61.892 -32.668  1.00  0.00     0.255 C 
HETATM   29  C18 UNL     1      10.728  62.805 -33.470  1.00  0.00     0.126 C 
HETATM   30  O5  UNL     1      10.026  61.640 -31.484  1.00  0.00    -0.266 OA
ENDBRANCH  27  28
ENDBRANCH  26  27
ENDBRANCH  21  26
ENDBRANCH  16  21
ENDBRANCH   1  16
TORSDOF 10
ENDMDL
