MODEL 1
REMARK minimizedAffinity -7.93117666
REMARK CNNscore 0.430436969
REMARK CNNaffinity 6.40506363
REMARK  19 active torsions:
REMARK  status: ('A' for Active; 'I' for Inactive)
REMARK    1  A    between atoms: C2_2  and  C3_3 
REMARK    2  A    between atoms: C3_3  and  C5_5 
REMARK    3  A    between atoms: C5_5  and  N1_6 
REMARK    4  A    between atoms: C5_5  and  C37_46 
REMARK       I    between atoms: N1_6  and  C6_7 
REMARK    5  A    between atoms: C6_7  and  C7_9 
REMARK    6  A    between atoms: C7_9  and  C8_10 
REMARK    7  A    between atoms: C8_10  and  C9_11 
REMARK    8  A    between atoms: C9_11  and  C10_12 
REMARK    9  A    between atoms: C10_12  and  C11_13 
REMARK   10  A    between atoms: C11_13  and  N2_14 
REMARK       I    between atoms: N2_14  and  C12_15 
REMARK   11  A    between atoms: C12_15  and  C13_17 
REMARK   12  A    between atoms: C13_17  and  C14_18 
REMARK   13  A    between atoms: C14_18  and  C15_19 
REMARK   14  A    between atoms: C15_19  and  O4_21 
REMARK   15  A    between atoms: O4_21  and  C16_22 
REMARK   16  A    between atoms: C16_22  and  C17_23 
REMARK   17  A    between atoms: C17_23  and  C18_25 
REMARK   18  A    between atoms: C18_25  and  O6_26 
REMARK   19  A    between atoms: C37_46  and  O9_48 
ROOT
HETATM    1  C15 UNL     1       7.107   8.211  12.811  1.00  0.00     0.259 C 
HETATM    2  O3  UNL     1       7.150   9.300  12.259  1.00  0.00    -0.265 OA
ENDROOT
BRANCH   1   3
HETATM    3  C14 UNL     1       7.737   7.877  14.141  1.00  0.00     0.120 C 
BRANCH   3   4
HETATM    4  C13 UNL     1       8.697   8.971  14.587  1.00  0.00     0.112 C 
BRANCH   4   5
HETATM    5  C12 UNL     1      10.107   8.724  14.092  1.00  0.00     0.217 C 
HETATM    6  N2  UNL     1      11.022   9.608  14.632  1.00  0.00    -0.361 N 
HETATM    7  H22 UNL     1      10.652  10.479  14.986  1.00  0.00     0.162 HD
HETATM    8  O2  UNL     1      10.404   7.802  13.342  1.00  0.00    -0.274 OA
BRANCH   6   9
HETATM    9  C11 UNL     1      12.403   9.597  14.190  1.00  0.00     0.122 C 
BRANCH   9  10
HETATM   10  C10 UNL     1      12.849  10.952  13.642  1.00  0.00     0.020 C 
BRANCH  10  11
HETATM   11  C9  UNL     1      14.367  11.175  13.627  1.00  0.00     0.002 C 
BRANCH  11  12
HETATM   12  C8  UNL     1      14.857  12.299  14.544  1.00  0.00     0.009 C 
BRANCH  12  13
HETATM   13  C7  UNL     1      15.808  11.788  15.628  1.00  0.00     0.103 C 
BRANCH  13  14
HETATM   14  C6  UNL     1      16.086  12.815  16.711  1.00  0.00     0.218 C 
HETATM   15  N1  UNL     1      16.445  12.242  17.911  1.00  0.00    -0.346 N 
HETATM   16  H11 UNL     1      16.172  11.277  18.062  1.00  0.00     0.163 HD
HETATM   17  O1  UNL     1      15.997  14.025  16.539  1.00  0.00    -0.274 OA
BRANCH  15  18
HETATM   18  C5  UNL     1      16.596  13.049  19.126  1.00  0.00     0.186 C 
BRANCH  18  19
HETATM   19  C3  UNL     1      17.856  12.647  19.932  1.00  0.00     0.014 C 
HETATM   20  C4  UNL     1      18.676  11.558  19.226  1.00  0.00     0.012 C 
BRANCH  19  21
HETATM   21  C2  UNL     1      18.717  13.894  20.233  1.00  0.00     0.002 C 
HETATM   22  C1  UNL     1      20.183  13.573  20.490  1.00  0.00     0.005 C 
ENDBRANCH  19  21
ENDBRANCH  18  19
BRANCH  18  23
HETATM   23  C37 UNL     1      15.338  12.963  20.002  1.00  0.00     0.163 C 
HETATM   24  O8  UNL     1      14.240  13.431  19.744  1.00  0.00    -0.648 OA
BRANCH  23  25
HETATM   25  O9  UNL     1      15.539  12.337  21.187  1.00  0.00    -0.775 OA
HETATM   26  H56 UNL     1      14.649  12.354  21.602  1.00  0.00     0.167 HD
ENDBRANCH  23  25
ENDBRANCH  18  23
ENDBRANCH  15  18
ENDBRANCH  13  14
ENDBRANCH  12  13
ENDBRANCH  11  12
ENDBRANCH  10  11
ENDBRANCH   9  10
ENDBRANCH   6   9
ENDBRANCH   4   5
ENDBRANCH   3   4
ENDBRANCH   1   3
BRANCH   1  27
HETATM   27  O4  UNL     1       6.433   7.121  12.343  1.00  0.00    -0.314 OA
BRANCH  27  28
HETATM   28  C16 UNL     1       5.034   7.350  12.168  1.00  0.00     0.260 C 
BRANCH  28  29
HETATM   29  C17 UNL     1       4.543   6.606  10.935  1.00  0.00     0.185 C 
HETATM   30  O5  UNL     1       5.270   5.776  10.381  1.00  0.00    -0.292 OA
BRANCH  29  31
HETATM   31  C18 UNL     1       3.135   6.984  10.382  1.00  0.00     0.128 C 
HETATM   32  C19 UNL     1       2.433   5.689   9.929  1.00  0.00     0.047 C 
HETATM   33  C20 UNL     1       1.432   5.320  11.032  1.00  0.00     0.009 C 
HETATM   34  C21 UNL     1       1.650   6.324  12.178  1.00  0.00     0.002 C 
HETATM   35  C22 UNL     1       0.482   6.556  13.172  1.00  0.00    -0.004 C 
HETATM   36  C35 UNL     1       2.149   7.585  11.443  1.00  0.00    -0.002 C 
HETATM   37  C23 UNL     1      -0.261   5.248  13.523  1.00  0.00     0.010 C 
HETATM   38  C32 UNL     1      -0.450   7.759  12.825  1.00  0.00     0.002 C 
HETATM   39  C24 UNL     1      -1.619   5.119  12.843  1.00  0.00     0.035 C 
HETATM   40  C25 UNL     1      -2.528   6.287  13.132  1.00  0.00    -0.068 C 
HETATM   41  C26 UNL     1      -3.862   6.122  13.066  1.00  0.00     0.053 C 
HETATM   42  C30 UNL     1      -1.883   7.628  13.471  1.00  0.00    -0.016 C 
HETATM   43  C27 UNL     1      -4.809   7.240  13.305  1.00  0.00     0.149 C 
HETATM   44  O7  UNL     1      -6.017   7.013  13.325  1.00  0.00    -0.293 OA
HETATM   45  C28 UNL     1      -4.253   8.624  13.546  1.00  0.00     0.084 C 
HETATM   46  C29 UNL     1      -2.838   8.759  12.988  1.00  0.00     0.022 C 
HETATM   47  C31 UNL     1      -1.741   7.759  15.016  1.00  0.00     0.020 C 
HETATM   48  C33 UNL     1      -0.436   8.038  11.316  1.00  0.00     0.007 C 
HETATM   49  C34 UNL     1       0.962   8.323  10.753  1.00  0.00     0.013 C 
HETATM   50  C36 UNL     1       2.862   8.566  12.393  1.00  0.00     0.019 C 
BRANCH  31  51
HETATM   51  O6  UNL     1       3.255   7.846   9.253  1.00  0.00    -0.381 OA
HETATM   52  H29 UNL     1       3.550   8.715   9.582  1.00  0.00     0.211 HD
ENDBRANCH  31  51
ENDBRANCH  29  31
ENDBRANCH  28  29
ENDBRANCH  27  28
ENDBRANCH   1  27
TORSDOF 19
ENDMDL
