MODEL 1
REMARK minimizedAffinity -8.97995377
REMARK CNNscore 0.428816527
REMARK CNNaffinity 6.61802816
REMARK  11 active torsions:
REMARK  status: ('A' for Active; 'I' for Inactive)
REMARK    1  A    between atoms: C19_20  and  O2_21 
REMARK    2  A    between atoms: C19_20  and  C20_22 
REMARK    3  A    between atoms: C20_22  and  C21_24 
REMARK    4  A    between atoms: C21_24  and  O4_25 
REMARK    5  A    between atoms: O4_25  and  C22_26 
REMARK    6  A    between atoms: C22_26  and  C23_28 
REMARK    7  A    between atoms: C23_28  and  C24_29 
REMARK    8  A    between atoms: C24_29  and  C25_30 
REMARK       I    between atoms: C25_30  and  N1_32 
REMARK    9  A    between atoms: N1_32  and  C26_33 
REMARK   10  A    between atoms: C26_33  and  C27_34 
REMARK   11  A    between atoms: C27_34  and  C28_35 
ROOT
HETATM    1  C20 UNL     1      -7.294  48.426 -22.855  1.00  0.00     0.185 C 
HETATM    2  O3  UNL     1      -8.113  47.636 -22.358  1.00  0.00    -0.292 OA
ENDROOT
BRANCH   1   3
HETATM    3  C19 UNL     1      -6.541  49.413 -21.924  1.00  0.00     0.128 C 
HETATM    4  C14 UNL     1      -4.984  49.367 -21.828  1.00  0.00    -0.002 C 
HETATM    5  C13 UNL     1      -4.212  49.946 -23.028  1.00  0.00     0.013 C 
HETATM    6  C15 UNL     1      -4.451  47.947 -21.517  1.00  0.00     0.019 C 
HETATM    7  C16 UNL     1      -4.773  50.343 -20.636  1.00  0.00     0.002 C 
HETATM    8  C12 UNL     1      -2.720  50.158 -22.704  1.00  0.00     0.007 C 
HETATM    9  C11 UNL     1      -2.480  51.016 -21.432  1.00  0.00     0.002 C 
HETATM   10  C2  UNL     1      -0.956  51.238 -21.089  1.00  0.00    -0.016 C 
HETATM   11  C10 UNL     1      -3.305  50.492 -20.215  1.00  0.00    -0.004 C 
HETATM   12  C1  UNL     1      -0.204  49.901 -20.906  1.00  0.00     0.020 C 
HETATM   13  C3  UNL     1      -0.306  52.034 -22.258  1.00  0.00     0.022 C 
HETATM   14  C7  UNL     1      -0.827  52.038 -19.785  1.00  0.00    -0.068 C 
HETATM   15  C4  UNL     1       1.060  52.617 -21.925  1.00  0.00     0.084 C 
HETATM   16  C5  UNL     1       0.995  53.451 -20.674  1.00  0.00     0.149 C 
HETATM   17  O1  UNL     1       1.761  54.391 -20.474  1.00  0.00    -0.293 OA
HETATM   18  C6  UNL     1       0.029  53.062 -19.621  1.00  0.00     0.053 C 
HETATM   19  C8  UNL     1      -1.697  51.608 -18.627  1.00  0.00     0.035 C 
HETATM   20  C9  UNL     1      -3.158  51.457 -19.031  1.00  0.00     0.010 C 
HETATM   21  C17 UNL     1      -5.791  49.861 -19.608  1.00  0.00     0.009 C 
HETATM   22  C18 UNL     1      -7.001  49.408 -20.452  1.00  0.00     0.047 C 
BRANCH   3  23
HETATM   23  O2  UNL     1      -6.894  50.731 -22.435  1.00  0.00    -0.381 OA
HETATM   24  H27 UNL     1      -7.782  50.631 -22.839  1.00  0.00     0.211 HD
ENDBRANCH   3  23
ENDBRANCH   1   3
BRANCH   1  25
HETATM   25  C21 UNL     1      -7.089  48.413 -24.367  1.00  0.00     0.260 C 
BRANCH  25  26
HETATM   26  O4  UNL     1      -5.940  47.758 -24.879  1.00  0.00    -0.314 OA
BRANCH  26  27
HETATM   27  C22 UNL     1      -5.604  48.079 -26.160  1.00  0.00     0.259 C 
HETATM   28  O5  UNL     1      -4.530  48.545 -26.508  1.00  0.00    -0.265 OA
BRANCH  27  29
HETATM   29  C23 UNL     1      -6.718  47.703 -27.107  1.00  0.00     0.120 C 
BRANCH  29  30
HETATM   30  C24 UNL     1      -6.226  47.687 -28.549  1.00  0.00     0.112 C 
BRANCH  30  31
HETATM   31  C25 UNL     1      -7.370  47.595 -29.538  1.00  0.00     0.218 C 
HETATM   32  O6  UNL     1      -8.138  46.641 -29.582  1.00  0.00    -0.274 OA
HETATM   33  N1  UNL     1      -7.417  48.662 -30.407  1.00  0.00    -0.361 N 
HETATM   34  H34 UNL     1      -6.687  49.365 -30.362  1.00  0.00     0.162 HD
BRANCH  33  35
HETATM   35  C26 UNL     1      -8.387  48.755 -31.486  1.00  0.00     0.127 C 
BRANCH  35  36
HETATM   36  C27 UNL     1      -8.226  47.640 -32.524  1.00  0.00     0.060 C 
BRANCH  36  37
HETATM   37  C28 UNL     1      -9.506  46.937 -32.853  1.00  0.00    -0.029 A 
HETATM   38  C29 UNL     1     -10.573  46.757 -31.992  1.00  0.00     0.096 A 
HETATM   39  N2  UNL     1     -11.547  46.057 -32.650  1.00  0.00    -0.365 N 
HETATM   40  C30 UNL     1     -11.139  45.762 -33.929  1.00  0.00     0.042 A 
HETATM   41  H40 UNL     1     -12.444  45.799 -32.262  1.00  0.00     0.165 HD
HETATM   42  C31 UNL     1     -11.801  45.063 -34.944  1.00  0.00     0.030 A 
HETATM   43  C35 UNL     1      -9.867  46.314 -34.091  1.00  0.00    -0.002 A 
HETATM   44  C32 UNL     1     -11.152  44.942 -36.176  1.00  0.00     0.002 A 
HETATM   45  C33 UNL     1      -9.886  45.487 -36.374  1.00  0.00     0.001 A 
HETATM   46  C34 UNL     1      -9.229  46.166 -35.341  1.00  0.00     0.014 A 
ENDBRANCH  36  37
ENDBRANCH  35  36
ENDBRANCH  33  35
ENDBRANCH  30  31
ENDBRANCH  29  30
ENDBRANCH  27  29
ENDBRANCH  26  27
ENDBRANCH  25  26
ENDBRANCH   1  25
TORSDOF 11
ENDMDL
