MODEL 1
REMARK minimizedAffinity -8.15105247
REMARK CNNscore 0.715792656
REMARK CNNaffinity 6.26064682
REMARK  13 active torsions:
REMARK  status: ('A' for Active; 'I' for Inactive)
REMARK    1  A    between atoms: C14_15  and  O2_16 
REMARK    2  A    between atoms: C14_15  and  C15_17 
REMARK    3  A    between atoms: C15_17  and  C16_19 
REMARK    4  A    between atoms: C16_19  and  O4_20 
REMARK    5  A    between atoms: O4_20  and  C17_21 
REMARK    6  A    between atoms: C17_21  and  C18_23 
REMARK    7  A    between atoms: C18_23  and  C19_24 
REMARK    8  A    between atoms: C19_24  and  C20_25 
REMARK       I    between atoms: C20_25  and  N1_27 
REMARK    9  A    between atoms: N1_27  and  C21_28 
REMARK   10  A    between atoms: C21_28  and  C22_29 
REMARK   11  A    between atoms: C22_29  and  C23_30 
REMARK   12  A    between atoms: C26_33  and  O7_34 
REMARK   13  A    between atoms: C27_35  and  O8_36 
ROOT
HETATM    1  C15 UNL     1       0.730  52.353 -11.698  1.00  0.00     0.185 C 
HETATM    2  O3  UNL     1      -0.057  53.124 -12.258  1.00  0.00    -0.292 OA
ENDROOT
BRANCH   1   3
HETATM    3  C14 UNL     1       0.799  52.241 -10.148  1.00  0.00     0.128 C 
HETATM    4  C13 UNL     1       2.073  51.464  -9.755  1.00  0.00     0.047 C 
HETATM    5  C12 UNL     1       3.101  52.506  -9.306  1.00  0.00     0.009 C 
HETATM    6  C11 UNL     1       2.474  53.885  -9.580  1.00  0.00     0.002 C 
HETATM    7  C10 UNL     1       3.089  54.988  -8.698  1.00  0.00     0.003 C 
HETATM    8  C29 UNL     1       0.962  53.625  -9.433  1.00  0.00     0.005 C 
HETATM    9  C9  UNL     1       3.135  56.347  -9.428  1.00  0.00     0.010 C 
HETATM   10  C33 UNL     1       2.522  55.102  -7.246  1.00  0.00     0.072 C 
HETATM   11  C8  UNL     1       3.990  57.381  -8.678  1.00  0.00     0.035 C 
HETATM   12  C7  UNL     1       4.128  57.023  -7.217  1.00  0.00    -0.067 C 
HETATM   13  C2  UNL     1       2.852  56.489  -6.561  1.00  0.00    -0.009 C 
HETATM   14  C6  UNL     1       5.325  57.073  -6.610  1.00  0.00     0.053 C 
HETATM   15  C1  UNL     1       1.739  57.561  -6.736  1.00  0.00     0.021 C 
HETATM   16  C3  UNL     1       3.054  56.332  -5.026  1.00  0.00     0.022 C 
HETATM   17  C4  UNL     1       4.397  55.735  -4.634  1.00  0.00     0.084 C 
HETATM   18  C5  UNL     1       5.528  56.519  -5.252  1.00  0.00     0.149 C 
HETATM   19  O1  UNL     1       6.625  56.627  -4.713  1.00  0.00    -0.293 OA
HETATM   20  C32 UNL     1       1.054  54.684  -7.126  1.00  0.00     0.133 C 
HETATM   21  C31 UNL     1       0.581  53.508  -7.945  1.00  0.00     0.091 C 
HETATM   22  O9  UNL     1       0.296  55.162  -6.280  1.00  0.00    -0.297 OA
HETATM   23  C30 UNL     1       0.103  54.725 -10.077  1.00  0.00     0.019 C 
BRANCH   3  24
HETATM   24  O2  UNL     1      -0.341  51.557  -9.640  1.00  0.00    -0.381 OA
HETATM   25  H19 UNL     1      -0.232  50.603  -9.820  1.00  0.00     0.211 HD
ENDBRANCH   3  24
ENDBRANCH   1   3
BRANCH   1  26
HETATM   26  C16 UNL     1       1.651  51.437 -12.511  1.00  0.00     0.260 C 
BRANCH  26  27
HETATM   27  O4  UNL     1       1.158  51.200 -13.831  1.00  0.00    -0.314 OA
BRANCH  27  28
HETATM   28  C17 UNL     1       2.054  51.527 -14.808  1.00  0.00     0.259 C 
HETATM   29  O5  UNL     1       3.185  51.946 -14.600  1.00  0.00    -0.265 OA
BRANCH  28  30
HETATM   30  C18 UNL     1       1.430  51.308 -16.163  1.00  0.00     0.120 C 
BRANCH  30  31
HETATM   31  C19 UNL     1       1.295  52.621 -16.922  1.00  0.00     0.112 C 
BRANCH  31  32
HETATM   32  C20 UNL     1       0.860  52.403 -18.358  1.00  0.00     0.218 C 
HETATM   33  O6  UNL     1       0.156  51.466 -18.715  1.00  0.00    -0.274 OA
HETATM   34  N1  UNL     1       1.294  53.399 -19.206  1.00  0.00    -0.361 N 
HETATM   35  H26 UNL     1       1.961  54.079 -18.865  1.00  0.00     0.162 HD
BRANCH  34  36
HETATM   36  C21 UNL     1       1.036  53.349 -20.634  1.00  0.00     0.127 C 
BRANCH  36  37
HETATM   37  C22 UNL     1      -0.241  52.573 -20.959  1.00  0.00     0.058 C 
BRANCH  37  38
HETATM   38  C23 UNL     1      -0.285  52.151 -22.406  1.00  0.00    -0.054 A 
HETATM   39  C24 UNL     1      -1.221  51.195 -22.839  1.00  0.00     0.010 A 
HETATM   40  C25 UNL     1      -1.283  50.812 -24.183  1.00  0.00     0.040 A 
HETATM   41  C26 UNL     1      -0.409  51.393 -25.094  1.00  0.00     0.098 A 
HETATM   42  C27 UNL     1       0.517  52.345 -24.672  1.00  0.00     0.099 A 
HETATM   43  C28 UNL     1       0.586  52.731 -23.340  1.00  0.00     0.046 A 
BRANCH  41  44
HETATM   44  O7  UNL     1      -0.419  51.060 -26.420  1.00  0.00    -0.358 OA
HETATM   45  H33 UNL     1      -1.104  50.382 -26.553  1.00  0.00     0.217 HD
ENDBRANCH  41  44
BRANCH  42  46
HETATM   46  O8  UNL     1       1.368  52.916 -25.575  1.00  0.00    -0.358 OA
HETATM   47  H34 UNL     1       1.136  52.494 -26.426  1.00  0.00     0.217 HD
ENDBRANCH  42  46
ENDBRANCH  37  38
ENDBRANCH  36  37
ENDBRANCH  34  36
ENDBRANCH  31  32
ENDBRANCH  30  31
ENDBRANCH  28  30
ENDBRANCH  27  28
ENDBRANCH  26  27
ENDBRANCH   1  26
TORSDOF 13
ENDMDL
