MODEL 1
REMARK minimizedAffinity -7.44077921
REMARK CNNscore 0.809770584
REMARK CNNaffinity 7.37516832
REMARK  6 active torsions:
REMARK  status: ('A' for Active; 'I' for Inactive)
REMARK    1  A    between atoms: C2_2  and  C30_31 
REMARK    2  A    between atoms: C3_3  and  C4_4 
REMARK    3  A    between atoms: C4_4  and  C5_5 
REMARK    4  A    between atoms: C5_5  and  C6_6 
REMARK    5  A    between atoms: C6_6  and  C8_8 
REMARK    6  A    between atoms: C30_31  and  O3_33 
ROOT
HETATM    1  C8  UNL     1      -1.916  52.128 -11.364  1.00  0.00    -0.002 C 
HETATM    2  C9  UNL     1      -1.263  50.740 -11.605  1.00  0.00     0.007 C 
HETATM    3  C10 UNL     1       0.257  50.910 -11.366  1.00  0.00     0.015 C 
HETATM    4  C11 UNL     1       0.480  52.434 -11.244  1.00  0.00    -0.013 C 
HETATM    5  C12 UNL     1       0.632  52.973 -12.701  1.00  0.00     0.021 C 
HETATM    6  C13 UNL     1       1.703  52.938 -10.486  1.00  0.00    -0.070 C 
HETATM    7  C14 UNL     1       2.871  52.270 -10.476  1.00  0.00    -0.022 C 
HETATM    8  C15 UNL     1       4.129  52.763  -9.823  1.00  0.00     0.034 C 
HETATM    9  C16 UNL     1       3.936  54.028  -8.955  1.00  0.00     0.013 C 
HETATM   10  C17 UNL     1       5.271  54.599  -8.362  1.00  0.00     0.018 C 
HETATM   11  C18 UNL     1       5.847  53.580  -7.343  1.00  0.00     0.023 C 
HETATM   12  C19 UNL     1       6.386  54.891  -9.379  1.00  0.00     0.023 C 
HETATM   13  C20 UNL     1       4.970  55.906  -7.612  1.00  0.00     0.135 C 
HETATM   14  O1  UNL     1       5.465  56.172  -6.516  1.00  0.00    -0.297 OA
HETATM   15  C21 UNL     1       4.099  56.920  -8.315  1.00  0.00     0.080 C 
HETATM   16  C22 UNL     1       2.781  56.282  -8.721  1.00  0.00     0.017 C 
HETATM   17  C23 UNL     1       2.950  55.047  -9.644  1.00  0.00    -0.031 C 
HETATM   18  C24 UNL     1       3.423  55.515 -11.041  1.00  0.00     0.016 C 
HETATM   19  C25 UNL     1       1.561  54.288  -9.770  1.00  0.00     0.024 C 
HETATM   20  C26 UNL     1       0.385  55.146 -10.299  1.00  0.00     0.010 C 
HETATM   21  C27 UNL     1      -0.956  54.401 -10.509  1.00  0.00     0.011 C 
HETATM   22  C28 UNL     1      -0.834  52.865 -10.509  1.00  0.00    -0.029 C 
HETATM   23  C29 UNL     1      -0.921  52.357  -9.036  1.00  0.00     0.016 C 
ENDROOT
BRANCH   1  24
HETATM   24  C6  UNL     1      -3.385  52.169 -10.846  1.00  0.00    -0.014 C 
HETATM   25  C7  UNL     1      -3.937  53.550 -10.479  1.00  0.00     0.010 C 
BRANCH  24  26
HETATM   26  C5  UNL     1      -3.601  51.176  -9.672  1.00  0.00     0.008 C 
BRANCH  26  27
HETATM   27  C4  UNL     1      -4.255  49.846 -10.053  1.00  0.00     0.028 C 
BRANCH  27  28
HETATM   28  C3  UNL     1      -5.710  50.026 -10.396  1.00  0.00    -0.013 C 
HETATM   29  C2  UNL     1      -6.754  49.287  -9.964  1.00  0.00     0.008 C 
HETATM   30  C1  UNL     1      -8.172  49.617 -10.330  1.00  0.00     0.055 C 
BRANCH  29  31
HETATM   31  C30 UNL     1      -6.561  48.077  -9.133  1.00  0.00     0.171 C 
HETATM   32  O2  UNL     1      -6.256  46.962  -9.514  1.00  0.00    -0.646 OA
BRANCH  31  33
HETATM   33  O3  UNL     1      -6.782  48.338  -7.833  1.00  0.00    -0.773 OA
HETATM   34  H46 UNL     1      -6.603  47.480  -7.395  1.00  0.00     0.167 HD
ENDBRANCH  31  33
ENDBRANCH  29  31
ENDBRANCH  27  28
ENDBRANCH  26  27
ENDBRANCH  24  26
ENDBRANCH   1  24
TORSDOF 6
ENDMDL
