MODEL 1
REMARK minimizedAffinity -7.51487446
REMARK CNNscore 0.796990633
REMARK CNNaffinity 7.03305292
REMARK  4 active torsions:
REMARK  status: ('A' for Active; 'I' for Inactive)
REMARK    1  A    between atoms: C2_2  and  C3_3 
REMARK    2  A    between atoms: C2_2  and  C9_9 
REMARK    3  A    between atoms: C4_4  and  C5_5 
REMARK    4  A    between atoms: C23_23  and  O1_24 
ROOT
HETATM    1  C9  UNL     1       4.106  55.112  -8.130  1.00  0.00     0.001 C 
HETATM    2  C10 UNL     1       3.384  56.159  -7.227  1.00  0.00     0.006 C 
HETATM    3  C11 UNL     1       1.874  55.973  -7.434  1.00  0.00     0.009 C 
HETATM    4  C12 UNL     1       1.777  54.718  -8.292  1.00  0.00     0.036 C 
HETATM    5  C13 UNL     1       3.026  54.774  -9.209  1.00  0.00    -0.033 C 
HETATM    6  C14 UNL     1       2.979  55.872 -10.295  1.00  0.00     0.016 C 
HETATM    7  C15 UNL     1       3.153  53.385  -9.866  1.00  0.00     0.010 C 
HETATM    8  C16 UNL     1       1.880  52.985 -10.635  1.00  0.00     0.010 C 
HETATM    9  C17 UNL     1       0.604  53.043  -9.772  1.00  0.00     0.039 C 
HETATM   10  C18 UNL     1       0.446  54.382  -8.976  1.00  0.00     0.123 C 
HETATM   11  C19 UNL     1      -0.211  55.472  -9.784  1.00  0.00     0.014 C 
HETATM   12  C20 UNL     1      -1.421  55.135 -10.249  1.00  0.00     0.014 C 
HETATM   13  C21 UNL     1      -1.820  53.705  -9.939  1.00  0.00     0.124 C 
HETATM   14  C22 UNL     1      -3.255  53.404 -10.389  1.00  0.00     0.078 C 
HETATM   15  C23 UNL     1      -3.612  51.913 -10.353  1.00  0.00     0.121 C 
HETATM   16  C24 UNL     1      -2.566  51.031  -9.682  1.00  0.00     0.033 C 
HETATM   17  C25 UNL     1      -1.163  51.222 -10.265  1.00  0.00     0.015 C 
HETATM   18  C26 UNL     1      -0.757  52.711 -10.523  1.00  0.00     0.001 C 
HETATM   19  C27 UNL     1      -0.641  52.889 -12.063  1.00  0.00     0.019 C 
HETATM   20  O2  UNL     1      -1.785  53.563  -8.490  1.00  0.00    -0.223 OA
HETATM   21  O3  UNL     1      -0.515  54.106  -7.919  1.00  0.00    -0.224 OA
ENDROOT
BRANCH   1  22
HETATM   22  C2  UNL     1       5.514  55.593  -8.579  1.00  0.00     0.008 C 
HETATM   23  C1  UNL     1       6.253  54.568  -9.448  1.00  0.00     0.014 C 
BRANCH  22  24
HETATM   24  C3  UNL     1       6.337  56.016  -7.372  1.00  0.00    -0.026 C 
HETATM   25  C4  UNL     1       7.237  55.276  -6.705  1.00  0.00    -0.025 C 
BRANCH  25  26
HETATM   26  C5  UNL     1       8.020  55.726  -5.549  1.00  0.00     0.012 A 
HETATM   27  C6  UNL     1       8.243  57.208  -5.372  1.00  0.00     0.013 A 
HETATM   28  C7  UNL     1       9.391  56.321  -5.768  1.00  0.00    -0.010 A 
HETATM   29  C8  UNL     1      10.490  56.039  -4.801  1.00  0.00     0.010 C 
ENDBRANCH  25  26
ENDBRANCH  22  24
ENDBRANCH   1  22
BRANCH  15  30
HETATM   30  O1  UNL     1      -3.800  51.466 -11.698  1.00  0.00    -0.395 OA
HETATM   31  H33 UNL     1      -4.113  50.545 -11.659  1.00  0.00     0.210 HD
ENDBRANCH  15  30
TORSDOF 4
ENDMDL
