MODEL 1
REMARK minimizedAffinity -7.31585789
REMARK CNNscore 0.203377217
REMARK CNNaffinity 6.6660409
REMARK  10 active torsions:
REMARK  status: ('A' for Active; 'I' for Inactive)
REMARK    1  A    between atoms: C2_2  and  O1_3 
REMARK    2  A    between atoms: O1_3  and  C3_4 
REMARK    3  A    between atoms: C3_4  and  C4_6 
REMARK    4  A    between atoms: C5_7  and  C6_8 
REMARK    5  A    between atoms: C12_16  and  C13_17 
REMARK    6  A    between atoms: C23_28  and  O5_29 
REMARK    7  A    between atoms: C27_34  and  C28_35 
REMARK    8  A    between atoms: C28_35  and  O7_36 
REMARK    9  A    between atoms: C38_47  and  C39_48 
REMARK   10  A    between atoms: C39_48  and  O8_49 
ROOT
HETATM    1  C4  UNL     1     -14.031   9.637  13.948  1.00  0.00     0.165 C 
HETATM    2  C5  UNL     1     -13.799  10.884  14.413  1.00  0.00     0.053 C 
HETATM    3  C7  UNL     1     -12.788  10.987  15.473  1.00  0.00    -0.002 C 
HETATM    4  C8  UNL     1     -13.009  11.586  16.678  1.00  0.00    -0.066 C 
HETATM    5  C9  UNL     1     -14.248  12.422  16.988  1.00  0.00     0.042 C 
HETATM    6  C10 UNL     1     -14.287  12.991  18.406  1.00  0.00     0.083 C 
HETATM    7  C11 UNL     1     -12.955  13.649  18.696  1.00  0.00     0.136 C 
HETATM    8  O4  UNL     1     -12.895  14.823  19.059  1.00  0.00    -0.297 OA
HETATM    9  C12 UNL     1     -11.712  12.783  18.501  1.00  0.00     0.092 C 
HETATM   10  C21 UNL     1     -12.112  11.422  17.905  1.00  0.00     0.052 C 
HETATM   11  C22 UNL     1     -11.614  10.105  15.219  1.00  0.00     0.044 A 
HETATM   12  C23 UNL     1     -10.267  10.456  15.365  1.00  0.00     0.091 A 
HETATM   13  C25 UNL     1      -9.301   9.491  15.133  1.00  0.00     0.013 A 
HETATM   14  C26 UNL     1      -9.652   8.219  14.700  1.00  0.00     0.089 A 
HETATM   15  O6  UNL     1      -8.571   7.393  14.516  1.00  0.00    -0.341 OA
HETATM   16  C27 UNL     1      -7.417   8.273  14.609  1.00  0.00     0.168 C 
HETATM   17  C37 UNL     1      -7.834   9.565  15.334  1.00  0.00     0.080 C 
HETATM   18  C38 UNL     1     -10.967   7.841  14.471  1.00  0.00     0.034 A 
HETATM   19  C40 UNL     1     -11.941   8.824  14.701  1.00  0.00     0.101 A 
HETATM   20  O9  UNL     1     -13.255   8.539  14.350  1.00  0.00    -0.302 OA
ENDROOT
BRANCH   2  21
HETATM   21  C6  UNL     1     -14.378  12.068  13.729  1.00  0.00     0.273 C 
HETATM   22  O3  UNL     1     -15.432  12.593  14.072  1.00  0.00    -0.301 OA
ENDBRANCH   2  21
BRANCH   1  23
HETATM   23  C3  UNL     1     -15.143   9.361  13.008  1.00  0.00     0.318 C 
HETATM   24  O2  UNL     1     -15.393  10.048  12.029  1.00  0.00    -0.257 OA
BRANCH  23  25
HETATM   25  O1  UNL     1     -15.828   8.276  13.445  1.00  0.00    -0.316 OA
BRANCH  25  26
HETATM   26  C2  UNL     1     -16.622   7.609  12.455  1.00  0.00     0.175 C 
HETATM   27  C1  UNL     1     -17.089   6.268  12.989  1.00  0.00     0.034 C 
ENDBRANCH  25  26
ENDBRANCH  23  25
ENDBRANCH   1  23
BRANCH  12  28
HETATM   28  O5  UNL     1      -9.875  11.698  15.779  1.00  0.00    -0.354 OA
HETATM   29  C24 UNL     1      -9.866  12.609  14.680  1.00  0.00     0.210 C 
ENDBRANCH  12  28
BRANCH   9  30
HETATM   30  C13 UNL     1     -10.911  12.593  19.778  1.00  0.00    -0.046 A 
HETATM   31  C14 UNL     1     -11.446  11.823  20.821  1.00  0.00     0.010 A 
HETATM   32  C15 UNL     1     -10.762  11.637  22.028  1.00  0.00     0.031 A 
HETATM   33  C16 UNL     1      -9.517  12.259  22.166  1.00  0.00     0.042 A 
HETATM   34  N1  UNL     1      -8.630  12.251  23.218  1.00  0.00    -0.365 N 
HETATM   35  C19 UNL     1      -8.953  13.042  21.163  1.00  0.00    -0.008 A 
HETATM   36  C17 UNL     1      -7.528  13.006  22.917  1.00  0.00     0.089 A 
HETATM   37  H14 UNL     1      -8.774  11.749  24.084  1.00  0.00     0.165 HD
HETATM   38  C18 UNL     1      -7.698  13.508  21.647  1.00  0.00     0.030 A 
HETATM   39  C20 UNL     1      -9.660  13.214  19.956  1.00  0.00     0.021 A 
ENDBRANCH   9  30
BRANCH  18  40
HETATM   40  C39 UNL     1     -11.311   6.479  13.947  1.00  0.00     0.208 C 
BRANCH  40  41
HETATM   41  O8  UNL     1     -10.143   5.757  13.567  1.00  0.00    -0.396 OA
HETATM   42  H44 UNL     1      -9.374   6.203  13.958  1.00  0.00     0.209 HD
ENDBRANCH  40  41
ENDBRANCH  18  40
BRANCH  16  43
HETATM   43  C28 UNL     1      -6.215   7.538  15.268  1.00  0.00     0.089 C 
HETATM   44  C29 UNL     1      -6.070   6.091  14.712  1.00  0.00     0.041 C 
HETATM   45  C30 UNL     1      -4.626   5.652  14.451  1.00  0.00     0.004 C 
HETATM   46  C31 UNL     1      -3.672   6.097  15.549  1.00  0.00     0.007 C 
HETATM   47  C32 UNL     1      -3.699   7.616  15.770  1.00  0.00     0.021 C 
HETATM   48  C33 UNL     1      -2.388   8.290  15.313  1.00  0.00     0.274 C 
HETATM   49  C36 UNL     1      -4.888   8.320  15.082  1.00  0.00     0.030 C 
HETATM   50  N2  UNL     1      -2.469   9.751  15.201  1.00  0.00     0.083 N 
HETATM   51  C34 UNL     1      -3.553  10.308  16.009  1.00  0.00     0.270 C 
HETATM   52  H34 UNL     1      -2.629  10.002  14.224  1.00  0.00     0.315 HD
HETATM   53  C35 UNL     1      -4.928   9.786  15.568  1.00  0.00     0.038 C 
BRANCH  43  54
HETATM   54  O7  UNL     1      -6.502   7.458  16.676  1.00  0.00    -0.387 OA
HETATM   55  H24 UNL     1      -5.914   6.791  17.074  1.00  0.00     0.210 HD
ENDBRANCH  43  54
ENDBRANCH  16  43
TORSDOF 10
ENDMDL
