MODEL 1
REMARK minimizedAffinity -9.60905457
REMARK CNNscore 0.6679672
REMARK CNNaffinity 7.29879236
REMARK  12 active torsions:
REMARK  status: ('A' for Active; 'I' for Inactive)
REMARK    1  A    between atoms: C3_3  and  O1_4 
REMARK    2  A    between atoms: N1_14  and  O2_16 
REMARK    3  A    between atoms: O2_16  and  C13_17 
REMARK    4  A    between atoms: C13_17  and  C14_18 
REMARK       I    between atoms: C14_18  and  N2_20 
REMARK    5  A    between atoms: N2_20  and  C15_21 
REMARK    6  A    between atoms: C15_21  and  C16_22 
REMARK    7  A    between atoms: C15_21  and  C26_36 
REMARK       I    between atoms: C16_22  and  N3_24 
REMARK    8  A    between atoms: N3_24  and  C17_25 
REMARK    9  A    between atoms: C17_25  and  C18_26 
REMARK   10  A    between atoms: C17_25  and  C25_33 
REMARK   11  A    between atoms: C18_26  and  C19_27 
REMARK   12  A    between atoms: C25_33  and  O6_35 
ROOT
HETATM    1  C1  UNL     1       0.233  51.897 -27.925  1.00  0.00     0.015 C 
HETATM    2  C2  UNL     1      -0.349  52.247 -26.934  1.00  0.00    -0.078 C 
HETATM    3  C3  UNL     1      -1.067  52.695 -25.718  1.00  0.00     0.128 C 
HETATM    4  C4  UNL     1      -2.567  52.572 -25.945  1.00  0.00     0.052 C 
HETATM    5  C5  UNL     1      -2.950  51.171 -25.469  1.00  0.00     0.010 C 
HETATM    6  C6  UNL     1      -1.737  50.593 -24.688  1.00  0.00     0.002 C 
HETATM    7  C7  UNL     1      -2.079  49.722 -23.430  1.00  0.00    -0.004 C 
HETATM    8  C8  UNL     1      -3.575  49.679 -23.041  1.00  0.00     0.010 C 
HETATM    9  C9  UNL     1      -3.871  48.791 -21.831  1.00  0.00     0.035 C 
HETATM   10  C10 UNL     1      -3.001  49.202 -20.672  1.00  0.00    -0.069 C 
HETATM   11  C11 UNL     1      -3.559  49.648 -19.536  1.00  0.00     0.030 C 
HETATM   12  C12 UNL     1      -2.756  50.263 -18.451  1.00  0.00     0.032 C 
HETATM   13  N1  UNL     1      -3.379  50.583 -17.351  1.00  0.00    -0.271 N 
ATOM     14  H1  UNL     1      -4.374  50.422 -17.190  1.00  0.00     0.194 HD
HETATM   15  C29 UNL     1      -1.305  50.579 -18.743  1.00  0.00     0.060 C 
HETATM   16  C30 UNL     1      -0.675  49.553 -19.674  1.00  0.00     0.020 C 
HETATM   17  C31 UNL     1      -1.503  49.164 -20.939  1.00  0.00    -0.016 C 
HETATM   18  C32 UNL     1      -1.064  47.703 -21.254  1.00  0.00     0.020 C 
HETATM   19  C33 UNL     1      -1.193  50.065 -22.198  1.00  0.00     0.002 C 
HETATM   20  C34 UNL     1      -1.227  51.582 -21.912  1.00  0.00     0.007 C 
HETATM   21  C35 UNL     1      -1.215  52.507 -23.143  1.00  0.00     0.014 C 
HETATM   22  C36 UNL     1      -0.795  51.810 -24.456  1.00  0.00     0.003 C 
HETATM   23  C37 UNL     1       0.711  51.460 -24.375  1.00  0.00     0.020 C 
ENDROOT
BRANCH   3  24
HETATM   24  O1  UNL     1      -0.724  54.052 -25.475  1.00  0.00    -0.377 OA
HETATM   25  H2  UNL     1      -0.890  54.538 -26.302  1.00  0.00     0.211 HD
ENDBRANCH   3  24
BRANCH  13  26
HETATM   26  O2  UNL     1      -2.518  51.177 -16.416  1.00  0.00    -0.271 OA
BRANCH  26  27
HETATM   27  C13 UNL     1      -2.833  50.681 -15.120  1.00  0.00     0.303 C 
BRANCH  27  28
HETATM   28  C14 UNL     1      -3.074  51.824 -14.145  1.00  0.00     0.244 C 
HETATM   29  O3  UNL     1      -3.994  52.628 -14.285  1.00  0.00    -0.271 OA
HETATM   30  N2  UNL     1      -2.225  51.847 -13.066  1.00  0.00    -0.346 N 
HETATM   31  H16 UNL     1      -1.435  51.204 -13.045  1.00  0.00     0.163 HD
BRANCH  30  32
HETATM   32  C15 UNL     1      -2.324  52.835 -11.995  1.00  0.00     0.180 C 
BRANCH  32  33
HETATM   33  C16 UNL     1      -0.917  52.952 -11.365  1.00  0.00     0.241 C 
HETATM   34  O4  UNL     1      -0.055  52.086 -11.516  1.00  0.00    -0.271 OA
HETATM   35  N3  UNL     1      -0.695  54.099 -10.638  1.00  0.00    -0.345 N 
HETATM   36  H18 UNL     1      -1.504  54.599 -10.289  1.00  0.00     0.163 HD
BRANCH  35  37
HETATM   37  C17 UNL     1       0.545  54.291  -9.876  1.00  0.00     0.186 C 
BRANCH  37  38
HETATM   38  C18 UNL     1       1.545  55.190 -10.629  1.00  0.00     0.074 C 
BRANCH  38  39
HETATM   39  C19 UNL     1       2.927  55.246 -10.008  1.00  0.00    -0.056 A 
HETATM   40  C20 UNL     1       3.890  54.284 -10.343  1.00  0.00     0.007 A 
HETATM   41  C21 UNL     1       5.180  54.364  -9.818  1.00  0.00     0.001 A 
HETATM   42  C22 UNL     1       5.520  55.400  -8.954  1.00  0.00     0.000 A 
HETATM   43  C23 UNL     1       4.567  56.353  -8.604  1.00  0.00     0.001 A 
HETATM   44  C24 UNL     1       3.275  56.275  -9.125  1.00  0.00     0.007 A 
ENDBRANCH  38  39
ENDBRANCH  37  38
BRANCH  37  45
HETATM   45  C25 UNL     1       0.306  54.846  -8.467  1.00  0.00     0.163 C 
HETATM   46  O5  UNL     1      -0.327  55.855  -8.197  1.00  0.00    -0.648 OA
BRANCH  45  47
HETATM   47  O6  UNL     1       0.816  54.093  -7.471  1.00  0.00    -0.775 OA
HETATM   48  H27 UNL     1       0.571  54.579  -6.656  1.00  0.00     0.167 HD
ENDBRANCH  45  47
ENDBRANCH  37  45
ENDBRANCH  35  37
ENDBRANCH  32  33
BRANCH  32  49
HETATM   49  C26 UNL     1      -3.451  52.456 -11.007  1.00  0.00     0.009 C 
HETATM   50  C27 UNL     1      -2.966  51.571  -9.855  1.00  0.00     0.012 C 
HETATM   51  C28 UNL     1      -4.196  53.672 -10.459  1.00  0.00     0.012 C 
ENDBRANCH  32  49
ENDBRANCH  30  32
ENDBRANCH  27  28
ENDBRANCH  26  27
ENDBRANCH  13  26
TORSDOF 12
ENDMDL
