MODEL 1
REMARK minimizedAffinity -7.32020998
REMARK CNNscore 0.499436319
REMARK CNNaffinity 6.83738327
REMARK  5 active torsions:
REMARK  status: ('A' for Active; 'I' for Inactive)
REMARK    1  A    between atoms: O1_2  and  C2_3 
REMARK    2  A    between atoms: C12_15  and  C13_16 
REMARK    3  A    between atoms: C13_16  and  C15_18 
REMARK    4  A    between atoms: C15_18  and  C16_19 
REMARK    5  A    between atoms: C16_19  and  C17_21 
ROOT
HETATM    1  C2  UNL     1      -0.965  51.348  -8.932  1.00  0.00     0.270 C 
HETATM    2  O2  UNL     1      -1.470  50.811 -10.158  1.00  0.00    -0.347 OA
HETATM    3  C3  UNL     1      -1.749  51.894 -11.070  1.00  0.00     0.089 C 
HETATM    4  C4  UNL     1      -0.565  51.938 -12.051  1.00  0.00     0.118 C 
HETATM    5  C5  UNL     1       0.773  52.230 -11.403  1.00  0.00     0.135 C 
HETATM    6  O3  UNL     1       1.807  52.040 -12.052  1.00  0.00    -0.297 OA
HETATM    7  C6  UNL     1       0.839  52.834  -9.997  1.00  0.00     0.078 C 
HETATM    8  C7  UNL     1      -0.552  52.815  -9.238  1.00  0.00     0.027 C 
HETATM    9  C8  UNL     1      -0.516  53.610  -7.898  1.00  0.00     0.016 C 
HETATM   10  C9  UNL     1       0.296  54.915  -7.883  1.00  0.00     0.011 C 
HETATM   11  C10 UNL     1       1.694  54.707  -8.485  1.00  0.00    -0.032 C 
HETATM   12  C11 UNL     1       2.460  53.696  -7.574  1.00  0.00     0.016 C 
HETATM   13  C12 UNL     1       2.559  55.987  -8.673  1.00  0.00    -0.002 C 
HETATM   14  C21 UNL     1       3.595  55.544  -9.742  1.00  0.00     0.006 C 
HETATM   15  C22 UNL     1       3.004  54.294 -10.445  1.00  0.00     0.011 C 
HETATM   16  C23 UNL     1       1.532  54.233  -9.978  1.00  0.00    -0.025 C 
HETATM   17  C24 UNL     1       0.770  55.240 -10.901  1.00  0.00     0.016 C 
HETATM   18  C25 UNL     1      -1.689  53.184 -10.216  1.00  0.00     0.036 C 
HETATM   19  C26 UNL     1      -3.042  53.557  -9.605  1.00  0.00     0.016 C 
HETATM   20  C27 UNL     1      -4.085  53.805 -10.689  1.00  0.00     0.079 C 
HETATM   21  C28 UNL     1      -3.855  52.965 -11.929  1.00  0.00     0.137 C 
HETATM   22  O5  UNL     1      -4.266  53.360 -13.020  1.00  0.00    -0.297 OA
HETATM   23  C29 UNL     1      -3.140  51.623 -11.756  1.00  0.00     0.045 C 
HETATM   24  C30 UNL     1      -3.016  50.929 -13.130  1.00  0.00     0.026 C 
HETATM   25  C31 UNL     1      -4.067  50.711 -10.915  1.00  0.00     0.026 C 
ENDROOT
BRANCH  13  26
HETATM   26  C13 UNL     1       3.116  56.701  -7.408  1.00  0.00    -0.007 C 
HETATM   27  C14 UNL     1       2.053  57.681  -6.873  1.00  0.00     0.011 C 
BRANCH  26  28
HETATM   28  C15 UNL     1       4.435  57.475  -7.596  1.00  0.00     0.087 C 
BRANCH  28  29
HETATM   29  C16 UNL     1       5.537  56.947  -6.689  1.00  0.00     0.149 C 
HETATM   30  O4  UNL     1       6.321  57.692  -6.109  1.00  0.00    -0.293 OA
BRANCH  29  31
HETATM   31  C17 UNL     1       5.581  55.467  -6.498  1.00  0.00     0.052 C 
HETATM   32  C18 UNL     1       6.206  54.596  -7.312  1.00  0.00    -0.084 C 
HETATM   33  C19 UNL     1       6.212  53.125  -6.994  1.00  0.00     0.043 C 
HETATM   34  C20 UNL     1       6.930  54.958  -8.582  1.00  0.00     0.043 C 
ENDBRANCH  29  31
ENDBRANCH  28  29
ENDBRANCH  26  28
ENDBRANCH  13  26
BRANCH   1  35
HETATM   35  O1  UNL     1       0.126  50.592  -8.434  1.00  0.00    -0.365 OA
HETATM   36  C1  UNL     1      -0.209  49.877  -7.254  1.00  0.00     0.204 C 
ENDBRANCH   1  35
TORSDOF 5
ENDMDL
