MODEL 1
REMARK minimizedAffinity -8.51993942
REMARK CNNscore 0.613571227
REMARK CNNaffinity 6.80323458
REMARK  12 active torsions:
REMARK  status: ('A' for Active; 'I' for Inactive)
REMARK    1  A    between atoms: O1_2  and  C2_3 
REMARK    2  A    between atoms: C2_3  and  C3_4 
REMARK    3  A    between atoms: C3_4  and  C4_5 
REMARK    4  A    between atoms: C4_5  and  O2_6 
REMARK    5  A    between atoms: O2_6  and  C5_7 
REMARK    6  A    between atoms: C20_23  and  C21_24 
REMARK    7  A    between atoms: C21_24  and  O4_26 
REMARK    8  A    between atoms: C21_24  and  C23_27 
REMARK    9  A    between atoms: C23_27  and  O5_28 
REMARK   10  A    between atoms: C23_27  and  C24_29 
REMARK   11  A    between atoms: C32_38  and  O7_39 
REMARK   12  A    between atoms: C36_44  and  O8_45 
ROOT
HETATM    1  C5  UNL     1       4.245  11.603  22.537  1.00  0.00     0.122 C 
HETATM    2  C6  UNL     1       3.659  13.012  22.578  1.00  0.00     0.033 C 
HETATM    3  C7  UNL     1       2.469  13.181  21.635  1.00  0.00     0.013 C 
HETATM    4  C8  UNL     1       2.764  12.744  20.165  1.00  0.00    -0.026 C 
HETATM    5  C9  UNL     1       3.814  13.723  19.577  1.00  0.00     0.016 C 
HETATM    6  C10 UNL     1       3.327  11.299  20.173  1.00  0.00     0.071 C 
HETATM    7  C11 UNL     1       4.545  11.153  21.103  1.00  0.00     0.045 C 
HETATM    8  C12 UNL     1       2.261  10.278  20.570  1.00  0.00     0.154 C 
HETATM    9  O3  UNL     1       2.513   9.247  21.190  1.00  0.00    -0.293 OA
HETATM   10  C13 UNL     1       0.869  10.493  20.124  1.00  0.00     0.057 C 
HETATM   11  C14 UNL     1       0.497  11.632  19.524  1.00  0.00    -0.037 C 
HETATM   12  C15 UNL     1       1.429  12.833  19.334  1.00  0.00     0.026 C 
HETATM   13  C16 UNL     1       1.592  13.101  17.816  1.00  0.00     0.011 C 
HETATM   14  C17 UNL     1       0.238  13.246  17.087  1.00  0.00     0.014 C 
HETATM   15  C18 UNL     1      -0.685  12.033  17.333  1.00  0.00    -0.002 C 
HETATM   16  C19 UNL     1      -0.059  10.789  16.648  1.00  0.00     0.019 C 
HETATM   17  C20 UNL     1      -2.183  12.238  16.934  1.00  0.00     0.034 C 
HETATM   18  C34 UNL     1      -2.929  11.178  17.790  1.00  0.00     0.012 C 
HETATM   19  C35 UNL     1      -1.974  10.783  18.940  1.00  0.00     0.044 C 
HETATM   20  C36 UNL     1      -0.854  11.830  18.879  1.00  0.00     0.089 C 
ENDROOT
BRANCH  17  21
HETATM   21  C21 UNL     1      -2.646  12.370  15.447  1.00  0.00     0.087 C 
HETATM   22  C22 UNL     1      -1.502  12.544  14.435  1.00  0.00     0.049 C 
BRANCH  21  23
HETATM   23  O4  UNL     1      -3.440  13.566  15.375  1.00  0.00    -0.387 OA
HETATM   24  H34 UNL     1      -3.671  13.706  14.436  1.00  0.00     0.210 HD
ENDBRANCH  21  23
BRANCH  21  25
HETATM   25  C23 UNL     1      -3.553  11.116  15.094  1.00  0.00     0.181 C 
BRANCH  25  26
HETATM   26  O5  UNL     1      -4.865  11.250  15.659  1.00  0.00    -0.390 OA
HETATM   27  H36 UNL     1      -4.772  11.234  16.625  1.00  0.00     0.210 HD
ENDBRANCH  25  26
BRANCH  25  28
HETATM   28  C24 UNL     1      -2.918   9.741  15.439  1.00  0.00     0.158 C 
HETATM   29  O6  UNL     1      -3.910   8.823  15.947  1.00  0.00    -0.372 OA
HETATM   30  C25 UNL     1      -4.316   7.952  14.871  1.00  0.00     0.197 C 
HETATM   31  C26 UNL     1      -3.277   8.063  13.737  1.00  0.00     0.035 C 
HETATM   32  C32 UNL     1      -4.478   6.449  15.285  1.00  0.00     0.301 C 
HETATM   33  C27 UNL     1      -2.205   8.981  14.314  1.00  0.00     0.020 C 
HETATM   34  C29 UNL     1      -2.818   6.625  13.351  1.00  0.00     0.043 C 
HETATM   35  C28 UNL     1      -1.488   9.819  13.268  1.00  0.00     0.013 C 
HETATM   36  C30 UNL     1      -4.080   5.842  12.996  1.00  0.00    -0.019 C 
HETATM   37  C33 UNL     1      -2.237   5.888  14.598  1.00  0.00     0.283 C 
HETATM   38  C31 UNL     1      -4.923   5.712  14.039  1.00  0.00     0.042 C 
HETATM   39  N1  UNL     1      -3.193   5.910  15.736  1.00  0.00     0.126 N 
HETATM   40  H48 UNL     1      -3.367   4.953  16.037  1.00  0.00     0.320 HD
BRANCH  32  41
HETATM   41  O7  UNL     1      -5.417   6.294  16.312  1.00  0.00    -0.358 OA
HETATM   42  H47 UNL     1      -4.990   6.752  17.058  1.00  0.00     0.213 HD
ENDBRANCH  32  41
ENDBRANCH  25  28
ENDBRANCH  21  25
ENDBRANCH  17  21
BRANCH  20  43
HETATM   43  O8  UNL     1      -1.396  13.012  19.495  1.00  0.00    -0.384 OA
HETATM   44  H55 UNL     1      -1.536  12.806  20.434  1.00  0.00     0.211 HD
ENDBRANCH  20  43
BRANCH   1  45
HETATM   45  O2  UNL     1       5.478  11.624  23.267  1.00  0.00    -0.386 OA
BRANCH  45  46
HETATM   46  C4  UNL     1       6.593  12.087  22.504  1.00  0.00     0.170 C 
BRANCH  46  47
HETATM   47  C3  UNL     1       7.313  13.227  23.215  1.00  0.00     0.052 C 
BRANCH  47  48
HETATM   48  C2  UNL     1       8.500  13.740  22.410  1.00  0.00     0.169 C 
BRANCH  48  49
HETATM   49  O1  UNL     1       9.138  14.780  23.153  1.00  0.00    -0.396 OA
HETATM   50  C1  UNL     1       8.192  15.564  23.870  1.00  0.00     0.201 C 
ENDBRANCH  48  49
ENDBRANCH  47  48
ENDBRANCH  46  47
ENDBRANCH  45  46
ENDBRANCH   1  45
TORSDOF 12
ENDMDL
