MODEL 1
REMARK minimizedAffinity -8.13750744
REMARK CNNscore 0.536471546
REMARK CNNaffinity 6.70238161
REMARK  13 active torsions:
REMARK  status: ('A' for Active; 'I' for Inactive)
REMARK    1  A    between atoms: C12_13  and  O2_14 
REMARK    2  A    between atoms: C19_21  and  O3_22 
REMARK    3  A    between atoms: C19_21  and  C20_23 
REMARK    4  A    between atoms: C20_23  and  C21_25 
REMARK    5  A    between atoms: C21_25  and  O5_26 
REMARK    6  A    between atoms: O5_26  and  C22_27 
REMARK    7  A    between atoms: C22_27  and  C23_29 
REMARK    8  A    between atoms: C23_29  and  C24_30 
REMARK    9  A    between atoms: C24_30  and  C25_31 
REMARK       I    between atoms: C25_31  and  N1_33 
REMARK   10  A    between atoms: N1_33  and  C26_34 
REMARK   11  A    between atoms: C26_34  and  C27_35 
REMARK   12  A    between atoms: C30_38  and  C31_39 
REMARK   13  A    between atoms: C31_39  and  O9_41 
ROOT
HETATM    1  C1  UNL     1      -8.977  45.403 -24.943  1.00  0.00     0.020 C 
HETATM    2  C2  UNL     1      -8.439  46.801 -25.330  1.00  0.00    -0.014 C 
HETATM    3  C3  UNL     1      -9.390  47.901 -24.787  1.00  0.00     0.022 C 
HETATM    4  C4  UNL     1     -10.776  47.873 -25.430  1.00  0.00     0.084 C 
HETATM    5  C5  UNL     1     -10.713  47.818 -26.936  1.00  0.00     0.149 C 
HETATM    6  O1  UNL     1     -11.682  48.100 -27.638  1.00  0.00    -0.293 OA
HETATM    7  C6  UNL     1      -9.456  47.376 -27.582  1.00  0.00     0.053 C 
HETATM    8  C7  UNL     1      -8.420  46.913 -26.861  1.00  0.00    -0.068 C 
HETATM    9  C8  UNL     1      -7.117  46.560 -27.527  1.00  0.00     0.035 C 
HETATM   10  C9  UNL     1      -5.995  47.487 -27.043  1.00  0.00     0.010 C 
HETATM   11  C10 UNL     1      -6.188  48.000 -25.592  1.00  0.00    -0.002 C 
HETATM   12  C11 UNL     1      -6.965  46.937 -24.770  1.00  0.00     0.031 C 
HETATM   13  C12 UNL     1      -6.875  47.148 -23.242  1.00  0.00     0.124 C 
HETATM   14  C13 UNL     1      -6.373  48.541 -22.855  1.00  0.00     0.045 C 
HETATM   15  C14 UNL     1      -5.001  48.921 -23.475  1.00  0.00     0.001 C 
HETATM   16  C15 UNL     1      -3.857  48.317 -22.616  1.00  0.00     0.019 C 
HETATM   17  C16 UNL     1      -4.846  48.392 -24.938  1.00  0.00     0.002 C 
HETATM   18  C17 UNL     1      -4.117  49.510 -25.718  1.00  0.00     0.009 C 
HETATM   19  C18 UNL     1      -3.738  50.583 -24.703  1.00  0.00     0.047 C 
HETATM   20  C19 UNL     1      -4.818  50.466 -23.632  1.00  0.00     0.128 C 
ENDROOT
BRANCH  20  21
HETATM   21  O3  UNL     1      -6.009  51.050 -24.195  1.00  0.00    -0.381 OA
HETATM   22  H27 UNL     1      -6.557  51.344 -23.437  1.00  0.00     0.211 HD
ENDBRANCH  20  21
BRANCH  20  23
HETATM   23  C20 UNL     1      -4.552  51.219 -22.314  1.00  0.00     0.185 C 
HETATM   24  O4  UNL     1      -5.372  51.119 -21.391  1.00  0.00    -0.292 OA
BRANCH  23  25
HETATM   25  C21 UNL     1      -3.284  52.059 -22.184  1.00  0.00     0.260 C 
BRANCH  25  26
HETATM   26  O5  UNL     1      -2.296  51.427 -21.369  1.00  0.00    -0.314 OA
BRANCH  26  27
HETATM   27  C22 UNL     1      -1.199  50.997 -22.051  1.00  0.00     0.259 C 
HETATM   28  O6  UNL     1      -0.853  49.828 -22.158  1.00  0.00    -0.265 OA
BRANCH  27  29
HETATM   29  C23 UNL     1      -0.492  52.169 -22.688  1.00  0.00     0.120 C 
BRANCH  29  30
HETATM   30  C24 UNL     1       0.928  52.300 -22.148  1.00  0.00     0.112 C 
BRANCH  30  31
HETATM   31  C25 UNL     1       0.953  53.079 -20.847  1.00  0.00     0.218 C 
HETATM   32  O7  UNL     1       1.450  54.196 -20.747  1.00  0.00    -0.274 OA
HETATM   33  N1  UNL     1       0.400  52.391 -19.791  1.00  0.00    -0.357 N 
HETATM   34  H34 UNL     1      -0.159  51.573 -19.996  1.00  0.00     0.162 HD
BRANCH  33  35
HETATM   35  C26 UNL     1       0.175  53.030 -18.515  1.00  0.00     0.161 C 
BRANCH  35  36
HETATM   36  C27 UNL     1       0.790  52.220 -17.400  1.00  0.00    -0.040 A 
HETATM   37  C28 UNL     1       1.922  52.699 -16.724  1.00  0.00     0.010 A 
HETATM   38  C29 UNL     1       2.474  51.979 -15.663  1.00  0.00     0.019 A 
HETATM   39  C30 UNL     1       1.898  50.769 -15.259  1.00  0.00     0.037 A 
HETATM   40  C32 UNL     1       0.767  50.286 -15.929  1.00  0.00     0.019 A 
HETATM   41  C33 UNL     1       0.215  51.009 -16.991  1.00  0.00     0.010 A 
BRANCH  39  42
HETATM   42  C31 UNL     1       2.510  50.045 -14.119  1.00  0.00     0.176 C 
HETATM   43  O8  UNL     1       3.463  50.420 -13.462  1.00  0.00    -0.646 OA
BRANCH  42  44
HETATM   44  O9  UNL     1       1.891  48.882 -13.847  1.00  0.00    -0.773 OA
HETATM   45  H39 UNL     1       2.387  48.531 -13.079  1.00  0.00     0.167 HD
ENDBRANCH  42  44
ENDBRANCH  39  42
ENDBRANCH  35  36
ENDBRANCH  33  35
ENDBRANCH  30  31
ENDBRANCH  29  30
ENDBRANCH  27  29
ENDBRANCH  26  27
ENDBRANCH  25  26
ENDBRANCH  23  25
ENDBRANCH  20  23
BRANCH  13  46
HETATM   46  O2  UNL     1      -5.993  46.171 -22.686  1.00  0.00    -0.395 OA
HETATM   47  H16 UNL     1      -6.394  45.295 -22.825  1.00  0.00     0.210 HD
ENDBRANCH  13  46
TORSDOF 13
ENDMDL
