MODEL 1
REMARK minimizedAffinity -9.99547768
REMARK  8 active torsions:
REMARK  status: ('A' for Active; 'I' for Inactive)
REMARK    1  A    between atoms: C2_2  and  C30_33 
REMARK    2  A    between atoms: C3_3  and  C4_4 
REMARK    3  A    between atoms: C4_4  and  C5_5 
REMARK    4  A    between atoms: C5_5  and  C6_6 
REMARK    5  A    between atoms: C6_6  and  C8_8 
REMARK    6  A    between atoms: C15_15  and  O1_16 
REMARK    7  A    between atoms: C23_24  and  O2_25 
REMARK    8  A    between atoms: C30_33  and  O4_34 
ROOT
HETATM    1  C8  UNL     1      -1.537  49.793 -18.176  1.00  0.00    -0.002 C 
HETATM    2  C9  UNL     1      -2.533  48.640 -18.432  1.00  0.00     0.007 C 
HETATM    3  C10 UNL     1      -2.769  48.592 -19.960  1.00  0.00     0.015 C 
HETATM    4  C11 UNL     1      -1.634  49.441 -20.576  1.00  0.00    -0.005 C 
HETATM    5  C12 UNL     1      -0.376  48.523 -20.665  1.00  0.00     0.021 C 
HETATM    6  C13 UNL     1      -1.754  50.046 -21.969  1.00  0.00     0.002 C 
HETATM    7  C14 UNL     1      -1.129  51.215 -22.284  1.00  0.00    -0.032 C 
HETATM    8  C15 UNL     1      -0.319  51.985 -21.235  1.00  0.00     0.149 C 
HETATM    9  C16 UNL     1      -0.324  51.438 -19.788  1.00  0.00     0.047 C 
HETATM   10  C17 UNL     1      -1.571  50.601 -19.504  1.00  0.00    -0.026 C 
HETATM   11  C18 UNL     1      -2.816  51.535 -19.562  1.00  0.00     0.016 C 
HETATM   12  C19 UNL     1      -1.326  51.876 -23.681  1.00  0.00    -0.013 C 
HETATM   13  C20 UNL     1      -2.642  52.682 -23.534  1.00  0.00     0.021 C 
HETATM   14  C21 UNL     1      -0.192  52.826 -24.119  1.00  0.00     0.017 C 
HETATM   15  C22 UNL     1      -0.381  53.459 -25.499  1.00  0.00     0.033 C 
HETATM   16  C23 UNL     1      -1.128  52.602 -26.527  1.00  0.00     0.126 C 
HETATM   17  C24 UNL     1      -1.112  51.078 -26.247  1.00  0.00    -0.017 C 
HETATM   18  C25 UNL     1      -2.093  50.368 -27.210  1.00  0.00     0.018 C 
HETATM   19  C26 UNL     1       0.304  50.561 -26.635  1.00  0.00     0.018 C 
HETATM   20  C27 UNL     1      -1.366  50.707 -24.723  1.00  0.00     0.015 C 
HETATM   21  C28 UNL     1      -2.568  49.805 -24.436  1.00  0.00     0.090 C 
HETATM   22  C29 UNL     1      -2.565  49.316 -23.003  1.00  0.00     0.157 C 
HETATM   23  O3  UNL     1      -3.237  48.329 -22.701  1.00  0.00    -0.293 OA
ENDROOT
BRANCH   1  24
HETATM   24  C6  UNL     1      -1.570  50.495 -16.790  1.00  0.00    -0.014 C 
HETATM   25  C7  UNL     1      -0.220  50.293 -16.077  1.00  0.00     0.010 C 
BRANCH  24  26
HETATM   26  C5  UNL     1      -2.750  50.300 -15.806  1.00  0.00     0.008 C 
BRANCH  26  27
HETATM   27  C4  UNL     1      -2.557  50.425 -14.290  1.00  0.00     0.028 C 
BRANCH  27  28
HETATM   28  C3  UNL     1      -3.062  51.701 -13.679  1.00  0.00    -0.022 C 
HETATM   29  C2  UNL     1      -3.433  51.903 -12.398  1.00  0.00    -0.064 C 
HETATM   30  C1  UNL     1      -3.452  50.834 -11.338  1.00  0.00     0.045 C 
BRANCH  29  31
HETATM   31  C30 UNL     1      -3.900  53.259 -11.936  1.00  0.00     0.197 C 
BRANCH  31  32
HETATM   32  O4  UNL     1      -4.320  54.010 -13.064  1.00  0.00    -0.397 OA
HETATM   33  H48 UNL     1      -4.704  54.834 -12.722  1.00  0.00     0.209 HD
ENDBRANCH  31  32
ENDBRANCH  29  31
ENDBRANCH  27  28
ENDBRANCH  26  27
ENDBRANCH  24  26
ENDBRANCH   1  24
BRANCH   8  34
HETATM   34  O1  UNL     1       1.039  52.030 -21.660  1.00  0.00    -0.391 OA
HETATM   35  H22 UNL     1       1.515  52.610 -21.041  1.00  0.00     0.210 HD
ENDBRANCH   8  34
BRANCH  16  36
HETATM   36  O2  UNL     1      -2.465  53.091 -26.630  1.00  0.00    -0.395 OA
HETATM   37  H36 UNL     1      -2.811  52.838 -27.503  1.00  0.00     0.210 HD
ENDBRANCH  16  36
TORSDOF 8
ENDMDL
