MODEL 1
REMARK minimizedAffinity -9.37418365
REMARK  4 active torsions:
REMARK  status: ('A' for Active; 'I' for Inactive)
REMARK    1  A    between atoms: C4_4  and  C5_5 
REMARK    2  A    between atoms: C5_5  and  C6_6 
REMARK    3  A    between atoms: C6_6  and  C7_7 
REMARK    4  A    between atoms: C7_7  and  C9_9 
ROOT
HETATM    1  C9  UNL     1      -5.106   7.871  14.071  1.00  0.00    -0.002 C 
HETATM    2  C10 UNL     1      -4.678   9.159  14.838  1.00  0.00     0.006 C 
HETATM    3  C11 UNL     1      -3.141   9.172  14.917  1.00  0.00     0.011 C 
HETATM    4  C12 UNL     1      -2.683   8.113  13.900  1.00  0.00    -0.032 C 
HETATM    5  C13 UNL     1      -2.691   8.802  12.499  1.00  0.00     0.016 C 
HETATM    6  C14 UNL     1      -1.280   7.495  14.175  1.00  0.00     0.004 C 
HETATM    7  C15 UNL     1      -0.127   8.521  14.153  1.00  0.00     0.007 C 
HETATM    8  C16 UNL     1       0.604   8.636  12.821  1.00  0.00     0.007 C 
HETATM    9  C17 UNL     1       1.314   7.324  12.444  1.00  0.00     0.010 C 
HETATM   10  C18 UNL     1       2.169   7.465  11.134  1.00  0.00     0.018 C 
HETATM   11  C19 UNL     1       3.426   8.319  11.435  1.00  0.00     0.023 C 
HETATM   12  C20 UNL     1       1.420   8.140   9.968  1.00  0.00     0.023 C 
HETATM   13  C21 UNL     1       2.664   6.094  10.651  1.00  0.00     0.135 C 
HETATM   14  O1  UNL     1       3.730   5.960  10.042  1.00  0.00    -0.297 OA
HETATM   15  C22 UNL     1       1.815   4.879  10.922  1.00  0.00     0.080 C 
HETATM   16  C23 UNL     1       0.380   5.246  11.232  1.00  0.00     0.018 C 
HETATM   17  C24 UNL     1       0.308   6.153  12.447  1.00  0.00    -0.026 A 
HETATM   18  C25 UNL     1       0.179   5.427  13.765  1.00  0.00     0.021 A 
HETATM   19  C26 UNL     1      -1.005   6.249  13.290  1.00  0.00    -0.027 A 
HETATM   20  C27 UNL     1      -2.225   5.366  12.942  1.00  0.00     0.011 C 
HETATM   21  C28 UNL     1      -3.615   6.020  12.936  1.00  0.00     0.011 C 
HETATM   22  C29 UNL     1      -3.798   7.012  14.091  1.00  0.00    -0.032 C 
HETATM   23  C30 UNL     1      -3.709   6.250  15.451  1.00  0.00     0.016 C 
ENDROOT
BRANCH   1  24
HETATM   24  C7  UNL     1      -6.447   7.288  14.621  1.00  0.00    -0.014 C 
HETATM   25  C8  UNL     1      -7.348   8.425  15.143  1.00  0.00     0.010 C 
BRANCH  24  26
HETATM   26  C6  UNL     1      -7.206   6.447  13.569  1.00  0.00     0.008 C 
BRANCH  26  27
HETATM   27  C5  UNL     1      -7.163   4.931  13.808  1.00  0.00     0.028 C 
BRANCH  27  28
HETATM   28  C4  UNL     1      -6.324   4.250  12.758  1.00  0.00    -0.025 C 
HETATM   29  C2  UNL     1      -6.460   3.004  12.264  1.00  0.00    -0.091 C 
HETATM   30  C1  UNL     1      -5.509   2.495  11.212  1.00  0.00     0.042 C 
HETATM   31  C3  UNL     1      -7.521   2.016  12.663  1.00  0.00     0.042 C 
ENDBRANCH  27  28
ENDBRANCH  26  27
ENDBRANCH  24  26
ENDBRANCH   1  24
TORSDOF 4
ENDMDL
