MODEL 1
REMARK minimizedAffinity -7.48377848
REMARK CNNscore 0.850835979
REMARK CNNaffinity 7.08057976
REMARK  6 active torsions:
REMARK  status: ('A' for Active; 'I' for Inactive)
REMARK    1  A    between atoms: C15_15  and  C17_17 
REMARK    2  A    between atoms: C17_17  and  O2_19 
REMARK    3  A    between atoms: C26_28  and  C27_29 
REMARK    4  A    between atoms: C27_29  and  O3_30 
REMARK    5  A    between atoms: C28_31  and  O4_32 
REMARK    6  A    between atoms: C30_34  and  O5_35 
ROOT
HETATM    1  C1  UNL     1      -4.564  52.433 -10.965  1.00  0.00     0.016 C 
HETATM    2  C2  UNL     1      -3.279  51.650 -10.619  1.00  0.00     0.055 C 
HETATM    3  C3  UNL     1      -1.959  52.473 -10.756  1.00  0.00     0.002 C 
HETATM    4  C4  UNL     1      -2.094  53.906 -10.206  1.00  0.00     0.013 C 
HETATM    5  C5  UNL     1      -0.810  54.733 -10.217  1.00  0.00     0.007 C 
HETATM    6  C6  UNL     1       0.343  54.033  -9.465  1.00  0.00     0.003 C 
HETATM    7  C7  UNL     1       0.686  52.639 -10.137  1.00  0.00    -0.027 C 
HETATM    8  C8  UNL     1       1.200  52.825 -11.598  1.00  0.00     0.016 C 
HETATM    9  C9  UNL     1       1.903  51.986  -9.402  1.00  0.00     0.011 C 
HETATM   10  C10 UNL     1       3.076  52.934  -9.080  1.00  0.00     0.011 C 
HETATM   11  C11 UNL     1       2.655  54.192  -8.261  1.00  0.00    -0.032 C 
HETATM   12  C12 UNL     1       2.108  53.644  -6.901  1.00  0.00     0.016 C 
HETATM   13  C13 UNL     1       3.904  55.147  -7.983  1.00  0.00     0.004 C 
HETATM   14  C14 UNL     1       5.015  54.423  -7.162  1.00  0.00     0.026 C 
HETATM   15  C15 UNL     1       6.210  55.295  -6.709  1.00  0.00     0.042 C 
HETATM   16  C16 UNL     1       7.149  55.593  -7.894  1.00  0.00     0.026 C 
HETATM   17  C18 UNL     1       5.721  56.608  -6.053  1.00  0.00     0.021 C 
HETATM   18  C19 UNL     1       4.197  56.731  -5.992  1.00  0.00     0.011 C 
HETATM   19  C20 UNL     1       3.517  56.555  -7.377  1.00  0.00    -0.040 C 
HETATM   20  C21 UNL     1       4.012  57.727  -8.271  1.00  0.00     0.015 C 
HETATM   21  C22 UNL     1       1.994  56.759  -7.181  1.00  0.00     0.010 C 
HETATM   22  C23 UNL     1       1.051  56.191  -8.248  1.00  0.00     0.011 C 
HETATM   23  C24 UNL     1       1.566  54.986  -9.098  1.00  0.00    -0.032 C 
HETATM   24  C25 UNL     1       2.144  55.595 -10.406  1.00  0.00     0.016 C 
HETATM   25  C26 UNL     1      -0.704  51.699 -10.073  1.00  0.00     0.025 C 
HETATM   26  C28 UNL     1      -0.533  50.314 -10.797  1.00  0.00     0.135 C 
HETATM   27  C29 UNL     1      -1.854  49.591 -11.089  1.00  0.00     0.101 C 
HETATM   28  C30 UNL     1      -2.957  50.520 -11.608  1.00  0.00     0.168 C 
HETATM   29  O6  UNL     1      -2.452  51.211 -12.758  1.00  0.00    -0.354 OA
HETATM   30  C31 UNL     1      -1.902  52.466 -12.309  1.00  0.00     0.182 C 
ENDROOT
BRANCH  15  31
HETATM   31  C17 UNL     1       7.067  54.519  -5.699  1.00  0.00     0.148 C 
HETATM   32  O1  UNL     1       6.797  53.445  -5.183  1.00  0.00    -0.649 OA
BRANCH  31  33
HETATM   33  O2  UNL     1       8.188  55.169  -5.320  1.00  0.00    -0.776 OA
HETATM   34  H26 UNL     1       8.592  54.572  -4.654  1.00  0.00     0.167 HD
ENDBRANCH  31  33
ENDBRANCH  15  31
BRANCH  25  35
HETATM   35  C27 UNL     1      -1.022  51.412  -8.538  1.00  0.00     0.177 C 
BRANCH  35  36
HETATM   36  O3  UNL     1      -1.666  52.473  -7.843  1.00  0.00    -0.400 OA
HETATM   37  H43 UNL     1      -1.983  52.106  -6.996  1.00  0.00     0.209 HD
ENDBRANCH  35  36
ENDBRANCH  25  35
BRANCH  26  38
HETATM   38  O4  UNL     1       0.349  49.462 -10.067  1.00  0.00    -0.394 OA
HETATM   39  H45 UNL     1       0.271  48.563 -10.443  1.00  0.00     0.210 HD
ENDBRANCH  26  38
BRANCH  28  40
HETATM   40  O5  UNL     1      -4.050  49.701 -11.978  1.00  0.00    -0.365 OA
HETATM   41  H48 UNL     1      -4.874  50.110 -11.667  1.00  0.00     0.213 HD
ENDBRANCH  28  40
TORSDOF 6
ENDMDL
