MODEL 1
REMARK minimizedAffinity -7.00522566
REMARK CNNscore 0.660381854
REMARK CNNaffinity 6.63665342
REMARK  5 active torsions:
REMARK  status: ('A' for Active; 'I' for Inactive)
REMARK    1  A    between atoms: C2_2  and  C4_4 
REMARK    2  A    between atoms: C7_7  and  C8_8 
REMARK    3  A    between atoms: C8_8  and  O2_10 
REMARK    4  A    between atoms: C11_13  and  C12_14 
REMARK    5  A    between atoms: C12_14  and  O4_16 
ROOT
HETATM    1  C4  UNL     1       2.988  56.325  -9.082  1.00  0.00     0.019 C 
HETATM    2  C5  UNL     1       3.766  56.984  -7.914  1.00  0.00     0.011 C 
HETATM    3  C6  UNL     1       3.519  56.108  -6.676  1.00  0.00     0.021 C 
HETATM    4  C7  UNL     1       2.189  55.409  -6.979  1.00  0.00     0.050 C 
HETATM    5  C9  UNL     1       1.939  54.126  -6.185  1.00  0.00     0.022 C 
HETATM    6  C10 UNL     1       0.718  53.358  -6.737  1.00  0.00     0.023 C 
HETATM    7  C11 UNL     1       0.656  53.131  -8.299  1.00  0.00     0.057 C 
HETATM    8  C13 UNL     1       1.141  54.393  -9.086  1.00  0.00     0.011 C 
HETATM    9  C14 UNL     1       1.303  54.081 -10.576  1.00  0.00     0.007 C 
HETATM   10  C15 UNL     1       0.226  53.163 -11.161  1.00  0.00     0.006 C 
HETATM   11  C16 UNL     1      -1.093  53.103 -10.359  1.00  0.00     0.003 C 
HETATM   12  C17 UNL     1      -2.264  52.270 -11.104  1.00  0.00    -0.035 C 
HETATM   13  C18 UNL     1      -3.603  53.037 -10.894  1.00  0.00     0.016 C 
HETATM   14  C19 UNL     1      -2.030  52.202 -12.644  1.00  0.00     0.017 C 
HETATM   15  C20 UNL     1      -3.041  51.359 -13.407  1.00  0.00     0.080 C 
HETATM   16  C21 UNL     1      -3.106  49.960 -12.852  1.00  0.00     0.135 C 
HETATM   17  O5  UNL     1      -3.150  49.001 -13.626  1.00  0.00    -0.297 OA
HETATM   18  C22 UNL     1      -3.246  49.791 -11.329  1.00  0.00     0.017 C 
HETATM   19  C23 UNL     1      -4.736  49.916 -10.973  1.00  0.00     0.023 C 
HETATM   20  C24 UNL     1      -2.816  48.338 -10.991  1.00  0.00     0.023 C 
HETATM   21  C25 UNL     1      -2.299  50.797 -10.576  1.00  0.00     0.009 C 
HETATM   22  C26 UNL     1      -2.490  50.777  -9.050  1.00  0.00     0.007 C 
HETATM   23  C27 UNL     1      -1.271  51.359  -8.355  1.00  0.00     0.011 C 
HETATM   24  C28 UNL     1      -0.876  52.799  -8.792  1.00  0.00    -0.022 C 
HETATM   25  C29 UNL     1      -1.886  53.741  -8.047  1.00  0.00     0.017 C 
HETATM   26  C30 UNL     1       2.400  55.034  -8.463  1.00  0.00     0.018 C 
ENDROOT
BRANCH   4  27
HETATM   27  C8  UNL     1       1.063  56.418  -6.701  1.00  0.00     0.149 C 
HETATM   28  O1  UNL     1       0.112  56.688  -7.412  1.00  0.00    -0.649 OA
BRANCH  27  29
HETATM   29  O2  UNL     1       1.215  57.065  -5.527  1.00  0.00    -0.776 OA
HETATM   30  H11 UNL     1       0.454  57.681  -5.496  1.00  0.00     0.167 HD
ENDBRANCH  27  29
ENDBRANCH   4  27
BRANCH   1  31
HETATM   31  C2  UNL     1       3.856  56.150 -10.318  1.00  0.00    -0.088 C 
HETATM   32  C1  UNL     1       3.565  56.795 -11.462  1.00  0.00     0.014 C 
HETATM   33  C3  UNL     1       5.068  55.257 -10.236  1.00  0.00     0.043 C 
ENDBRANCH   1  31
BRANCH   7  34
HETATM   34  C12 UNL     1       1.621  51.947  -8.628  1.00  0.00     0.149 C 
HETATM   35  O3  UNL     1       1.827  51.423  -9.711  1.00  0.00    -0.649 OA
BRANCH  34  36
HETATM   36  O4  UNL     1       2.332  51.486  -7.583  1.00  0.00    -0.776 OA
HETATM   37  H16 UNL     1       2.877  50.770  -7.976  1.00  0.00     0.167 HD
ENDBRANCH  34  36
ENDBRANCH   7  34
TORSDOF 5
ENDMDL
