MODEL 1
REMARK minimizedAffinity -7.96198463
REMARK  7 active torsions:
REMARK  status: ('A' for Active; 'I' for Inactive)
REMARK    1  A    between atoms: C2_2  and  C3_3 
REMARK    2  A    between atoms: C3_3  and  N1_4 
REMARK       I    between atoms: N1_4  and  C4_5 
REMARK       I    between atoms: C4_5  and  N2_7 
REMARK    3  A    between atoms: N2_7  and  C5_8 
REMARK    4  A    between atoms: C8_11  and  O2_12 
REMARK    5  A    between atoms: O2_12  and  C9_13 
REMARK    6  A    between atoms: C13_21  and  O3_22 
REMARK    7  A    between atoms: C15_24  and  O4_25 
ROOT
HETATM    1  O2  UNL     1      -4.220  48.048 -28.538  1.00  0.00    -0.293 OA
ENDROOT
BRANCH   1   2
HETATM    2  C8  UNL     1      -3.675  48.874 -27.586  1.00  0.00     0.079 A 
HETATM    3  C7  UNL     1      -3.422  48.339 -26.325  1.00  0.00     0.039 A 
HETATM    4  C6  UNL     1      -2.822  49.126 -25.337  1.00  0.00     0.034 A 
HETATM    5  C5  UNL     1      -2.460  50.449 -25.605  1.00  0.00     0.058 A 
HETATM    6  C20 UNL     1      -2.698  50.963 -26.896  1.00  0.00     0.063 A 
HETATM    7  C19 UNL     1      -3.294  50.181 -27.887  1.00  0.00     0.063 A 
HETATM    8 CL1  UNL     1      -2.250  52.587 -27.304  1.00  0.00    -0.082 Cl
BRANCH   5   9
HETATM    9  N2  UNL     1      -1.845  51.291 -24.649  1.00  0.00    -0.307 N 
HETATM   10  C4  UNL     1      -1.353  50.953 -23.410  1.00  0.00     0.320 C 
HETATM   11  N1  UNL     1      -0.768  52.051 -22.806  1.00  0.00    -0.343 N 
HETATM   12  O1  UNL     1      -1.411  49.855 -22.874  1.00  0.00    -0.247 OA
HETATM   13  H8  UNL     1      -0.346  52.710 -23.442  1.00  0.00     0.164 HD
HETATM   14  H9  UNL     1      -1.907  52.281 -24.843  1.00  0.00     0.170 HD
BRANCH  11  15
HETATM   15  C3  UNL     1      -0.138  51.926 -21.505  1.00  0.00     0.124 C 
BRANCH  15  16
HETATM   16  C2  UNL     1       1.171  52.707 -21.425  1.00  0.00     0.015 C 
HETATM   17  C1  UNL     1       0.983  54.032 -20.705  1.00  0.00     0.006 C 
ENDBRANCH  15  16
ENDBRANCH  11  15
ENDBRANCH   5   9
ENDBRANCH   1   2
BRANCH   1  18
HETATM   18  C9  UNL     1      -5.612  48.019 -28.638  1.00  0.00     0.161 A 
HETATM   19  N3  UNL     1      -6.346  47.997 -27.508  1.00  0.00    -0.332 N 
HETATM   20  C10 UNL     1      -7.665  47.942 -27.687  1.00  0.00     0.182 A 
ATOM     21  H3  UNL     1      -5.921  48.022 -26.581  1.00  0.00     0.168 HD
HETATM   22  N4  UNL     1      -8.301  47.907 -28.867  1.00  0.00    -0.351 N 
HETATM   23  C11 UNL     1      -7.544  47.921 -29.972  1.00  0.00     0.050 A 
ATOM     24  H4  UNL     1      -9.319  47.872 -28.920  1.00  0.00     0.166 HD
HETATM   25  C12 UNL     1      -8.168  47.879 -31.213  1.00  0.00     0.070 A 
HETATM   26  C18 UNL     1      -6.150  47.975 -29.927  1.00  0.00     0.045 A 
HETATM   27  C13 UNL     1      -7.440  47.888 -32.410  1.00  0.00     0.103 A 
HETATM   28  C15 UNL     1      -6.036  47.941 -32.366  1.00  0.00     0.102 A 
HETATM   29  C17 UNL     1      -5.397  47.983 -31.127  1.00  0.00     0.057 A 
BRANCH  27  30
HETATM   30  O3  UNL     1      -8.003  47.849 -33.661  1.00  0.00    -0.353 OA
HETATM   31  C14 UNL     1      -8.872  46.766 -33.961  1.00  0.00     0.210 C 
ENDBRANCH  27  30
BRANCH  28  32
HETATM   32  O4  UNL     1      -5.390  47.946 -33.576  1.00  0.00    -0.353 OA
HETATM   33  C16 UNL     1      -4.108  47.340 -33.647  1.00  0.00     0.210 C 
ENDBRANCH  28  32
ENDBRANCH   1  18
TORSDOF 7
ENDMDL
