MODEL 1
REMARK minimizedAffinity -8.72233868
REMARK  6 active torsions:
REMARK  status: ('A' for Active; 'I' for Inactive)
REMARK    1  A    between atoms: C2_2  and  C4_4 
REMARK    2  A    between atoms: C11_11  and  C12_12 
REMARK    3  A    between atoms: C12_12  and  O2_14 
REMARK    4  A    between atoms: C21_23  and  O3_24 
REMARK    5  A    between atoms: C22_25  and  C24_27 
REMARK    6  A    between atoms: C24_27  and  O4_28 
ROOT
HETATM    1  C4  UNL     1      -5.731   4.466  13.657  1.00  0.00     0.018 C 
HETATM    2  C5  UNL     1      -7.285   4.479  13.606  1.00  0.00     0.010 C 
HETATM    3  C6  UNL     1      -7.729   5.912  13.950  1.00  0.00     0.010 C 
HETATM    4  C7  UNL     1      -6.532   6.508  14.703  1.00  0.00    -0.039 C 
HETATM    5  C8  UNL     1      -6.578   6.001  16.169  1.00  0.00     0.015 C 
HETATM    6  C9  UNL     1      -6.471   8.039  14.691  1.00  0.00     0.011 C 
HETATM    7  C10 UNL     1      -5.096   8.561  15.167  1.00  0.00     0.022 C 
HETATM    8  C11 UNL     1      -3.852   7.936  14.419  1.00  0.00     0.057 C 
HETATM    9  C13 UNL     1      -4.005   6.364  14.443  1.00  0.00     0.011 C 
HETATM   10  C14 UNL     1      -2.800   5.617  13.870  1.00  0.00     0.007 C 
HETATM   11  C15 UNL     1      -1.484   6.060  14.503  1.00  0.00     0.006 C 
HETATM   12  C16 UNL     1      -1.255   7.588  14.453  1.00  0.00     0.003 C 
HETATM   13  C17 UNL     1       0.230   8.033  14.899  1.00  0.00    -0.035 C 
HETATM   14  C18 UNL     1       0.748   7.129  16.048  1.00  0.00     0.016 C 
HETATM   15  C19 UNL     1       1.147   7.774  13.658  1.00  0.00     0.012 C 
HETATM   16  C20 UNL     1       2.540   8.377  13.750  1.00  0.00     0.033 C 
HETATM   17  C21 UNL     1       2.457   9.883  13.953  1.00  0.00     0.128 C 
HETATM   18  C22 UNL     1       1.717  10.271  15.256  1.00  0.00     0.007 C 
HETATM   19  C23 UNL     1       2.554   9.883  16.510  1.00  0.00     0.020 C 
HETATM   20  C25 UNL     1       0.283   9.566  15.310  1.00  0.00     0.007 C 
HETATM   21  C26 UNL     1      -0.802  10.318  14.516  1.00  0.00     0.007 C 
HETATM   22  C27 UNL     1      -2.219   9.910  14.920  1.00  0.00     0.011 C 
HETATM   23  C28 UNL     1      -2.452   8.380  15.100  1.00  0.00    -0.022 C 
HETATM   24  C29 UNL     1      -2.497   8.109  16.633  1.00  0.00     0.017 C 
HETATM   25  C30 UNL     1      -5.368   5.956  13.839  1.00  0.00     0.007 C 
ENDROOT
BRANCH   8  26
HETATM   26  C12 UNL     1      -3.947   8.496  12.967  1.00  0.00     0.149 C 
HETATM   27  O1  UNL     1      -3.011   8.721  12.214  1.00  0.00    -0.649 OA
BRANCH  26  28
HETATM   28  O2  UNL     1      -5.182   8.732  12.509  1.00  0.00    -0.776 OA
HETATM   29  H18 UNL     1      -5.036   9.058  11.597  1.00  0.00     0.167 HD
ENDBRANCH  26  28
ENDBRANCH   8  26
BRANCH   1  30
HETATM   30  C2  UNL     1      -5.171   3.696  12.469  1.00  0.00    -0.089 C 
HETATM   31  C1  UNL     1      -3.936   3.851  11.963  1.00  0.00     0.014 C 
HETATM   32  C3  UNL     1      -6.126   2.715  11.842  1.00  0.00     0.043 C 
ENDBRANCH   1  30
BRANCH  18  33
HETATM   33  C24 UNL     1       1.621  11.827  15.356  1.00  0.00     0.176 C 
BRANCH  33  34
HETATM   34  O4  UNL     1       1.970  12.475  14.136  1.00  0.00    -0.400 OA
HETATM   35  H39 UNL     1       1.748  13.418  14.243  1.00  0.00     0.209 HD
ENDBRANCH  33  34
ENDBRANCH  18  33
BRANCH  17  36
HETATM   36  O3  UNL     1       3.787  10.403  13.946  1.00  0.00    -0.395 OA
HETATM   37  H33 UNL     1       3.709  11.334  13.672  1.00  0.00     0.210 HD
ENDBRANCH  17  36
TORSDOF 6
ENDMDL
