MODEL 1
REMARK minimizedAffinity -9.88215637
REMARK CNNscore 0.455818474
REMARK CNNaffinity 6.74435234
REMARK  14 active torsions:
REMARK  status: ('A' for Active; 'I' for Inactive)
REMARK    1  A    between atoms: O1_2  and  C2_3 
REMARK    2  A    between atoms: C6_8  and  C7_9 
REMARK    3  A    between atoms: C7_9  and  O3_11 
REMARK    4  A    between atoms: C8_12  and  C9_13 
REMARK    5  A    between atoms: C9_13  and  C10_14 
REMARK    6  A    between atoms: C10_14  and  N2_15 
REMARK       I    between atoms: N2_15  and  C11_16 
REMARK    7  A    between atoms: C11_16  and  C12_18 
REMARK    8  A    between atoms: C12_18  and  C13_19 
REMARK    9  A    between atoms: C13_19  and  C14_20 
REMARK   10  A    between atoms: C14_20  and  O6_22 
REMARK   11  A    between atoms: O6_22  and  C15_23 
REMARK   12  A    between atoms: C15_23  and  C16_24 
REMARK   13  A    between atoms: C16_24  and  C17_26 
REMARK   14  A    between atoms: C17_26  and  O8_27 
ROOT
HETATM    1  C14 UNL     1      -7.203  47.352 -25.204  1.00  0.00     0.259 C 
HETATM    2  O5  UNL     1      -7.695  46.363 -24.679  1.00  0.00    -0.265 OA
ENDROOT
BRANCH   1   3
HETATM    3  C13 UNL     1      -6.269  48.309 -24.505  1.00  0.00     0.120 C 
BRANCH   3   4
HETATM    4  C12 UNL     1      -4.982  48.469 -25.307  1.00  0.00     0.112 C 
BRANCH   4   5
HETATM    5  C11 UNL     1      -4.004  49.392 -24.606  1.00  0.00     0.218 C 
HETATM    6  N2  UNL     1      -3.555  50.419 -25.403  1.00  0.00    -0.361 N 
HETATM    7  H12 UNL     1      -3.950  50.539 -26.328  1.00  0.00     0.162 HD
HETATM    8  O4  UNL     1      -3.653  49.227 -23.443  1.00  0.00    -0.274 OA
BRANCH   6   9
HETATM    9  C10 UNL     1      -2.701  51.471 -24.878  1.00  0.00     0.127 C 
BRANCH   9  10
HETATM   10  C9  UNL     1      -1.219  51.087 -24.859  1.00  0.00     0.061 C 
BRANCH  10  11
HETATM   11  C8  UNL     1      -0.349  52.206 -24.359  1.00  0.00    -0.011 A 
HETATM   12  C6  UNL     1       0.258  53.215 -25.106  1.00  0.00     0.114 A 
HETATM   13  N1  UNL     1       0.950  54.008 -24.218  1.00  0.00    -0.350 N 
HETATM   14  C5  UNL     1       0.834  53.541 -22.935  1.00  0.00     0.043 A 
HETATM   15  H6  UNL     1       1.486  54.821 -24.492  1.00  0.00     0.166 HD
HETATM   16  C4  UNL     1       1.386  54.029 -21.748  1.00  0.00     0.033 A 
HETATM   17  C36 UNL     1       0.024  52.412 -22.985  1.00  0.00     0.002 A 
HETATM   18  C3  UNL     1       1.096  53.333 -20.572  1.00  0.00     0.039 A 
HETATM   19  C2  UNL     1       0.285  52.198 -20.575  1.00  0.00     0.069 A 
HETATM   20  C37 UNL     1      -0.257  51.729 -21.778  1.00  0.00     0.051 A 
BRANCH  12  21
HETATM   21  C7  UNL     1       0.279  53.519 -26.513  1.00  0.00     0.194 C 
HETATM   22  O2  UNL     1      -0.369  54.389 -27.074  1.00  0.00    -0.645 OA
BRANCH  21  23
HETATM   23  O3  UNL     1       1.131  52.737 -27.193  1.00  0.00    -0.772 OA
HETATM   24  H7  UNL     1       1.075  53.036 -28.122  1.00  0.00     0.167 HD
ENDBRANCH  21  23
ENDBRANCH  12  21
BRANCH  19  25
HETATM   25  O1  UNL     1       0.098  51.632 -19.342  1.00  0.00    -0.356 OA
HETATM   26  C1  UNL     1       0.497  52.399 -18.213  1.00  0.00     0.210 C 
ENDBRANCH  19  25
ENDBRANCH  10  11
ENDBRANCH   9  10
ENDBRANCH   6   9
ENDBRANCH   4   5
ENDBRANCH   3   4
ENDBRANCH   1   3
BRANCH   1  27
HETATM   27  O6  UNL     1      -7.422  47.742 -26.494  1.00  0.00    -0.314 OA
BRANCH  27  28
HETATM   28  C15 UNL     1      -8.805  47.871 -26.812  1.00  0.00     0.260 C 
BRANCH  28  29
HETATM   29  C16 UNL     1      -9.209  46.925 -27.935  1.00  0.00     0.185 C 
HETATM   30  O7  UNL     1      -8.382  46.127 -28.389  1.00  0.00    -0.292 OA
BRANCH  29  31
HETATM   31  C17 UNL     1     -10.693  46.936 -28.400  1.00  0.00     0.128 C 
HETATM   32  C18 UNL     1     -10.909  45.977 -29.610  1.00  0.00     0.047 C 
HETATM   33  C19 UNL     1     -12.307  45.353 -29.447  1.00  0.00     0.009 C 
HETATM   34  C20 UNL     1     -12.922  46.091 -28.265  1.00  0.00     0.002 C 
HETATM   35  C21 UNL     1     -14.093  45.425 -27.530  1.00  0.00    -0.004 C 
HETATM   36  C34 UNL     1     -11.710  46.391 -27.346  1.00  0.00    -0.002 C 
HETATM   37  C22 UNL     1     -15.259  45.126 -28.484  1.00  0.00     0.010 C 
HETATM   38  C31 UNL     1     -14.577  46.359 -26.379  1.00  0.00     0.002 C 
HETATM   39  C23 UNL     1     -16.423  44.478 -27.745  1.00  0.00     0.035 C 
HETATM   40  C24 UNL     1     -16.877  45.297 -26.557  1.00  0.00    -0.068 C 
HETATM   41  C25 UNL     1     -18.185  45.567 -26.401  1.00  0.00     0.053 C 
HETATM   42  C29 UNL     1     -15.790  45.750 -25.573  1.00  0.00    -0.016 C 
HETATM   43  C26 UNL     1     -18.702  46.250 -25.194  1.00  0.00     0.149 C 
HETATM   44  O9  UNL     1     -19.905  46.488 -25.100  1.00  0.00    -0.293 OA
HETATM   45  C27 UNL     1     -17.736  46.541 -24.074  1.00  0.00     0.084 C 
HETATM   46  C28 UNL     1     -16.353  46.852 -24.626  1.00  0.00     0.022 C 
HETATM   47  C30 UNL     1     -15.372  44.527 -24.725  1.00  0.00     0.020 C 
HETATM   48  C32 UNL     1     -13.404  46.836 -25.485  1.00  0.00     0.007 C 
HETATM   49  C33 UNL     1     -12.206  47.387 -26.282  1.00  0.00     0.013 C 
HETATM   50  C35 UNL     1     -11.142  45.122 -26.654  1.00  0.00     0.019 C 
BRANCH  31  51
HETATM   51  O8  UNL     1     -11.094  48.229 -28.865  1.00  0.00    -0.381 OA
HETATM   52  H19 UNL     1     -10.738  48.904 -28.261  1.00  0.00     0.211 HD
ENDBRANCH  31  51
ENDBRANCH  29  31
ENDBRANCH  28  29
ENDBRANCH  27  28
ENDBRANCH   1  27
TORSDOF 14
ENDMDL
