MODEL 1
REMARK minimizedAffinity -8.30621433
REMARK  8 active torsions:
REMARK  status: ('A' for Active; 'I' for Inactive)
REMARK    1  A    between atoms: C4_4  and  C5_5 
REMARK    2  A    between atoms: C5_5  and  O2_7 
REMARK    3  A    between atoms: O2_7  and  C6_8 
REMARK    4  A    between atoms: C15_17  and  C16_18 
REMARK    5  A    between atoms: C16_18  and  O4_20 
REMARK    6  A    between atoms: O4_20  and  C17_21 
REMARK    7  A    between atoms: C17_21  and  C18_22 
REMARK    8  A    between atoms: C18_22  and  N1_23 
ROOT
HETATM    1  C6  UNL     1      -2.066  51.071 -24.709  1.00  0.00     0.140 C 
HETATM    2  C7  UNL     1      -2.195  52.321 -23.836  1.00  0.00     0.034 C 
HETATM    3  C8  UNL     1      -1.999  51.985 -22.365  1.00  0.00     0.012 C 
HETATM    4  C9  UNL     1      -2.991  50.919 -21.823  1.00  0.00    -0.035 C 
HETATM    5  C10 UNL     1      -4.377  51.589 -21.647  1.00  0.00     0.016 C 
HETATM    6  C11 UNL     1      -2.438  50.412 -20.419  1.00  0.00     0.006 C 
HETATM    7  C12 UNL     1      -2.737  51.354 -19.242  1.00  0.00     0.010 C 
HETATM    8  C13 UNL     1      -1.911  50.974 -18.010  1.00  0.00     0.035 C 
HETATM    9  C14 UNL     1      -1.838  49.480 -17.762  1.00  0.00    -0.070 C 
HETATM   10  C15 UNL     1      -0.914  48.917 -16.952  1.00  0.00     0.085 C 
HETATM   11  C21 UNL     1      -2.903  48.675 -18.524  1.00  0.00     0.022 C 
HETATM   12  C22 UNL     1      -2.883  47.159 -18.251  1.00  0.00     0.015 C 
HETATM   13  C23 UNL     1      -2.811  48.944 -20.055  1.00  0.00     0.068 C 
HETATM   14  C24 UNL     1      -4.087  48.554 -20.786  1.00  0.00     0.132 C 
HETATM   15  O5  UNL     1      -5.100  48.154 -20.212  1.00  0.00    -0.298 OA
HETATM   16  C25 UNL     1      -4.054  48.639 -22.298  1.00  0.00     0.085 C 
HETATM   17  C26 UNL     1      -3.032  49.683 -22.792  1.00  0.00     0.011 C 
HETATM   18  C27 UNL     1      -3.121  49.982 -24.339  1.00  0.00    -0.016 C 
HETATM   19  C28 UNL     1      -4.523  50.391 -24.850  1.00  0.00     0.018 C 
HETATM   20  C29 UNL     1      -2.757  48.689 -25.118  1.00  0.00     0.018 C 
ENDROOT
BRANCH  10  21
HETATM   21  C16 UNL     1       0.156  49.533 -16.125  1.00  0.00     0.283 C 
HETATM   22  O3  UNL     1       0.372  49.156 -14.982  1.00  0.00    -0.260 OA
BRANCH  21  23
HETATM   23  O4  UNL     1       0.799  50.535 -16.765  1.00  0.00    -0.316 OA
BRANCH  23  24
HETATM   24  C17 UNL     1       0.932  51.770 -16.038  1.00  0.00     0.209 C 
BRANCH  24  25
HETATM   25  C18 UNL     1       2.141  52.564 -16.562  1.00  0.00     0.298 C 
BRANCH  25  26
HETATM   26  N1  UNL     1       3.281  52.612 -15.626  1.00  0.00     0.082 N 
HETATM   27  C19 UNL     1       4.509  52.200 -16.313  1.00  0.00     0.309 C 
HETATM   28  C20 UNL     1       3.064  51.763 -14.454  1.00  0.00     0.309 C 
ENDBRANCH  25  26
ENDBRANCH  24  25
ENDBRANCH  23  24
ENDBRANCH  21  23
ENDBRANCH  10  21
BRANCH   1  29
HETATM   29  O2  UNL     1      -2.230  51.447 -26.090  1.00  0.00    -0.312 OA
BRANCH  29  30
HETATM   30  C5  UNL     1      -1.340  52.335 -26.590  1.00  0.00     0.283 C 
HETATM   31  O1  UNL     1      -1.605  53.347 -27.220  1.00  0.00    -0.260 OA
BRANCH  30  32
HETATM   32  C4  UNL     1       0.044  51.983 -26.206  1.00  0.00     0.084 C 
HETATM   33  C2  UNL     1       1.085  51.686 -27.010  1.00  0.00    -0.082 C 
HETATM   34  C1  UNL     1       1.066  51.713 -28.513  1.00  0.00     0.043 C 
HETATM   35  C3  UNL     1       2.419  51.311 -26.414  1.00  0.00     0.043 C 
ENDBRANCH  30  32
ENDBRANCH  29  30
ENDBRANCH   1  29
TORSDOF 8
ENDMDL
