MODEL 1
REMARK minimizedAffinity -5.74424744
REMARK CNNscore 0.465076625
REMARK CNNaffinity 6.36509371
REMARK  20 active torsions:
REMARK  status: ('A' for Active; 'I' for Inactive)
REMARK    1  A    between atoms: C2_2  and  C3_3 
REMARK    2  A    between atoms: C2_2  and  C28_35 
REMARK    3  A    between atoms: C4_4  and  C5_5 
REMARK    4  A    between atoms: C6_6  and  C7_7 
REMARK    5  A    between atoms: C6_6  and  C9_11 
REMARK    6  A    between atoms: C7_7  and  O1_8 
REMARK    7  A    between atoms: O1_8  and  C8_9 
REMARK    8  A    between atoms: C8_9  and  O2_10 
REMARK    9  A    between atoms: C13_15  and  O3_16 
REMARK   10  A    between atoms: C14_17  and  C15_18 
REMARK   11  A    between atoms: C15_18  and  C16_19 
REMARK   12  A    between atoms: C16_19  and  C17_20 
REMARK   13  A    between atoms: C17_20  and  O4_21 
REMARK   14  A    between atoms: C19_23  and  C21_25 
REMARK   15  A    between atoms: C24_29  and  O6_30 
REMARK   16  A    between atoms: C24_29  and  C25_31 
REMARK   17  A    between atoms: C25_31  and  C26_32 
REMARK   18  A    between atoms: C26_32  and  N1_33 
REMARK   19  A    between atoms: C28_35  and  C29_36 
REMARK   20  A    between atoms: C29_36  and  C30_37 
ROOT
HETATM    1  C9  UNL     1       2.205  10.690  18.141  1.00  0.00     0.046 C 
HETATM    2  C10 UNL     1       0.842  10.861  18.814  1.00  0.00     0.013 C 
HETATM    3  C11 UNL     1       1.168  11.321  20.244  1.00  0.00     0.017 C 
HETATM    4  C12 UNL     1       2.575  12.027  20.194  1.00  0.00     0.025 C 
HETATM    5  C13 UNL     1       2.914  11.974  18.659  1.00  0.00     0.138 C 
HETATM    6  C14 UNL     1       3.585  11.059  21.002  1.00  0.00     0.029 C 
HETATM    7  C18 UNL     1       3.252  11.052  22.505  1.00  0.00    -0.066 C 
HETATM    8  C19 UNL     1       2.963   9.947  23.235  1.00  0.00    -0.021 C 
HETATM    9  C20 UNL     1       2.569   9.958  24.690  1.00  0.00     0.052 C 
HETATM   10  C22 UNL     1       3.241  12.443  23.106  1.00  0.00     0.038 C 
HETATM   11  C23 UNL     1       2.269  13.364  22.369  1.00  0.00     0.043 C 
HETATM   12  C24 UNL     1       2.586  13.474  20.856  1.00  0.00     0.070 C 
ENDROOT
BRANCH   5  13
HETATM   13  O3  UNL     1       2.380  13.098  17.958  1.00  0.00    -0.394 OA
HETATM   14  H17 UNL     1       2.478  12.927  17.005  1.00  0.00     0.210 HD
ENDBRANCH   5  13
BRANCH   6  15
HETATM   15  C15 UNL     1       5.103  11.325  20.772  1.00  0.00     0.012 C 
BRANCH  15  16
HETATM   16  C16 UNL     1       5.888  11.467  22.087  1.00  0.00     0.027 C 
BRANCH  16  17
HETATM   17  C17 UNL     1       6.932  12.578  22.019  1.00  0.00     0.164 C 
BRANCH  17  18
HETATM   18  O4  UNL     1       8.090  12.156  21.316  1.00  0.00    -0.401 OA
HETATM   19  H25 UNL     1       8.556  11.511  21.877  1.00  0.00     0.209 HD
ENDBRANCH  17  18
ENDBRANCH  16  17
ENDBRANCH  15  16
ENDBRANCH   6  15
BRANCH  12  20
HETATM   20  O6  UNL     1       3.950  13.969  20.780  1.00  0.00    -0.389 OA
HETATM   21  H34 UNL     1       3.973  14.851  21.190  1.00  0.00     0.210 HD
ENDBRANCH  12  20
BRANCH  12  22
HETATM   22  C25 UNL     1       1.757  14.639  20.231  1.00  0.00     0.068 C 
BRANCH  22  23
HETATM   23  C26 UNL     1       1.172  15.758  21.091  1.00  0.00     0.272 C 
BRANCH  23  24
HETATM   24  N1  UNL     1      -0.289  15.696  21.188  1.00  0.00     0.079 N 
HETATM   25  C27 UNL     1      -0.909  16.065  19.920  1.00  0.00     0.306 C 
HETATM   26  H39 UNL     1      -0.604  16.343  21.910  1.00  0.00     0.315 HD
ENDBRANCH  23  24
ENDBRANCH  22  23
ENDBRANCH  12  22
BRANCH   1  27
HETATM   27  C6  UNL     1       2.337  10.444  16.633  1.00  0.00    -0.050 C 
HETATM   28  C5  UNL     1       1.500   9.830  15.769  1.00  0.00     0.005 C 
BRANCH  28  29
HETATM   29  C4  UNL     1       0.210   9.214  15.987  1.00  0.00     0.001 C 
HETATM   30  C3  UNL     1      -0.541   8.723  14.986  1.00  0.00     0.006 C 
BRANCH  30  31
HETATM   31  C2  UNL     1      -1.849   8.090  15.117  1.00  0.00    -0.067 C 
HETATM   32  C1  UNL     1      -2.387   7.929  16.339  1.00  0.00     0.019 C 
BRANCH  31  33
HETATM   33  C28 UNL     1      -2.579   7.571  13.893  1.00  0.00     0.041 C 
BRANCH  33  34
HETATM   34  C29 UNL     1      -3.697   6.575  14.236  1.00  0.00     0.032 C 
BRANCH  34  35
HETATM   35  C30 UNL     1      -3.595   5.332  13.390  1.00  0.00    -0.024 C 
HETATM   36  C31 UNL     1      -4.586   4.537  12.941  1.00  0.00    -0.091 C 
HETATM   37  C32 UNL     1      -6.052   4.728  13.214  1.00  0.00     0.042 C 
HETATM   38  C33 UNL     1      -4.274   3.331  12.094  1.00  0.00     0.042 C 
ENDBRANCH  34  35
ENDBRANCH  33  34
ENDBRANCH  31  33
ENDBRANCH  30  31
ENDBRANCH  28  29
BRANCH  27  39
HETATM   39  C7  UNL     1       3.654  10.964  16.049  1.00  0.00     0.205 C 
BRANCH  39  40
HETATM   40  O1  UNL     1       4.706  10.057  16.356  1.00  0.00    -0.363 OA
BRANCH  40  41
HETATM   41  C8  UNL     1       5.965  10.686  16.502  1.00  0.00     0.334 C 
BRANCH  41  42
HETATM   42  O2  UNL     1       6.016  11.902  15.792  1.00  0.00    -0.377 OA
HETATM   43  H10 UNL     1       5.872  11.648  14.866  1.00  0.00     0.212 HD
ENDBRANCH  41  42
ENDBRANCH  40  41
ENDBRANCH  39  40
ENDBRANCH  27  39
ENDBRANCH   1  27
BRANCH   8  44
HETATM   44  C21 UNL     1       2.974   8.571  22.651  1.00  0.00     0.265 C 
HETATM   45  O5  UNL     1       1.979   7.974  22.273  1.00  0.00    -0.302 OA
ENDBRANCH   8  44
TORSDOF 20
ENDMDL
