MODEL 1
REMARK minimizedAffinity -9.77891254
REMARK  5 active torsions:
REMARK  status: ('A' for Active; 'I' for Inactive)
REMARK    1  A    between atoms: C5_5  and  C6_6 
REMARK    2  A    between atoms: C6_6  and  C7_8 
REMARK    3  A    between atoms: C7_8  and  O2_9 
REMARK    4  A    between atoms: O2_9  and  C8_10 
REMARK    5  A    between atoms: C14_17  and  C15_18 
ROOT
HETATM    1  C8  UNL     1      -3.086  50.277 -27.511  1.00  0.00     0.093 A 
HETATM    2  C9  UNL     1      -2.410  51.474 -27.748  1.00  0.00     0.076 A 
HETATM    3  C10 UNL     1      -1.673  52.060 -26.716  1.00  0.00     0.093 A 
HETATM    4  C11 UNL     1      -1.577  51.487 -25.448  1.00  0.00     0.011 A 
HETATM    5  C12 UNL     1      -2.248  50.281 -25.220  1.00  0.00     0.042 A 
HETATM    6  C13 UNL     1      -2.990  49.681 -26.244  1.00  0.00     0.068 A 
HETATM    7 CL1  UNL     1      -3.810  48.198 -25.892  1.00  0.00    -0.081 Cl
HETATM    8  C14 UNL     1      -0.781  52.162 -24.414  1.00  0.00    -0.007 A 
HETATM    9  C21 UNL     1      -0.173  53.314 -24.737  1.00  0.00     0.095 A 
HETATM   10  C22 UNL     1      -0.262  53.932 -26.068  1.00  0.00     0.289 A 
HETATM   11  O3  UNL     1       0.311  54.987 -26.309  1.00  0.00    -0.260 OA
HETATM   12  O4  UNL     1      -1.019  53.268 -27.019  1.00  0.00    -0.275 OA
ENDROOT
BRANCH   1  13
HETATM   13  O2  UNL     1      -3.813  49.615 -28.464  1.00  0.00    -0.342 OA
BRANCH  13  14
HETATM   14  C7  UNL     1      -4.484  48.436 -28.041  1.00  0.00     0.254 C 
BRANCH  14  15
HETATM   15  C6  UNL     1      -5.693  48.165 -28.932  1.00  0.00     0.155 C 
HETATM   16  O1  UNL     1      -6.793  47.927 -28.427  1.00  0.00    -0.295 OA
BRANCH  15  17
HETATM   17  C5  UNL     1      -5.463  48.094 -30.446  1.00  0.00     0.062 C 
HETATM   18  C4  UNL     1      -4.844  46.732 -30.787  1.00  0.00     0.049 C 
HETATM   19  C2  UNL     1      -5.057  46.325 -32.256  1.00  0.00     0.054 C 
HETATM   20  C1  UNL     1      -4.641  44.862 -32.448  1.00  0.00     0.045 C 
HETATM   21  C3  UNL     1      -4.225  47.202 -33.200  1.00  0.00     0.045 C 
HETATM   22  O5  UNL     1      -6.426  46.418 -32.675  1.00  0.00    -0.381 OA
HETATM   23  C24 UNL     1      -7.327  47.039 -31.761  1.00  0.00     0.169 C 
HETATM   24  C23 UNL     1      -6.758  48.344 -31.234  1.00  0.00     0.038 C 
ENDBRANCH  15  17
ENDBRANCH  14  15
ENDBRANCH  13  14
ENDBRANCH   1  13
BRANCH   8  25
HETATM   25  C15 UNL     1      -0.582  51.685 -23.032  1.00  0.00    -0.025 A 
HETATM   26  C16 UNL     1       0.204  52.423 -22.139  1.00  0.00     0.012 A 
HETATM   27  C17 UNL     1       0.396  51.968 -20.832  1.00  0.00     0.001 A 
HETATM   28  C18 UNL     1      -0.197  50.777 -20.414  1.00  0.00     0.000 A 
HETATM   29  C19 UNL     1      -0.982  50.039 -21.298  1.00  0.00     0.001 A 
HETATM   30  C20 UNL     1      -1.175  50.490 -22.605  1.00  0.00     0.012 A 
ENDBRANCH   8  25
TORSDOF 5
ENDMDL
