MODEL 1
REMARK minimizedAffinity -9.19229221
REMARK CNNscore 0.658565283
REMARK CNNaffinity 6.50799513
REMARK  13 active torsions:
REMARK  status: ('A' for Active; 'I' for Inactive)
REMARK    1  A    between atoms: C19_21  and  O3_22 
REMARK    2  A    between atoms: C19_21  and  C20_23 
REMARK    3  A    between atoms: C20_23  and  C21_25 
REMARK    4  A    between atoms: C21_25  and  O5_26 
REMARK    5  A    between atoms: O5_26  and  C22_27 
REMARK    6  A    between atoms: C22_27  and  C23_29 
REMARK    7  A    between atoms: C23_29  and  C24_30 
REMARK    8  A    between atoms: C24_30  and  C25_31 
REMARK       I    between atoms: C25_31  and  N1_33 
REMARK    9  A    between atoms: N1_33  and  C26_34 
REMARK   10  A    between atoms: C26_34  and  C27_35 
REMARK   11  A    between atoms: C26_34  and  C34_42 
REMARK   12  A    between atoms: C27_35  and  C28_36 
REMARK   13  A    between atoms: C34_42  and  O9_44 
ROOT
HETATM    1  C20 UNL     1       3.781  66.264 -36.419  1.00  0.00     0.185 C 
HETATM    2  O4  UNL     1       4.589  66.298 -37.352  1.00  0.00    -0.292 OA
ENDROOT
BRANCH   1   3
HETATM    3  C19 UNL     1       2.404  66.958 -36.533  1.00  0.00     0.128 C 
HETATM    4  C14 UNL     1       2.079  67.438 -37.985  1.00  0.00     0.005 C 
HETATM    5  C13 UNL     1       1.651  66.349 -38.977  1.00  0.00     0.091 C 
HETATM    6  C15 UNL     1       3.273  68.233 -38.586  1.00  0.00     0.019 C 
HETATM    7  C16 UNL     1       0.839  68.324 -37.704  1.00  0.00     0.002 C 
HETATM    8  C12 UNL     1       1.077  66.997 -40.231  1.00  0.00     0.133 C 
HETATM    9  C11 UNL     1      -0.084  67.993 -40.025  1.00  0.00     0.072 C 
HETATM   10  O2  UNL     1       1.504  66.681 -41.339  1.00  0.00    -0.297 OA
HETATM   11  C2  UNL     1      -0.669  68.635 -41.335  1.00  0.00    -0.009 C 
HETATM   12  C10 UNL     1       0.309  69.047 -38.948  1.00  0.00     0.003 C 
HETATM   13  C1  UNL     1       0.397  69.412 -42.140  1.00  0.00     0.021 C 
HETATM   14  C3  UNL     1      -1.274  67.503 -42.221  1.00  0.00     0.022 C 
HETATM   15  C7  UNL     1      -1.777  69.632 -40.947  1.00  0.00    -0.067 C 
HETATM   16  C4  UNL     1      -2.207  68.007 -43.312  1.00  0.00     0.084 C 
HETATM   17  C5  UNL     1      -3.308  68.838 -42.716  1.00  0.00     0.149 C 
HETATM   18  O1  UNL     1      -4.433  68.898 -43.207  1.00  0.00    -0.293 OA
HETATM   19  C6  UNL     1      -2.980  69.686 -41.545  1.00  0.00     0.053 C 
HETATM   20  C8  UNL     1      -1.453  70.616 -39.847  1.00  0.00     0.035 C 
HETATM   21  C9  UNL     1      -0.902  69.925 -38.606  1.00  0.00     0.010 C 
HETATM   22  C17 UNL     1       1.266  69.166 -36.508  1.00  0.00     0.009 C 
HETATM   23  C18 UNL     1       2.217  68.256 -35.706  1.00  0.00     0.047 C 
BRANCH   3  24
HETATM   24  O3  UNL     1       1.386  66.035 -36.118  1.00  0.00    -0.381 OA
HETATM   25  H25 UNL     1       1.759  65.449 -35.423  1.00  0.00     0.211 HD
ENDBRANCH   3  24
ENDBRANCH   1   3
BRANCH   1  26
HETATM   26  C21 UNL     1       4.150  65.525 -35.127  1.00  0.00     0.260 C 
BRANCH  26  27
HETATM   27  O5  UNL     1       5.231  64.603 -35.087  1.00  0.00    -0.314 OA
BRANCH  27  28
HETATM   28  C22 UNL     1       5.527  64.079 -33.871  1.00  0.00     0.259 C 
HETATM   29  O6  UNL     1       5.968  64.737 -32.936  1.00  0.00    -0.265 OA
BRANCH  28  30
HETATM   30  C23 UNL     1       5.304  62.586 -33.795  1.00  0.00     0.120 C 
BRANCH  30  31
HETATM   31  C24 UNL     1       5.849  61.790 -34.975  1.00  0.00     0.112 C 
BRANCH  31  32
HETATM   32  C25 UNL     1       7.298  61.389 -34.774  1.00  0.00     0.218 C 
HETATM   33  O7  UNL     1       7.645  60.270 -34.421  1.00  0.00    -0.274 OA
HETATM   34  N1  UNL     1       8.180  62.412 -35.041  1.00  0.00    -0.346 N 
HETATM   35  H32 UNL     1       7.815  63.356 -34.962  1.00  0.00     0.163 HD
BRANCH  34  36
HETATM   36  C26 UNL     1       9.614  62.261 -34.744  1.00  0.00     0.186 C 
BRANCH  36  37
HETATM   37  C27 UNL     1      10.419  63.314 -35.515  1.00  0.00     0.074 C 
BRANCH  37  38
HETATM   38  C28 UNL     1      11.684  62.780 -36.141  1.00  0.00    -0.056 A 
HETATM   39  C29 UNL     1      12.937  63.123 -35.616  1.00  0.00     0.007 A 
HETATM   40  C30 UNL     1      14.106  62.624 -36.197  1.00  0.00     0.001 A 
HETATM   41  C31 UNL     1      14.033  61.780 -37.302  1.00  0.00     0.000 A 
HETATM   42  C32 UNL     1      12.791  61.432 -37.830  1.00  0.00     0.001 A 
HETATM   43  C33 UNL     1      11.621  61.930 -37.254  1.00  0.00     0.007 A 
ENDBRANCH  37  38
ENDBRANCH  36  37
BRANCH  36  44
HETATM   44  C34 UNL     1       9.780  62.471 -33.242  1.00  0.00     0.163 C 
HETATM   45  O8  UNL     1       9.858  63.557 -32.681  1.00  0.00    -0.648 OA
BRANCH  44  46
HETATM   46  O9  UNL     1       9.850  61.326 -32.538  1.00  0.00    -0.775 OA
HETATM   47  H41 UNL     1       9.946  61.603 -31.603  1.00  0.00     0.167 HD
ENDBRANCH  44  46
ENDBRANCH  36  44
ENDBRANCH  34  36
ENDBRANCH  31  32
ENDBRANCH  30  31
ENDBRANCH  28  30
ENDBRANCH  27  28
ENDBRANCH  26  27
ENDBRANCH   1  26
TORSDOF 13
ENDMDL
