MODEL 1
REMARK minimizedAffinity -7.50727797
REMARK CNNscore 0.60060364
REMARK CNNaffinity 6.56705141
REMARK  8 active torsions:
REMARK  status: ('A' for Active; 'I' for Inactive)
REMARK    1  A    between atoms: C2_2  and  C4_4 
REMARK    2  A    between atoms: C4_4  and  O1_5 
REMARK    3  A    between atoms: C4_4  and  C5_6 
REMARK    4  A    between atoms: C5_6  and  C6_7 
REMARK    5  A    between atoms: C6_7  and  C7_8 
REMARK    6  A    between atoms: C7_8  and  C9_10 
REMARK    7  A    between atoms: C12_13  and  C13_14 
REMARK    8  A    between atoms: C13_14  and  O3_16 
ROOT
HETATM    1  C9  UNL     1      -1.161  53.427 -11.297  1.00  0.00    -0.001 C 
HETATM    2  C10 UNL     1      -0.174  52.634 -12.207  1.00  0.00     0.007 C 
HETATM    3  C11 UNL     1      -0.807  51.266 -12.507  1.00  0.00     0.022 C 
HETATM    4  C12 UNL     1      -2.276  51.407 -12.052  1.00  0.00     0.057 C 
HETATM    5  C14 UNL     1      -2.971  50.076 -11.675  1.00  0.00     0.014 C 
HETATM    6  C15 UNL     1      -3.271  49.139 -12.852  1.00  0.00     0.007 C 
HETATM    7  C16 UNL     1      -3.848  47.819 -12.338  1.00  0.00     0.007 C 
HETATM    8  C17 UNL     1      -5.256  48.049 -11.775  1.00  0.00     0.010 C 
HETATM    9  C18 UNL     1      -5.961  46.774 -11.212  1.00  0.00     0.018 C 
HETATM   10  C19 UNL     1      -6.180  45.740 -12.333  1.00  0.00     0.023 C 
HETATM   11  C20 UNL     1      -5.198  46.102 -10.060  1.00  0.00     0.023 C 
HETATM   12  C21 UNL     1      -7.348  47.169 -10.675  1.00  0.00     0.135 C 
HETATM   13  O4  UNL     1      -8.086  46.351 -10.123  1.00  0.00    -0.297 OA
HETATM   14  C22 UNL     1      -7.813  48.585 -10.911  1.00  0.00     0.080 C 
HETATM   15  C23 UNL     1      -6.778  49.600 -10.445  1.00  0.00     0.018 C 
HETATM   16  C24 UNL     1      -5.336  49.206 -10.774  1.00  0.00    -0.026 A 
HETATM   17  C25 UNL     1      -4.351  49.311  -9.631  1.00  0.00     0.021 A 
HETATM   18  C26 UNL     1      -4.216  50.287 -10.780  1.00  0.00    -0.027 A 
HETATM   19  C27 UNL     1      -4.627  51.734 -10.530  1.00  0.00     0.011 C 
HETATM   20  C28 UNL     1      -3.484  52.721 -10.230  1.00  0.00     0.012 C 
HETATM   21  C29 UNL     1      -2.101  52.296 -10.760  1.00  0.00    -0.022 C 
HETATM   22  C30 UNL     1      -1.378  51.556  -9.588  1.00  0.00     0.017 C 
ENDROOT
BRANCH   1  23
HETATM   23  C7  UNL     1      -0.411  54.366 -10.300  1.00  0.00    -0.014 C 
HETATM   24  C8  UNL     1      -1.222  55.620  -9.965  1.00  0.00     0.010 C 
BRANCH  23  25
HETATM   25  C6  UNL     1       0.979  54.760 -10.874  1.00  0.00     0.007 C 
BRANCH  25  26
HETATM   26  C5  UNL     1       1.972  55.312  -9.834  1.00  0.00     0.036 C 
BRANCH  26  27
HETATM   27  C4  UNL     1       3.316  55.779 -10.426  1.00  0.00     0.146 C 
BRANCH  27  28
HETATM   28  C2  UNL     1       4.427  55.860  -9.385  1.00  0.00    -0.065 C 
HETATM   29  C1  UNL     1       4.338  56.545  -8.230  1.00  0.00     0.016 C 
HETATM   30  C3  UNL     1       5.668  55.056  -9.683  1.00  0.00     0.045 C 
ENDBRANCH  27  28
BRANCH  27  31
HETATM   31  O1  UNL     1       3.689  54.884 -11.475  1.00  0.00    -0.391 OA
HETATM   32  H7  UNL     1       3.755  53.998 -11.079  1.00  0.00     0.210 HD
ENDBRANCH  27  31
ENDBRANCH  26  27
ENDBRANCH  25  26
ENDBRANCH  23  25
ENDBRANCH   1  23
BRANCH   4  33
HETATM   33  C13 UNL     1      -3.037  52.125 -13.199  1.00  0.00     0.149 C 
HETATM   34  O2  UNL     1      -3.179  51.755 -14.353  1.00  0.00    -0.649 OA
BRANCH  33  35
HETATM   35  O3  UNL     1      -3.598  53.296 -12.831  1.00  0.00    -0.776 OA
HETATM   36  H21 UNL     1      -4.046  53.608 -13.647  1.00  0.00     0.167 HD
ENDBRANCH  33  35
ENDBRANCH   4  33
TORSDOF 8
ENDMDL
