MODEL 1
REMARK minimizedAffinity -6.34970522
REMARK CNNscore 0.382018745
REMARK CNNaffinity 6.34291601
REMARK  21 active torsions:
REMARK  status: ('A' for Active; 'I' for Inactive)
REMARK    1  A    between atoms: C2_2  and  C3_3 
REMARK    2  A    between atoms: C2_2  and  C29_36 
REMARK    3  A    between atoms: C4_4  and  C5_5 
REMARK    4  A    between atoms: C6_6  and  C7_7 
REMARK    5  A    between atoms: C6_6  and  C10_12 
REMARK    6  A    between atoms: C7_7  and  O1_8 
REMARK    7  A    between atoms: O1_8  and  C8_9 
REMARK    8  A    between atoms: C8_9  and  C9_10 
REMARK    9  A    between atoms: C9_10  and  O2_11 
REMARK   10  A    between atoms: C14_16  and  O3_17 
REMARK   11  A    between atoms: C15_18  and  C16_19 
REMARK   12  A    between atoms: C16_19  and  C17_20 
REMARK   13  A    between atoms: C17_20  and  C18_21 
REMARK   14  A    between atoms: C18_21  and  O4_22 
REMARK   15  A    between atoms: C20_24  and  C22_26 
REMARK   16  A    between atoms: C25_30  and  O6_31 
REMARK   17  A    between atoms: C25_30  and  C26_32 
REMARK   18  A    between atoms: C26_32  and  C27_33 
REMARK   19  A    between atoms: C27_33  and  N1_34 
REMARK   20  A    between atoms: C29_36  and  C30_37 
REMARK   21  A    between atoms: C30_37  and  C31_38 
ROOT
HETATM    1  C10 UNL     1       0.121  49.722 -16.325  1.00  0.00     0.046 C 
HETATM    2  C11 UNL     1      -1.161  48.890 -16.168  1.00  0.00     0.013 C 
HETATM    3  C12 UNL     1      -1.173  48.361 -14.726  1.00  0.00     0.017 C 
HETATM    4  C13 UNL     1      -0.160  49.217 -13.895  1.00  0.00     0.025 C 
HETATM    5  C14 UNL     1       0.209  50.348 -14.917  1.00  0.00     0.138 C 
HETATM    6  C15 UNL     1       1.098  48.289 -13.516  1.00  0.00     0.029 C 
HETATM    7  C19 UNL     1       1.907  48.949 -12.394  1.00  0.00    -0.066 C 
HETATM    8  C20 UNL     1       3.081  49.632 -12.428  1.00  0.00    -0.021 C 
HETATM    9  C21 UNL     1       3.823  50.107 -11.198  1.00  0.00     0.052 C 
HETATM   10  C23 UNL     1       1.133  48.803 -11.086  1.00  0.00     0.038 C 
HETATM   11  C24 UNL     1      -0.384  48.961 -11.286  1.00  0.00     0.043 C 
HETATM   12  C25 UNL     1      -0.782  49.820 -12.514  1.00  0.00     0.070 C 
ENDROOT
BRANCH   5  13
HETATM   13  O3  UNL     1      -0.743  51.412 -14.848  1.00  0.00    -0.394 OA
HETATM   14  H19 UNL     1      -0.657  51.793 -13.948  1.00  0.00     0.210 HD
ENDBRANCH   5  13
BRANCH   6  15
HETATM   15  C16 UNL     1       1.874  47.558 -14.647  1.00  0.00     0.012 C 
BRANCH  15  16
HETATM   16  C17 UNL     1       1.826  46.016 -14.586  1.00  0.00     0.027 C 
BRANCH  16  17
HETATM   17  C18 UNL     1       2.083  45.394 -13.220  1.00  0.00     0.164 C 
BRANCH  17  18
HETATM   18  O4  UNL     1       3.392  45.728 -12.785  1.00  0.00    -0.401 OA
HETATM   19  H27 UNL     1       3.454  45.515 -11.836  1.00  0.00     0.209 HD
ENDBRANCH  17  18
ENDBRANCH  16  17
ENDBRANCH  15  16
ENDBRANCH   6  15
BRANCH  12  20
HETATM   20  O6  UNL     1      -0.241  51.153 -12.330  1.00  0.00    -0.389 OA
HETATM   21  H36 UNL     1       0.639  51.093 -11.924  1.00  0.00     0.210 HD
ENDBRANCH  12  20
BRANCH  12  22
HETATM   22  C26 UNL     1      -2.330  50.010 -12.536  1.00  0.00     0.068 C 
BRANCH  22  23
HETATM   23  C27 UNL     1      -2.982  50.588 -11.261  1.00  0.00     0.272 C 
BRANCH  23  24
HETATM   24  N1  UNL     1      -2.800  52.033 -11.067  1.00  0.00     0.079 N 
HETATM   25  C28 UNL     1      -3.661  52.827 -11.933  1.00  0.00     0.306 C 
HETATM   26  H41 UNL     1      -1.826  52.260 -11.286  1.00  0.00     0.315 HD
ENDBRANCH  23  24
ENDBRANCH  22  23
ENDBRANCH  12  22
BRANCH   1  27
HETATM   27  C6  UNL     1       0.181  50.556 -17.618  1.00  0.00    -0.050 C 
HETATM   28  C5  UNL     1      -0.410  50.308 -18.810  1.00  0.00     0.005 C 
BRANCH  28  29
HETATM   29  C4  UNL     1      -1.260  49.214 -19.232  1.00  0.00     0.001 C 
HETATM   30  C3  UNL     1      -1.479  48.913 -20.523  1.00  0.00     0.006 C 
BRANCH  30  31
HETATM   31  C2  UNL     1      -2.308  47.815 -21.021  1.00  0.00    -0.067 C 
HETATM   32  C1  UNL     1      -2.762  46.912 -20.136  1.00  0.00     0.019 C 
BRANCH  31  33
HETATM   33  C29 UNL     1      -2.613  47.767 -22.514  1.00  0.00     0.041 C 
BRANCH  33  34
HETATM   34  C30 UNL     1      -2.790  49.110 -23.237  1.00  0.00     0.032 C 
BRANCH  34  35
HETATM   35  C31 UNL     1      -2.724  48.943 -24.734  1.00  0.00    -0.024 C 
HETATM   36  C32 UNL     1      -3.729  48.601 -25.564  1.00  0.00    -0.091 C 
HETATM   37  C33 UNL     1      -3.477  48.439 -27.041  1.00  0.00     0.042 C 
HETATM   38  C34 UNL     1      -5.154  48.363 -25.145  1.00  0.00     0.042 C 
ENDBRANCH  34  35
ENDBRANCH  33  34
ENDBRANCH  31  33
ENDBRANCH  30  31
ENDBRANCH  28  29
BRANCH  27  39
HETATM   39  C7  UNL     1       0.942  51.874 -17.423  1.00  0.00     0.202 C 
BRANCH  39  40
HETATM   40  O1  UNL     1       0.467  52.913 -18.283  1.00  0.00    -0.385 OA
BRANCH  40  41
HETATM   41  C8  UNL     1       1.408  53.281 -19.288  1.00  0.00     0.194 C 
BRANCH  41  42
HETATM   42  C9  UNL     1       0.746  54.048 -20.431  1.00  0.00     0.190 C 
BRANCH  42  43
HETATM   43  O2  UNL     1       1.562  54.030 -21.598  1.00  0.00    -0.399 OA
HETATM   44  H12 UNL     1       2.393  54.490 -21.387  1.00  0.00     0.209 HD
ENDBRANCH  42  43
ENDBRANCH  41  42
ENDBRANCH  40  41
ENDBRANCH  39  40
ENDBRANCH  27  39
ENDBRANCH   1  27
BRANCH   8  45
HETATM   45  C22 UNL     1       3.804  50.011 -13.686  1.00  0.00     0.265 C 
HETATM   46  O5  UNL     1       4.884  49.519 -13.999  1.00  0.00    -0.302 OA
ENDBRANCH   8  45
TORSDOF 21
ENDMDL
