MODEL 1
REMARK minimizedAffinity -8.81626701
REMARK CNNscore 0.751937628
REMARK CNNaffinity 7.61731195
REMARK  10 active torsions:
REMARK  status: ('A' for Active; 'I' for Inactive)
REMARK    1  A    between atoms: C19_21  and  O3_22 
REMARK    2  A    between atoms: C19_21  and  C20_23 
REMARK    3  A    between atoms: C20_23  and  C21_25 
REMARK    4  A    between atoms: C21_25  and  O5_26 
REMARK    5  A    between atoms: O5_26  and  C22_27 
REMARK    6  A    between atoms: C22_27  and  C23_29 
REMARK    7  A    between atoms: C23_29  and  C24_30 
REMARK    8  A    between atoms: C24_30  and  C25_31 
REMARK       I    between atoms: C25_31  and  N1_33 
REMARK    9  A    between atoms: N1_33  and  C26_34 
REMARK   10  A    between atoms: C26_34  and  C27_35 
ROOT
HETATM    1  C1  UNL     1       3.319   7.988  10.271  1.00  0.00     0.021 C 
HETATM    2  C2  UNL     1       2.078   7.079  10.047  1.00  0.00    -0.009 C 
HETATM    3  C3  UNL     1       2.513   5.892   9.141  1.00  0.00     0.022 C 
HETATM    4  C4  UNL     1       2.941   6.319   7.739  1.00  0.00     0.084 C 
HETATM    5  C5  UNL     1       1.906   7.216   7.099  1.00  0.00     0.149 C 
HETATM    6  O1  UNL     1       1.849   7.376   5.878  1.00  0.00    -0.293 OA
HETATM    7  C6  UNL     1       0.954   7.947   7.971  1.00  0.00     0.053 C 
HETATM    8  C7  UNL     1       1.021   7.891   9.316  1.00  0.00    -0.067 C 
HETATM    9  C8  UNL     1      -0.018   8.611  10.134  1.00  0.00     0.035 C 
HETATM   10  C9  UNL     1       0.350   8.888  11.595  1.00  0.00     0.010 C 
HETATM   11  C10 UNL     1       1.124   7.781  12.351  1.00  0.00     0.003 C 
HETATM   12  C11 UNL     1       1.551   6.594  11.442  1.00  0.00     0.072 C 
HETATM   13  C12 UNL     1       0.457   5.514  11.405  1.00  0.00     0.133 C 
HETATM   14  O2  UNL     1       0.646   4.414  10.883  1.00  0.00    -0.297 OA
HETATM   15  C13 UNL     1      -0.859   5.797  12.094  1.00  0.00     0.091 C 
HETATM   16  C14 UNL     1      -0.627   6.211  13.555  1.00  0.00     0.005 C 
HETATM   17  C15 UNL     1      -0.187   4.955  14.348  1.00  0.00     0.019 C 
HETATM   18  C16 UNL     1       0.521   7.269  13.687  1.00  0.00     0.002 C 
HETATM   19  C17 UNL     1       0.024   8.348  14.670  1.00  0.00     0.009 C 
HETATM   20  C18 UNL     1      -1.243   7.771  15.306  1.00  0.00     0.047 C 
HETATM   21  C19 UNL     1      -1.855   6.931  14.186  1.00  0.00     0.128 C 
ENDROOT
BRANCH  21  22
HETATM   22  O3  UNL     1      -2.337   7.906  13.216  1.00  0.00    -0.381 OA
HETATM   23  H25 UNL     1      -3.257   7.645  12.985  1.00  0.00     0.211 HD
ENDBRANCH  21  22
BRANCH  21  24
HETATM   24  C20 UNL     1      -3.111   6.104  14.551  1.00  0.00     0.185 C 
HETATM   25  O4  UNL     1      -3.463   6.076  15.742  1.00  0.00    -0.292 OA
BRANCH  24  26
HETATM   26  C21 UNL     1      -3.955   5.393  13.505  1.00  0.00     0.260 C 
BRANCH  26  27
HETATM   27  O5  UNL     1      -3.757   3.989  13.438  1.00  0.00    -0.314 OA
BRANCH  27  28
HETATM   28  C22 UNL     1      -3.835   3.490  12.173  1.00  0.00     0.259 C 
HETATM   29  O6  UNL     1      -2.930   2.887  11.611  1.00  0.00    -0.265 OA
BRANCH  28  30
HETATM   30  C23 UNL     1      -5.209   3.666  11.572  1.00  0.00     0.120 C 
BRANCH  30  31
HETATM   31  C24 UNL     1      -6.257   2.675  12.063  1.00  0.00     0.112 C 
BRANCH  31  32
HETATM   32  C25 UNL     1      -7.377   3.359  12.820  1.00  0.00     0.218 C 
HETATM   33  O7  UNL     1      -7.987   2.824  13.739  1.00  0.00    -0.274 OA
HETATM   34  N1  UNL     1      -7.659   4.616  12.343  1.00  0.00    -0.356 N 
HETATM   35  H32 UNL     1      -7.090   5.014  11.609  1.00  0.00     0.162 HD
BRANCH  34  36
HETATM   36  C26 UNL     1      -8.623   5.482  12.986  1.00  0.00     0.168 C 
BRANCH  36  37
HETATM   37  C27 UNL     1      -7.917   6.233  14.070  1.00  0.00     0.000 A 
HETATM   38  C28 UNL     1      -6.860   7.118  13.957  1.00  0.00     0.017 A 
HETATM   39  C29 UNL     1      -6.449   7.636  15.220  1.00  0.00     0.008 A 
HETATM   40  C30 UNL     1      -7.210   7.138  16.253  1.00  0.00     0.050 A 
HETATM   41  S1  UNL     1      -8.403   6.044  15.705  1.00  0.00    -0.105 SA
ENDBRANCH  36  37
ENDBRANCH  34  36
ENDBRANCH  31  32
ENDBRANCH  30  31
ENDBRANCH  28  30
ENDBRANCH  27  28
ENDBRANCH  26  27
ENDBRANCH  24  26
ENDBRANCH  21  24
TORSDOF 10
ENDMDL
