MODEL 1
REMARK minimizedAffinity -8.9820385
REMARK  8 active torsions:
REMARK  status: ('A' for Active; 'I' for Inactive)
REMARK    1  A    between atoms: O1_2  and  C2_3 
REMARK    2  A    between atoms: C9_12  and  O4_13 
REMARK    3  A    between atoms: C10_14  and  C11_15 
REMARK    4  A    between atoms: C11_15  and  C12_16 
REMARK    5  A    between atoms: C13_17  and  C15_19 
REMARK    6  A    between atoms: C15_19  and  C16_20 
REMARK    7  A    between atoms: C16_20  and  C17_21 
REMARK       I    between atoms: C17_21  and  N1_23 
REMARK    8  A    between atoms: N1_23  and  C18_24 
ROOT
HETATM    1  C12 UNL     1      -2.080  50.920 -25.050  1.00  0.00    -0.020 C 
HETATM    2  C13 UNL     1      -2.546  50.363 -26.186  1.00  0.00    -0.087 C 
HETATM    3  C14 UNL     1      -2.870  51.222 -27.381  1.00  0.00     0.043 C 
ENDROOT
BRANCH   1   4
HETATM    4  C11 UNL     1      -1.720  50.232 -23.757  1.00  0.00     0.072 C 
BRANCH   4   5
HETATM    5  C10 UNL     1      -0.912  51.121 -22.835  1.00  0.00     0.013 A 
HETATM    6  C2  UNL     1      -0.907  50.911 -21.427  1.00  0.00     0.084 A 
HETATM    7  C3  UNL     1      -0.271  51.799 -20.532  1.00  0.00    -0.018 A 
HETATM    8  C4  UNL     1      -0.318  51.602 -19.045  1.00  0.00     0.052 C 
HETATM    9  C5  UNL     1       0.439  52.856 -21.089  1.00  0.00    -0.006 A 
HETATM   10  C6  UNL     1       0.473  53.036 -22.456  1.00  0.00     0.082 A 
HETATM   11  C8  UNL     1       1.232  53.929 -20.451  1.00  0.00     0.219 A 
HETATM   12  C7  UNL     1       1.278  54.204 -22.756  1.00  0.00     0.297 A 
HETATM   13  C9  UNL     1      -0.186  52.205 -23.345  1.00  0.00     0.091 A 
HETATM   14  O2  UNL     1       1.504  54.632 -23.872  1.00  0.00    -0.259 OA
HETATM   15  O3  UNL     1       1.719  54.705 -21.567  1.00  0.00    -0.313 OA
BRANCH   6  16
HETATM   16  O1  UNL     1      -1.613  49.845 -20.917  1.00  0.00    -0.355 OA
HETATM   17  C1  UNL     1      -0.784  48.682 -20.851  1.00  0.00     0.210 C 
ENDBRANCH   6  16
BRANCH  13  18
HETATM   18  O4  UNL     1      -0.135  52.422 -24.691  1.00  0.00    -0.359 OA
HETATM   19  H9  UNL     1       0.380  53.237 -24.873  1.00  0.00     0.217 HD
ENDBRANCH  13  18
ENDBRANCH   4   5
ENDBRANCH   1   4
BRANCH   2  20
HETATM   20  C15 UNL     1      -2.751  48.876 -26.390  1.00  0.00     0.042 C 
BRANCH  20  21
HETATM   21  C16 UNL     1      -4.226  48.488 -26.320  1.00  0.00     0.107 C 
BRANCH  21  22
HETATM   22  C17 UNL     1      -4.793  48.174 -27.689  1.00  0.00     0.218 C 
HETATM   23  O5  UNL     1      -4.127  48.139 -28.717  1.00  0.00    -0.274 OA
HETATM   24  N1  UNL     1      -6.155  47.939 -27.660  1.00  0.00    -0.356 N 
HETATM   25  H20 UNL     1      -6.668  48.211 -26.829  1.00  0.00     0.162 HD
BRANCH  24  26
HETATM   26  C18 UNL     1      -6.924  47.741 -28.882  1.00  0.00     0.089 C 
HETATM   27  C19 UNL     1      -7.050  46.250 -29.207  1.00  0.00     0.051 C 
HETATM   28  C20 UNL     1      -8.364  45.651 -28.722  1.00  0.00     0.171 C 
HETATM   29  O6  UNL     1      -8.832  46.322 -27.558  1.00  0.00    -0.381 OA
HETATM   30  C21 UNL     1      -9.243  47.681 -27.796  1.00  0.00     0.055 C 
HETATM   31  C22 UNL     1      -9.219  48.373 -26.425  1.00  0.00     0.045 C 
HETATM   32  C23 UNL     1     -10.692  47.694 -28.306  1.00  0.00     0.045 C 
HETATM   33  C24 UNL     1      -8.307  48.395 -28.796  1.00  0.00     0.062 C 
ENDBRANCH  24  26
ENDBRANCH  21  22
ENDBRANCH  20  21
ENDBRANCH   2  20
TORSDOF 8
ENDMDL
