MODEL 1
REMARK minimizedAffinity -7.17360353
REMARK CNNscore 0.823489845
REMARK CNNaffinity 7.36364031
REMARK  6 active torsions:
REMARK  status: ('A' for Active; 'I' for Inactive)
REMARK    1  A    between atoms: C2_2  and  C30_32 
REMARK    2  A    between atoms: C3_3  and  C4_4 
REMARK    3  A    between atoms: C4_4  and  C5_6 
REMARK    4  A    between atoms: C5_6  and  C6_7 
REMARK    5  A    between atoms: C6_7  and  C8_9 
REMARK    6  A    between atoms: C30_32  and  O4_34 
ROOT
HETATM    1  C8  UNL     1       3.682  55.418  -8.263  1.00  0.00    -0.001 C 
HETATM    2  C9  UNL     1       2.726  56.416  -7.542  1.00  0.00     0.007 C 
HETATM    3  C10 UNL     1       1.294  56.113  -8.018  1.00  0.00     0.015 C 
HETATM    4  C11 UNL     1       1.397  54.746  -8.722  1.00  0.00    -0.013 C 
HETATM    5  C12 UNL     1       1.325  53.671  -7.594  1.00  0.00     0.021 C 
HETATM    6  C13 UNL     1       0.321  54.370  -9.730  1.00  0.00    -0.070 C 
HETATM    7  C14 UNL     1      -0.911  54.911  -9.739  1.00  0.00    -0.022 C 
HETATM    8  C15 UNL     1      -1.969  54.435 -10.688  1.00  0.00     0.034 C 
HETATM    9  C16 UNL     1      -1.858  52.908 -10.817  1.00  0.00     0.013 C 
HETATM   10  C17 UNL     1      -3.089  52.212 -11.477  1.00  0.00     0.018 C 
HETATM   11  C18 UNL     1      -4.221  52.052 -10.439  1.00  0.00     0.023 C 
HETATM   12  C19 UNL     1      -3.666  52.989 -12.675  1.00  0.00     0.023 C 
HETATM   13  C20 UNL     1      -2.702  50.792 -11.915  1.00  0.00     0.135 C 
HETATM   14  O2  UNL     1      -3.341  50.178 -12.771  1.00  0.00    -0.297 OA
HETATM   15  C21 UNL     1      -1.567  50.110 -11.181  1.00  0.00     0.080 C 
HETATM   16  C22 UNL     1      -0.313  50.970 -10.991  1.00  0.00     0.017 C 
HETATM   17  C23 UNL     1      -0.462  52.463 -11.387  1.00  0.00    -0.031 C 
HETATM   18  C24 UNL     1      -0.371  52.559 -12.934  1.00  0.00     0.016 C 
HETATM   19  C25 UNL     1       0.719  53.385 -10.832  1.00  0.00     0.024 C 
HETATM   20  C26 UNL     1       2.052  52.646 -10.560  1.00  0.00     0.010 C 
HETATM   21  C27 UNL     1       3.211  53.512 -10.015  1.00  0.00     0.011 C 
HETATM   22  C28 UNL     1       2.792  54.880  -9.433  1.00  0.00    -0.029 C 
HETATM   23  C29 UNL     1       2.797  55.935 -10.585  1.00  0.00     0.016 C 
ENDROOT
BRANCH   1  24
HETATM   24  C6  UNL     1       5.065  56.057  -8.577  1.00  0.00    -0.007 C 
HETATM   25  C7  UNL     1       6.100  55.015  -9.018  1.00  0.00     0.011 C 
BRANCH  24  26
HETATM   26  C5  UNL     1       5.620  56.808  -7.343  1.00  0.00     0.087 C 
BRANCH  26  27
HETATM   27  C4  UNL     1       6.274  55.858  -6.356  1.00  0.00     0.150 C 
HETATM   28  O1  UNL     1       5.622  55.049  -5.701  1.00  0.00    -0.293 OA
BRANCH  27  29
HETATM   29  C3  UNL     1       7.761  55.907  -6.256  1.00  0.00     0.063 C 
HETATM   30  C2  UNL     1       8.430  56.695  -5.398  1.00  0.00     0.015 C 
HETATM   31  C1  UNL     1       9.917  56.649  -5.241  1.00  0.00     0.055 C 
BRANCH  30  32
HETATM   32  C30 UNL     1       7.755  57.670  -4.521  1.00  0.00     0.171 C 
HETATM   33  O3  UNL     1       7.387  57.461  -3.380  1.00  0.00    -0.646 OA
BRANCH  32  34
HETATM   34  O4  UNL     1       7.699  58.891  -5.079  1.00  0.00    -0.773 OA
HETATM   35  H44 UNL     1       7.187  59.416  -4.429  1.00  0.00     0.167 HD
ENDBRANCH  32  34
ENDBRANCH  30  32
ENDBRANCH  27  29
ENDBRANCH  26  27
ENDBRANCH  24  26
ENDBRANCH   1  24
TORSDOF 6
ENDMDL
