MODEL 1
REMARK minimizedAffinity -9.92367744
REMARK CNNscore 0.402389348
REMARK CNNaffinity 6.43423891
REMARK  12 active torsions:
REMARK  status: ('A' for Active; 'I' for Inactive)
REMARK    1  A    between atoms: C3_3  and  O1_4 
REMARK    2  A    between atoms: N1_14  and  O2_16 
REMARK    3  A    between atoms: O2_16  and  C13_17 
REMARK    4  A    between atoms: C13_17  and  C14_18 
REMARK       I    between atoms: C14_18  and  N2_20 
REMARK    5  A    between atoms: N2_20  and  C15_21 
REMARK    6  A    between atoms: C15_21  and  C16_22 
REMARK    7  A    between atoms: C15_21  and  C27_38 
REMARK       I    between atoms: C16_22  and  N3_24 
REMARK    8  A    between atoms: N3_24  and  C17_25 
REMARK    9  A    between atoms: C17_25  and  C18_26 
REMARK   10  A    between atoms: C17_25  and  C20_30 
REMARK   11  A    between atoms: C18_26  and  C19_27 
REMARK   12  A    between atoms: C19_27  and  O6_29 
ROOT
HETATM    1  C1  UNL     1      -0.044  51.061 -26.993  1.00  0.00     0.015 C 
HETATM    2  C2  UNL     1      -1.114  51.265 -26.482  1.00  0.00    -0.078 C 
HETATM    3  C3  UNL     1      -2.429  51.549 -25.863  1.00  0.00     0.128 C 
HETATM    4  C4  UNL     1      -3.425  50.442 -26.234  1.00  0.00     0.052 C 
HETATM    5  C5  UNL     1      -3.277  49.369 -25.147  1.00  0.00     0.010 C 
HETATM    6  C6  UNL     1      -2.434  49.990 -24.018  1.00  0.00     0.002 C 
HETATM    7  C7  UNL     1      -2.802  49.601 -22.570  1.00  0.00    -0.004 C 
HETATM    8  C8  UNL     1      -2.824  48.070 -22.355  1.00  0.00     0.010 C 
HETATM    9  C9  UNL     1      -4.008  47.578 -21.535  1.00  0.00     0.035 C 
HETATM   10  C10 UNL     1      -5.266  48.154 -22.125  1.00  0.00    -0.069 C 
HETATM   11  C11 UNL     1      -6.133  47.369 -22.786  1.00  0.00     0.030 C 
HETATM   12  C12 UNL     1      -7.349  47.913 -23.437  1.00  0.00     0.032 C 
HETATM   13  N1  UNL     1      -8.140  47.068 -24.037  1.00  0.00    -0.271 N 
ATOM     14  H1  UNL     1      -7.975  46.062 -24.082  1.00  0.00     0.194 HD
HETATM   15  C30 UNL     1      -7.616  49.403 -23.331  1.00  0.00     0.060 C 
HETATM   16  C31 UNL     1      -6.329  50.201 -23.130  1.00  0.00     0.020 C 
HETATM   17  C32 UNL     1      -5.423  49.665 -21.994  1.00  0.00    -0.016 C 
HETATM   18  C33 UNL     1      -6.144  49.944 -20.645  1.00  0.00     0.020 C 
HETATM   19  C34 UNL     1      -3.999  50.362 -21.927  1.00  0.00     0.002 C 
HETATM   20  C35 UNL     1      -3.962  51.868 -22.249  1.00  0.00     0.007 C 
HETATM   21  C36 UNL     1      -3.688  52.202 -23.715  1.00  0.00     0.014 C 
HETATM   22  C37 UNL     1      -2.424  51.512 -24.301  1.00  0.00     0.003 C 
HETATM   23  C38 UNL     1      -1.178  52.197 -23.702  1.00  0.00     0.020 C 
ENDROOT
BRANCH   3  24
HETATM   24  O1  UNL     1      -2.880  52.807 -26.344  1.00  0.00    -0.377 OA
HETATM   25  H2  UNL     1      -2.807  52.774 -27.316  1.00  0.00     0.211 HD
ENDBRANCH   3  24
BRANCH  13  26
HETATM   26  O2  UNL     1      -9.244  47.711 -24.610  1.00  0.00    -0.271 OA
BRANCH  26  27
HETATM   27  C13 UNL     1     -10.415  46.924 -24.406  1.00  0.00     0.303 C 
BRANCH  27  28
HETATM   28  C14 UNL     1     -11.461  47.296 -25.449  1.00  0.00     0.244 C 
HETATM   29  O3  UNL     1     -11.360  48.287 -26.171  1.00  0.00    -0.271 OA
HETATM   30  N2  UNL     1     -12.504  46.397 -25.542  1.00  0.00    -0.346 N 
HETATM   31  H16 UNL     1     -12.613  45.828 -24.706  1.00  0.00     0.163 HD
BRANCH  30  32
HETATM   32  C15 UNL     1     -13.738  46.762 -26.230  1.00  0.00     0.180 C 
BRANCH  32  33
HETATM   33  C16 UNL     1     -14.834  46.871 -25.144  1.00  0.00     0.241 C 
HETATM   34  O4  UNL     1     -14.827  47.758 -24.287  1.00  0.00    -0.271 OA
HETATM   35  N3  UNL     1     -15.785  45.875 -25.179  1.00  0.00    -0.354 N 
HETATM   36  H18 UNL     1     -15.792  45.229 -25.968  1.00  0.00     0.162 HD
BRANCH  35  37
HETATM   37  C17 UNL     1     -16.973  45.882 -24.324  1.00  0.00     0.098 C 
BRANCH  37  38
HETATM   38  C18 UNL     1     -18.060  44.979 -24.936  1.00  0.00     0.135 C 
BRANCH  38  39
HETATM   39  C19 UNL     1     -19.086  45.754 -25.721  1.00  0.00     0.141 C 
HETATM   40  O5  UNL     1     -19.936  46.502 -25.267  1.00  0.00    -0.650 OA
BRANCH  39  41
HETATM   41  O6  UNL     1     -19.011  45.505 -27.042  1.00  0.00    -0.776 OA
HETATM   42  H22 UNL     1     -19.739  46.027 -27.438  1.00  0.00     0.167 HD
ENDBRANCH  39  41
ENDBRANCH  38  39
ENDBRANCH  37  38
BRANCH  37  43
HETATM   43  C20 UNL     1     -16.589  45.538 -22.864  1.00  0.00     0.014 C 
HETATM   44  C21 UNL     1     -17.003  44.109 -22.467  1.00  0.00     0.033 C 
HETATM   45  C22 UNL     1     -17.251  43.960 -20.971  1.00  0.00     0.169 C 
HETATM   46  O7  UNL     1     -16.422  44.839 -20.226  1.00  0.00    -0.381 OA
HETATM   47  C23 UNL     1     -16.716  46.230 -20.425  1.00  0.00     0.054 C 
HETATM   48  C24 UNL     1     -15.404  46.974 -20.146  1.00  0.00     0.045 C 
HETATM   49  C25 UNL     1     -17.765  46.669 -19.394  1.00  0.00     0.045 C 
HETATM   50  C26 UNL     1     -17.208  46.522 -21.857  1.00  0.00     0.044 C 
ENDBRANCH  37  43
ENDBRANCH  35  37
ENDBRANCH  32  33
BRANCH  32  51
HETATM   51  C27 UNL     1     -14.072  45.740 -27.340  1.00  0.00     0.009 C 
HETATM   52  C28 UNL     1     -13.327  44.414 -27.149  1.00  0.00     0.012 C 
HETATM   53  C29 UNL     1     -13.842  46.283 -28.755  1.00  0.00     0.012 C 
ENDBRANCH  32  51
ENDBRANCH  30  32
ENDBRANCH  27  28
ENDBRANCH  26  27
ENDBRANCH  13  26
TORSDOF 12
ENDMDL
