MODEL 1
REMARK minimizedAffinity -6.5483551
REMARK CNNscore 0.588749647
REMARK CNNaffinity 6.00640106
REMARK  9 active torsions:
REMARK  status: ('A' for Active; 'I' for Inactive)
REMARK    1  A    between atoms: C2_2  and  C3_3 
REMARK    2  A    between atoms: C3_3  and  C5_5 
REMARK    3  A    between atoms: C3_3  and  C6_7 
REMARK    4  A    between atoms: C5_5  and  O1_6 
REMARK    5  A    between atoms: C7_8  and  O2_9 
REMARK    6  A    between atoms: C18_22  and  O5_23 
REMARK    7  A    between atoms: O5_23  and  C19_24 
REMARK    8  A    between atoms: C19_24  and  C20_26 
REMARK    9  A    between atoms: C29_36  and  O8_37 
ROOT
HETATM    1  C6  UNL     1     -14.412  11.661  -2.027  1.00  0.00     0.023 A 
HETATM    2  C7  UNL     1     -13.235  12.120  -2.664  1.00  0.00     0.076 A 
HETATM    3  C8  UNL     1     -12.285  12.908  -2.007  1.00  0.00     0.053 A 
HETATM    4  C9  UNL     1     -12.494  13.296  -0.684  1.00  0.00     0.034 A 
HETATM    5  C10 UNL     1     -11.481  14.131  -0.019  1.00  0.00     0.192 A 
HETATM    6  O3  UNL     1     -10.471  14.466  -0.629  1.00  0.00    -0.287 OA
HETATM    7  C11 UNL     1     -11.718  14.566   1.383  1.00  0.00     0.035 A 
HETATM    8  C12 UNL     1     -12.857  14.239   2.011  1.00  0.00     0.131 A 
HETATM    9  O4  UNL     1     -13.188  14.662   3.277  1.00  0.00    -0.336 OA
HETATM   10  C13 UNL     1     -12.213  15.335   4.095  1.00  0.00     0.065 C 
HETATM   11  C14 UNL     1     -13.057  16.234   5.023  1.00  0.00     0.046 C 
HETATM   12  C15 UNL     1     -11.560  14.263   4.976  1.00  0.00     0.046 C 
HETATM   13  C16 UNL     1     -11.257  16.211   3.231  1.00  0.00     0.031 C 
HETATM   14  C17 UNL     1     -10.171  16.993   3.993  1.00  0.00     0.041 C 
HETATM   15  C18 UNL     1      -8.880  16.212   4.265  1.00  0.00     0.136 C 
HETATM   16  C23 UNL     1      -8.302  15.590   2.983  1.00  0.00     0.012 C 
HETATM   17  C24 UNL     1      -7.704  16.620   2.016  1.00  0.00     0.012 C 
HETATM   18  C25 UNL     1      -9.362  14.718   2.295  1.00  0.00     0.017 C 
HETATM   19  C26 UNL     1     -10.678  15.467   2.005  1.00  0.00     0.033 C 
HETATM   20  C27 UNL     1     -13.886  13.381   1.349  1.00  0.00     0.219 A 
HETATM   21  O7  UNL     1     -14.915  13.047   1.931  1.00  0.00    -0.284 OA
HETATM   22  C28 UNL     1     -13.658  12.920  -0.032  1.00  0.00     0.065 A 
HETATM   23  C29 UNL     1     -14.614  12.119  -0.704  1.00  0.00     0.091 A 
ENDROOT
BRANCH   1  24
HETATM   24  C3  UNL     1     -15.431  10.759  -2.794  1.00  0.00     0.027 C 
HETATM   25  C4  UNL     1     -15.780  11.236  -4.232  1.00  0.00     0.027 C 
BRANCH  24  26
HETATM   26  C2  UNL     1     -16.817  10.786  -2.115  1.00  0.00    -0.021 C 
HETATM   27  C1  UNL     1     -18.018  10.932  -2.692  1.00  0.00     0.008 C 
ENDBRANCH  24  26
BRANCH  24  28
HETATM   28  C5  UNL     1     -14.802   9.334  -2.941  1.00  0.00     0.182 C 
BRANCH  28  29
HETATM   29  O1  UNL     1     -14.154   8.839  -1.766  1.00  0.00    -0.399 OA
HETATM   30  H9  UNL     1     -14.467   9.384  -1.016  1.00  0.00     0.209 HD
ENDBRANCH  28  29
ENDBRANCH  24  28
ENDBRANCH   1  24
BRANCH   2  31
HETATM   31  O2  UNL     1     -13.020  11.840  -3.989  1.00  0.00    -0.360 OA
HETATM   32  H10 UNL     1     -12.122  12.118  -4.242  1.00  0.00     0.217 HD
ENDBRANCH   2  31
BRANCH  23  33
HETATM   33  O8  UNL     1     -15.797  11.812  -0.077  1.00  0.00    -0.359 OA
HETATM   34  H36 UNL     1     -15.798  12.171   0.839  1.00  0.00     0.217 HD
ENDBRANCH  23  33
BRANCH  15  35
HETATM   35  O5  UNL     1      -7.889  17.089   4.835  1.00  0.00    -0.315 OA
BRANCH  35  36
HETATM   36  C19 UNL     1      -8.030  17.380   6.163  1.00  0.00     0.262 C 
HETATM   37  O6  UNL     1      -9.005  17.088   6.840  1.00  0.00    -0.265 OA
BRANCH  36  38
HETATM   38  C20 UNL     1      -6.809  18.137   6.658  1.00  0.00     0.077 C 
HETATM   39  C21 UNL     1      -5.535  17.475   6.144  1.00  0.00     0.020 C 
HETATM   40  C22 UNL     1      -6.797  18.213   8.185  1.00  0.00     0.020 C 
ENDBRANCH  36  38
ENDBRANCH  35  36
ENDBRANCH  15  35
TORSDOF 9
ENDMDL
