MODEL 1
REMARK minimizedAffinity -7.74331141
REMARK CNNscore 0.523659468
REMARK CNNaffinity 6.18503809
REMARK  8 active torsions:
REMARK  status: ('A' for Active; 'I' for Inactive)
REMARK    1  A    between atoms: C4_4  and  C5_5 
REMARK    2  A    between atoms: C5_5  and  C6_6 
REMARK    3  A    between atoms: C6_6  and  C7_7 
REMARK    4  A    between atoms: C9_9  and  C10_10 
REMARK    5  A    between atoms: C11_11  and  C12_12 
REMARK    6  A    between atoms: C14_14  and  C15_15 
REMARK    7  A    between atoms: C24_25  and  C26_27 
REMARK    8  A    between atoms: C29_31  and  O3_33 
ROOT
HETATM    1  C15 UNL     1      -6.434  47.761 -28.428  1.00  0.00     0.149 C 
HETATM    2  C16 UNL     1      -7.952  47.790 -28.314  1.00  0.00     0.054 C 
HETATM    3  C17 UNL     1      -8.472  46.972 -29.544  1.00  0.00     0.050 C 
HETATM    4  C18 UNL     1      -7.127  46.500 -30.179  1.00  0.00     0.272 C 
HETATM    5  O1  UNL     1      -7.096  45.274 -30.890  1.00  0.00    -0.360 OA
HETATM    6  C19 UNL     1      -7.239  44.102 -30.113  1.00  0.00     0.171 C 
HETATM    7  C20 UNL     1      -8.678  43.612 -30.145  1.00  0.00     0.027 C 
HETATM    8  C21 UNL     1      -9.733  44.710 -30.005  1.00  0.00     0.012 C 
HETATM    9  C22 UNL     1      -9.353  45.795 -28.976  1.00  0.00     0.032 C 
HETATM   10  C23 UNL     1     -10.616  46.326 -28.263  1.00  0.00    -0.066 C 
HETATM   11  C24 UNL     1     -11.194  45.732 -27.187  1.00  0.00    -0.021 C 
HETATM   12  C25 UNL     1     -12.357  46.284 -26.403  1.00  0.00     0.052 C 
HETATM   13  C27 UNL     1     -11.162  47.628 -28.823  1.00  0.00     0.038 C 
HETATM   14  C28 UNL     1     -10.822  47.819 -30.293  1.00  0.00     0.042 C 
HETATM   15  C29 UNL     1      -9.304  47.837 -30.576  1.00  0.00     0.067 C 
HETATM   16  C30 UNL     1      -8.823  49.295 -30.712  1.00  0.00     0.047 C 
HETATM   17  O4  UNL     1      -6.139  46.558 -29.135  1.00  0.00    -0.351 OA
ENDROOT
BRANCH   1  18
HETATM   18  C14 UNL     1      -5.705  47.865 -27.118  1.00  0.00     0.011 C 
HETATM   19  C12 UNL     1      -4.536  48.468 -26.814  1.00  0.00    -0.063 C 
HETATM   20  C13 UNL     1      -3.650  49.137 -27.832  1.00  0.00     0.048 C 
BRANCH  19  21
HETATM   21  C11 UNL     1      -4.087  48.458 -25.420  1.00  0.00     0.006 C 
HETATM   22  C10 UNL     1      -3.008  49.086 -24.921  1.00  0.00     0.001 C 
BRANCH  22  23
HETATM   23  C9  UNL     1      -2.648  49.028 -23.518  1.00  0.00     0.002 C 
HETATM   24  C7  UNL     1      -1.819  49.858 -22.851  1.00  0.00    -0.084 C 
HETATM   25  C8  UNL     1      -1.082  51.022 -23.473  1.00  0.00     0.043 C 
BRANCH  24  26
HETATM   26  C6  UNL     1      -1.516  49.723 -21.361  1.00  0.00     0.037 C 
BRANCH  26  27
HETATM   27  C5  UNL     1      -0.946  48.388 -20.859  1.00  0.00     0.031 C 
BRANCH  27  28
HETATM   28  C4  UNL     1      -1.895  47.250 -21.127  1.00  0.00    -0.024 C 
HETATM   29  C2  UNL     1      -2.901  46.815 -20.343  1.00  0.00    -0.091 C 
HETATM   30  C1  UNL     1      -3.783  45.677 -20.786  1.00  0.00     0.042 C 
HETATM   31  C3  UNL     1      -3.244  47.372 -18.988  1.00  0.00     0.042 C 
ENDBRANCH  27  28
ENDBRANCH  26  27
ENDBRANCH  24  26
ENDBRANCH  22  23
ENDBRANCH  19  21
ENDBRANCH   1  18
BRANCH  15  32
HETATM   32  O3  UNL     1      -9.143  47.276 -31.889  1.00  0.00    -0.389 OA
HETATM   33  H44 UNL     1      -9.706  47.762 -32.517  1.00  0.00     0.210 HD
ENDBRANCH  15  32
BRANCH  11  34
HETATM   34  C26 UNL     1     -10.711  44.420 -26.646  1.00  0.00     0.265 C 
HETATM   35  O2  UNL     1     -10.935  44.055 -25.497  1.00  0.00    -0.302 OA
ENDBRANCH  11  34
TORSDOF 8
ENDMDL
