MODEL 1
REMARK minimizedAffinity -9.90775394
REMARK  6 active torsions:
REMARK  status: ('A' for Active; 'I' for Inactive)
REMARK    1  A    between atoms: C4_4  and  C5_5 
REMARK    2  A    between atoms: C5_5  and  O1_6 
REMARK    3  A    between atoms: C5_5  and  C6_7 
REMARK    4  A    between atoms: C6_7  and  C7_8 
REMARK    5  A    between atoms: C7_8  and  C9_10 
REMARK    6  A    between atoms: C30_32  and  O3_33 
ROOT
HETATM    1  C9  UNL     1       1.237   6.631  12.210  1.00  0.00    -0.002 C 
HETATM    2  C10 UNL     1       1.229   5.433  11.217  1.00  0.00     0.007 C 
HETATM    3  C11 UNL     1      -0.160   4.783  11.287  1.00  0.00     0.015 C 
HETATM    4  C12 UNL     1      -0.791   5.313  12.587  1.00  0.00    -0.010 C 
HETATM    5  C13 UNL     1      -0.202   4.453  13.750  1.00  0.00     0.021 C 
HETATM    6  C14 UNL     1      -2.312   5.257  12.806  1.00  0.00    -0.039 C 
HETATM    7  C15 UNL     1      -2.905   6.159  13.636  1.00  0.00    -0.066 C 
HETATM    8  C16 UNL     1      -2.093   7.315  14.247  1.00  0.00     0.036 C 
HETATM    9  C17 UNL     1      -0.598   7.430  13.901  1.00  0.00     0.015 C 
HETATM   10  C18 UNL     1      -0.279   6.808  12.542  1.00  0.00    -0.029 C 
HETATM   11  C19 UNL     1      -0.965   7.651  11.425  1.00  0.00     0.016 C 
HETATM   12  C20 UNL     1      -4.422   6.099  14.025  1.00  0.00    -0.015 C 
HETATM   13  C21 UNL     1      -4.518   6.329  15.555  1.00  0.00     0.020 C 
HETATM   14  C22 UNL     1      -5.140   7.246  13.265  1.00  0.00     0.021 C 
HETATM   15  C23 UNL     1      -6.647   7.264  13.451  1.00  0.00     0.080 C 
HETATM   16  C24 UNL     1      -7.253   5.943  13.047  1.00  0.00     0.135 C 
HETATM   17  O2  UNL     1      -8.212   5.912  12.274  1.00  0.00    -0.297 OA
HETATM   18  C25 UNL     1      -6.691   4.677  13.706  1.00  0.00     0.018 C 
HETATM   19  C26 UNL     1      -7.255   4.594  15.141  1.00  0.00     0.023 C 
HETATM   20  C27 UNL     1      -7.265   3.438  12.970  1.00  0.00     0.023 C 
HETATM   21  C28 UNL     1      -5.100   4.712  13.659  1.00  0.00     0.016 C 
HETATM   22  C29 UNL     1      -4.590   4.255  12.279  1.00  0.00     0.043 C 
HETATM   23  C30 UNL     1      -3.075   4.111  12.199  1.00  0.00     0.148 C 
ENDROOT
BRANCH   1  24
HETATM   24  C7  UNL     1       2.081   7.829  11.667  1.00  0.00    -0.011 C 
HETATM   25  C8  UNL     1       1.908   9.092  12.515  1.00  0.00     0.010 C 
BRANCH  24  26
HETATM   26  C6  UNL     1       3.583   7.413  11.570  1.00  0.00     0.040 C 
BRANCH  26  27
HETATM   27  C5  UNL     1       4.165   7.352  10.146  1.00  0.00     0.141 C 
BRANCH  27  28
HETATM   28  C4  UNL     1       3.159   7.800   9.114  1.00  0.00     0.006 C 
HETATM   29  C2  UNL     1       2.605   7.037   8.147  1.00  0.00    -0.089 C 
HETATM   30  C1  UNL     1       2.891   5.572   7.951  1.00  0.00     0.042 C 
HETATM   31  C3  UNL     1       1.616   7.619   7.171  1.00  0.00     0.042 C 
ENDBRANCH  27  28
BRANCH  27  32
HETATM   32  O1  UNL     1       4.529   6.008   9.846  1.00  0.00    -0.392 OA
HETATM   33  H9  UNL     1       3.785   5.598   9.373  1.00  0.00     0.210 HD
ENDBRANCH  27  32
ENDBRANCH  26  27
ENDBRANCH  24  26
ENDBRANCH   1  24
BRANCH  23  34
HETATM   34  O3  UNL     1      -2.768   3.978  10.816  1.00  0.00    -0.391 OA
HETATM   35  H48 UNL     1      -3.276   3.226  10.473  1.00  0.00     0.210 HD
ENDBRANCH  23  34
TORSDOF 6
ENDMDL
