MODEL 1
REMARK minimizedAffinity -9.338727
REMARK CNNscore 0.455091566
REMARK CNNaffinity 6.83422422
REMARK  10 active torsions:
REMARK  status: ('A' for Active; 'I' for Inactive)
REMARK    1  A    between atoms: O1_2  and  C2_3 
REMARK    2  A    between atoms: C4_5  and  O2_6 
REMARK    3  A    between atoms: O2_6  and  C5_7 
REMARK    4  A    between atoms: C8_10  and  C9_11 
REMARK    5  A    between atoms: N1_12  and  C10_14 
REMARK    6  A    between atoms: C10_14  and  C11_15 
REMARK    7  A    between atoms: C21_27  and  C22_28 
REMARK    8  A    between atoms: C28_36  and  O5_37 
REMARK    9  A    between atoms: C32_41  and  O6_42 
REMARK   10  A    between atoms: C36_47  and  O8_48 
ROOT
HETATM    1  C5  UNL     1      -0.179   6.990  12.969  1.00  0.00     0.127 C 
HETATM    2  C6  UNL     1      -1.625   7.419  12.738  1.00  0.00     0.033 C 
HETATM    3  C7  UNL     1      -2.041   8.561  13.662  1.00  0.00     0.021 C 
HETATM    4  C8  UNL     1      -1.843   8.233  15.176  1.00  0.00     0.026 C 
HETATM    5  C16 UNL     1      -2.220   9.516  16.013  1.00  0.00     0.009 C 
HETATM    6  C17 UNL     1      -2.656   9.255  17.486  1.00  0.00     0.007 C 
HETATM    7  C18 UNL     1      -3.050  10.541  18.260  1.00  0.00     0.013 C 
HETATM    8  C19 UNL     1      -1.933  11.597  18.214  1.00  0.00    -0.005 C 
HETATM    9  C20 UNL     1      -0.778  11.081  19.122  1.00  0.00     0.019 C 
HETATM   10  C21 UNL     1      -2.234  13.046  18.741  1.00  0.00     0.028 C 
HETATM   11  C26 UNL     1      -1.394  13.981  17.814  1.00  0.00     0.013 C 
HETATM   12  C27 UNL     1      -0.661  13.075  16.806  1.00  0.00     0.040 C 
HETATM   13  C28 UNL     1      -1.568  11.856  16.725  1.00  0.00     0.070 C 
HETATM   14  C29 UNL     1      -1.120  10.625  15.920  1.00  0.00     0.026 C 
HETATM   15  C30 UNL     1       0.289  10.101  16.202  1.00  0.00     0.011 C 
HETATM   16  C31 UNL     1       0.635   8.922  15.299  1.00  0.00     0.039 C 
HETATM   17  C32 UNL     1      -0.372   7.754  15.416  1.00  0.00     0.073 C 
HETATM   18  C33 UNL     1       0.053   6.632  14.438  1.00  0.00     0.071 C 
ENDROOT
BRANCH   1  19
HETATM   19  O2  UNL     1       0.058   5.849  12.137  1.00  0.00    -0.356 OA
BRANCH  19  20
HETATM   20  C4  UNL     1       0.920   6.127  11.030  1.00  0.00     0.263 C 
HETATM   21  C3  UNL     1       2.241   6.636  11.589  1.00  0.00     0.095 C 
HETATM   22  C2  UNL     1       3.205   6.902  10.437  1.00  0.00     0.156 C 
HETATM   23  C36 UNL     1       2.563   7.894   9.445  1.00  0.00     0.175 C 
HETATM   24  C34 UNL     1       1.163   7.399   9.033  1.00  0.00     0.151 C 
HETATM   25  O7  UNL     1       0.347   7.106  10.174  1.00  0.00    -0.354 OA
HETATM   26  C35 UNL     1       0.430   8.444   8.198  1.00  0.00     0.042 C 
BRANCH  22  27
HETATM   27  O1  UNL     1       4.459   7.462  10.855  1.00  0.00    -0.388 OA
HETATM   28  C1  UNL     1       5.439   6.494  11.203  1.00  0.00     0.202 C 
ENDBRANCH  22  27
BRANCH  23  29
HETATM   29  O8  UNL     1       3.400   8.054   8.292  1.00  0.00    -0.390 OA
HETATM   30  H50 UNL     1       4.249   7.609   8.500  1.00  0.00     0.210 HD
ENDBRANCH  23  29
ENDBRANCH  19  20
ENDBRANCH   1  19
BRANCH  17  31
HETATM   31  O6  UNL     1      -0.226   7.248  16.752  1.00  0.00    -0.389 OA
HETATM   32  H42 UNL     1      -0.898   6.538  16.842  1.00  0.00     0.210 HD
ENDBRANCH  17  31
BRANCH   4  33
HETATM   33  C9  UNL     1      -2.891   7.152  15.496  1.00  0.00     0.069 C 
HETATM   34  N1  UNL     1      -4.097   7.201  15.032  1.00  0.00    -0.397 N 
ATOM     35  H1  UNL     1      -4.421   7.938  14.404  1.00  0.00     0.159 HD
BRANCH  34  36
HETATM   36  C10 UNL     1      -4.964   6.096  15.488  1.00  0.00     0.158 C 
BRANCH  36  37
HETATM   37  C11 UNL     1      -6.423   6.458  15.597  1.00  0.00    -0.025 A 
HETATM   38  C12 UNL     1      -6.874   7.777  15.490  1.00  0.00     0.011 A 
HETATM   39  C13 UNL     1      -8.230   8.063  15.599  1.00  0.00     0.018 A 
HETATM   40  C14 UNL     1      -9.100   7.006  15.796  1.00  0.00     0.087 A 
HETATM   41  N2  UNL     1      -8.714   5.715  15.870  1.00  0.00    -0.375 N 
HETATM   42  C15 UNL     1      -7.390   5.471  15.764  1.00  0.00     0.096 A 
ATOM     43  H2  UNL     1      -9.389   4.961  16.000  1.00  0.00     0.164 HD
ENDBRANCH  36  37
ENDBRANCH  34  36
ENDBRANCH   4  33
BRANCH  13  44
HETATM   44  O5  UNL     1      -2.758  12.308  16.030  1.00  0.00    -0.389 OA
HETATM   45  H36 UNL     1      -2.497  12.649  15.158  1.00  0.00     0.210 HD
ENDBRANCH  13  44
BRANCH  10  46
HETATM   46  C22 UNL     1      -3.659  13.491  18.909  1.00  0.00    -0.045 A 
HETATM   47  C23 UNL     1      -4.623  13.015  19.694  1.00  0.00     0.087 A 
HETATM   48  C24 UNL     1      -5.821  13.812  19.448  1.00  0.00     0.283 A 
HETATM   49  O3  UNL     1      -6.890  13.649  20.001  1.00  0.00    -0.260 OA
HETATM   50  O4  UNL     1      -5.545  14.755  18.507  1.00  0.00    -0.314 OA
HETATM   51  C25 UNL     1      -4.187  14.616  18.098  1.00  0.00     0.213 A 
ENDBRANCH  10  46
TORSDOF 10
ENDMDL
