MODEL 1
REMARK minimizedAffinity -8.33688736
REMARK CNNscore 0.438908398
REMARK CNNaffinity 6.18518972
REMARK  12 active torsions:
REMARK  status: ('A' for Active; 'I' for Inactive)
REMARK    1  A    between atoms: C4_4  and  C5_5 
REMARK    2  A    between atoms: C5_5  and  C6_7 
REMARK    3  A    between atoms: C6_7  and  C7_8 
REMARK    4  A    between atoms: C7_8  and  C9_10 
REMARK    5  A    between atoms: C15_16  and  O2_17 
REMARK    6  A    between atoms: O2_17  and  C16_18 
REMARK    7  A    between atoms: C17_20  and  C18_21 
REMARK    8  A    between atoms: C18_21  and  O4_22 
REMARK    9  A    between atoms: C19_23  and  O5_24 
REMARK   10  A    between atoms: C20_25  and  O6_26 
REMARK   11  A    between atoms: C21_27  and  O7_28 
REMARK   12  A    between atoms: C24_31  and  O8_32 
ROOT
HETATM    1  C9  UNL     1     -16.471  45.289 -26.946  1.00  0.00    -0.002 C 
HETATM    2  C10 UNL     1     -16.286  44.549 -28.290  1.00  0.00     0.006 C 
HETATM    3  C11 UNL     1     -14.790  44.676 -28.638  1.00  0.00     0.006 C 
HETATM    4  C12 UNL     1     -14.208  45.564 -27.537  1.00  0.00     0.002 C 
HETATM    5  C13 UNL     1     -12.698  45.483 -27.268  1.00  0.00     0.022 C 
HETATM    6  C14 UNL     1     -11.877  45.974 -28.477  1.00  0.00     0.042 C 
HETATM    7  C15 UNL     1     -11.299  47.384 -28.340  1.00  0.00     0.130 C 
HETATM    8  C22 UNL     1     -10.648  47.704 -26.961  1.00  0.00     0.029 C 
HETATM    9  C23 UNL     1      -9.188  48.197 -27.013  1.00  0.00     0.039 C 
HETATM   10  C24 UNL     1      -8.734  48.766 -25.662  1.00  0.00     0.118 C 
HETATM   11  C25 UNL     1      -9.034  47.839 -24.483  1.00  0.00     0.033 C 
HETATM   12  C26 UNL     1     -10.476  47.308 -24.498  1.00  0.00     0.016 C 
HETATM   13  C27 UNL     1     -10.866  46.632 -25.850  1.00  0.00    -0.014 C 
HETATM   14  C28 UNL     1      -9.976  45.368 -25.983  1.00  0.00     0.020 C 
HETATM   15  C29 UNL     1     -12.346  46.227 -25.970  1.00  0.00    -0.070 C 
HETATM   16  C30 UNL     1     -13.304  46.567 -25.076  1.00  0.00    -0.022 C 
HETATM   17  C31 UNL     1     -14.782  46.271 -25.218  1.00  0.00     0.037 C 
HETATM   18  C32 UNL     1     -15.063  45.208 -26.292  1.00  0.00    -0.033 C 
HETATM   19  C33 UNL     1     -14.738  43.814 -25.706  1.00  0.00     0.016 C 
ENDROOT
BRANCH   7  20
HETATM   20  O2  UNL     1     -10.347  47.604 -29.392  1.00  0.00    -0.353 OA
BRANCH  20  21
HETATM   21  C16 UNL     1      -9.669  46.413 -29.816  1.00  0.00     0.292 C 
HETATM   22  O3  UNL     1      -8.362  46.311 -29.247  1.00  0.00    -0.348 OA
HETATM   23  C17 UNL     1      -7.355  46.979 -30.022  1.00  0.00     0.179 C 
HETATM   24  C19 UNL     1      -7.132  46.178 -31.325  1.00  0.00     0.180 C 
HETATM   25  C20 UNL     1      -8.468  45.628 -31.882  1.00  0.00     0.183 C 
HETATM   26  C21 UNL     1      -9.662  46.425 -31.367  1.00  0.00     0.204 C 
BRANCH  23  27
HETATM   27  C18 UNL     1      -6.091  47.166 -29.165  1.00  0.00     0.198 C 
BRANCH  27  28
HETATM   28  O4  UNL     1      -5.993  48.461 -28.576  1.00  0.00    -0.398 OA
HETATM   29  H28 UNL     1      -6.758  48.535 -27.969  1.00  0.00     0.209 HD
ENDBRANCH  27  28
ENDBRANCH  23  27
BRANCH  24  30
HETATM   30  O5  UNL     1      -6.239  45.068 -31.101  1.00  0.00    -0.390 OA
HETATM   31  H30 UNL     1      -6.700  44.449 -30.500  1.00  0.00     0.210 HD
ENDBRANCH  24  30
BRANCH  25  32
HETATM   32  O6  UNL     1      -8.453  45.667 -33.316  1.00  0.00    -0.390 OA
HETATM   33  H32 UNL     1      -8.604  46.602 -33.558  1.00  0.00     0.210 HD
ENDBRANCH  25  32
BRANCH  26  34
HETATM   34  O7  UNL     1      -9.555  47.773 -31.886  1.00  0.00    -0.388 OA
HETATM   35  H34 UNL     1     -10.010  48.331 -31.220  1.00  0.00     0.210 HD
ENDBRANCH  26  34
ENDBRANCH  20  21
ENDBRANCH   7  20
BRANCH  10  36
HETATM   36  O8  UNL     1      -9.404  50.006 -25.431  1.00  0.00    -0.396 OA
HETATM   37  H39 UNL     1      -9.112  50.629 -26.121  1.00  0.00     0.210 HD
ENDBRANCH  10  36
BRANCH   1  38
HETATM   38  C7  UNL     1     -17.738  44.926 -26.130  1.00  0.00    -0.007 C 
HETATM   39  C8  UNL     1     -18.956  44.462 -26.942  1.00  0.00     0.011 C 
BRANCH  38  40
HETATM   40  C6  UNL     1     -18.157  46.156 -25.285  1.00  0.00     0.087 C 
BRANCH  40  41
HETATM   41  C5  UNL     1     -19.550  46.030 -24.684  1.00  0.00     0.149 C 
HETATM   42  O1  UNL     1     -20.498  46.689 -25.101  1.00  0.00    -0.293 OA
BRANCH  41  43
HETATM   43  C4  UNL     1     -19.700  45.024 -23.582  1.00  0.00     0.052 C 
HETATM   44  C2  UNL     1     -19.268  45.171 -22.314  1.00  0.00    -0.084 C 
HETATM   45  C1  UNL     1     -18.570  46.397 -21.792  1.00  0.00     0.043 C 
HETATM   46  C3  UNL     1     -19.468  44.074 -21.305  1.00  0.00     0.043 C 
ENDBRANCH  41  43
ENDBRANCH  40  41
ENDBRANCH  38  40
ENDBRANCH   1  38
TORSDOF 12
ENDMDL
