MODEL 1
REMARK minimizedAffinity -8.81799507
REMARK CNNscore 0.622351706
REMARK CNNaffinity 7.00110769
REMARK  15 active torsions:
REMARK  status: ('A' for Active; 'I' for Inactive)
REMARK    1  A    between atoms: C19_20  and  O2_21 
REMARK    2  A    between atoms: C19_20  and  C20_22 
REMARK    3  A    between atoms: C20_22  and  C21_24 
REMARK    4  A    between atoms: C21_24  and  O4_25 
REMARK    5  A    between atoms: O4_25  and  C22_26 
REMARK    6  A    between atoms: C22_26  and  C23_28 
REMARK    7  A    between atoms: C23_28  and  C24_29 
REMARK    8  A    between atoms: C24_29  and  C25_30 
REMARK       I    between atoms: C25_30  and  N1_32 
REMARK    9  A    between atoms: N1_32  and  C26_33 
REMARK   10  A    between atoms: C26_33  and  C27_34 
REMARK       I    between atoms: C27_34  and  N2_36 
REMARK   11  A    between atoms: N2_36  and  C28_37 
REMARK   12  A    between atoms: C28_37  and  C29_38 
REMARK   13  A    between atoms: C28_37  and  C38_48 
REMARK   14  A    between atoms: C29_38  and  C30_39 
REMARK   15  A    between atoms: C38_48  and  O9_50 
ROOT
HETATM    1  C22 UNL     1      -8.157  46.888 -18.976  1.00  0.00     0.259 C 
HETATM    2  O5  UNL     1      -8.015  45.690 -19.192  1.00  0.00    -0.265 OA
ENDROOT
BRANCH   1   3
HETATM    3  O4  UNL     1      -8.184  47.864 -19.925  1.00  0.00    -0.314 OA
BRANCH   3   4
HETATM    4  C21 UNL     1      -7.012  48.681 -20.024  1.00  0.00     0.260 C 
BRANCH   4   5
HETATM    5  C20 UNL     1      -6.152  48.227 -21.206  1.00  0.00     0.185 C 
HETATM    6  O3  UNL     1      -6.417  47.204 -21.847  1.00  0.00    -0.292 OA
BRANCH   5   7
HETATM    7  C19 UNL     1      -4.948  49.135 -21.578  1.00  0.00     0.128 C 
HETATM    8  C14 UNL     1      -5.225  50.131 -22.764  1.00  0.00    -0.002 C 
HETATM    9  C13 UNL     1      -4.576  51.532 -22.558  1.00  0.00     0.013 C 
HETATM   10  C15 UNL     1      -6.732  50.406 -22.986  1.00  0.00     0.019 C 
HETATM   11  C16 UNL     1      -4.661  49.420 -24.043  1.00  0.00     0.002 C 
HETATM   12  C12 UNL     1      -3.063  51.602 -22.755  1.00  0.00     0.007 C 
HETATM   13  C11 UNL     1      -2.551  50.873 -24.016  1.00  0.00     0.002 C 
HETATM   14  C2  UNL     1      -1.521  51.678 -24.884  1.00  0.00    -0.016 C 
HETATM   15  C10 UNL     1      -3.731  50.344 -24.870  1.00  0.00    -0.004 C 
HETATM   16  C1  UNL     1      -2.197  52.886 -25.578  1.00  0.00     0.020 C 
HETATM   17  C3  UNL     1      -0.336  52.176 -24.011  1.00  0.00     0.022 C 
HETATM   18  C7  UNL     1      -0.953  50.734 -25.950  1.00  0.00    -0.068 C 
HETATM   19  C4  UNL     1       0.791  52.808 -24.825  1.00  0.00     0.084 C 
HETATM   20  C5  UNL     1       1.203  51.947 -25.994  1.00  0.00     0.149 C 
HETATM   21  O1  UNL     1       2.275  52.106 -26.571  1.00  0.00    -0.293 OA
HETATM   22  C6  UNL     1       0.282  50.882 -26.461  1.00  0.00     0.053 C 
HETATM   23  C8  UNL     1      -1.778  49.533 -26.352  1.00  0.00     0.035 C 
HETATM   24  C9  UNL     1      -3.285  49.729 -26.212  1.00  0.00     0.010 C 
HETATM   25  C17 UNL     1      -3.995  48.121 -23.562  1.00  0.00     0.009 C 
HETATM   26  C18 UNL     1      -3.769  48.286 -22.070  1.00  0.00     0.047 C 
BRANCH   7  27
HETATM   27  O2  UNL     1      -4.539  49.823 -20.396  1.00  0.00    -0.381 OA
HETATM   28  H27 UNL     1      -3.995  49.217 -19.855  1.00  0.00     0.211 HD
ENDBRANCH   7  27
ENDBRANCH   5   7
ENDBRANCH   4   5
ENDBRANCH   3   4
ENDBRANCH   1   3
BRANCH   1  29
HETATM   29  C23 UNL     1      -8.301  47.511 -17.613  1.00  0.00     0.120 C 
BRANCH  29  30
HETATM   30  C24 UNL     1      -9.528  48.414 -17.553  1.00  0.00     0.112 C 
BRANCH  30  31
HETATM   31  C25 UNL     1     -10.803  47.607 -17.468  1.00  0.00     0.218 C 
HETATM   32  O6  UNL     1     -11.326  47.258 -16.417  1.00  0.00    -0.274 OA
HETATM   33  N1  UNL     1     -11.308  47.258 -18.697  1.00  0.00    -0.352 N 
HETATM   34  H34 UNL     1     -10.755  47.418 -19.533  1.00  0.00     0.162 HD
BRANCH  33  35
HETATM   35  C26 UNL     1     -12.544  46.501 -18.839  1.00  0.00     0.225 C 
BRANCH  35  36
HETATM   36  C27 UNL     1     -13.395  46.942 -20.035  1.00  0.00     0.236 C 
HETATM   37  O7  UNL     1     -13.727  48.114 -20.192  1.00  0.00    -0.272 OA
HETATM   38  N2  UNL     1     -13.841  45.924 -20.844  1.00  0.00    -0.345 N 
HETATM   39  H37 UNL     1     -13.822  44.980 -20.453  1.00  0.00     0.163 HD
BRANCH  38  40
HETATM   40  C28 UNL     1     -14.826  46.154 -21.916  1.00  0.00     0.186 C 
BRANCH  40  41
HETATM   41  C29 UNL     1     -16.101  46.816 -21.369  1.00  0.00     0.077 C 
BRANCH  41  42
HETATM   42  C30 UNL     1     -17.336  45.992 -21.576  1.00  0.00    -0.028 A 
HETATM   43  C31 UNL     1     -17.875  45.082 -20.690  1.00  0.00     0.096 A 
HETATM   44  N3  UNL     1     -19.015  44.561 -21.241  1.00  0.00    -0.365 N 
HETATM   45  C32 UNL     1     -19.230  45.103 -22.486  1.00  0.00     0.042 A 
HETATM   46  H42 UNL     1     -19.620  43.886 -20.796  1.00  0.00     0.165 HD
HETATM   47  C33 UNL     1     -20.266  44.879 -23.401  1.00  0.00     0.030 A 
HETATM   48  C37 UNL     1     -18.186  45.998 -22.730  1.00  0.00    -0.002 A 
HETATM   49  C34 UNL     1     -20.227  45.582 -24.607  1.00  0.00     0.002 A 
HETATM   50  C35 UNL     1     -19.194  46.475 -24.886  1.00  0.00     0.001 A 
HETATM   51  C36 UNL     1     -18.171  46.693 -23.956  1.00  0.00     0.014 A 
ENDBRANCH  41  42
ENDBRANCH  40  41
BRANCH  40  52
HETATM   52  C38 UNL     1     -14.195  47.036 -23.006  1.00  0.00     0.163 C 
HETATM   53  O8  UNL     1     -13.030  47.065 -23.362  1.00  0.00    -0.648 OA
BRANCH  52  54
HETATM   54  O9  UNL     1     -15.083  47.879 -23.584  1.00  0.00    -0.775 OA
HETATM   55  H47 UNL     1     -14.534  48.422 -24.193  1.00  0.00     0.167 HD
ENDBRANCH  52  54
ENDBRANCH  40  52
ENDBRANCH  38  40
ENDBRANCH  35  36
ENDBRANCH  33  35
ENDBRANCH  30  31
ENDBRANCH  29  30
ENDBRANCH   1  29
TORSDOF 15
ENDMDL
