MODEL 1
REMARK minimizedAffinity -8.74141026
REMARK  8 active torsions:
REMARK  status: ('A' for Active; 'I' for Inactive)
REMARK    1  A    between atoms: C2_2  and  C4_4 
REMARK    2  A    between atoms: C2_2  and  N1_12 
REMARK    3  A    between atoms: C4_4  and  C5_5 
REMARK    4  A    between atoms: C5_5  and  C6_6 
REMARK    5  A    between atoms: N1_12  and  C12_13 
REMARK    6  A    between atoms: C12_13  and  C13_14 
REMARK    7  A    between atoms: C13_14  and  O1_15 
REMARK    8  A    between atoms: C13_14  and  C14_16 
ROOT
HETATM    1  C13 UNL     1      -7.736   4.072  13.389  1.00  0.00     0.179 C 
ENDROOT
BRANCH   1   2
HETATM    2  C12 UNL     1      -8.150   5.521  13.013  1.00  0.00     0.306 C 
BRANCH   2   3
HETATM    3  N1  UNL     1      -7.353   6.510  13.755  1.00  0.00     0.095 N 
HETATM    4  H16 UNL     1      -6.418   6.128  13.919  1.00  0.00     0.317 HD
BRANCH   3   5
HETATM    5  C2  UNL     1      -7.932   7.009  15.014  1.00  0.00     0.151 C 
HETATM    6  C1  UNL     1      -7.389   6.262  16.245  1.00  0.00     0.048 C 
HETATM    7  C3  UNL     1      -7.639   8.518  15.174  1.00  0.00     0.048 C 
BRANCH   5   8
HETATM    8  C4  UNL     1      -9.476   6.846  14.925  1.00  0.00     0.045 C 
BRANCH   8   9
HETATM    9  C5  UNL     1     -10.244   8.104  14.488  1.00  0.00     0.041 C 
BRANCH   9  10
HETATM   10  C6  UNL     1     -11.648   7.756  14.049  1.00  0.00    -0.058 A 
HETATM   11  C7  UNL     1     -12.372   8.627  13.223  1.00  0.00     0.007 A 
HETATM   12  C8  UNL     1     -13.658   8.293  12.798  1.00  0.00     0.001 A 
HETATM   13  C9  UNL     1     -14.228   7.082  13.186  1.00  0.00     0.000 A 
HETATM   14  C10 UNL     1     -13.514   6.207  14.002  1.00  0.00     0.001 A 
HETATM   15  C11 UNL     1     -12.230   6.542  14.434  1.00  0.00     0.007 A 
ENDBRANCH   9  10
ENDBRANCH   8   9
ENDBRANCH   5   8
ENDBRANCH   3   5
ENDBRANCH   2   3
ENDBRANCH   1   2
BRANCH   1  16
HETATM   16  O1  UNL     1      -8.797   3.175  13.022  1.00  0.00    -0.389 OA
HETATM   17  H20 UNL     1      -9.050   3.393  12.110  1.00  0.00     0.210 HD
ENDBRANCH   1  16
BRANCH   1  18
HETATM   18  C14 UNL     1      -6.453   3.547  12.770  1.00  0.00    -0.027 A 
HETATM   19  C15 UNL     1      -6.508   2.339  12.046  1.00  0.00     0.012 A 
HETATM   20  C16 UNL     1      -5.362   1.789  11.467  1.00  0.00     0.031 A 
HETATM   21  C17 UNL     1      -4.144   2.452  11.590  1.00  0.00     0.041 A 
HETATM   22  C18 UNL     1      -4.056   3.645  12.311  1.00  0.00    -0.030 A 
HETATM   23  N2  UNL     1      -2.996   1.909  11.004  1.00  0.00    -0.327 N 
HETATM   24  C19 UNL     1      -5.208   4.181  12.905  1.00  0.00     0.019 A 
HETATM   25  C20 UNL     1      -2.707   4.269  12.528  1.00  0.00     0.050 C 
HETATM   26  C21 UNL     1      -1.785   4.012  11.347  1.00  0.00     0.108 C 
HETATM   27  C22 UNL     1      -1.799   2.564  10.913  1.00  0.00     0.222 C 
HETATM   28  O2  UNL     1      -0.818   2.022  10.412  1.00  0.00    -0.273 OA
HETATM   29  H28 UNL     1      -3.026   0.987  10.590  1.00  0.00     0.169 HD
ENDBRANCH   1  18
TORSDOF 8
ENDMDL
