MODEL 1
REMARK minimizedAffinity -6.09095669
REMARK CNNscore 0.809391201
REMARK CNNaffinity 6.08603907
REMARK  10 active torsions:
REMARK  status: ('A' for Active; 'I' for Inactive)
REMARK    1  A    between atoms: C2_2  and  O1_3 
REMARK    2  A    between atoms: O1_3  and  C3_4 
REMARK    3  A    between atoms: C3_4  and  C4_6 
REMARK    4  A    between atoms: C4_6  and  C5_7 
REMARK    5  A    between atoms: C5_7  and  C6_8 
REMARK    6  A    between atoms: C6_8  and  C8_10 
REMARK    7  A    between atoms: C13_15  and  O3_16 
REMARK    8  A    between atoms: C17_21  and  O4_22 
REMARK    9  A    between atoms: C24_29  and  O5_30 
REMARK   10  A    between atoms: O5_30  and  C25_31 
ROOT
HETATM    1  C8  UNL     1      14.185  -5.444   6.503  1.00  0.00     0.000 C 
HETATM    2  C9  UNL     1      13.772  -6.905   6.139  1.00  0.00     0.006 C 
HETATM    3  C10 UNL     1      13.938  -7.078   4.631  1.00  0.00     0.006 C 
HETATM    4  C11 UNL     1      14.750  -5.863   4.221  1.00  0.00     0.003 C 
HETATM    5  C12 UNL     1      14.905  -5.565   2.712  1.00  0.00     0.025 C 
HETATM    6  C13 UNL     1      13.631  -5.753   1.852  1.00  0.00     0.137 C 
HETATM    7  C14 UNL     1      13.500  -4.844   0.622  1.00  0.00     0.092 C 
HETATM    8 BR1  UNL     1      12.542  -5.717  -0.862  1.00  0.00    -0.088 Br
HETATM    9  C15 UNL     1      14.785  -4.162   0.145  1.00  0.00     0.013 C 
HETATM   10  C16 UNL     1      15.791  -5.135  -0.523  1.00  0.00     0.038 C 
HETATM   11  C17 UNL     1      17.184  -4.535  -0.756  1.00  0.00     0.118 C 
HETATM   12  C18 UNL     1      17.185  -3.023  -0.597  1.00  0.00     0.032 C 
HETATM   13  C19 UNL     1      16.705  -2.596   0.797  1.00  0.00     0.012 C 
HETATM   14  C20 UNL     1      15.420  -3.339   1.311  1.00  0.00    -0.035 C 
HETATM   15  C21 UNL     1      14.450  -2.227   1.780  1.00  0.00     0.016 C 
HETATM   16  C22 UNL     1      15.786  -4.300   2.498  1.00  0.00     0.003 C 
HETATM   17  C23 UNL     1      16.213  -3.616   3.819  1.00  0.00     0.039 C 
HETATM   18  C24 UNL     1      15.168  -3.473   4.953  1.00  0.00     0.141 C 
HETATM   19  C27 UNL     1      14.213  -4.706   5.110  1.00  0.00    -0.009 C 
HETATM   20  C28 UNL     1      12.779  -4.268   4.728  1.00  0.00     0.018 C 
ENDROOT
BRANCH   1  21
HETATM   21  C6  UNL     1      13.283  -4.906   7.662  1.00  0.00    -0.013 C 
HETATM   22  C7  UNL     1      11.932  -5.647   7.667  1.00  0.00     0.010 C 
BRANCH  21  23
HETATM   23  C5  UNL     1      13.934  -5.007   9.059  1.00  0.00     0.014 C 
BRANCH  23  24
HETATM   24  C4  UNL     1      15.338  -4.408   9.170  1.00  0.00     0.111 C 
BRANCH  24  25
HETATM   25  C3  UNL     1      16.286  -5.337   9.888  1.00  0.00     0.258 C 
HETATM   26  O2  UNL     1      16.406  -6.528   9.641  1.00  0.00    -0.265 OA
BRANCH  25  27
HETATM   27  O1  UNL     1      17.012  -4.646  10.812  1.00  0.00    -0.322 OA
BRANCH  27  28
HETATM   28  C2  UNL     1      18.359  -5.103  10.966  1.00  0.00     0.174 C 
HETATM   29  C1  UNL     1      18.807  -4.784  12.379  1.00  0.00     0.034 C 
ENDBRANCH  27  28
ENDBRANCH  25  27
ENDBRANCH  24  25
ENDBRANCH  23  24
ENDBRANCH  21  23
ENDBRANCH   1  21
BRANCH  18  30
HETATM   30  O5  UNL     1      15.919  -3.259   6.171  1.00  0.00    -0.316 OA
BRANCH  30  31
HETATM   31  C25 UNL     1      16.710  -2.151   6.212  1.00  0.00     0.255 C 
HETATM   32  C26 UNL     1      18.098  -2.523   6.642  1.00  0.00     0.126 C 
HETATM   33  O6  UNL     1      16.356  -1.010   5.948  1.00  0.00    -0.266 OA
ENDBRANCH  30  31
ENDBRANCH  18  30
BRANCH   6  34
HETATM   34  O3  UNL     1      13.566  -7.156   1.529  1.00  0.00    -0.394 OA
HETATM   35  H22 UNL     1      13.216  -7.244   0.626  1.00  0.00     0.210 HD
ENDBRANCH   6  34
BRANCH  11  36
HETATM   36  O4  UNL     1      18.090  -5.126   0.170  1.00  0.00    -0.396 OA
HETATM   37  H28 UNL     1      18.934  -4.635   0.129  1.00  0.00     0.210 HD
ENDBRANCH  11  36
TORSDOF 10
ENDMDL
