MODEL 1
REMARK minimizedAffinity -7.04703617
REMARK CNNscore 0.720461845
REMARK CNNaffinity 6.69891214
REMARK  7 active torsions:
REMARK  status: ('A' for Active; 'I' for Inactive)
REMARK    1  A    between atoms: C2_2  and  C4_4 
REMARK    2  A    between atoms: C7_7  and  O1_9 
REMARK    3  A    between atoms: C9_10  and  C10_11 
REMARK    4  A    between atoms: C11_12  and  C12_13 
REMARK    5  A    between atoms: C14_15  and  C15_16 
REMARK    6  A    between atoms: C24_26  and  C26_28 
REMARK    7  A    between atoms: C29_32  and  O4_34 
ROOT
HETATM    1  C15 UNL     1     -16.199   0.222  28.391  1.00  0.00     0.149 C 
HETATM    2  C16 UNL     1     -15.884   0.497  26.921  1.00  0.00     0.054 C 
HETATM    3  C17 UNL     1     -15.254   1.905  26.907  1.00  0.00     0.050 C 
HETATM    4  C18 UNL     1     -14.482   1.796  28.248  1.00  0.00     0.272 C 
HETATM    5  O2  UNL     1     -13.261   1.067  28.163  1.00  0.00    -0.360 OA
HETATM    6  C19 UNL     1     -12.142   1.856  27.813  1.00  0.00     0.171 C 
HETATM    7  C20 UNL     1     -11.906   1.834  26.313  1.00  0.00     0.027 C 
HETATM    8  C21 UNL     1     -13.083   1.323  25.486  1.00  0.00     0.012 C 
HETATM    9  C22 UNL     1     -14.402   2.121  25.596  1.00  0.00     0.032 C 
HETATM   10  C23 UNL     1     -14.194   3.604  25.220  1.00  0.00    -0.066 C 
HETATM   11  C24 UNL     1     -13.960   4.058  23.962  1.00  0.00    -0.021 C 
HETATM   12  C25 UNL     1     -13.741   5.501  23.603  1.00  0.00     0.052 C 
HETATM   13  C27 UNL     1     -14.323   4.550  26.388  1.00  0.00     0.038 C 
HETATM   14  C28 UNL     1     -15.688   4.446  27.063  1.00  0.00     0.042 C 
HETATM   15  C29 UNL     1     -16.353   3.050  26.975  1.00  0.00     0.067 C 
HETATM   16  C30 UNL     1     -17.344   3.022  25.788  1.00  0.00     0.047 C 
HETATM   17  O5  UNL     1     -15.312   1.048  29.150  1.00  0.00    -0.351 OA
ENDROOT
BRANCH   1  18
HETATM   18  C14 UNL     1     -16.054  -1.234  28.761  1.00  0.00     0.011 C 
HETATM   19  C12 UNL     1     -16.586  -1.894  29.814  1.00  0.00    -0.064 C 
HETATM   20  C13 UNL     1     -17.529  -1.251  30.799  1.00  0.00     0.048 C 
BRANCH  19  21
HETATM   21  C11 UNL     1     -16.260  -3.312  29.990  1.00  0.00     0.003 C 
HETATM   22  C10 UNL     1     -15.288  -3.986  29.354  1.00  0.00    -0.018 C 
BRANCH  22  23
HETATM   23  C9  UNL     1     -14.904  -5.457  29.479  1.00  0.00     0.050 C 
HETATM   24  C4  UNL     1     -13.548  -5.882  28.840  1.00  0.00     0.024 C 
HETATM   25  C5  UNL     1     -13.941  -6.197  27.388  1.00  0.00     0.013 C 
HETATM   26  C6  UNL     1     -15.360  -6.763  27.429  1.00  0.00     0.039 C 
HETATM   27  C7  UNL     1     -15.929  -6.432  28.820  1.00  0.00     0.062 C 
HETATM   28  C8  UNL     1     -17.375  -5.940  28.743  1.00  0.00     0.046 C 
BRANCH  24  29
HETATM   29  C2  UNL     1     -12.830  -6.995  29.610  1.00  0.00    -0.088 C 
HETATM   30  C1  UNL     1     -12.701  -8.268  29.200  1.00  0.00     0.014 C 
HETATM   31  C3  UNL     1     -12.202  -6.563  30.913  1.00  0.00     0.043 C 
ENDBRANCH  24  29
BRANCH  27  32
HETATM   32  O1  UNL     1     -15.964  -7.637  29.603  1.00  0.00    -0.390 OA
HETATM   33  H14 UNL     1     -16.518  -8.284  29.135  1.00  0.00     0.210 HD
ENDBRANCH  27  32
ENDBRANCH  22  23
ENDBRANCH  19  21
ENDBRANCH   1  18
BRANCH  15  34
HETATM   34  O4  UNL     1     -17.175   2.922  28.140  1.00  0.00    -0.389 OA
HETATM   35  H44 UNL     1     -17.814   3.655  28.157  1.00  0.00     0.210 HD
ENDBRANCH  15  34
BRANCH  11  36
HETATM   36  C26 UNL     1     -13.895   3.149  22.777  1.00  0.00     0.265 C 
HETATM   37  O3  UNL     1     -14.382   3.413  21.685  1.00  0.00    -0.302 OA
ENDBRANCH  11  36
TORSDOF 7
ENDMDL
