MODEL 1
REMARK minimizedAffinity -8.95636272
REMARK CNNscore 0.432238162
REMARK CNNaffinity 6.72878599
REMARK  9 active torsions:
REMARK  status: ('A' for Active; 'I' for Inactive)
REMARK    1  A    between atoms: C3_3  and  O1_4 
REMARK    2  A    between atoms: N1_14  and  O2_16 
REMARK    3  A    between atoms: O2_16  and  C13_17 
REMARK    4  A    between atoms: C13_17  and  C14_18 
REMARK       I    between atoms: C14_18  and  N2_20 
REMARK    5  A    between atoms: N2_20  and  C15_21 
REMARK    6  A    between atoms: C15_21  and  C16_22 
REMARK    7  A    between atoms: C15_21  and  C18_26 
REMARK    8  A    between atoms: C16_22  and  C17_23 
REMARK    9  A    between atoms: C17_23  and  O5_25 
ROOT
HETATM    1  C1  UNL     1      -3.388  48.449 -27.319  1.00  0.00     0.015 C 
HETATM    2  C2  UNL     1      -3.243  49.352 -26.539  1.00  0.00    -0.078 C 
HETATM    3  C3  UNL     1      -3.073  50.460 -25.585  1.00  0.00     0.128 C 
HETATM    4  C4  UNL     1      -1.611  50.888 -25.451  1.00  0.00     0.052 C 
HETATM    5  C5  UNL     1      -1.495  51.528 -24.063  1.00  0.00     0.010 C 
HETATM    6  C6  UNL     1      -2.838  51.289 -23.336  1.00  0.00     0.002 C 
HETATM    7  C7  UNL     1      -2.645  51.083 -21.814  1.00  0.00    -0.004 C 
HETATM    8  C8  UNL     1      -3.926  51.469 -21.033  1.00  0.00     0.010 C 
HETATM    9  C9  UNL     1      -4.166  50.669 -19.757  1.00  0.00     0.035 C 
HETATM   10  C10 UNL     1      -2.859  50.373 -19.085  1.00  0.00    -0.069 C 
HETATM   11  C11 UNL     1      -2.573  50.887 -17.876  1.00  0.00     0.030 C 
HETATM   12  C12 UNL     1      -1.262  50.645 -17.222  1.00  0.00     0.032 C 
HETATM   13  N1  UNL     1      -1.156  50.932 -15.955  1.00  0.00    -0.271 N 
ATOM     14  H1  UNL     1      -1.911  51.323 -15.391  1.00  0.00     0.194 HD
HETATM   15  C25 UNL     1      -0.138  50.041 -18.047  1.00  0.00     0.060 C 
HETATM   16  C26 UNL     1      -0.446  50.020 -19.543  1.00  0.00     0.020 C 
HETATM   17  C27 UNL     1      -1.880  49.518 -19.883  1.00  0.00    -0.016 C 
HETATM   18  C28 UNL     1      -2.023  48.049 -19.427  1.00  0.00     0.020 C 
HETATM   19  C29 UNL     1      -2.099  49.677 -21.446  1.00  0.00     0.002 C 
HETATM   20  C30 UNL     1      -2.946  48.584 -22.124  1.00  0.00     0.007 C 
HETATM   21  C31 UNL     1      -2.956  48.752 -23.644  1.00  0.00     0.014 C 
HETATM   22  C32 UNL     1      -3.502  50.121 -24.121  1.00  0.00     0.003 C 
HETATM   23  C33 UNL     1      -5.038  50.123 -23.990  1.00  0.00     0.020 C 
ENDROOT
BRANCH   3  24
HETATM   24  O1  UNL     1      -3.808  51.593 -26.059  1.00  0.00    -0.377 OA
HETATM   25  H2  UNL     1      -3.796  51.555 -27.030  1.00  0.00     0.211 HD
ENDBRANCH   3  24
BRANCH  13  26
HETATM   26  O2  UNL     1       0.124  50.638 -15.463  1.00  0.00    -0.271 OA
BRANCH  26  27
HETATM   27  C13 UNL     1       0.622  51.773 -14.769  1.00  0.00     0.303 C 
BRANCH  27  28
HETATM   28  C14 UNL     1       0.768  51.453 -13.288  1.00  0.00     0.244 C 
HETATM   29  O3  UNL     1      -0.194  51.367 -12.530  1.00  0.00    -0.271 OA
HETATM   30  N2  UNL     1       2.079  51.347 -12.864  1.00  0.00    -0.354 N 
HETATM   31  H16 UNL     1       2.798  51.453 -13.573  1.00  0.00     0.162 HD
BRANCH  30  32
HETATM   32  C15 UNL     1       2.450  51.207 -11.457  1.00  0.00     0.098 C 
BRANCH  32  33
HETATM   33  C16 UNL     1       3.161  49.870 -11.219  1.00  0.00     0.135 C 
BRANCH  33  34
HETATM   34  C17 UNL     1       4.213  49.614 -12.258  1.00  0.00     0.141 C 
HETATM   35  O4  UNL     1       5.413  49.784 -12.123  1.00  0.00    -0.650 OA
BRANCH  34  36
HETATM   36  O5  UNL     1       3.710  49.124 -13.407  1.00  0.00    -0.776 OA
HETATM   37  H20 UNL     1       4.493  49.030 -13.993  1.00  0.00     0.167 HD
ENDBRANCH  34  36
ENDBRANCH  33  34
ENDBRANCH  32  33
BRANCH  32  38
HETATM   38  C18 UNL     1       3.312  52.403 -10.955  1.00  0.00     0.014 C 
HETATM   39  C19 UNL     1       4.179  52.033  -9.743  1.00  0.00     0.033 C 
HETATM   40  C20 UNL     1       5.009  53.220  -9.278  1.00  0.00     0.169 C 
HETATM   41  O6  UNL     1       4.175  54.336  -8.972  1.00  0.00    -0.381 OA
HETATM   42  C21 UNL     1       3.364  54.807 -10.058  1.00  0.00     0.054 C 
HETATM   43  C22 UNL     1       2.448  55.886  -9.459  1.00  0.00     0.045 C 
HETATM   44  C23 UNL     1       4.233  55.464 -11.141  1.00  0.00     0.045 C 
HETATM   45  C24 UNL     1       2.494  53.663 -10.622  1.00  0.00     0.044 C 
ENDBRANCH  32  38
ENDBRANCH  30  32
ENDBRANCH  27  28
ENDBRANCH  26  27
ENDBRANCH  13  26
TORSDOF 9
ENDMDL
