MODEL 1
REMARK minimizedAffinity -6.77496243
REMARK CNNscore 0.663827777
REMARK CNNaffinity 6.14945078
REMARK  6 active torsions:
REMARK  status: ('A' for Active; 'I' for Inactive)
REMARK    1  A    between atoms: C2_2  and  C3_3 
REMARK    2  A    between atoms: C5_5  and  C6_6 
REMARK    3  A    between atoms: C6_6  and  C7_7 
REMARK    4  A    between atoms: C8_8  and  C9_9 
REMARK       I    between atoms: C9_9  and  N1_11 
REMARK    5  A    between atoms: N1_11  and  C10_12 
REMARK    6  A    between atoms: C10_12  and  C12_14 
ROOT
HETATM    1  C7  UNL     1     -12.896 -10.647  26.949  1.00  0.00     0.036 C 
HETATM    2  C8  UNL     1     -13.683 -10.726  25.646  1.00  0.00     0.011 C 
HETATM    3  C18 UNL     1     -14.697  -9.906  25.315  1.00  0.00    -0.013 C 
HETATM    4  C19 UNL     1     -15.170  -8.795  26.191  1.00  0.00     0.034 C 
HETATM    5  C20 UNL     1     -14.154  -8.414  27.290  1.00  0.00     0.005 C 
HETATM    6  C21 UNL     1     -14.674  -7.240  28.214  1.00  0.00    -0.043 C 
HETATM    7  C22 UNL     1     -16.204  -7.226  28.433  1.00  0.00     0.015 C 
HETATM    8  C23 UNL     1     -14.326  -5.895  27.522  1.00  0.00     0.015 C 
HETATM    9  C24 UNL     1     -13.997  -7.265  29.603  1.00  0.00     0.009 C 
HETATM   10  C25 UNL     1     -12.575  -7.788  29.532  1.00  0.00     0.002 C 
HETATM   11  C26 UNL     1     -12.521  -9.247  29.084  1.00  0.00     0.010 C 
HETATM   12  C27 UNL     1     -13.589  -9.684  28.029  1.00  0.00    -0.031 C 
HETATM   13  C28 UNL     1     -14.730 -10.440  28.757  1.00  0.00     0.016 C 
ENDROOT
BRANCH   2  14
HETATM   14  C9  UNL     1     -13.218 -11.675  24.594  1.00  0.00     0.248 C 
HETATM   15  O1  UNL     1     -13.730 -12.780  24.468  1.00  0.00    -0.268 OA
HETATM   16  N1  UNL     1     -12.221 -11.170  23.800  1.00  0.00    -0.349 N 
HETATM   17  H11 UNL     1     -11.813 -10.280  24.049  1.00  0.00     0.163 HD
BRANCH  16  18
HETATM   18  C10 UNL     1     -11.494 -12.002  22.858  1.00  0.00     0.114 C 
HETATM   19  C11 UNL     1     -12.134 -11.900  21.474  1.00  0.00     0.037 C 
BRANCH  18  20
HETATM   20  C12 UNL     1     -10.020 -11.630  22.903  1.00  0.00    -0.036 A 
HETATM   21  C13 UNL     1      -9.184 -11.951  23.982  1.00  0.00     0.009 A 
HETATM   22  C14 UNL     1      -7.829 -11.611  23.960  1.00  0.00     0.001 A 
HETATM   23  C15 UNL     1      -7.286 -10.959  22.855  1.00  0.00     0.000 A 
HETATM   24  C16 UNL     1      -8.098 -10.647  21.769  1.00  0.00     0.001 A 
HETATM   25  C17 UNL     1      -9.452 -10.984  21.790  1.00  0.00     0.009 A 
ENDBRANCH  18  20
ENDBRANCH  16  18
ENDBRANCH   2  14
BRANCH   1  26
HETATM   26  C6  UNL     1     -12.563 -12.089  27.464  1.00  0.00     0.038 C 
BRANCH  26  27
HETATM   27  C5  UNL     1     -11.134 -12.526  27.273  1.00  0.00    -0.019 C 
HETATM   28  C3  UNL     1     -10.660 -13.713  26.836  1.00  0.00    -0.067 C 
HETATM   29  C4  UNL     1     -11.527 -14.872  26.419  1.00  0.00     0.048 C 
BRANCH  28  30
HETATM   30  C2  UNL     1      -9.210 -13.886  26.751  1.00  0.00    -0.004 C 
HETATM   31  C1  UNL     1      -8.471 -14.777  27.426  1.00  0.00     0.012 C 
ENDBRANCH  28  30
ENDBRANCH  26  27
ENDBRANCH   1  26
TORSDOF 6
ENDMDL
