MODEL 1
REMARK minimizedAffinity -9.45606899
REMARK CNNscore 0.496967435
REMARK CNNaffinity 8.05568218
REMARK  9 active torsions:
REMARK  status: ('A' for Active; 'I' for Inactive)
REMARK    1  A    between atoms: C2_2  and  O1_3 
REMARK    2  A    between atoms: O1_3  and  C3_4 
REMARK    3  A    between atoms: C3_4  and  C4_6 
REMARK    4  A    between atoms: C5_7  and  C6_8 
REMARK    5  A    between atoms: C12_16  and  C13_17 
REMARK    6  A    between atoms: C24_30  and  C25_31 
REMARK    7  A    between atoms: C25_31  and  O6_32 
REMARK    8  A    between atoms: C32_40  and  O8_42 
REMARK    9  A    between atoms: C35_44  and  O9_45 
ROOT
HETATM    1  C4  UNL     1       0.805   6.130  11.183  1.00  0.00     0.165 C 
HETATM    2  C5  UNL     1       0.721   7.439  11.506  1.00  0.00     0.053 C 
HETATM    3  C7  UNL     1      -0.159   7.766  12.641  1.00  0.00    -0.002 C 
HETATM    4  C8  UNL     1       0.190   8.564  13.687  1.00  0.00    -0.066 C 
HETATM    5  C9  UNL     1      -0.642   8.757  14.944  1.00  0.00     0.042 C 
HETATM    6  C10 UNL     1       0.140   8.659  16.252  1.00  0.00     0.083 C 
HETATM    7  C11 UNL     1       1.588   8.255  16.086  1.00  0.00     0.136 C 
HETATM    8  O4  UNL     1       2.125   7.541  16.938  1.00  0.00    -0.297 OA
HETATM    9  C12 UNL     1       2.383   8.826  14.916  1.00  0.00     0.092 C 
HETATM   10  C21 UNL     1       1.473   9.366  13.802  1.00  0.00     0.052 C 
HETATM   11  C22 UNL     1      -1.405   6.948  12.650  1.00  0.00     0.044 C 
HETATM   12  C23 UNL     1      -1.200   5.582  12.321  1.00  0.00     0.101 C 
HETATM   13  O5  UNL     1       0.059   5.167  11.900  1.00  0.00    -0.302 OA
HETATM   14  C24 UNL     1      -2.234   4.633  12.348  1.00  0.00     0.034 C 
HETATM   15  C26 UNL     1      -3.487   5.123  12.674  1.00  0.00     0.090 C 
HETATM   16  O7  UNL     1      -4.639   4.349  12.757  1.00  0.00    -0.341 OA
HETATM   17  C27 UNL     1      -5.476   5.206  13.561  1.00  0.00     0.175 C 
HETATM   18  C28 UNL     1      -5.203   6.640  13.085  1.00  0.00     0.079 C 
HETATM   19  C29 UNL     1      -5.831   7.607  14.036  1.00  0.00    -0.019 C 
HETATM   20  C30 UNL     1      -6.956   7.276  14.702  1.00  0.00    -0.027 C 
HETATM   21  C31 UNL     1      -7.636   5.917  14.603  1.00  0.00     0.067 C 
HETATM   22  C32 UNL     1      -6.993   4.939  13.564  1.00  0.00     0.085 C 
HETATM   23  C33 UNL     1      -7.309   3.486  13.909  1.00  0.00     0.049 C 
HETATM   24  C34 UNL     1      -3.733   6.484  12.928  1.00  0.00     0.021 C 
HETATM   25  C35 UNL     1      -2.710   7.413  12.860  1.00  0.00     0.091 C 
ENDROOT
BRANCH   2  26
HETATM   26  C6  UNL     1       1.373   8.519  10.719  1.00  0.00     0.273 C 
HETATM   27  O3  UNL     1       0.855   8.988   9.711  1.00  0.00    -0.301 OA
ENDBRANCH   2  26
BRANCH   1  28
HETATM   28  C3  UNL     1       1.611   5.553  10.073  1.00  0.00     0.318 C 
HETATM   29  O2  UNL     1       2.325   4.573  10.213  1.00  0.00    -0.257 OA
BRANCH  28  30
HETATM   30  O1  UNL     1       1.363   6.180   8.900  1.00  0.00    -0.316 OA
BRANCH  30  31
HETATM   31  C2  UNL     1       2.489   6.332   8.014  1.00  0.00     0.175 C 
HETATM   32  C1  UNL     1       2.026   6.993   6.728  1.00  0.00     0.034 C 
ENDBRANCH  30  31
ENDBRANCH  28  30
ENDBRANCH   1  28
BRANCH  25  33
HETATM   33  O9  UNL     1      -3.010   8.734  13.028  1.00  0.00    -0.354 OA
HETATM   34  C36 UNL     1      -3.320   9.018  14.394  1.00  0.00     0.210 C 
ENDBRANCH  25  33
BRANCH   9  35
HETATM   35  C13 UNL     1       3.404   9.883  15.323  1.00  0.00    -0.046 A 
HETATM   36  C14 UNL     1       3.024  11.056  15.997  1.00  0.00     0.010 A 
HETATM   37  C15 UNL     1       3.949  12.048  16.337  1.00  0.00     0.031 A 
HETATM   38  C16 UNL     1       5.281  11.840  15.967  1.00  0.00     0.042 A 
HETATM   39  N1  UNL     1       6.391  12.632  16.164  1.00  0.00    -0.365 N 
HETATM   40  C19 UNL     1       5.704  10.703  15.278  1.00  0.00    -0.008 A 
HETATM   41  C17 UNL     1       7.501  12.033  15.621  1.00  0.00     0.089 A 
HETATM   42  H14 UNL     1       6.392  13.520  16.647  1.00  0.00     0.165 HD
HETATM   43  C18 UNL     1       7.105  10.839  15.064  1.00  0.00     0.030 A 
HETATM   44  C20 UNL     1       4.754   9.713  14.954  1.00  0.00     0.021 A 
ENDBRANCH   9  35
BRANCH  14  45
HETATM   45  C25 UNL     1      -2.004   3.179  12.053  1.00  0.00     0.208 C 
BRANCH  45  46
HETATM   46  O6  UNL     1      -1.410   3.024  10.769  1.00  0.00    -0.396 OA
HETATM   47  H22 UNL     1      -1.944   3.530  10.134  1.00  0.00     0.209 HD
ENDBRANCH  45  46
ENDBRANCH  14  45
BRANCH  22  48
HETATM   48  O8  UNL     1      -7.582   5.172  12.274  1.00  0.00    -0.387 OA
HETATM   49  H32 UNL     1      -7.668   6.131  12.131  1.00  0.00     0.210 HD
ENDBRANCH  22  48
TORSDOF 9
ENDMDL
