MODEL 1
REMARK minimizedAffinity -10.4778357
REMARK  6 active torsions:
REMARK  status: ('A' for Active; 'I' for Inactive)
REMARK    1  A    between atoms: C3_3  and  O1_4 
REMARK    2  A    between atoms: N1_14  and  O2_16 
REMARK    3  A    between atoms: O2_16  and  C13_17 
REMARK    4  A    between atoms: C13_17  and  C14_18 
REMARK       I    between atoms: C14_18  and  N2_20 
REMARK    5  A    between atoms: N2_20  and  C15_21 
REMARK    6  A    between atoms: C15_21  and  C17_23 
ROOT
HETATM    1  C1  UNL     1       1.804  50.779 -26.278  1.00  0.00     0.015 C 
HETATM    2  C2  UNL     1       0.888  51.510 -26.019  1.00  0.00    -0.078 C 
HETATM    3  C3  UNL     1      -0.249  52.401 -25.695  1.00  0.00     0.128 C 
HETATM    4  C4  UNL     1       0.249  53.860 -25.511  1.00  0.00     0.052 C 
HETATM    5  C5  UNL     1       0.356  54.103 -23.991  1.00  0.00     0.010 C 
HETATM    6  C6  UNL     1       0.087  52.738 -23.359  1.00  0.00     0.002 C 
HETATM    7  C7  UNL     1      -0.355  52.678 -21.891  1.00  0.00    -0.004 C 
HETATM    8  C8  UNL     1       0.665  53.362 -20.973  1.00  0.00     0.010 C 
HETATM    9  C9  UNL     1       0.214  53.294 -19.520  1.00  0.00     0.035 C 
HETATM   10  C10 UNL     1      -0.034  51.876 -19.064  1.00  0.00    -0.069 C 
HETATM   11  C11 UNL     1       0.484  51.463 -17.893  1.00  0.00     0.030 C 
HETATM   12  C12 UNL     1       0.153  50.141 -17.305  1.00  0.00     0.032 C 
HETATM   13  N1  UNL     1       0.626  49.877 -16.117  1.00  0.00    -0.271 N 
ATOM     14  H1  UNL     1       1.227  50.509 -15.589  1.00  0.00     0.194 HD
HETATM   15  C23 UNL     1      -0.774  49.228 -18.077  1.00  0.00     0.060 C 
HETATM   16  C24 UNL     1      -0.713  49.507 -19.574  1.00  0.00     0.020 C 
HETATM   17  C25 UNL     1      -0.922  51.002 -19.955  1.00  0.00    -0.016 C 
HETATM   18  C26 UNL     1      -2.394  51.397 -19.696  1.00  0.00     0.020 C 
HETATM   19  C27 UNL     1      -0.528  51.183 -21.474  1.00  0.00     0.002 C 
HETATM   20  C28 UNL     1      -1.462  50.428 -22.458  1.00  0.00     0.007 C 
HETATM   21  C29 UNL     1      -1.072  50.602 -23.937  1.00  0.00     0.014 C 
HETATM   22  C30 UNL     1      -0.927  52.086 -24.326  1.00  0.00     0.003 C 
HETATM   23  C31 UNL     1      -2.337  52.746 -24.285  1.00  0.00     0.020 C 
ENDROOT
BRANCH   3  24
HETATM   24  O1  UNL     1      -1.179  52.337 -26.768  1.00  0.00    -0.377 OA
HETATM   25  H2  UNL     1      -0.666  52.439 -27.588  1.00  0.00     0.211 HD
ENDBRANCH   3  24
BRANCH  13  26
HETATM   26  O2  UNL     1       0.207  48.620 -15.653  1.00  0.00    -0.271 OA
BRANCH  26  27
HETATM   27  C13 UNL     1      -0.215  48.743 -14.297  1.00  0.00     0.303 C 
BRANCH  27  28
HETATM   28  C14 UNL     1      -1.600  49.364 -14.229  1.00  0.00     0.244 C 
HETATM   29  O3  UNL     1      -2.551  48.938 -14.876  1.00  0.00    -0.271 OA
HETATM   30  N2  UNL     1      -1.667  50.489 -13.431  1.00  0.00    -0.351 N 
HETATM   31  H16 UNL     1      -0.899  50.639 -12.784  1.00  0.00     0.163 HD
BRANCH  30  32
HETATM   32  C15 UNL     1      -2.913  51.201 -13.201  1.00  0.00     0.113 C 
HETATM   33  C16 UNL     1      -3.488  51.776 -14.500  1.00  0.00     0.037 C 
BRANCH  32  34
HETATM   34  C17 UNL     1      -2.709  52.300 -12.169  1.00  0.00    -0.036 A 
HETATM   35  C18 UNL     1      -3.796  52.997 -11.614  1.00  0.00     0.009 A 
HETATM   36  C19 UNL     1      -3.591  53.989 -10.652  1.00  0.00     0.001 A 
HETATM   37  C20 UNL     1      -2.300  54.294 -10.227  1.00  0.00     0.000 A 
HETATM   38  C21 UNL     1      -1.211  53.617 -10.773  1.00  0.00     0.001 A 
HETATM   39  C22 UNL     1      -1.414  52.631 -11.742  1.00  0.00     0.009 A 
ENDBRANCH  32  34
ENDBRANCH  30  32
ENDBRANCH  27  28
ENDBRANCH  26  27
ENDBRANCH  13  26
TORSDOF 6
ENDMDL
