MODEL 1
REMARK minimizedAffinity -6.83387375
REMARK CNNscore 0.773049414
REMARK CNNaffinity 7.47693682
REMARK  6 active torsions:
REMARK  status: ('A' for Active; 'I' for Inactive)
REMARK    1  A    between atoms: N1_2  and  C2_3 
REMARK    2  A    between atoms: C2_3  and  C3_4 
REMARK    3  A    between atoms: C5_6  and  O1_7 
REMARK    4  A    between atoms: C25_28  and  N2_29 
REMARK    5  A    between atoms: C26_30  and  C27_31 
REMARK    6  A    between atoms: C27_31  and  O3_32 
ROOT
HETATM    1  C3  UNL     1       2.208  55.742  -4.905  1.00  0.00    -0.021 A 
HETATM    2  C4  UNL     1       1.276  55.402  -3.904  1.00  0.00     0.045 A 
HETATM    3  C5  UNL     1      -0.078  55.628  -4.080  1.00  0.00     0.066 A 
HETATM    4  C6  UNL     1      -0.547  56.181  -5.259  1.00  0.00     0.045 A 
HETATM    5  C7  UNL     1       0.349  56.550  -6.286  1.00  0.00    -0.037 A 
HETATM    6  C8  UNL     1       1.755  56.360  -6.105  1.00  0.00    -0.042 A 
HETATM    7  C9  UNL     1       2.760  56.854  -7.139  1.00  0.00     0.044 C 
HETATM    8  C10 UNL     1       2.775  56.179  -8.520  1.00  0.00    -0.010 C 
HETATM    9  C11 UNL     1       3.901  56.749  -9.396  1.00  0.00     0.005 C 
HETATM   10  C12 UNL     1       3.977  56.060 -10.757  1.00  0.00     0.001 C 
HETATM   11  C13 UNL     1       2.778  55.150 -11.038  1.00  0.00     0.007 C 
HETATM   12  C14 UNL     1       2.630  54.054  -9.953  1.00  0.00     0.022 C 
HETATM   13  C15 UNL     1       2.849  54.638  -8.522  1.00  0.00     0.012 C 
HETATM   14  C16 UNL     1       1.375  53.099 -10.136  1.00  0.00     0.083 C 
HETATM   15  C17 UNL     1       1.006  52.927 -11.649  1.00  0.00     0.050 C 
HETATM   16  C18 UNL     1       0.056  51.714 -11.905  1.00  0.00    -0.029 C 
HETATM   17  C19 UNL     1       0.798  50.593 -12.683  1.00  0.00     0.010 C 
HETATM   18  C20 UNL     1       1.972  49.988 -11.936  1.00  0.00     0.004 C 
HETATM   19  C21 UNL     1       1.560  49.579 -10.533  1.00  0.00     0.038 C 
HETATM   20  C22 UNL     1       0.887  50.732  -9.754  1.00  0.00     0.065 C 
HETATM   21  C23 UNL     1       0.637  50.199  -8.334  1.00  0.00     0.046 C 
HETATM   22  O2  UNL     1       1.864  51.794  -9.678  1.00  0.00    -0.367 OA
HETATM   23  C24 UNL     1      -0.394  51.233 -10.502  1.00  0.00     0.069 C 
HETATM   24  C25 UNL     1      -1.083  52.462  -9.776  1.00  0.00     0.184 C 
HETATM   25  C26 UNL     1      -2.047  53.270 -10.749  1.00  0.00     0.049 C 
HETATM   26  C28 UNL     1      -2.415  52.440 -11.976  1.00  0.00     0.010 C 
HETATM   27  C29 UNL     1      -1.164  52.109 -12.782  1.00  0.00     0.011 C 
HETATM   28  C30 UNL     1       0.098  53.366  -9.264  1.00  0.00     0.139 C 
HETATM   29  C31 UNL     1      -0.269  54.770  -9.006  1.00  0.00    -0.096 C 
HETATM   30  C32 UNL     1      -0.414  55.846  -8.489  1.00  0.00    -0.101 C 
HETATM   31  C33 UNL     1      -0.285  57.012  -7.594  1.00  0.00     0.133 C 
ENDROOT
BRANCH   1  32
HETATM   32  C2  UNL     1       3.656  55.390  -4.611  1.00  0.00     0.308 C 
BRANCH  32  33
HETATM   33  N1  UNL     1       4.248  56.186  -3.532  1.00  0.00     0.083 N 
HETATM   34  C1  UNL     1       4.720  57.486  -3.988  1.00  0.00     0.307 C 
HETATM   35  H4  UNL     1       5.033  55.669  -3.142  1.00  0.00     0.315 HD
ENDBRANCH  32  33
ENDBRANCH   1  32
BRANCH   3  36
HETATM   36  O1  UNL     1      -0.925  55.266  -3.076  1.00  0.00    -0.361 OA
HETATM   37  H8  UNL     1      -1.822  55.547  -3.313  1.00  0.00     0.217 HD
ENDBRANCH   3  36
BRANCH  24  38
HETATM   38  N2  UNL     1      -1.850  51.904  -8.642  1.00  0.00     0.090 N 
HETATM   39  H34 UNL     1      -2.005  52.633  -7.943  1.00  0.00     0.313 HD
HETATM   40  H35 UNL     1      -2.799  51.670  -8.956  1.00  0.00     0.313 HD
ENDBRANCH  24  38
BRANCH  25  41
HETATM   41  C27 UNL     1      -3.314  53.861 -10.097  1.00  0.00     0.171 C 
BRANCH  41  42
HETATM   42  O3  UNL     1      -4.505  53.295 -10.639  1.00  0.00    -0.400 OA
HETATM   43  H39 UNL     1      -4.671  53.729 -11.494  1.00  0.00     0.209 HD
ENDBRANCH  41  42
ENDBRANCH  25  41
TORSDOF 6
ENDMDL
