MODEL 1
REMARK minimizedAffinity -11.0230417
REMARK CNNscore 0.689840913
REMARK CNNaffinity 8.06292439
REMARK  6 active torsions:
REMARK  status: ('A' for Active; 'I' for Inactive)
REMARK    1  A    between atoms: C4_4  and  C5_5 
REMARK    2  A    between atoms: C5_5  and  C6_6 
REMARK    3  A    between atoms: C6_6  and  C7_7 
REMARK    4  A    between atoms: C19_21  and  C20_22 
REMARK    5  A    between atoms: C26_28  and  C27_29 
REMARK    6  A    between atoms: C30_32  and  O2_33 
ROOT
HETATM    1  C7  UNL     1      -7.961   6.715  14.731  1.00  0.00     0.082 C 
HETATM    2  C8  UNL     1      -8.213   6.332  16.195  1.00  0.00     0.051 C 
HETATM    3  C9  UNL     1      -6.695   7.545  14.643  1.00  0.00     0.012 C 
HETATM    4  C10 UNL     1      -5.559   7.114  14.086  1.00  0.00     0.015 C 
HETATM    5  C11 UNL     1      -5.548   5.768  13.552  1.00  0.00     0.025 A 
HETATM    6  C12 UNL     1      -6.711   4.992  13.533  1.00  0.00     0.088 A 
HETATM    7  O1  UNL     1      -7.909   5.459  14.005  1.00  0.00    -0.335 OA
HETATM    8  C13 UNL     1      -6.708   3.693  13.004  1.00  0.00    -0.027 A 
HETATM    9  C14 UNL     1      -7.966   2.873  12.975  1.00  0.00     0.051 C 
HETATM   10  C15 UNL     1      -5.513   3.156  12.494  1.00  0.00     0.024 A 
HETATM   11  C16 UNL     1      -4.326   3.920  12.511  1.00  0.00     0.005 A 
HETATM   12  C17 UNL     1      -4.367   5.211  13.034  1.00  0.00     0.057 A 
HETATM   13  N1  UNL     1      -3.094   5.718  12.917  1.00  0.00    -0.354 N 
HETATM   14  C18 UNL     1      -2.224   4.805  12.359  1.00  0.00     0.053 A 
HETATM   15  C19 UNL     1      -0.835   4.914  12.086  1.00  0.00     0.011 A 
HETATM   16  C30 UNL     1      -0.267   3.787  11.454  1.00  0.00     0.074 A 
HETATM   17  C31 UNL     1      -0.996   2.632  11.170  1.00  0.00     0.038 A 
HETATM   18  C32 UNL     1      -2.352   2.559  11.488  1.00  0.00     0.017 A 
HETATM   19  C33 UNL     1      -2.982   3.667  12.084  1.00  0.00     0.004 A 
HETATM   20  H21 UNL     1      -2.828   6.644  13.215  1.00  0.00     0.166 HD
ENDROOT
BRANCH  15  21
HETATM   21  C20 UNL     1      -0.038   6.188  12.383  1.00  0.00     0.051 C 
HETATM   22  C21 UNL     1      -0.048   6.421  13.885  1.00  0.00    -0.014 C 
HETATM   23  C22 UNL     1      -0.340   7.590  14.475  1.00  0.00    -0.087 C 
HETATM   24  C23 UNL     1      -0.415   7.742  15.966  1.00  0.00     0.043 C 
HETATM   25  C24 UNL     1      -0.629   8.815  13.662  1.00  0.00     0.034 C 
HETATM   26  C25 UNL     1      -0.039   8.739  12.255  1.00  0.00     0.010 C 
HETATM   27  C26 UNL     1      -0.419   7.440  11.507  1.00  0.00     0.001 C 
BRANCH  27  28
HETATM   28  C27 UNL     1       0.238   7.417  10.080  1.00  0.00    -0.018 C 
HETATM   29  C28 UNL     1       1.774   7.432  10.141  1.00  0.00     0.010 C 
HETATM   30  C29 UNL     1      -0.204   8.583   9.189  1.00  0.00     0.010 C 
ENDBRANCH  27  28
ENDBRANCH  15  21
BRANCH  16  31
HETATM   31  O2  UNL     1       1.052   3.829  11.083  1.00  0.00    -0.360 OA
HETATM   32  H39 UNL     1       1.265   3.031  10.575  1.00  0.00     0.217 HD
ENDBRANCH  16  31
BRANCH   1  33
HETATM   33  C6  UNL     1      -9.176   7.457  14.110  1.00  0.00     0.046 C 
BRANCH  33  34
HETATM   34  C5  UNL     1     -10.181   6.663  13.264  1.00  0.00     0.030 C 
BRANCH  34  35
HETATM   35  C4  UNL     1     -11.428   7.393  12.859  1.00  0.00    -0.025 C 
HETATM   36  C2  UNL     1     -12.675   7.192  13.326  1.00  0.00    -0.091 C 
HETATM   37  C1  UNL     1     -13.826   8.034  12.843  1.00  0.00     0.042 C 
HETATM   38  C3  UNL     1     -13.054   6.142  14.335  1.00  0.00     0.042 C 
ENDBRANCH  34  35
ENDBRANCH  33  34
ENDBRANCH   1  33
TORSDOF 6
ENDMDL
