MODEL 1
REMARK minimizedAffinity -7.65304232
REMARK CNNscore 0.776385963
REMARK CNNaffinity 7.71416998
REMARK  12 active torsions:
REMARK  status: ('A' for Active; 'I' for Inactive)
REMARK    1  A    between atoms: O1_2  and  C2_3 
REMARK    2  A    between atoms: C2_3  and  C3_4 
REMARK    3  A    between atoms: C2_3  and  C7_8 
REMARK    4  A    between atoms: C7_8  and  C8_9 
REMARK    5  A    between atoms: C8_9  and  C10_11 
REMARK    6  A    between atoms: C28_30  and  O3_31 
REMARK    7  A    between atoms: O3_31  and  C29_32 
REMARK    8  A    between atoms: C30_34  and  C31_35 
REMARK    9  A    between atoms: C31_35  and  O5_36 
REMARK   10  A    between atoms: C32_37  and  O6_38 
REMARK   11  A    between atoms: C33_39  and  O7_40 
REMARK   12  A    between atoms: C34_41  and  O8_42 
ROOT
HETATM    1  C10 UNL     1       2.484  55.192  -8.747  1.00  0.00    -0.002 C 
HETATM    2  C11 UNL     1       1.304  56.021  -8.139  1.00  0.00     0.006 C 
HETATM    3  C12 UNL     1       0.007  55.208  -8.341  1.00  0.00     0.011 C 
HETATM    4  C13 UNL     1       0.500  53.789  -8.675  1.00  0.00    -0.029 C 
HETATM    5  C14 UNL     1       0.887  53.163  -7.281  1.00  0.00     0.016 C 
HETATM    6  C15 UNL     1      -0.507  52.790  -9.348  1.00  0.00     0.028 C 
HETATM    7  C16 UNL     1      -1.733  53.300 -10.054  1.00  0.00    -0.021 C 
HETATM    8  C17 UNL     1      -2.308  52.580 -11.035  1.00  0.00     0.008 C 
HETATM    9  C18 UNL     1      -1.671  51.327 -11.631  1.00  0.00     0.092 C 
HETATM   10  O2  UNL     1      -1.814  50.297 -10.612  1.00  0.00    -0.374 OA
HETATM   11  C19 UNL     1      -0.618  50.319  -9.773  1.00  0.00     0.179 C 
HETATM   12  C20 UNL     1       0.181  51.615 -10.155  1.00  0.00    -0.004 C 
HETATM   13  C21 UNL     1       1.686  51.489  -9.876  1.00  0.00     0.014 C 
HETATM   14  C22 UNL     1       2.502  52.802  -9.884  1.00  0.00     0.011 C 
HETATM   15  C23 UNL     1       1.723  54.106  -9.591  1.00  0.00    -0.032 C 
HETATM   16  C24 UNL     1       1.295  54.786 -10.921  1.00  0.00     0.016 C 
HETATM   17  C25 UNL     1      -0.144  51.471 -11.661  1.00  0.00     0.036 C 
HETATM   18  C26 UNL     1       0.309  52.335 -12.817  1.00  0.00     0.011 C 
HETATM   19  C27 UNL     1       0.009  51.591 -14.133  1.00  0.00     0.033 C 
HETATM   20  C28 UNL     1      -1.072  50.486 -14.001  1.00  0.00     0.136 C 
HETATM   21  C35 UNL     1      -2.251  50.908 -13.055  1.00  0.00     0.014 C 
HETATM   22  C36 UNL     1      -3.227  49.717 -12.911  1.00  0.00     0.021 C 
HETATM   23  C37 UNL     1      -3.045  52.042 -13.765  1.00  0.00     0.021 C 
ENDROOT
BRANCH  20  24
HETATM   24  O3  UNL     1      -1.578  50.190 -15.309  1.00  0.00    -0.352 OA
BRANCH  24  25
HETATM   25  C29 UNL     1      -1.131  51.075 -16.338  1.00  0.00     0.292 C 
HETATM   26  O4  UNL     1      -2.251  51.447 -17.143  1.00  0.00    -0.348 OA
HETATM   27  C30 UNL     1      -2.633  50.511 -18.162  1.00  0.00     0.179 C 
HETATM   28  C32 UNL     1      -1.481  50.220 -19.151  1.00  0.00     0.180 C 
HETATM   29  C33 UNL     1      -0.114  50.660 -18.616  1.00  0.00     0.183 C 
HETATM   30  C34 UNL     1       0.010  50.386 -17.123  1.00  0.00     0.204 C 
BRANCH  27  31
HETATM   31  C31 UNL     1      -3.210  49.214 -17.560  1.00  0.00     0.198 C 
BRANCH  31  32
HETATM   32  O5  UNL     1      -3.992  49.513 -16.407  1.00  0.00    -0.398 OA
HETATM   33  H48 UNL     1      -3.395  50.023 -15.821  1.00  0.00     0.209 HD
ENDBRANCH  31  32
ENDBRANCH  27  31
BRANCH  28  34
HETATM   34  O6  UNL     1      -1.704  50.929 -20.386  1.00  0.00    -0.390 OA
HETATM   35  H50 UNL     1      -1.097  50.553 -21.055  1.00  0.00     0.210 HD
ENDBRANCH  28  34
BRANCH  29  36
HETATM   36  O7  UNL     1       0.112  52.069 -18.842  1.00  0.00    -0.390 OA
HETATM   37  H52 UNL     1      -0.545  52.342 -19.517  1.00  0.00     0.210 HD
ENDBRANCH  29  36
BRANCH  30  38
HETATM   38  O8  UNL     1       1.287  50.860 -16.667  1.00  0.00    -0.388 OA
HETATM   39  H54 UNL     1       1.425  51.712 -17.132  1.00  0.00     0.210 HD
ENDBRANCH  30  38
ENDBRANCH  24  25
ENDBRANCH  20  24
BRANCH   1  40
HETATM   40  C8  UNL     1       3.556  56.104  -9.433  1.00  0.00    -0.011 C 
HETATM   41  C9  UNL     1       3.185  56.419 -10.884  1.00  0.00     0.010 C 
BRANCH  40  42
HETATM   42  C7  UNL     1       4.961  55.431  -9.361  1.00  0.00     0.040 C 
BRANCH  42  43
HETATM   43  C2  UNL     1       5.828  55.755  -8.116  1.00  0.00     0.144 C 
BRANCH  43  44
HETATM   44  O1  UNL     1       6.245  54.546  -7.486  1.00  0.00    -0.387 OA
HETATM   45  C1  UNL     1       6.717  53.566  -8.401  1.00  0.00     0.202 C 
ENDBRANCH  43  44
BRANCH  43  46
HETATM   46  C3  UNL     1       5.130  56.670  -7.131  1.00  0.00     0.007 C 
HETATM   47  C4  UNL     1       5.612  57.318  -6.050  1.00  0.00    -0.089 C 
HETATM   48  C5  UNL     1       7.054  57.327  -5.626  1.00  0.00     0.042 C 
HETATM   49  C6  UNL     1       4.696  58.115  -5.160  1.00  0.00     0.042 C 
ENDBRANCH  43  46
ENDBRANCH  42  43
ENDBRANCH  40  42
ENDBRANCH   1  40
TORSDOF 12
ENDMDL
