MODEL 1
REMARK minimizedAffinity -10.4007378
REMARK CNNscore 0.631415606
REMARK CNNaffinity 6.88511133
REMARK  10 active torsions:
REMARK  status: ('A' for Active; 'I' for Inactive)
REMARK    1  A    between atoms: C2_2  and  C3_4 
REMARK    2  A    between atoms: C3_4  and  O2_5 
REMARK    3  A    between atoms: N1_15  and  O3_17 
REMARK    4  A    between atoms: O3_17  and  C13_18 
REMARK    5  A    between atoms: C13_18  and  C14_19 
REMARK       I    between atoms: C14_19  and  N2_21 
REMARK    6  A    between atoms: N2_21  and  C15_22 
REMARK    7  A    between atoms: C15_22  and  C16_23 
REMARK    8  A    between atoms: C15_22  and  C25_33 
REMARK    9  A    between atoms: C16_23  and  C17_24 
REMARK   10  A    between atoms: C25_33  and  O6_35 
ROOT
HETATM    1  C3  UNL     1      -0.395  52.884 -25.799  1.00  0.00     0.125 C 
HETATM    2  C4  UNL     1       0.451  51.846 -26.599  1.00  0.00     0.047 C 
HETATM    3  C5  UNL     1      -0.304  50.504 -26.526  1.00  0.00     0.009 C 
HETATM    4  C6  UNL     1      -1.650  50.857 -25.903  1.00  0.00     0.002 C 
HETATM    5  C7  UNL     1      -2.505  49.746 -25.275  1.00  0.00    -0.004 C 
HETATM    6  C8  UNL     1      -2.726  48.524 -26.187  1.00  0.00     0.010 C 
HETATM    7  C9  UNL     1      -4.161  48.366 -26.673  1.00  0.00     0.035 C 
HETATM    8  C10 UNL     1      -5.195  48.437 -25.571  1.00  0.00    -0.069 C 
HETATM    9  C11 UNL     1      -6.376  47.819 -25.744  1.00  0.00     0.030 C 
HETATM   10  C12 UNL     1      -7.497  47.988 -24.784  1.00  0.00     0.032 C 
HETATM   11  N1  UNL     1      -8.554  47.246 -24.959  1.00  0.00    -0.271 N 
ATOM     12  H1  UNL     1      -8.648  46.552 -25.701  1.00  0.00     0.194 HD
HETATM   13  C26 UNL     1      -7.356  49.005 -23.671  1.00  0.00     0.060 C 
HETATM   14  C27 UNL     1      -6.214  49.993 -23.912  1.00  0.00     0.020 C 
HETATM   15  C28 UNL     1      -4.890  49.320 -24.357  1.00  0.00    -0.016 C 
HETATM   16  C29 UNL     1      -4.343  48.448 -23.201  1.00  0.00     0.020 C 
HETATM   17  C30 UNL     1      -3.846  50.398 -24.805  1.00  0.00     0.002 C 
HETATM   18  C31 UNL     1      -3.567  51.533 -23.793  1.00  0.00     0.007 C 
HETATM   19  C32 UNL     1      -2.606  52.593 -24.372  1.00  0.00     0.013 C 
HETATM   20  C33 UNL     1      -1.289  51.979 -24.888  1.00  0.00    -0.002 C 
HETATM   21  C34 UNL     1      -0.467  51.466 -23.670  1.00  0.00     0.019 C 
ENDROOT
BRANCH  11  22
HETATM   22  O3  UNL     1      -9.548  47.517 -24.005  1.00  0.00    -0.271 OA
BRANCH  22  23
HETATM   23  C13 UNL     1     -10.358  46.356 -23.872  1.00  0.00     0.303 C 
BRANCH  23  24
HETATM   24  C14 UNL     1     -11.833  46.703 -24.043  1.00  0.00     0.244 C 
HETATM   25  O4  UNL     1     -12.261  47.335 -25.004  1.00  0.00    -0.271 OA
HETATM   26  N2  UNL     1     -12.657  46.191 -23.057  1.00  0.00    -0.344 N 
HETATM   27  H18 UNL     1     -12.267  45.448 -22.488  1.00  0.00     0.163 HD
BRANCH  26  28
HETATM   28  C15 UNL     1     -14.118  46.221 -23.211  1.00  0.00     0.186 C 
BRANCH  28  29
HETATM   29  C16 UNL     1     -14.500  46.970 -24.495  1.00  0.00     0.077 C 
BRANCH  29  30
HETATM   30  C17 UNL     1     -15.548  46.279 -25.313  1.00  0.00    -0.028 A 
HETATM   31  C18 UNL     1     -15.329  45.530 -26.450  1.00  0.00     0.096 A 
HETATM   32  N3  UNL     1     -16.538  45.074 -26.904  1.00  0.00    -0.365 N 
HETATM   33  C19 UNL     1     -17.553  45.511 -26.083  1.00  0.00     0.042 A 
HETATM   34  H23 UNL     1     -16.677  44.498 -27.722  1.00  0.00     0.165 HD
HETATM   35  C20 UNL     1     -18.932  45.287 -26.163  1.00  0.00     0.030 A 
HETATM   36  C24 UNL     1     -16.964  46.277 -25.078  1.00  0.00    -0.002 A 
HETATM   37  C21 UNL     1     -19.738  45.862 -25.177  1.00  0.00     0.002 A 
HETATM   38  C22 UNL     1     -19.184  46.635 -24.160  1.00  0.00     0.001 A 
HETATM   39  C23 UNL     1     -17.801  46.852 -24.099  1.00  0.00     0.014 A 
ENDBRANCH  29  30
ENDBRANCH  28  29
BRANCH  28  40
HETATM   40  C25 UNL     1     -14.686  46.956 -21.999  1.00  0.00     0.163 C 
HETATM   41  O5  UNL     1     -14.314  48.047 -21.589  1.00  0.00    -0.648 OA
BRANCH  40  42
HETATM   42  O6  UNL     1     -15.693  46.302 -21.394  1.00  0.00    -0.775 OA
HETATM   43  H28 UNL     1     -15.993  46.894 -20.678  1.00  0.00     0.167 HD
ENDBRANCH  40  42
ENDBRANCH  28  40
ENDBRANCH  26  28
ENDBRANCH  23  24
ENDBRANCH  22  23
ENDBRANCH  11  22
BRANCH   1  44
HETATM   44  C2  UNL     1       0.515  53.871 -25.021  1.00  0.00     0.158 C 
HETATM   45  C1  UNL     1       0.268  55.345 -25.217  1.00  0.00     0.094 C 
HETATM   46  O1  UNL     1       1.396  53.496 -24.242  1.00  0.00    -0.295 OA
ENDBRANCH   1  44
BRANCH   1  47
HETATM   47  O2  UNL     1      -1.188  53.565 -26.777  1.00  0.00    -0.381 OA
HETATM   48  H4  UNL     1      -1.735  54.237 -26.344  1.00  0.00     0.211 HD
ENDBRANCH   1  47
TORSDOF 10
ENDMDL
