MODEL 1
REMARK minimizedAffinity -6.93447495
REMARK CNNscore 0.463772237
REMARK CNNaffinity 6.31178665
REMARK  10 active torsions:
REMARK  status: ('A' for Active; 'I' for Inactive)
REMARK    1  A    between atoms: C2_2  and  C4_4 
REMARK    2  A    between atoms: C7_7  and  C8_8 
REMARK    3  A    between atoms: C8_8  and  O2_10 
REMARK    4  A    between atoms: C21_23  and  O3_24 
REMARK    5  A    between atoms: O3_24  and  C22_25 
REMARK    6  A    between atoms: C24_28  and  O5_29 
REMARK    7  A    between atoms: C25_30  and  O6_31 
REMARK    8  A    between atoms: C26_32  and  O7_33 
REMARK    9  A    between atoms: C27_34  and  C29_36 
REMARK   10  A    between atoms: C29_36  and  O8_37 
ROOT
HETATM    1  C4  UNL     1     -15.626  -9.846   1.105  1.00  0.00     0.019 C 
HETATM    2  C5  UNL     1     -15.832  -9.861  -0.434  1.00  0.00     0.011 C 
HETATM    3  C6  UNL     1     -14.432  -9.917  -1.070  1.00  0.00     0.021 C 
HETATM    4  C7  UNL     1     -13.509  -9.330   0.001  1.00  0.00     0.050 C 
HETATM    5  C9  UNL     1     -12.029  -9.734  -0.108  1.00  0.00     0.022 C 
HETATM    6  C10 UNL     1     -11.242  -9.289   1.147  1.00  0.00     0.011 C 
HETATM    7  C11 UNL     1     -11.840  -9.781   2.517  1.00  0.00    -0.032 C 
HETATM    8  C12 UNL     1     -11.580 -11.325   2.551  1.00  0.00     0.016 C 
HETATM    9  C13 UNL     1     -13.393  -9.480   2.545  1.00  0.00     0.000 C 
HETATM   10  C14 UNL     1     -14.038  -9.964   3.845  1.00  0.00     0.006 C 
HETATM   11  C15 UNL     1     -13.378  -9.336   5.072  1.00  0.00     0.006 C 
HETATM   12  C16 UNL     1     -11.847  -9.559   5.125  1.00  0.00     0.003 C 
HETATM   13  C17 UNL     1     -11.200  -9.155   6.520  1.00  0.00    -0.035 C 
HETATM   14  C18 UNL     1     -11.606  -7.724   6.972  1.00  0.00     0.016 C 
HETATM   15  C19 UNL     1     -11.809 -10.117   7.596  1.00  0.00     0.012 C 
HETATM   16  C20 UNL     1     -11.017 -10.216   8.884  1.00  0.00     0.034 C 
HETATM   17  C21 UNL     1      -9.521 -10.513   8.726  1.00  0.00     0.135 C 
HETATM   18  C27 UNL     1      -8.997 -10.486   7.242  1.00  0.00     0.008 C 
HETATM   19  C28 UNL     1      -7.441 -10.376   7.315  1.00  0.00     0.020 C 
HETATM   20  C30 UNL     1      -9.616  -9.223   6.522  1.00  0.00     0.007 C 
HETATM   21  C31 UNL     1      -8.971  -8.850   5.169  1.00  0.00     0.007 C 
HETATM   22  C32 UNL     1      -9.650  -9.411   3.924  1.00  0.00     0.011 C 
HETATM   23  C33 UNL     1     -11.150  -9.052   3.806  1.00  0.00    -0.032 C 
HETATM   24  C34 UNL     1     -11.255  -7.506   3.655  1.00  0.00     0.016 C 
HETATM   25  C35 UNL     1     -14.093  -9.993   1.269  1.00  0.00     0.017 C 
ENDROOT
BRANCH  17  26
HETATM   26  O3  UNL     1      -8.795  -9.512   9.478  1.00  0.00    -0.352 OA
BRANCH  26  27
HETATM   27  C22 UNL     1      -7.734 -10.026  10.292  1.00  0.00     0.291 C 
HETATM   28  O4  UNL     1      -8.086 -11.244  10.955  1.00  0.00    -0.356 OA
HETATM   29  C23 UNL     1      -8.846 -11.015  12.143  1.00  0.00     0.205 C 
HETATM   30  C24 UNL     1      -7.982 -10.356  13.222  1.00  0.00     0.173 C 
HETATM   31  C25 UNL     1      -6.855  -9.525  12.593  1.00  0.00     0.182 C 
HETATM   32  C26 UNL     1      -7.338  -8.903  11.284  1.00  0.00     0.204 C 
BRANCH  30  33
HETATM   33  O5  UNL     1      -8.809  -9.523  14.044  1.00  0.00    -0.391 OA
HETATM   34  H37 UNL     1      -8.184  -8.887  14.455  1.00  0.00     0.210 HD
ENDBRANCH  30  33
BRANCH  31  35
HETATM   35  O6  UNL     1      -6.445  -8.500  13.515  1.00  0.00    -0.390 OA
HETATM   36  H39 UNL     1      -5.873  -7.906  12.984  1.00  0.00     0.210 HD
ENDBRANCH  31  35
BRANCH  32  37
HETATM   37  O7  UNL     1      -6.298  -8.061  10.748  1.00  0.00    -0.388 OA
HETATM   38  H41 UNL     1      -6.634  -7.746   9.886  1.00  0.00     0.210 HD
ENDBRANCH  32  37
ENDBRANCH  26  27
ENDBRANCH  17  26
BRANCH  18  39
HETATM   39  C29 UNL     1      -9.296 -11.812   6.498  1.00  0.00     0.176 C 
BRANCH  39  40
HETATM   40  O8  UNL     1      -8.122 -12.305   5.855  1.00  0.00    -0.400 OA
HETATM   41  H47 UNL     1      -8.393 -13.063   5.306  1.00  0.00     0.209 HD
ENDBRANCH  39  40
ENDBRANCH  18  39
BRANCH   1  42
HETATM   42  C2  UNL     1     -16.536 -10.865   1.780  1.00  0.00    -0.088 C 
HETATM   43  C1  UNL     1     -16.326 -11.413   2.987  1.00  0.00     0.014 C 
HETATM   44  C3  UNL     1     -17.751 -11.255   0.976  1.00  0.00     0.043 C 
ENDBRANCH   1  42
BRANCH   4  45
HETATM   45  C8  UNL     1     -13.583  -7.802  -0.151  1.00  0.00     0.149 C 
HETATM   46  O1  UNL     1     -13.202  -7.173  -1.128  1.00  0.00    -0.649 OA
BRANCH  45  47
HETATM   47  O2  UNL     1     -14.148  -7.141   0.867  1.00  0.00    -0.776 OA
HETATM   48  H11 UNL     1     -14.109  -6.197   0.596  1.00  0.00     0.167 HD
ENDBRANCH  45  47
ENDBRANCH   4  45
TORSDOF 10
ENDMDL
