MODEL 1
REMARK minimizedAffinity -9.1106863
REMARK  10 active torsions:
REMARK  status: ('A' for Active; 'I' for Inactive)
REMARK    1  A    between atoms: C5_5  and  C6_6 
REMARK    2  A    between atoms: C6_6  and  C8_8 
REMARK    3  A    between atoms: C8_8  and  O1_9 
REMARK    4  A    between atoms: C15_17  and  O3_18 
REMARK    5  A    between atoms: C18_21  and  O4_23 
REMARK    6  A    between atoms: O4_23  and  C20_24 
REMARK    7  A    between atoms: C20_24  and  C21_26 
REMARK    8  A    between atoms: C21_26  and  C22_27 
REMARK    9  A    between atoms: C21_26  and  O6_29 
REMARK   10  A    between atoms: O6_29  and  C24_30 
ROOT
HETATM    1  C1  UNL     1      -6.291   5.993  15.673  1.00  0.00     0.015 C 
HETATM    2  C2  UNL     1      -5.094   6.211  15.102  1.00  0.00    -0.082 C 
HETATM    3  C3  UNL     1      -3.818   6.173  15.887  1.00  0.00     0.034 C 
HETATM    4  C4  UNL     1      -3.195   7.557  15.827  1.00  0.00     0.010 C 
HETATM    5  C5  UNL     1      -2.808   8.042  14.409  1.00  0.00    -0.001 C 
HETATM    6  C9  UNL     1      -3.591   7.329  13.272  1.00  0.00     0.033 C 
HETATM    7  C10 UNL     1      -2.836   6.277  12.414  1.00  0.00     0.162 C 
HETATM    8  O2  UNL     1      -3.517   5.112  12.802  1.00  0.00    -0.376 OA
HETATM    9  C11 UNL     1      -4.898   5.360  12.713  1.00  0.00     0.134 C 
HETATM   10  C12 UNL     1      -5.458   3.963  12.955  1.00  0.00     0.068 C 
HETATM   11  C13 UNL     1      -4.865   2.975  11.902  1.00  0.00    -0.059 C 
HETATM   12  C14 UNL     1      -5.692   2.295  11.086  1.00  0.00     0.017 C 
HETATM   13  C15 UNL     1      -3.314   2.800  11.845  1.00  0.00     0.146 C 
HETATM   14  C16 UNL     1      -2.563   3.736  10.836  1.00  0.00     0.039 C 
HETATM   15  C17 UNL     1      -1.280   4.506  11.337  1.00  0.00     0.044 C 
HETATM   16  C18 UNL     1      -1.391   5.742  12.370  1.00  0.00     0.093 C 
HETATM   17  C19 UNL     1      -0.906   5.193  13.731  1.00  0.00     0.049 C 
HETATM   18  C26 UNL     1      -4.958   6.577  13.645  1.00  0.00     0.050 C 
ENDROOT
BRANCH  16  19
HETATM   19  O4  UNL     1      -0.404   6.760  12.046  1.00  0.00    -0.306 OA
BRANCH  19  20
HETATM   20  C20 UNL     1       0.804   6.421  11.512  1.00  0.00     0.289 C 
HETATM   21  O5  UNL     1       1.783   6.093  12.167  1.00  0.00    -0.262 OA
BRANCH  20  22
HETATM   22  C21 UNL     1       0.774   6.566   9.984  1.00  0.00     0.231 C 
BRANCH  22  23
HETATM   23  C22 UNL     1       1.009   8.016   9.545  1.00  0.00     0.038 C 
HETATM   24  C23 UNL     1      -0.231   8.663   8.943  1.00  0.00     0.008 C 
ENDBRANCH  22  23
BRANCH  22  25
HETATM   25  O6  UNL     1       1.833   5.748   9.442  1.00  0.00    -0.306 OA
BRANCH  25  26
HETATM   26  C24 UNL     1       2.785   6.409   8.733  1.00  0.00     0.255 C 
HETATM   27  C25 UNL     1       2.412   6.447   7.284  1.00  0.00     0.126 C 
HETATM   28  O7  UNL     1       3.814   6.880   9.196  1.00  0.00    -0.266 OA
ENDBRANCH  25  26
ENDBRANCH  22  25
ENDBRANCH  20  22
ENDBRANCH  19  20
ENDBRANCH  16  19
BRANCH   5  29
HETATM   29  C6  UNL     1      -2.923   9.610  14.305  1.00  0.00     0.010 C 
HETATM   30  C7  UNL     1      -4.002  10.192  15.237  1.00  0.00     0.012 C 
BRANCH  29  31
HETATM   31  C8  UNL     1      -1.592  10.337  14.591  1.00  0.00     0.168 C 
BRANCH  31  32
HETATM   32  O1  UNL     1      -1.380  11.430  13.706  1.00  0.00    -0.400 OA
HETATM   33  H14 UNL     1      -2.094  12.077  13.834  1.00  0.00     0.209 HD
ENDBRANCH  31  32
ENDBRANCH  29  31
ENDBRANCH   5  29
BRANCH  13  34
HETATM   34  O3  UNL     1      -3.020   1.448  11.462  1.00  0.00    -0.391 OA
HETATM   35  H23 UNL     1      -3.568   0.882  12.034  1.00  0.00     0.210 HD
ENDBRANCH  13  34
TORSDOF 10
ENDMDL
