MODEL 1
REMARK minimizedAffinity -9.69971466
REMARK CNNscore 0.582544088
REMARK CNNaffinity 7.49699259
REMARK  12 active torsions:
REMARK  status: ('A' for Active; 'I' for Inactive)
REMARK    1  A    between atoms: C19_21  and  O3_22 
REMARK    2  A    between atoms: C19_21  and  C20_23 
REMARK    3  A    between atoms: C20_23  and  C21_25 
REMARK    4  A    between atoms: C21_25  and  O5_26 
REMARK    5  A    between atoms: O5_26  and  C22_27 
REMARK    6  A    between atoms: C22_27  and  C23_29 
REMARK    7  A    between atoms: C23_29  and  C24_30 
REMARK    8  A    between atoms: C24_30  and  C25_31 
REMARK       I    between atoms: C25_31  and  N1_33 
REMARK    9  A    between atoms: N1_33  and  C26_34 
REMARK   10  A    between atoms: C26_34  and  C27_35 
REMARK   11  A    between atoms: C30_38  and  C31_39 
REMARK   12  A    between atoms: C31_39  and  O9_41 
ROOT
HETATM    1  C1  UNL     1       0.568   5.631  10.705  1.00  0.00     0.021 C 
HETATM    2  C2  UNL     1       0.500   6.977  11.477  1.00  0.00    -0.009 C 
HETATM    3  C3  UNL     1       0.876   8.121  10.491  1.00  0.00     0.022 C 
HETATM    4  C4  UNL     1       2.327   8.085  10.027  1.00  0.00     0.084 C 
HETATM    5  C5  UNL     1       3.242   8.109  11.225  1.00  0.00     0.149 C 
HETATM    6  O1  UNL     1       4.392   8.542  11.160  1.00  0.00    -0.293 OA
HETATM    7  C6  UNL     1       2.768   7.491  12.488  1.00  0.00     0.053 C 
HETATM    8  C7  UNL     1       1.552   6.922  12.589  1.00  0.00    -0.067 C 
HETATM    9  C8  UNL     1       1.222   6.106  13.807  1.00  0.00     0.035 C 
HETATM   10  C9  UNL     1      -0.163   6.407  14.365  1.00  0.00     0.010 C 
HETATM   11  C10 UNL     1      -1.259   6.260  13.294  1.00  0.00     0.003 C 
HETATM   12  C11 UNL     1      -0.971   7.133  12.034  1.00  0.00     0.072 C 
HETATM   13  C12 UNL     1      -1.486   8.570  12.224  1.00  0.00     0.133 C 
HETATM   14  O2  UNL     1      -1.495   9.393  11.306  1.00  0.00    -0.297 OA
HETATM   15  C13 UNL     1      -2.117   8.941  13.543  1.00  0.00     0.091 C 
HETATM   16  C14 UNL     1      -3.231   7.941  13.878  1.00  0.00     0.005 C 
HETATM   17  C15 UNL     1      -4.383   8.103  12.846  1.00  0.00     0.019 C 
HETATM   18  C16 UNL     1      -2.716   6.461  13.794  1.00  0.00     0.002 C 
HETATM   19  C17 UNL     1      -3.071   5.806  15.139  1.00  0.00     0.009 C 
HETATM   20  C18 UNL     1      -4.206   6.660  15.691  1.00  0.00     0.047 C 
HETATM   21  C19 UNL     1      -3.767   8.087  15.341  1.00  0.00     0.128 C 
ENDROOT
BRANCH  21  22
HETATM   22  O3  UNL     1      -2.694   8.437  16.217  1.00  0.00    -0.381 OA
HETATM   23  H25 UNL     1      -3.013   8.349  17.137  1.00  0.00     0.211 HD
ENDBRANCH  21  22
BRANCH  21  24
HETATM   24  C20 UNL     1      -4.919   9.100  15.506  1.00  0.00     0.185 C 
HETATM   25  O4  UNL     1      -4.740  10.211  16.018  1.00  0.00    -0.292 OA
BRANCH  24  26
HETATM   26  C21 UNL     1      -6.312   8.643  15.070  1.00  0.00     0.260 C 
BRANCH  26  27
HETATM   27  O5  UNL     1      -6.830   7.610  15.911  1.00  0.00    -0.314 OA
BRANCH  27  28
HETATM   28  C22 UNL     1      -8.040   7.130  15.518  1.00  0.00     0.259 C 
HETATM   29  O6  UNL     1      -9.102   7.448  16.042  1.00  0.00    -0.265 OA
BRANCH  28  30
HETATM   30  C23 UNL     1      -7.930   6.147  14.376  1.00  0.00     0.120 C 
BRANCH  30  31
HETATM   31  C24 UNL     1      -6.995   4.974  14.647  1.00  0.00     0.112 C 
BRANCH  31  32
HETATM   32  C25 UNL     1      -7.134   3.886  13.607  1.00  0.00     0.218 C 
HETATM   33  O7  UNL     1      -7.854   2.906  13.745  1.00  0.00    -0.274 OA
HETATM   34  N1  UNL     1      -6.344   4.110  12.499  1.00  0.00    -0.361 N 
HETATM   35  H32 UNL     1      -5.774   4.945  12.465  1.00  0.00     0.162 HD
BRANCH  34  36
HETATM   36  C26 UNL     1      -6.238   3.160  11.410  1.00  0.00     0.127 C 
BRANCH  36  37
HETATM   37  C27 UNL     1      -4.784   2.768  11.082  1.00  0.00     0.003 C 
HETATM   38  C28 UNL     1      -4.311   1.533  11.857  1.00  0.00     0.007 C 
HETATM   39  C29 UNL     1      -2.935   1.056  11.379  1.00  0.00     0.015 C 
HETATM   40  C30 UNL     1      -2.013   2.199  10.933  1.00  0.00     0.084 C 
HETATM   41  C32 UNL     1      -2.381   3.524  11.602  1.00  0.00     0.015 C 
HETATM   42  C33 UNL     1      -3.811   3.951  11.266  1.00  0.00     0.007 C 
BRANCH  40  43
HETATM   43  C31 UNL     1      -0.568   1.817  11.169  1.00  0.00     0.143 C 
HETATM   44  O8  UNL     1       0.342   2.592  11.416  1.00  0.00    -0.650 OA
BRANCH  43  45
HETATM   45  O9  UNL     1      -0.321   0.502  11.021  1.00  0.00    -0.776 OA
HETATM   46  H41 UNL     1       0.646   0.422  11.150  1.00  0.00     0.167 HD
ENDBRANCH  43  45
ENDBRANCH  40  43
ENDBRANCH  36  37
ENDBRANCH  34  36
ENDBRANCH  31  32
ENDBRANCH  30  31
ENDBRANCH  28  30
ENDBRANCH  27  28
ENDBRANCH  26  27
ENDBRANCH  24  26
ENDBRANCH  21  24
TORSDOF 12
ENDMDL
