MODEL 1
REMARK minimizedAffinity -7.3131094
REMARK CNNscore 0.653017819
REMARK CNNaffinity 6.21146631
REMARK  8 active torsions:
REMARK  status: ('A' for Active; 'I' for Inactive)
REMARK    1  A    between atoms: C2_2  and  C3_3 
REMARK    2  A    between atoms: C2_2  and  C28_31 
REMARK    3  A    between atoms: C3_3  and  C4_4 
REMARK    4  A    between atoms: C4_4  and  O1_5 
REMARK    5  A    between atoms: C4_4  and  C5_6 
REMARK    6  A    between atoms: C5_6  and  C7_8 
REMARK    7  A    between atoms: C21_22  and  C23_24 
REMARK    8  A    between atoms: C23_24  and  O3_26 
ROOT
HETATM    1  C7  UNL     1     -10.120  46.895 -27.411  1.00  0.00     0.001 C 
HETATM    2  C8  UNL     1     -10.418  46.723 -28.937  1.00  0.00     0.007 C 
HETATM    3  C9  UNL     1     -11.876  46.252 -29.074  1.00  0.00     0.015 C 
HETATM    4  C10 UNL     1     -12.513  46.584 -27.717  1.00  0.00    -0.013 C 
HETATM    5  C11 UNL     1     -12.879  48.103 -27.738  1.00  0.00     0.021 C 
HETATM    6  C12 UNL     1     -13.806  45.884 -27.318  1.00  0.00    -0.068 C 
HETATM    7  C13 UNL     1     -14.085  45.706 -25.999  1.00  0.00    -0.068 C 
HETATM    8  C14 UNL     1     -13.104  46.075 -24.892  1.00  0.00     0.036 C 
HETATM    9  C15 UNL     1     -11.744  46.662 -25.332  1.00  0.00     0.015 C 
HETATM   10  C16 UNL     1     -11.336  46.183 -26.735  1.00  0.00    -0.029 C 
HETATM   11  C17 UNL     1     -11.099  44.646 -26.675  1.00  0.00     0.016 C 
HETATM   12  C18 UNL     1     -15.390  45.039 -25.578  1.00  0.00    -0.015 C 
HETATM   13  C19 UNL     1     -15.094  43.528 -25.418  1.00  0.00     0.020 C 
HETATM   14  C20 UNL     1     -16.098  45.572 -24.309  1.00  0.00     0.034 C 
HETATM   15  C21 UNL     1     -17.619  45.301 -24.521  1.00  0.00     0.043 C 
HETATM   16  C22 UNL     1     -18.136  44.187 -23.601  1.00  0.00     0.027 C 
HETATM   17  C24 UNL     1     -17.768  44.885 -26.010  1.00  0.00     0.025 C 
HETATM   18  C25 UNL     1     -16.465  45.369 -26.634  1.00  0.00    -0.001 C 
HETATM   19  C26 UNL     1     -16.086  44.840 -28.002  1.00  0.00     0.010 C 
HETATM   20  C27 UNL     1     -14.759  45.484 -28.440  1.00  0.00     0.036 C 
ENDROOT
BRANCH   1  21
HETATM   21  C5  UNL     1      -8.617  46.623 -27.078  1.00  0.00     0.015 C 
HETATM   22  C6  UNL     1      -8.336  45.711 -25.872  1.00  0.00     0.013 C 
BRANCH  21  23
HETATM   23  C4  UNL     1      -7.687  47.865 -27.003  1.00  0.00     0.126 C 
BRANCH  23  24
HETATM   24  C3  UNL     1      -6.185  47.519 -26.962  1.00  0.00     0.065 C 
BRANCH  24  25
HETATM   25  C2  UNL     1      -5.466  48.133 -25.766  1.00  0.00    -0.083 C 
HETATM   26  C1  UNL     1      -6.136  48.371 -24.625  1.00  0.00     0.015 C 
BRANCH  25  27
HETATM   27  C28 UNL     1      -3.993  48.476 -25.973  1.00  0.00     0.005 C 
HETATM   28  C29 UNL     1      -3.628  48.386 -27.458  1.00  0.00     0.014 C 
HETATM   29  C30 UNL     1      -3.579  49.842 -25.411  1.00  0.00     0.014 C 
ENDBRANCH  25  27
ENDBRANCH  24  25
ENDBRANCH  23  24
BRANCH  23  30
HETATM   30  O1  UNL     1      -7.967  48.747 -28.087  1.00  0.00    -0.395 OA
HETATM   31  H6  UNL     1      -7.401  49.531 -27.967  1.00  0.00     0.210 HD
ENDBRANCH  23  30
ENDBRANCH  21  23
ENDBRANCH   1  21
BRANCH  15  32
HETATM   32  C23 UNL     1     -18.406  46.574 -24.213  1.00  0.00     0.148 C 
HETATM   33  O2  UNL     1     -18.815  47.391 -25.024  1.00  0.00    -0.649 OA
BRANCH  32  34
HETATM   34  O3  UNL     1     -18.683  46.745 -22.907  1.00  0.00    -0.776 OA
HETATM   35  H34 UNL     1     -19.196  47.579 -22.879  1.00  0.00     0.167 HD
ENDBRANCH  32  34
ENDBRANCH  15  32
TORSDOF 8
ENDMDL
