MODEL 1
REMARK minimizedAffinity -9.36813259
REMARK CNNscore 0.36731112
REMARK CNNaffinity 6.26146507
REMARK  11 active torsions:
REMARK  status: ('A' for Active; 'I' for Inactive)
REMARK    1  A    between atoms: C5_5  and  C6_6 
REMARK    2  A    between atoms: C8_8  and  C9_9 
REMARK    3  A    between atoms: C9_9  and  O1_10 
REMARK    4  A    between atoms: C11_12  and  C12_13 
REMARK    5  A    between atoms: C12_13  and  C13_14 
REMARK    6  A    between atoms: C13_14  and  O2_15 
REMARK    7  A    between atoms: C13_14  and  C14_16 
REMARK    8  A    between atoms: C14_16  and  O3_18 
REMARK    9  A    between atoms: C24_29  and  O6_30 
REMARK   10  A    between atoms: C29_35  and  C30_36 
REMARK   11  A    between atoms: C30_36  and  O7_37 
ROOT
HETATM    1  C1  UNL     1      -6.906  42.853 -23.200  1.00  0.00     0.036 C 
HETATM    2  C2  UNL     1      -8.083  43.607 -23.738  1.00  0.00    -0.018 C 
HETATM    3  C3  UNL     1      -8.364  44.917 -23.582  1.00  0.00     0.015 C 
HETATM    4  C4  UNL     1      -9.602  45.544 -24.199  1.00  0.00     0.066 C 
HETATM    5  C5  UNL     1     -10.962  45.070 -23.599  1.00  0.00     0.102 C 
HETATM    6  C17 UNL     1     -11.086  45.434 -22.168  1.00  0.00    -0.096 C 
HETATM    7  C18 UNL     1     -11.032  45.813 -21.028  1.00  0.00    -0.096 C 
HETATM    8  C19 UNL     1     -10.665  46.370 -19.709  1.00  0.00     0.110 C 
HETATM    9  C20 UNL     1     -11.859  46.800 -18.884  1.00  0.00     0.133 C 
HETATM   10  C21 UNL     1     -11.394  47.268 -17.527  1.00  0.00     0.265 C 
HETATM   11  O4  UNL     1     -12.029  47.038 -16.501  1.00  0.00    -0.265 OA
HETATM   12  O5  UNL     1     -10.234  48.042 -17.496  1.00  0.00    -0.278 OA
HETATM   13  C22 UNL     1      -9.505  48.304 -18.671  1.00  0.00     0.089 A 
HETATM   14  C23 UNL     1      -8.541  49.311 -18.645  1.00  0.00     0.075 A 
HETATM   15  C24 UNL     1      -7.810  49.581 -19.806  1.00  0.00     0.074 A 
HETATM   16  C25 UNL     1      -8.063  48.888 -20.994  1.00  0.00    -0.022 A 
HETATM   17  C26 UNL     1      -9.062  47.913 -20.981  1.00  0.00     0.021 A 
HETATM   18  C27 UNL     1      -9.742  47.558 -19.816  1.00  0.00    -0.007 A 
HETATM   19  C28 UNL     1      -7.310  49.130 -22.287  1.00  0.00     0.077 C 
HETATM   20  C29 UNL     1      -6.390  47.948 -22.733  1.00  0.00     0.171 C 
HETATM   21  O9  UNL     1      -7.220  46.953 -23.405  1.00  0.00    -0.309 OA
HETATM   22  C40 UNL     1      -7.464  45.781 -22.759  1.00  0.00     0.289 C 
HETATM   23  O10 UNL     1      -7.021  45.454 -21.671  1.00  0.00    -0.260 OA
ENDROOT
BRANCH   5  24
HETATM   24  C6  UNL     1     -12.122  45.643 -24.406  1.00  0.00    -0.041 A 
HETATM   25  C7  UNL     1     -11.893  46.503 -25.494  1.00  0.00     0.017 A 
HETATM   26  C8  UNL     1     -12.952  47.006 -26.262  1.00  0.00    -0.034 A 
HETATM   27  C10 UNL     1     -14.262  46.655 -25.915  1.00  0.00     0.016 A 
HETATM   28  C11 UNL     1     -14.520  45.804 -24.830  1.00  0.00    -0.054 A 
HETATM   29  C16 UNL     1     -13.445  45.302 -24.083  1.00  0.00     0.015 A 
BRANCH  26  30
HETATM   30  C9  UNL     1     -12.691  47.955 -27.402  1.00  0.00     0.202 C 
BRANCH  30  31
HETATM   31  O1  UNL     1     -12.017  49.116 -26.931  1.00  0.00    -0.396 OA
HETATM   32  H11 UNL     1     -11.850  49.674 -27.708  1.00  0.00     0.209 HD
ENDBRANCH  30  31
ENDBRANCH  26  30
BRANCH  28  33
HETATM   33  C12 UNL     1     -15.943  45.452 -24.460  1.00  0.00     0.073 C 
BRANCH  33  34
HETATM   34  C13 UNL     1     -16.735  46.669 -23.957  1.00  0.00     0.150 C 
BRANCH  34  35
HETATM   35  O2  UNL     1     -16.957  46.558 -22.536  1.00  0.00    -0.393 OA
HETATM   36  H16 UNL     1     -16.077  46.590 -22.114  1.00  0.00     0.210 HD
ENDBRANCH  34  35
BRANCH  34  37
HETATM   37  C14 UNL     1     -18.129  46.789 -24.607  1.00  0.00     0.143 C 
HETATM   38  C15 UNL     1     -19.250  46.167 -23.789  1.00  0.00     0.042 C 
BRANCH  37  39
HETATM   39  O3  UNL     1     -18.087  46.114 -25.871  1.00  0.00    -0.393 OA
HETATM   40  H21 UNL     1     -17.270  46.444 -26.298  1.00  0.00     0.210 HD
ENDBRANCH  37  39
ENDBRANCH  34  37
ENDBRANCH  33  34
ENDBRANCH  28  33
ENDBRANCH   5  24
BRANCH  20  41
HETATM   41  C30 UNL     1      -5.253  48.441 -23.707  1.00  0.00     0.089 C 
HETATM   42  C31 UNL     1      -3.881  47.816 -23.347  1.00  0.00     0.041 C 
HETATM   43  C32 UNL     1      -2.662  48.599 -23.849  1.00  0.00     0.004 C 
HETATM   44  C33 UNL     1      -2.923  49.418 -25.102  1.00  0.00     0.005 C 
HETATM   45  C34 UNL     1      -4.164  50.336 -25.025  1.00  0.00    -0.001 C 
HETATM   46  C35 UNL     1      -3.800  51.819 -25.130  1.00  0.00     0.083 C 
HETATM   47  C39 UNL     1      -5.129  50.000 -23.838  1.00  0.00     0.027 C 
HETATM   48  C36 UNL     1      -3.402  52.370 -23.790  1.00  0.00     0.127 C 
HETATM   49  O8  UNL     1      -2.343  52.966 -23.609  1.00  0.00    -0.298 OA
HETATM   50  C37 UNL     1      -4.426  52.207 -22.705  1.00  0.00     0.079 C 
HETATM   51  C38 UNL     1      -4.763  50.734 -22.530  1.00  0.00     0.015 C 
BRANCH  41  52
HETATM   52  O7  UNL     1      -5.616  48.012 -25.041  1.00  0.00    -0.387 OA
HETATM   53  H32 UNL     1      -5.342  47.090 -25.181  1.00  0.00     0.210 HD
ENDBRANCH  41  52
ENDBRANCH  20  41
BRANCH  15  54
HETATM   54  O6  UNL     1      -6.842  50.545 -19.799  1.00  0.00    -0.360 OA
HETATM   55  H27 UNL     1      -6.789  50.933 -18.907  1.00  0.00     0.217 HD
ENDBRANCH  15  54
TORSDOF 11
ENDMDL
