MODEL 1
REMARK minimizedAffinity -9.88378239
REMARK  9 active torsions:
REMARK  status: ('A' for Active; 'I' for Inactive)
REMARK    1  A    between atoms: C3_3  and  O1_4 
REMARK    2  A    between atoms: N1_14  and  O2_16 
REMARK    3  A    between atoms: O2_16  and  C13_17 
REMARK    4  A    between atoms: C13_17  and  C14_18 
REMARK       I    between atoms: C14_18  and  N2_20 
REMARK    5  A    between atoms: N2_20  and  C15_21 
REMARK    6  A    between atoms: C15_21  and  C16_22 
REMARK    7  A    between atoms: C15_21  and  C17_25 
REMARK    8  A    between atoms: C16_22  and  O5_24 
REMARK    9  A    between atoms: C17_25  and  C19_27 
ROOT
HETATM    1  C1  UNL     1       4.615   8.933   9.624  1.00  0.00     0.015 C 
HETATM    2  C2  UNL     1       3.758   8.090   9.651  1.00  0.00    -0.078 C 
HETATM    3  C3  UNL     1       2.702   7.068   9.673  1.00  0.00     0.128 C 
HETATM    4  C4  UNL     1       3.268   5.632   9.553  1.00  0.00     0.052 C 
HETATM    5  C5  UNL     1       2.315   4.719  10.362  1.00  0.00     0.010 C 
HETATM    6  C6  UNL     1       1.170   5.636  10.782  1.00  0.00     0.002 C 
HETATM    7  C7  UNL     1       0.277   5.255  11.971  1.00  0.00    -0.004 C 
HETATM    8  C8  UNL     1      -0.275   3.818  11.926  1.00  0.00     0.010 C 
HETATM    9  C9  UNL     1      -1.769   3.734  11.639  1.00  0.00     0.035 C 
HETATM   10  C10 UNL     1      -2.622   4.643  12.500  1.00  0.00    -0.069 C 
HETATM   11  C11 UNL     1      -3.932   4.359  12.624  1.00  0.00     0.030 C 
HETATM   12  C12 UNL     1      -4.885   5.286  13.303  1.00  0.00     0.032 C 
HETATM   13  N1  UNL     1      -6.163   5.091  13.438  1.00  0.00    -0.271 N 
ATOM     14  H1  UNL     1      -6.793   5.738  13.912  1.00  0.00     0.194 HD
HETATM   15  C21 UNL     1      -4.325   6.569  13.884  1.00  0.00     0.060 C 
HETATM   16  C22 UNL     1      -3.072   7.021  13.142  1.00  0.00     0.020 C 
HETATM   17  C23 UNL     1      -1.981   5.919  13.058  1.00  0.00    -0.016 C 
HETATM   18  C24 UNL     1      -1.429   5.659  14.479  1.00  0.00     0.020 C 
HETATM   19  C25 UNL     1      -0.853   6.336  12.060  1.00  0.00     0.002 C 
HETATM   20  C26 UNL     1      -0.234   7.738  12.270  1.00  0.00     0.007 C 
HETATM   21  C27 UNL     1       0.775   8.090  11.154  1.00  0.00     0.014 C 
HETATM   22  C28 UNL     1       1.866   7.013  10.985  1.00  0.00     0.003 C 
HETATM   23  C29 UNL     1       2.802   7.053  12.231  1.00  0.00     0.020 C 
ENDROOT
BRANCH   3  24
HETATM   24  O1  UNL     1       1.849   7.284   8.545  1.00  0.00    -0.377 OA
HETATM   25  H2  UNL     1       1.741   8.244   8.445  1.00  0.00     0.211 HD
ENDBRANCH   3  24
BRANCH  13  26
HETATM   26  O2  UNL     1      -6.571   3.880  12.852  1.00  0.00    -0.271 OA
BRANCH  26  27
HETATM   27  C13 UNL     1      -7.992   3.840  12.755  1.00  0.00     0.303 C 
BRANCH  27  28
HETATM   28  C14 UNL     1      -8.643   5.217  12.644  1.00  0.00     0.244 C 
HETATM   29  O3  UNL     1      -8.484   5.943  11.663  1.00  0.00    -0.271 OA
HETATM   30  N2  UNL     1      -9.397   5.582  13.737  1.00  0.00    -0.344 N 
HETATM   31  H16 UNL     1      -9.228   5.010  14.564  1.00  0.00     0.163 HD
BRANCH  30  32
HETATM   32  C15 UNL     1      -9.938   6.932  13.903  1.00  0.00     0.186 C 
BRANCH  32  33
HETATM   33  C16 UNL     1      -9.795   7.277  15.391  1.00  0.00     0.163 C 
HETATM   34  O4  UNL     1     -10.052   8.353  15.914  1.00  0.00    -0.648 OA
BRANCH  33  35
HETATM   35  O5  UNL     1      -9.326   6.262  16.142  1.00  0.00    -0.775 OA
HETATM   36  H18 UNL     1      -9.344   6.614  17.057  1.00  0.00     0.167 HD
ENDBRANCH  33  35
ENDBRANCH  32  33
BRANCH  32  37
HETATM   37  C17 UNL     1     -11.389   6.976  13.368  1.00  0.00     0.014 C 
HETATM   38  C18 UNL     1     -12.454   6.668  14.426  1.00  0.00     0.012 C 
BRANCH  37  39
HETATM   39  C19 UNL     1     -11.720   8.264  12.582  1.00  0.00     0.002 C 
HETATM   40  C20 UNL     1     -11.591   9.575  13.341  1.00  0.00     0.005 C 
ENDBRANCH  37  39
ENDBRANCH  32  37
ENDBRANCH  30  32
ENDBRANCH  27  28
ENDBRANCH  26  27
ENDBRANCH  13  26
TORSDOF 9
ENDMDL
