MODEL 1
REMARK minimizedAffinity -8.86965561
REMARK CNNscore 0.666886687
REMARK CNNaffinity 6.73453856
REMARK  12 active torsions:
REMARK  status: ('A' for Active; 'I' for Inactive)
REMARK    1  A    between atoms: O1_2  and  C2_3 
REMARK    2  A    between atoms: C4_5  and  O2_6 
REMARK    3  A    between atoms: O2_6  and  C5_7 
REMARK    4  A    between atoms: C8_10  and  C9_11 
REMARK    5  A    between atoms: N1_12  and  C10_14 
REMARK    6  A    between atoms: C10_14  and  C11_15 
REMARK    7  A    between atoms: C11_15  and  C12_16 
REMARK    8  A    between atoms: C12_16  and  O3_17 
REMARK    9  A    between atoms: C18_23  and  C19_24 
REMARK   10  A    between atoms: C25_32  and  O6_33 
REMARK   11  A    between atoms: C29_37  and  O7_38 
REMARK   12  A    between atoms: C33_43  and  O9_44 
ROOT
HETATM    1  C5  UNL     1      -0.633  11.341  18.769  1.00  0.00     0.127 C 
HETATM    2  C6  UNL     1      -1.658  10.229  18.987  1.00  0.00     0.033 C 
HETATM    3  C7  UNL     1      -2.950  10.507  18.227  1.00  0.00     0.021 C 
HETATM    4  C8  UNL     1      -2.768  10.602  16.671  1.00  0.00     0.026 C 
HETATM    5  C13 UNL     1      -3.108   9.191  16.031  1.00  0.00     0.009 C 
HETATM    6  C14 UNL     1      -4.634   8.963  15.895  1.00  0.00     0.007 C 
HETATM    7  C15 UNL     1      -4.992   7.625  15.253  1.00  0.00     0.013 C 
HETATM    8  C16 UNL     1      -4.335   7.428  13.864  1.00  0.00    -0.005 C 
HETATM    9  C17 UNL     1      -4.987   8.371  12.835  1.00  0.00     0.019 C 
HETATM   10  C18 UNL     1      -4.399   5.938  13.395  1.00  0.00     0.028 C 
HETATM   11  C23 UNL     1      -3.316   5.248  14.253  1.00  0.00     0.013 C 
HETATM   12  C24 UNL     1      -2.307   6.339  14.638  1.00  0.00     0.040 C 
HETATM   13  C25 UNL     1      -2.798   7.640  13.965  1.00  0.00     0.070 C 
HETATM   14  C26 UNL     1      -2.381   8.954  14.686  1.00  0.00     0.026 C 
HETATM   15  C27 UNL     1      -0.846   9.047  14.831  1.00  0.00     0.011 C 
HETATM   16  C28 UNL     1      -0.370   9.913  15.995  1.00  0.00     0.039 C 
HETATM   17  C29 UNL     1      -1.316  11.085  16.295  1.00  0.00     0.073 C 
HETATM   18  C30 UNL     1      -0.751  12.006  17.393  1.00  0.00     0.071 C 
ENDROOT
BRANCH   1  19
HETATM   19  O2  UNL     1       0.699  10.827  18.869  1.00  0.00    -0.356 OA
BRANCH  19  20
HETATM   20  C4  UNL     1       1.291  10.996  20.156  1.00  0.00     0.263 C 
HETATM   21  C3  UNL     1       2.494  11.920  19.975  1.00  0.00     0.095 C 
HETATM   22  C2  UNL     1       3.247  12.101  21.294  1.00  0.00     0.156 C 
HETATM   23  C33 UNL     1       3.565  10.728  21.912  1.00  0.00     0.175 C 
HETATM   24  C31 UNL     1       2.282   9.873  21.993  1.00  0.00     0.151 C 
HETATM   25  O8  UNL     1       1.719   9.736  20.676  1.00  0.00    -0.354 OA
HETATM   26  C32 UNL     1       2.572   8.471  22.521  1.00  0.00     0.042 C 
BRANCH  22  27
HETATM   27  O1  UNL     1       2.403  12.871  22.164  1.00  0.00    -0.388 OA
HETATM   28  C1  UNL     1       3.090  13.361  23.310  1.00  0.00     0.202 C 
ENDBRANCH  22  27
BRANCH  23  29
HETATM   29  O9  UNL     1       4.558  10.080  21.103  1.00  0.00    -0.390 OA
HETATM   30  H51 UNL     1       4.078   9.552  20.434  1.00  0.00     0.210 HD
ENDBRANCH  23  29
ENDBRANCH  19  20
ENDBRANCH   1  19
BRANCH  17  31
HETATM   31  O7  UNL     1      -1.348  11.854  15.068  1.00  0.00    -0.389 OA
HETATM   32  H43 UNL     1      -0.538  12.393  15.036  1.00  0.00     0.210 HD
ENDBRANCH  17  31
BRANCH   4  33
HETATM   33  C9  UNL     1      -3.731  11.664  16.097  1.00  0.00     0.068 C 
HETATM   34  N1  UNL     1      -4.387  12.485  16.845  1.00  0.00    -0.401 N 
ATOM     35  H1  UNL     1      -4.324  12.471  17.863  1.00  0.00     0.158 HD
BRANCH  34  36
HETATM   36  C10 UNL     1      -5.228  13.440  16.121  1.00  0.00     0.121 C 
BRANCH  36  37
HETATM   37  C11 UNL     1      -4.360  14.576  15.587  1.00  0.00     0.045 C 
BRANCH  37  38
HETATM   38  C12 UNL     1      -4.545  14.789  14.092  1.00  0.00     0.165 C 
BRANCH  38  39
HETATM   39  O3  UNL     1      -3.265  14.847  13.472  1.00  0.00    -0.401 OA
HETATM   40  H20 UNL     1      -3.421  14.961  12.518  1.00  0.00     0.209 HD
ENDBRANCH  38  39
ENDBRANCH  37  38
ENDBRANCH  36  37
ENDBRANCH  34  36
ENDBRANCH   4  33
BRANCH  13  41
HETATM   41  O6  UNL     1      -2.223   7.643  12.648  1.00  0.00    -0.389 OA
HETATM   42  H37 UNL     1      -2.306   8.540  12.276  1.00  0.00     0.210 HD
ENDBRANCH  13  41
BRANCH  10  43
HETATM   43  C19 UNL     1      -5.751   5.277  13.382  1.00  0.00    -0.045 A 
HETATM   44  C20 UNL     1      -6.069   3.990  13.223  1.00  0.00     0.087 A 
HETATM   45  C21 UNL     1      -7.530   3.905  13.213  1.00  0.00     0.283 A 
HETATM   46  O4  UNL     1      -8.162   2.869  13.102  1.00  0.00    -0.260 OA
HETATM   47  O5  UNL     1      -8.056   5.152  13.349  1.00  0.00    -0.314 OA
HETATM   48  C22 UNL     1      -6.992   6.092  13.463  1.00  0.00     0.213 A 
ENDBRANCH  10  43
TORSDOF 12
ENDMDL
