MODEL 1
REMARK minimizedAffinity -8.65318775
REMARK CNNscore 0.424475551
REMARK CNNaffinity 6.55848312
REMARK  15 active torsions:
REMARK  status: ('A' for Active; 'I' for Inactive)
REMARK    1  A    between atoms: N1_2  and  C2_3 
REMARK    2  A    between atoms: C2_3  and  C3_4 
REMARK    3  A    between atoms: C3_4  and  C4_5 
REMARK    4  A    between atoms: C4_5  and  C5_6 
REMARK    5  A    between atoms: C4_5  and  C6_9 
REMARK    6  A    between atoms: C5_6  and  O2_8 
REMARK    7  A    between atoms: C6_9  and  C7_11 
REMARK    8  A    between atoms: C7_11  and  O4_12 
REMARK    9  A    between atoms: C7_11  and  C8_13 
REMARK   10  A    between atoms: C8_13  and  C9_14 
REMARK   11  A    between atoms: C9_14  and  C11_16 
REMARK   12  A    between atoms: C13_18  and  O5_19 
REMARK   13  A    between atoms: C16_22  and  O6_23 
REMARK   14  A    between atoms: C34_43  and  C35_44 
REMARK   15  A    between atoms: C36_45  and  C37_46 
ROOT
HETATM    1  C11 UNL     1      -1.438   7.110  13.893  1.00  0.00     0.002 C 
HETATM    2  C12 UNL     1      -2.912   7.572  13.563  1.00  0.00     0.049 C 
HETATM    3  C13 UNL     1      -3.267   8.532  14.711  1.00  0.00     0.088 C 
HETATM    4  C14 UNL     1      -4.363   9.545  14.658  1.00  0.00     0.011 C 
HETATM    5  C15 UNL     1      -4.311  10.563  15.550  1.00  0.00     0.015 C 
HETATM    6  C16 UNL     1      -3.180  10.704  16.594  1.00  0.00     0.108 C 
HETATM    7  C17 UNL     1      -1.830  10.189  16.078  1.00  0.00    -0.018 C 
HETATM    8  C18 UNL     1      -0.615  10.554  16.568  1.00  0.00     0.003 C 
HETATM    9  C19 UNL     1       0.625   9.964  15.883  1.00  0.00     0.157 C 
HETATM   10  O7  UNL     1       1.737  10.463  16.047  1.00  0.00    -0.293 OA
HETATM   11  C20 UNL     1       0.500   8.771  14.895  1.00  0.00     0.094 C 
HETATM   12  C21 UNL     1      -0.884   8.123  14.975  1.00  0.00    -0.019 C 
HETATM   13  C22 UNL     1      -0.846   7.322  16.334  1.00  0.00     0.017 C 
HETATM   14  C23 UNL     1      -1.917   9.278  14.884  1.00  0.00     0.026 C 
HETATM   15  C24 UNL     1      -1.688  10.248  13.654  1.00  0.00     0.025 C 
HETATM   16  C25 UNL     1      -0.547  11.600  17.706  1.00  0.00    -0.007 C 
HETATM   17  C26 UNL     1      -0.848  10.856  19.030  1.00  0.00     0.021 C 
HETATM   18  C27 UNL     1       0.821  12.304  17.958  1.00  0.00     0.022 C 
HETATM   19  C28 UNL     1       1.058  13.494  17.049  1.00  0.00     0.080 C 
HETATM   20  C29 UNL     1       0.071  14.582  17.411  1.00  0.00     0.135 C 
HETATM   21  O8  UNL     1       0.413  15.765  17.357  1.00  0.00    -0.297 OA
HETATM   22  C30 UNL     1      -1.363  14.156  17.819  1.00  0.00     0.018 C 
HETATM   23  C31 UNL     1      -2.316  15.168  17.139  1.00  0.00     0.023 C 
HETATM   24  C32 UNL     1      -1.492  14.329  19.339  1.00  0.00     0.023 C 
HETATM   25  C33 UNL     1      -1.609  12.699  17.270  1.00  0.00     0.025 C 
HETATM   26  C34 UNL     1      -3.092  12.179  17.167  1.00  0.00     0.057 C 
ENDROOT
BRANCH   1  27
HETATM   27  C9  UNL     1      -0.547   6.685  12.694  1.00  0.00    -0.011 C 
HETATM   28  C10 UNL     1       0.819   6.093  13.055  1.00  0.00     0.010 C 
BRANCH  27  29
HETATM   29  C8  UNL     1      -0.333   7.905  11.752  1.00  0.00     0.044 C 
BRANCH  29  30
HETATM   30  C7  UNL     1       1.126   8.113  11.320  1.00  0.00     0.188 C 
BRANCH  30  31
HETATM   31  C6  UNL     1       1.242   7.864   9.804  1.00  0.00     0.169 C 
HETATM   32  O3  UNL     1       0.259   8.017   9.071  1.00  0.00    -0.294 OA
BRANCH  31  33
HETATM   33  C4  UNL     1       2.589   7.410   9.263  1.00  0.00     0.157 C 
BRANCH  33  34
HETATM   34  C3  UNL     1       3.334   6.475  10.233  1.00  0.00     0.053 C 
BRANCH  34  35
HETATM   35  C2  UNL     1       4.709   6.997  10.669  1.00  0.00     0.270 C 
BRANCH  35  36
HETATM   36  N1  UNL     1       5.383   6.168  11.674  1.00  0.00     0.079 N 
HETATM   37  C1  UNL     1       6.259   6.949  12.541  1.00  0.00     0.306 C 
HETATM   38  H4  UNL     1       5.955   5.478  11.181  1.00  0.00     0.315 HD
ENDBRANCH  35  36
ENDBRANCH  34  35
ENDBRANCH  33  34
BRANCH  33  39
HETATM   39  C5  UNL     1       2.433   6.695   7.949  1.00  0.00     0.151 C 
HETATM   40  O1  UNL     1       2.703   5.532   7.704  1.00  0.00    -0.649 OA
BRANCH  39  41
HETATM   41  O2  UNL     1       1.963   7.502   6.975  1.00  0.00    -0.776 OA
HETATM   42  H10 UNL     1       1.898   6.919   6.190  1.00  0.00     0.167 HD
ENDBRANCH  39  41
ENDBRANCH  33  39
ENDBRANCH  31  33
ENDBRANCH  30  31
BRANCH  30  43
HETATM   43  O4  UNL     1       1.587   9.386  11.732  1.00  0.00    -0.388 OA
HETATM   44  H12 UNL     1       2.561   9.351  11.772  1.00  0.00     0.210 HD
ENDBRANCH  30  43
ENDBRANCH  29  30
ENDBRANCH  27  29
ENDBRANCH   1  27
BRANCH   3  45
HETATM   45  O5  UNL     1      -3.603   7.730  15.848  1.00  0.00    -0.385 OA
HETATM   46  H22 UNL     1      -4.510   7.385  15.694  1.00  0.00     0.211 HD
ENDBRANCH   3  45
BRANCH   6  47
HETATM   47  O6  UNL     1      -3.569   9.794  17.633  1.00  0.00    -0.380 OA
HETATM   48  H25 UNL     1      -3.479   8.889  17.266  1.00  0.00     0.211 HD
ENDBRANCH   6  47
BRANCH  26  49
HETATM   49  C35 UNL     1      -3.916  12.334  18.431  1.00  0.00    -0.017 C 
HETATM   50  C36 UNL     1      -4.913  13.222  18.576  1.00  0.00     0.008 C 
BRANCH  50  51
HETATM   51  C37 UNL     1      -5.741  13.318  19.785  1.00  0.00    -0.036 A 
HETATM   52  C38 UNL     1      -5.133  13.191  21.042  1.00  0.00     0.011 A 
HETATM   53  C39 UNL     1      -5.888  13.316  22.212  1.00  0.00     0.001 A 
HETATM   54  C40 UNL     1      -7.256  13.575  22.136  1.00  0.00     0.000 A 
HETATM   55  C41 UNL     1      -7.870  13.717  20.893  1.00  0.00     0.001 A 
HETATM   56  C42 UNL     1      -7.116  13.593  19.722  1.00  0.00     0.011 A 
ENDBRANCH  50  51
ENDBRANCH  26  49
TORSDOF 15
ENDMDL
