MODEL 1
REMARK minimizedAffinity -7.83488894
REMARK CNNscore 0.445677698
REMARK CNNaffinity 6.04415894
REMARK  8 active torsions:
REMARK  status: ('A' for Active; 'I' for Inactive)
REMARK    1  A    between atoms: C3_3  and  O1_4 
REMARK    2  A    between atoms: N1_14  and  O2_16 
REMARK    3  A    between atoms: O2_16  and  C13_17 
REMARK    4  A    between atoms: C13_17  and  C14_18 
REMARK       I    between atoms: C14_18  and  N2_20 
REMARK    5  A    between atoms: N2_20  and  C15_21 
REMARK    6  A    between atoms: C15_21  and  C16_22 
REMARK    7  A    between atoms: C16_22  and  O4_23 
REMARK    8  A    between atoms: C16_22  and  C17_24 
ROOT
HETATM    1  C1  UNL     1      -5.482  47.990 -28.611  1.00  0.00     0.015 C 
HETATM    2  C2  UNL     1      -6.637  47.990 -28.937  1.00  0.00    -0.078 C 
HETATM    3  C3  UNL     1      -8.058  48.013 -29.319  1.00  0.00     0.128 C 
HETATM    4  C4  UNL     1      -8.242  48.068 -30.837  1.00  0.00     0.052 C 
HETATM    5  C5  UNL     1      -9.719  47.740 -31.024  1.00  0.00     0.010 C 
HETATM    6  C6  UNL     1     -10.027  46.682 -29.952  1.00  0.00     0.002 C 
HETATM    7  C7  UNL     1     -11.463  46.695 -29.380  1.00  0.00    -0.004 C 
HETATM    8  C8  UNL     1     -12.050  48.065 -28.977  1.00  0.00     0.010 C 
HETATM    9  C9  UNL     1     -12.761  48.148 -27.618  1.00  0.00     0.035 C 
HETATM   10  C10 UNL     1     -13.443  46.902 -27.101  1.00  0.00    -0.069 C 
HETATM   11  C11 UNL     1     -14.274  46.999 -26.046  1.00  0.00     0.030 C 
HETATM   12  C12 UNL     1     -14.901  45.809 -25.414  1.00  0.00     0.032 C 
HETATM   13  N1  UNL     1     -15.724  46.013 -24.423  1.00  0.00    -0.271 N 
ATOM     14  H1  UNL     1     -15.950  46.932 -24.043  1.00  0.00     0.194 HD
HETATM   15  C23 UNL     1     -14.559  44.432 -25.960  1.00  0.00     0.060 C 
HETATM   16  C24 UNL     1     -13.218  44.426 -26.690  1.00  0.00     0.020 C 
HETATM   17  C25 UNL     1     -13.076  45.569 -27.729  1.00  0.00    -0.016 C 
HETATM   18  C26 UNL     1     -14.067  45.293 -28.890  1.00  0.00     0.020 C 
HETATM   19  C27 UNL     1     -11.602  45.633 -28.265  1.00  0.00     0.002 C 
HETATM   20  C28 UNL     1     -10.528  45.808 -27.155  1.00  0.00     0.007 C 
HETATM   21  C29 UNL     1      -9.427  46.826 -27.461  1.00  0.00     0.014 C 
HETATM   22  C30 UNL     1      -8.879  46.748 -28.896  1.00  0.00     0.003 C 
HETATM   23  C31 UNL     1      -8.036  45.447 -29.025  1.00  0.00     0.020 C 
ENDROOT
BRANCH   3  24
HETATM   24  O1  UNL     1      -8.640  49.207 -28.787  1.00  0.00    -0.377 OA
HETATM   25  H2  UNL     1      -8.258  49.335 -27.900  1.00  0.00     0.211 HD
ENDBRANCH   3  24
BRANCH  13  26
HETATM   26  O2  UNL     1     -16.258  44.807 -23.945  1.00  0.00    -0.271 OA
BRANCH  26  27
HETATM   27  C13 UNL     1     -17.644  44.993 -23.681  1.00  0.00     0.303 C 
BRANCH  27  28
HETATM   28  C14 UNL     1     -18.352  45.036 -25.024  1.00  0.00     0.243 C 
HETATM   29  O3  UNL     1     -18.666  46.087 -25.581  1.00  0.00    -0.271 OA
HETATM   30  N2  UNL     1     -18.611  43.793 -25.566  1.00  0.00    -0.356 N 
HETATM   31  H16 UNL     1     -18.611  43.007 -24.922  1.00  0.00     0.162 HD
BRANCH  30  32
HETATM   32  C15 UNL     1     -19.475  43.659 -26.731  1.00  0.00     0.159 C 
BRANCH  32  33
HETATM   33  C16 UNL     1     -18.745  42.945 -27.886  1.00  0.00     0.170 C 
BRANCH  33  34
HETATM   34  O4  UNL     1     -17.409  43.465 -27.971  1.00  0.00    -0.389 OA
HETATM   35  H20 UNL     1     -17.084  43.291 -28.871  1.00  0.00     0.210 HD
ENDBRANCH  33  34
BRANCH  33  36
HETATM   36  C17 UNL     1     -19.433  43.113 -29.214  1.00  0.00    -0.013 A 
HETATM   37  C18 UNL     1     -18.758  43.562 -30.352  1.00  0.00     0.013 A 
HETATM   38  C19 UNL     1     -19.445  43.694 -31.557  1.00  0.00     0.025 A 
HETATM   39  C20 UNL     1     -20.793  43.356 -31.602  1.00  0.00     0.005 A 
HETATM   40  C21 UNL     1     -21.567  43.500 -32.878  1.00  0.00     0.068 C 
HETATM   41  N3  UNL     1     -21.471  42.923 -30.513  1.00  0.00    -0.369 N 
HETATM   42  C22 UNL     1     -20.784  42.817 -29.352  1.00  0.00     0.097 A 
ATOM     43  H3  UNL     1     -22.460  42.685 -30.566  1.00  0.00     0.165 HD
ENDBRANCH  33  36
ENDBRANCH  32  33
ENDBRANCH  30  32
ENDBRANCH  27  28
ENDBRANCH  26  27
ENDBRANCH  13  26
TORSDOF 8
ENDMDL
