MODEL 1
REMARK minimizedAffinity -7.3210516
REMARK CNNscore 0.853025734
REMARK CNNaffinity 7.09244776
REMARK  12 active torsions:
REMARK  status: ('A' for Active; 'I' for Inactive)
REMARK    1  A    between atoms: C2_2  and  C3_3 
REMARK    2  A    between atoms: C2_2  and  C5_6 
REMARK    3  A    between atoms: C3_3  and  C4_4 
REMARK    4  A    between atoms: C4_4  and  O1_5 
REMARK    5  A    between atoms: C5_6  and  C6_7 
REMARK    6  A    between atoms: C6_7  and  C7_8 
REMARK    7  A    between atoms: C7_8  and  C9_10 
REMARK    8  A    between atoms: C10_11  and  O2_12 
REMARK    9  A    between atoms: C11_13  and  O3_14 
REMARK   10  A    between atoms: C22_25  and  O4_26 
REMARK   11  A    between atoms: C25_29  and  O5_30 
REMARK   12  A    between atoms: C27_32  and  O6_33 
ROOT
HETATM    1  C9  UNL     1      -9.689   8.306  14.765  1.00  0.00     0.029 C 
HETATM    2  C10 UNL     1      -9.752   9.544  15.708  1.00  0.00     0.152 C 
HETATM    3  C11 UNL     1     -11.241   9.944  15.841  1.00  0.00     0.155 C 
HETATM    4  C12 UNL     1     -11.962   8.627  15.573  1.00  0.00     0.060 C 
HETATM    5  C13 UNL     1     -11.185   8.074  14.345  1.00  0.00    -0.029 C 
HETATM    6  C14 UNL     1     -11.380   8.888  13.025  1.00  0.00     0.016 C 
HETATM    7  C15 UNL     1     -11.647   6.635  14.062  1.00  0.00     0.011 C 
HETATM    8  C16 UNL     1     -13.176   6.541  13.912  1.00  0.00     0.009 C 
HETATM    9  C17 UNL     1     -13.931   7.133  15.132  1.00  0.00     0.029 C 
HETATM   10  C18 UNL     1     -15.486   6.865  15.097  1.00  0.00    -0.031 C 
HETATM   11  C19 UNL     1     -16.135   7.347  13.777  1.00  0.00     0.016 C 
HETATM   12  C20 UNL     1     -15.712   5.310  15.169  1.00  0.00     0.012 C 
HETATM   13  C21 UNL     1     -16.981   4.928  15.920  1.00  0.00     0.032 C 
HETATM   14  C22 UNL     1     -16.898   5.363  17.383  1.00  0.00     0.118 C 
HETATM   15  C23 UNL     1     -16.128   6.675  17.576  1.00  0.00     0.039 C 
HETATM   16  C24 UNL     1     -16.210   7.558  16.314  1.00  0.00     0.025 C 
HETATM   17  C25 UNL     1     -15.720   8.985  16.619  1.00  0.00     0.126 C 
HETATM   18  C26 UNL     1     -14.200   9.104  16.706  1.00  0.00     0.071 C 
HETATM   19  C27 UNL     1     -13.502   8.611  15.423  1.00  0.00     0.071 C 
ENDROOT
BRANCH   1  20
HETATM   20  C7  UNL     1      -8.896   7.103  15.364  1.00  0.00    -0.011 C 
HETATM   21  C8  UNL     1      -8.260   7.347  16.743  1.00  0.00     0.010 C 
BRANCH  20  22
HETATM   22  C6  UNL     1      -7.770   6.608  14.412  1.00  0.00     0.005 C 
BRANCH  22  23
HETATM   23  C5  UNL     1      -7.503   5.099  14.487  1.00  0.00     0.005 C 
BRANCH  23  24
HETATM   24  C2  UNL     1      -7.827   4.345  13.175  1.00  0.00    -0.017 C 
HETATM   25  C1  UNL     1      -8.467   5.324  12.187  1.00  0.00     0.010 C 
BRANCH  24  26
HETATM   26  C3  UNL     1      -6.572   3.648  12.599  1.00  0.00     0.030 C 
BRANCH  26  27
HETATM   27  C4  UNL     1      -6.801   2.220  12.107  1.00  0.00     0.164 C 
BRANCH  27  28
HETATM   28  O1  UNL     1      -8.030   1.715  12.609  1.00  0.00    -0.401 OA
HETATM   29  H9  UNL     1      -8.134   0.814  12.258  1.00  0.00     0.209 HD
ENDBRANCH  27  28
ENDBRANCH  26  27
ENDBRANCH  24  26
ENDBRANCH  23  24
ENDBRANCH  22  23
ENDBRANCH  20  22
ENDBRANCH   1  20
BRANCH   2  30
HETATM   30  O2  UNL     1      -8.997  10.626  15.163  1.00  0.00    -0.393 OA
HETATM   31  H20 UNL     1      -9.066  11.357  15.802  1.00  0.00     0.210 HD
ENDBRANCH   2  30
BRANCH   3  32
HETATM   32  O3  UNL     1     -11.475  10.428  17.161  1.00  0.00    -0.392 OA
HETATM   33  H22 UNL     1     -11.933  11.285  17.065  1.00  0.00     0.210 HD
ENDBRANCH   3  32
BRANCH  19  34
HETATM   34  O6  UNL     1     -13.860   9.479  14.352  1.00  0.00    -0.389 OA
HETATM   35  H48 UNL     1     -14.760   9.822  14.534  1.00  0.00     0.210 HD
ENDBRANCH  19  34
BRANCH  17  36
HETATM   36  O5  UNL     1     -16.178   9.885  15.603  1.00  0.00    -0.395 OA
HETATM   37  H45 UNL     1     -17.153   9.861  15.615  1.00  0.00     0.210 HD
ENDBRANCH  17  36
BRANCH  14  38
HETATM   38  O4  UNL     1     -18.230   5.513  17.869  1.00  0.00    -0.396 OA
HETATM   39  H40 UNL     1     -18.178   5.652  18.831  1.00  0.00     0.210 HD
ENDBRANCH  14  38
TORSDOF 12
ENDMDL
