MODEL 1
REMARK minimizedAffinity -9.91407108
REMARK  6 active torsions:
REMARK  status: ('A' for Active; 'I' for Inactive)
REMARK    1  A    between atoms: C2_2  and  C30_32 
REMARK    2  A    between atoms: C3_3  and  C4_4 
REMARK    3  A    between atoms: C4_4  and  C5_5 
REMARK    4  A    between atoms: C5_5  and  C6_6 
REMARK    5  A    between atoms: C6_6  and  C8_8 
REMARK    6  A    between atoms: C30_32  and  O4_34 
ROOT
HETATM    1  C8  UNL     1      -5.147   7.291  15.290  1.00  0.00    -0.002 C 
HETATM    2  C9  UNL     1      -5.410   8.741  14.793  1.00  0.00     0.007 C 
HETATM    3  C10 UNL     1      -4.096   9.249  14.164  1.00  0.00     0.015 C 
HETATM    4  C11 UNL     1      -3.014   8.271  14.660  1.00  0.00    -0.005 C 
HETATM    5  C12 UNL     1      -2.607   8.724  16.099  1.00  0.00     0.021 C 
HETATM    6  C13 UNL     1      -1.697   8.139  13.912  1.00  0.00    -0.000 C 
HETATM    7  C14 UNL     1      -1.004   6.967  13.909  1.00  0.00    -0.060 C 
HETATM    8  C15 UNL     1      -1.564   5.720  14.591  1.00  0.00     0.036 C 
HETATM    9  C16 UNL     1      -2.952   5.836  15.260  1.00  0.00     0.015 C 
HETATM   10  C17 UNL     1      -3.815   6.909  14.580  1.00  0.00    -0.028 C 
HETATM   11  C18 UNL     1      -4.098   6.454  13.117  1.00  0.00     0.016 C 
HETATM   12  C19 UNL     1       0.394   6.868  13.252  1.00  0.00    -0.014 C 
HETATM   13  C20 UNL     1       1.382   7.387  14.329  1.00  0.00     0.020 C 
HETATM   14  C21 UNL     1       0.870   5.434  12.862  1.00  0.00     0.021 C 
HETATM   15  C22 UNL     1       0.548   5.063  11.423  1.00  0.00     0.080 C 
HETATM   16  C23 UNL     1       1.312   5.983  10.492  1.00  0.00     0.135 C 
HETATM   17  O1  UNL     1       1.847   5.536   9.476  1.00  0.00    -0.297 OA
HETATM   18  C24 UNL     1       1.376   7.478  10.862  1.00  0.00     0.018 C 
HETATM   19  C25 UNL     1       2.812   7.806  11.285  1.00  0.00     0.023 C 
HETATM   20  C26 UNL     1       1.054   8.280   9.583  1.00  0.00     0.023 C 
HETATM   21  C27 UNL     1       0.296   7.750  11.957  1.00  0.00     0.020 C 
HETATM   22  C28 UNL     1       0.077   9.216  12.334  1.00  0.00     0.090 C 
HETATM   23  C29 UNL     1      -1.110   9.365  13.268  1.00  0.00     0.157 C 
HETATM   24  O2  UNL     1      -1.564  10.484  13.504  1.00  0.00    -0.293 OA
ENDROOT
BRANCH   1  25
HETATM   25  C6  UNL     1      -6.415   6.385  15.278  1.00  0.00    -0.014 C 
HETATM   26  C7  UNL     1      -7.342   6.468  16.497  1.00  0.00     0.010 C 
BRANCH  25  27
HETATM   27  C5  UNL     1      -7.221   6.555  13.970  1.00  0.00     0.008 C 
BRANCH  27  28
HETATM   28  C4  UNL     1      -7.592   5.223  13.309  1.00  0.00     0.028 C 
BRANCH  28  29
HETATM   29  C3  UNL     1      -6.391   4.581  12.669  1.00  0.00    -0.013 C 
HETATM   30  C2  UNL     1      -6.247   3.310  12.244  1.00  0.00     0.008 C 
HETATM   31  C1  UNL     1      -5.003   2.852  11.538  1.00  0.00     0.055 C 
BRANCH  30  32
HETATM   32  C30 UNL     1      -7.267   2.247  12.396  1.00  0.00     0.171 C 
HETATM   33  O3  UNL     1      -8.392   2.410  12.836  1.00  0.00    -0.646 OA
BRANCH  32  34
HETATM   34  O4  UNL     1      -6.880   1.060  11.903  1.00  0.00    -0.773 OA
HETATM   35  H44 UNL     1      -7.664   0.490  12.037  1.00  0.00     0.167 HD
ENDBRANCH  32  34
ENDBRANCH  30  32
ENDBRANCH  28  29
ENDBRANCH  27  28
ENDBRANCH  25  27
ENDBRANCH   1  25
TORSDOF 6
ENDMDL
