MODEL 1
REMARK minimizedAffinity -9.46496201
REMARK  4 active torsions:
REMARK  status: ('A' for Active; 'I' for Inactive)
REMARK    1  A    between atoms: C4_4  and  C5_5 
REMARK    2  A    between atoms: C5_5  and  C6_6 
REMARK    3  A    between atoms: C6_6  and  C7_7 
REMARK    4  A    between atoms: C7_7  and  C9_9 
ROOT
HETATM    1  C9  UNL     1      -3.820  50.580 -24.460  1.00  0.00    -0.002 C 
HETATM    2  C10 UNL     1      -5.154  50.097 -23.809  1.00  0.00     0.006 C 
HETATM    3  C11 UNL     1      -4.983  50.179 -22.279  1.00  0.00     0.011 C 
HETATM    4  C12 UNL     1      -3.707  51.013 -22.073  1.00  0.00    -0.032 C 
HETATM    5  C13 UNL     1      -4.162  52.509 -22.229  1.00  0.00     0.016 C 
HETATM    6  C14 UNL     1      -2.976  50.920 -20.692  1.00  0.00     0.004 C 
HETATM    7  C15 UNL     1      -3.385  49.757 -19.789  1.00  0.00     0.007 C 
HETATM    8  C16 UNL     1      -2.684  49.769 -18.421  1.00  0.00     0.007 C 
HETATM    9  C17 UNL     1      -1.616  50.875 -18.210  1.00  0.00     0.010 C 
HETATM   10  C18 UNL     1      -0.758  50.650 -16.920  1.00  0.00     0.018 C 
HETATM   11  C19 UNL     1      -1.652  50.718 -15.665  1.00  0.00     0.023 C 
HETATM   12  C20 UNL     1      -0.006  49.308 -16.899  1.00  0.00     0.023 C 
HETATM   13  C21 UNL     1       0.288  51.772 -16.842  1.00  0.00     0.135 C 
HETATM   14  O1  UNL     1       0.456  52.461 -15.835  1.00  0.00    -0.297 OA
HETATM   15  C22 UNL     1       1.164  51.970 -18.055  1.00  0.00     0.080 C 
HETATM   16  C23 UNL     1       0.290  52.218 -19.267  1.00  0.00     0.018 C 
HETATM   17  C24 UNL     1      -0.739  51.120 -19.458  1.00  0.00    -0.026 A 
HETATM   18  C25 UNL     1      -0.446  49.965 -20.374  1.00  0.00     0.021 A 
HETATM   19  C26 UNL     1      -1.441  51.033 -20.826  1.00  0.00    -0.027 A 
HETATM   20  C27 UNL     1      -0.990  51.871 -22.014  1.00  0.00     0.011 C 
HETATM   21  C28 UNL     1      -1.558  51.393 -23.368  1.00  0.00     0.011 C 
HETATM   22  C29 UNL     1      -2.813  50.500 -23.263  1.00  0.00    -0.032 C 
HETATM   23  C30 UNL     1      -2.359  49.018 -23.113  1.00  0.00     0.016 C 
ENDROOT
BRANCH   1  24
HETATM   24  C7  UNL     1      -3.516  49.845 -25.802  1.00  0.00    -0.014 C 
HETATM   25  C8  UNL     1      -4.188  48.469 -25.865  1.00  0.00     0.010 C 
BRANCH  24  26
HETATM   26  C6  UNL     1      -1.979  49.702 -25.992  1.00  0.00     0.008 C 
BRANCH  26  27
HETATM   27  C5  UNL     1      -1.321  50.873 -26.735  1.00  0.00     0.028 C 
BRANCH  27  28
HETATM   28  C4  UNL     1       0.147  50.953 -26.409  1.00  0.00    -0.025 C 
HETATM   29  C2  UNL     1       1.143  51.468 -27.157  1.00  0.00    -0.091 C 
HETATM   30  C1  UNL     1       2.561  51.468 -26.646  1.00  0.00     0.042 C 
HETATM   31  C3  UNL     1       0.985  52.081 -28.521  1.00  0.00     0.042 C 
ENDBRANCH  27  28
ENDBRANCH  26  27
ENDBRANCH  24  26
ENDBRANCH   1  24
TORSDOF 4
ENDMDL
