MODEL 1
REMARK minimizedAffinity -7.45665789
REMARK CNNscore 0.912955165
REMARK CNNaffinity 6.42922449
REMARK  11 active torsions:
REMARK  status: ('A' for Active; 'I' for Inactive)
REMARK    1  A    between atoms: C2_2  and  C27_32 
REMARK    2  A    between atoms: C3_3  and  C4_4 
REMARK    3  A    between atoms: C4_4  and  C5_5 
REMARK    4  A    between atoms: C5_5  and  C6_6 
REMARK    5  A    between atoms: C6_6  and  C8_8 
REMARK    6  A    between atoms: C10_10  and  O1_11 
REMARK    7  A    between atoms: C11_12  and  O2_13 
REMARK    8  A    between atoms: C21_23  and  O3_24 
REMARK    9  A    between atoms: C24_27  and  O4_28 
REMARK   10  A    between atoms: C26_30  and  O5_31 
REMARK   11  A    between atoms: C27_32  and  O6_33 
ROOT
HETATM    1  C8  UNL     1       2.072  54.266  -9.805  1.00  0.00     0.003 C 
HETATM    2  C9  UNL     1       2.456  52.789  -9.671  1.00  0.00     0.041 C 
HETATM    3  C10 UNL     1       1.103  52.100  -9.577  1.00  0.00     0.156 C 
HETATM    4  C11 UNL     1       0.343  52.953  -8.536  1.00  0.00     0.122 C 
HETATM    5  C12 UNL     1       0.869  54.445  -8.788  1.00  0.00    -0.003 C 
HETATM    6  C13 UNL     1       1.273  55.106  -7.460  1.00  0.00     0.019 C 
HETATM    7  C14 UNL     1      -0.221  55.325  -9.451  1.00  0.00     0.013 C 
HETATM    8  C15 UNL     1      -1.093  54.551 -10.435  1.00  0.00     0.009 C 
HETATM    9  C16 UNL     1      -1.933  53.434  -9.776  1.00  0.00     0.032 C 
HETATM   10  C17 UNL     1      -2.652  52.479 -10.833  1.00  0.00    -0.031 C 
HETATM   11  C18 UNL     1      -4.144  52.945 -10.873  1.00  0.00     0.016 C 
HETATM   12  C19 UNL     1      -2.105  52.582 -12.289  1.00  0.00     0.012 C 
HETATM   13  C20 UNL     1      -2.795  51.636 -13.279  1.00  0.00     0.032 C 
HETATM   14  C21 UNL     1      -2.815  50.187 -12.800  1.00  0.00     0.118 C 
HETATM   15  C22 UNL     1      -3.312  50.047 -11.361  1.00  0.00     0.039 C 
HETATM   16  C23 UNL     1      -2.533  50.985 -10.426  1.00  0.00     0.025 C 
HETATM   17  C24 UNL     1      -2.847  50.802  -8.943  1.00  0.00     0.126 C 
HETATM   18  C25 UNL     1      -1.675  51.355  -8.145  1.00  0.00     0.073 C 
HETATM   19  C26 UNL     1      -1.223  52.786  -8.532  1.00  0.00     0.099 C 
ENDROOT
BRANCH   1  20
HETATM   20  C6  UNL     1       3.327  55.190  -9.880  1.00  0.00    -0.013 C 
HETATM   21  C7  UNL     1       3.291  56.331 -10.893  1.00  0.00     0.010 C 
BRANCH  20  22
HETATM   22  C5  UNL     1       4.682  54.436  -9.798  1.00  0.00     0.008 C 
BRANCH  22  23
HETATM   23  C4  UNL     1       6.003  55.213  -9.814  1.00  0.00     0.028 C 
BRANCH  23  24
HETATM   24  C3  UNL     1       6.836  55.069  -8.571  1.00  0.00    -0.022 C 
HETATM   25  C2  UNL     1       6.702  55.751  -7.415  1.00  0.00    -0.064 C 
HETATM   26  C1  UNL     1       7.616  55.466  -6.250  1.00  0.00     0.045 C 
BRANCH  25  27
HETATM   27  C27 UNL     1       5.673  56.819  -7.157  1.00  0.00     0.197 C 
BRANCH  27  28
HETATM   28  O6  UNL     1       4.504  56.215  -6.625  1.00  0.00    -0.397 OA
HETATM   29  H46 UNL     1       4.783  55.729  -5.829  1.00  0.00     0.209 HD
ENDBRANCH  27  28
ENDBRANCH  25  27
ENDBRANCH  23  24
ENDBRANCH  22  23
ENDBRANCH  20  22
ENDBRANCH   1  20
BRANCH   3  30
HETATM   30  O1  UNL     1       1.299  50.758  -9.163  1.00  0.00    -0.392 OA
HETATM   31  H17 UNL     1       1.475  50.818  -8.201  1.00  0.00     0.210 HD
ENDBRANCH   3  30
BRANCH   4  32
HETATM   32  O2  UNL     1       0.819  52.488  -7.241  1.00  0.00    -0.383 OA
HETATM   33  H18 UNL     1       0.135  52.786  -6.603  1.00  0.00     0.210 HD
ENDBRANCH   4  32
BRANCH  19  34
HETATM   34  O5  UNL     1      -1.648  53.538  -7.342  1.00  0.00    -0.386 OA
HETATM   35  H43 UNL     1      -1.824  54.463  -7.575  1.00  0.00     0.210 HD
ENDBRANCH  19  34
BRANCH  17  36
HETATM   36  O4  UNL     1      -2.994  49.417  -8.636  1.00  0.00    -0.395 OA
HETATM   37  H40 UNL     1      -3.114  49.338  -7.674  1.00  0.00     0.210 HD
ENDBRANCH  17  36
BRANCH  14  38
HETATM   38  O3  UNL     1      -3.648  49.432 -13.673  1.00  0.00    -0.396 OA
HETATM   39  H35 UNL     1      -3.630  48.509 -13.361  1.00  0.00     0.210 HD
ENDBRANCH  14  38
TORSDOF 11
ENDMDL
