MODEL 1
REMARK minimizedAffinity -7.99865675
REMARK  11 active torsions:
REMARK  status: ('A' for Active; 'I' for Inactive)
REMARK    1  A    between atoms: C2_2  and  O2_4 
REMARK    2  A    between atoms: O2_4  and  C3_5 
REMARK    3  A    between atoms: C3_5  and  C4_6 
REMARK    4  A    between atoms: C5_7  and  C6_8 
REMARK    5  A    between atoms: C5_7  and  C9_13 
REMARK    6  A    between atoms: C6_8  and  O3_9 
REMARK    7  A    between atoms: O3_9  and  C7_10 
REMARK    8  A    between atoms: C9_13  and  C10_14 
REMARK    9  A    between atoms: C9_13  and  O6_29 
REMARK   10  A    between atoms: C10_14  and  C11_15 
REMARK   11  A    between atoms: O6_29  and  C24_30 
ROOT
HETATM    1  C9  UNL     1      -1.908   6.604  12.952  1.00  0.00     0.163 C 
ENDROOT
BRANCH   1   2
HETATM    2  C5  UNL     1      -0.860   5.904  12.084  1.00  0.00    -0.028 C 
HETATM    3  C4  UNL     1       0.052   6.563  11.336  1.00  0.00     0.007 C 
BRANCH   3   4
HETATM    4  C3  UNL     1       1.120   6.008  10.438  1.00  0.00     0.206 C 
BRANCH   4   5
HETATM    5  O2  UNL     1       1.329   6.927   9.356  1.00  0.00    -0.318 OA
BRANCH   5   6
HETATM    6  C2  UNL     1       2.338   6.621   8.500  1.00  0.00     0.255 C 
HETATM    7  C1  UNL     1       2.017   7.135   7.130  1.00  0.00     0.126 C 
HETATM    8  O1  UNL     1       3.368   6.027   8.790  1.00  0.00    -0.266 OA
ENDBRANCH   5   6
ENDBRANCH   4   5
ENDBRANCH   3   4
BRANCH   2   9
HETATM    9  C6  UNL     1      -0.928   4.394  12.192  1.00  0.00     0.215 C 
BRANCH   9  10
HETATM   10  O3  UNL     1      -1.247   3.874  10.898  1.00  0.00    -0.317 OA
BRANCH  10  11
HETATM   11  C7  UNL     1      -1.716   2.598  10.919  1.00  0.00     0.255 C 
HETATM   12  C8  UNL     1      -2.970   2.527  11.737  1.00  0.00     0.126 C 
HETATM   13  O4  UNL     1      -1.204   1.645  10.350  1.00  0.00    -0.266 OA
ENDBRANCH  10  11
ENDBRANCH   9  10
ENDBRANCH   2   9
ENDBRANCH   1   2
BRANCH   1  14
HETATM   14  C10 UNL     1      -3.383   6.115  12.914  1.00  0.00     0.047 C 
BRANCH  14  15
HETATM   15  C11 UNL     1      -4.547   7.008  13.496  1.00  0.00    -0.033 C 
HETATM   16  C12 UNL     1      -4.605   8.343  12.696  1.00  0.00     0.016 C 
HETATM   17  C13 UNL     1      -4.176   7.411  14.973  1.00  0.00    -0.010 C 
HETATM   18  C14 UNL     1      -3.650   6.246  15.832  1.00  0.00     0.011 C 
HETATM   19  C15 UNL     1      -5.278   8.214  15.700  1.00  0.00     0.006 C 
HETATM   20  C16 UNL     1      -6.716   7.953  15.247  1.00  0.00     0.017 C 
HETATM   21  C17 UNL     1      -6.933   6.550  14.670  1.00  0.00     0.021 C 
HETATM   22  C18 UNL     1      -6.823   5.511  15.810  1.00  0.00     0.024 C 
HETATM   23  C19 UNL     1      -8.377   6.429  14.135  1.00  0.00     0.135 C 
HETATM   24  C23 UNL     1      -6.000   6.350  13.423  1.00  0.00     0.010 C 
HETATM   25  O5  UNL     1      -9.304   7.106  14.582  1.00  0.00    -0.297 OA
HETATM   26  C20 UNL     1      -8.625   5.439  13.008  1.00  0.00     0.079 C 
HETATM   27  C21 UNL     1      -7.559   4.352  12.965  1.00  0.00     0.008 C 
HETATM   28  C22 UNL     1      -6.127   4.910  12.885  1.00  0.00     0.007 C 
ENDBRANCH  14  15
ENDBRANCH   1  14
BRANCH   1  29
HETATM   29  O6  UNL     1      -1.897   7.970  12.457  1.00  0.00    -0.312 OA
BRANCH  29  30
HETATM   30  C24 UNL     1      -1.426   8.935  13.286  1.00  0.00     0.255 C 
HETATM   31  C25 UNL     1      -0.735   8.307  14.457  1.00  0.00     0.126 C 
HETATM   32  O7  UNL     1      -1.546  10.141  13.123  1.00  0.00    -0.266 OA
ENDBRANCH  29  30
ENDBRANCH   1  29
TORSDOF 11
ENDMDL
