MODEL 1
REMARK minimizedAffinity -8.11248302
REMARK CNNscore 0.623709679
REMARK CNNaffinity 8.12875748
REMARK  12 active torsions:
REMARK  status: ('A' for Active; 'I' for Inactive)
REMARK    1  A    between atoms: O1_2  and  C2_3 
REMARK    2  A    between atoms: C2_3  and  C5_6 
REMARK    3  A    between atoms: C6_7  and  C7_8 
REMARK    4  A    between atoms: C7_8  and  C8_9 
REMARK    5  A    between atoms: C8_9  and  C10_11 
REMARK    6  A    between atoms: C28_30  and  O3_31 
REMARK    7  A    between atoms: O3_31  and  C29_32 
REMARK    8  A    between atoms: C30_34  and  C31_35 
REMARK    9  A    between atoms: C31_35  and  O5_36 
REMARK   10  A    between atoms: C32_37  and  O6_38 
REMARK   11  A    between atoms: C33_39  and  O7_40 
REMARK   12  A    between atoms: C34_41  and  O8_42 
ROOT
HETATM    1  C10 UNL     1     -10.654   9.033  16.025  1.00  0.00    -0.002 C 
HETATM    2  C11 UNL     1     -11.313   9.259  14.624  1.00  0.00     0.006 C 
HETATM    3  C12 UNL     1     -10.591   8.345  13.612  1.00  0.00     0.011 C 
HETATM    4  C13 UNL     1      -9.777   7.379  14.488  1.00  0.00    -0.029 C 
HETATM    5  C14 UNL     1     -10.791   6.285  14.955  1.00  0.00     0.016 C 
HETATM    6  C15 UNL     1      -8.534   6.736  13.805  1.00  0.00     0.028 C 
HETATM    7  C16 UNL     1      -8.811   5.888  12.588  1.00  0.00    -0.021 C 
HETATM    8  C17 UNL     1      -8.051   4.813  12.325  1.00  0.00     0.008 C 
HETATM    9  C18 UNL     1      -6.853   4.418  13.191  1.00  0.00     0.092 C 
HETATM   10  O2  UNL     1      -7.460   3.584  14.203  1.00  0.00    -0.374 OA
HETATM   11  C19 UNL     1      -8.088   4.497  15.162  1.00  0.00     0.179 C 
HETATM   12  C20 UNL     1      -7.618   5.959  14.825  1.00  0.00    -0.004 C 
HETATM   13  C21 UNL     1      -7.353   6.769  16.116  1.00  0.00     0.014 C 
HETATM   14  C22 UNL     1      -8.573   7.510  16.705  1.00  0.00     0.011 C 
HETATM   15  C23 UNL     1      -9.299   8.356  15.640  1.00  0.00    -0.032 C 
HETATM   16  C24 UNL     1      -8.315   9.476  15.167  1.00  0.00     0.016 C 
HETATM   17  C25 UNL     1      -6.327   5.544  14.109  1.00  0.00     0.036 C 
HETATM   18  C26 UNL     1      -5.452   6.516  13.344  1.00  0.00     0.011 C 
HETATM   19  C27 UNL     1      -4.175   5.777  12.906  1.00  0.00     0.033 C 
HETATM   20  C28 UNL     1      -4.291   4.230  12.934  1.00  0.00     0.136 C 
HETATM   21  C35 UNL     1      -5.677   3.730  12.385  1.00  0.00     0.014 C 
HETATM   22  C36 UNL     1      -5.755   2.194  12.524  1.00  0.00     0.021 C 
HETATM   23  C37 UNL     1      -5.723   4.043  10.861  1.00  0.00     0.021 C 
ENDROOT
BRANCH  20  24
HETATM   24  O3  UNL     1      -3.232   3.640  12.160  1.00  0.00    -0.352 OA
BRANCH  24  25
HETATM   25  C29 UNL     1      -1.915   3.941  12.634  1.00  0.00     0.292 C 
HETATM   26  O4  UNL     1      -1.914   5.084  13.480  1.00  0.00    -0.348 OA
HETATM   27  C30 UNL     1      -0.607   5.419  13.972  1.00  0.00     0.179 C 
HETATM   28  C32 UNL     1       0.331   5.755  12.805  1.00  0.00     0.180 C 
HETATM   29  C33 UNL     1       0.355   4.593  11.809  1.00  0.00     0.183 C 
HETATM   30  C34 UNL     1      -1.059   4.215  11.384  1.00  0.00     0.204 C 
BRANCH  27  31
HETATM   31  C31 UNL     1      -0.740   6.612  14.932  1.00  0.00     0.198 C 
BRANCH  31  32
HETATM   32  O5  UNL     1       0.224   6.526  15.987  1.00  0.00    -0.398 OA
HETATM   33  H48 UNL     1       1.104   6.587  15.581  1.00  0.00     0.209 HD
ENDBRANCH  31  32
ENDBRANCH  27  31
BRANCH  28  34
HETATM   34  O6  UNL     1       1.661   5.993  13.272  1.00  0.00    -0.390 OA
HETATM   35  H50 UNL     1       2.214   6.022  12.462  1.00  0.00     0.210 HD
ENDBRANCH  28  34
BRANCH  29  36
HETATM   36  O7  UNL     1       1.139   4.971  10.666  1.00  0.00    -0.390 OA
HETATM   37  H52 UNL     1       0.971   4.273  10.001  1.00  0.00     0.210 HD
ENDBRANCH  29  36
BRANCH  30  38
HETATM   38  O8  UNL     1      -0.994   3.065  10.526  1.00  0.00    -0.388 OA
HETATM   39  H54 UNL     1      -1.927   2.802  10.385  1.00  0.00     0.210 HD
ENDBRANCH  30  38
ENDBRANCH  24  25
ENDBRANCH  20  24
BRANCH   1  40
HETATM   40  C8  UNL     1     -10.677  10.332  16.889  1.00  0.00    -0.010 C 
HETATM   41  C9  UNL     1     -12.087  10.670  17.385  1.00  0.00     0.010 C 
BRANCH  40  42
HETATM   42  C7  UNL     1     -10.094  11.522  16.077  1.00  0.00     0.031 C 
BRANCH  42  43
HETATM   43  C6  UNL     1     -11.088  12.620  15.797  1.00  0.00    -0.027 C 
HETATM   44  C5  UNL     1     -10.975  13.472  14.763  1.00  0.00     0.006 C 
BRANCH  44  45
HETATM   45  C2  UNL     1     -11.918  14.599  14.384  1.00  0.00     0.070 C 
HETATM   46  C3  UNL     1     -11.275  15.786  13.647  1.00  0.00     0.050 C 
HETATM   47  C4  UNL     1     -12.554  15.133  15.679  1.00  0.00     0.050 C 
BRANCH  45  48
HETATM   48  O1  UNL     1     -13.012  14.042  13.633  1.00  0.00    -0.382 OA
HETATM   49  C1  UNL     1     -13.263  14.633  12.363  1.00  0.00     0.202 C 
ENDBRANCH  45  48
ENDBRANCH  44  45
ENDBRANCH  42  43
ENDBRANCH  40  42
ENDBRANCH   1  40
TORSDOF 12
ENDMDL
