MODEL 1
REMARK minimizedAffinity -10.1151648
REMARK  6 active torsions:
REMARK  status: ('A' for Active; 'I' for Inactive)
REMARK    1  A    between atoms: C2_2  and  C30_31 
REMARK    2  A    between atoms: C3_3  and  C4_4 
REMARK    3  A    between atoms: C4_4  and  C5_5 
REMARK    4  A    between atoms: C5_5  and  C6_6 
REMARK    5  A    between atoms: C6_6  and  C8_8 
REMARK    6  A    between atoms: C30_31  and  O3_33 
ROOT
HETATM    1  C8  UNL     1      -2.980   7.404  14.568  1.00  0.00    -0.002 C 
HETATM    2  C9  UNL     1      -3.804   8.447  13.766  1.00  0.00     0.007 C 
HETATM    3  C10 UNL     1      -2.945   8.854  12.543  1.00  0.00     0.015 C 
HETATM    4  C11 UNL     1      -1.554   8.233  12.800  1.00  0.00    -0.013 C 
HETATM    5  C12 UNL     1      -0.782   9.249  13.700  1.00  0.00     0.021 C 
HETATM    6  C13 UNL     1      -0.643   7.958  11.610  1.00  0.00    -0.070 C 
HETATM    7  C14 UNL     1      -0.638   8.734  10.510  1.00  0.00    -0.022 C 
HETATM    8  C15 UNL     1       0.299   8.562   9.350  1.00  0.00     0.034 C 
HETATM    9  C16 UNL     1       1.142   7.267   9.406  1.00  0.00     0.013 C 
HETATM   10  C17 UNL     1       2.193   7.146   8.248  1.00  0.00     0.018 C 
HETATM   11  C18 UNL     1       1.442   6.996   6.899  1.00  0.00     0.023 C 
HETATM   12  C19 UNL     1       3.159   8.331   8.091  1.00  0.00     0.023 C 
HETATM   13  C20 UNL     1       3.038   5.881   8.467  1.00  0.00     0.135 C 
HETATM   14  O1  UNL     1       3.331   5.112   7.550  1.00  0.00    -0.297 OA
HETATM   15  C21 UNL     1       3.588   5.650   9.854  1.00  0.00     0.080 C 
HETATM   16  C22 UNL     1       2.458   5.656  10.870  1.00  0.00     0.017 C 
HETATM   17  C23 UNL     1       1.637   6.973  10.874  1.00  0.00    -0.031 C 
HETATM   18  C24 UNL     1       2.499   8.109  11.474  1.00  0.00     0.016 C 
HETATM   19  C25 UNL     1       0.323   6.772  11.742  1.00  0.00     0.024 C 
HETATM   20  C26 UNL     1       0.561   6.332  13.208  1.00  0.00     0.010 C 
HETATM   21  C27 UNL     1      -0.704   6.215  14.093  1.00  0.00     0.011 C 
HETATM   22  C28 UNL     1      -1.956   6.893  13.503  1.00  0.00    -0.029 C 
HETATM   23  C29 UNL     1      -2.673   5.881  12.555  1.00  0.00     0.016 C 
ENDROOT
BRANCH   1  24
HETATM   24  C6  UNL     1      -3.756   6.327  15.386  1.00  0.00    -0.014 C 
HETATM   25  C7  UNL     1      -3.387   4.867  15.106  1.00  0.00     0.010 C 
BRANCH  24  26
HETATM   26  C5  UNL     1      -5.292   6.524  15.271  1.00  0.00     0.008 C 
BRANCH  26  27
HETATM   27  C4  UNL     1      -5.873   6.322  13.870  1.00  0.00     0.028 C 
BRANCH  27  28
HETATM   28  C3  UNL     1      -5.719   4.897  13.409  1.00  0.00    -0.013 C 
HETATM   29  C2  UNL     1      -6.645   4.124  12.801  1.00  0.00     0.008 C 
HETATM   30  C1  UNL     1      -6.339   2.734  12.328  1.00  0.00     0.055 C 
BRANCH  29  31
HETATM   31  C30 UNL     1      -8.037   4.590  12.602  1.00  0.00     0.171 C 
HETATM   32  O2  UNL     1      -8.406   5.554  11.957  1.00  0.00    -0.646 OA
BRANCH  31  33
HETATM   33  O3  UNL     1      -8.912   3.806  13.255  1.00  0.00    -0.773 OA
HETATM   34  H46 UNL     1      -9.781   4.197  13.030  1.00  0.00     0.167 HD
ENDBRANCH  31  33
ENDBRANCH  29  31
ENDBRANCH  27  28
ENDBRANCH  26  27
ENDBRANCH  24  26
ENDBRANCH   1  24
TORSDOF 6
ENDMDL
