MODEL 1
REMARK minimizedAffinity -6.40647459
REMARK CNNscore 0.440602034
REMARK CNNaffinity 5.70205688
REMARK  4 active torsions:
REMARK  status: ('A' for Active; 'I' for Inactive)
REMARK    1  A    between atoms: C2_2  and  C3_3 
REMARK    2  A    between atoms: C6_6  and  O1_7 
REMARK    3  A    between atoms: C7_8  and  C8_9 
REMARK    4  A    between atoms: C26_32  and  O6_33 
ROOT
HETATM    1  C3  UNL     1     -21.720   2.238  16.127  1.00  0.00     0.008 C 
HETATM    2  C4  UNL     1     -20.931   1.088  16.729  1.00  0.00    -0.023 C 
HETATM    3  C5  UNL     1     -21.088  -0.230  16.514  1.00  0.00     0.004 C 
HETATM    4  C6  UNL     1     -20.326  -1.346  17.198  1.00  0.00     0.174 C 
HETATM    5  C7  UNL     1     -19.887  -2.482  16.223  1.00  0.00     0.187 C 
HETATM    6  O2  UNL     1     -18.735  -2.060  15.466  1.00  0.00    -0.308 OA
HETATM    7  C12 UNL     1     -18.656  -2.522  14.181  1.00  0.00     0.276 C 
HETATM    8  O3  UNL     1     -19.519  -3.200  13.632  1.00  0.00    -0.264 OA
HETATM    9  C13 UNL     1     -17.258  -2.221  13.565  1.00  0.00     0.095 A 
HETATM   10  C14 UNL     1     -17.345  -2.190  12.018  1.00  0.00     0.036 C 
HETATM   11  C15 UNL     1     -16.500  -3.495  13.885  1.00  0.00     0.003 A 
HETATM   12  C16 UNL     1     -15.342  -3.739  14.498  1.00  0.00     0.072 A 
HETATM   13  C17 UNL     1     -14.372  -2.815  15.082  1.00  0.00     0.245 A 
HETATM   14  O4  UNL     1     -13.335  -3.281  15.556  1.00  0.00    -0.268 OA
HETATM   15  N1  UNL     1     -14.583  -1.488  15.126  1.00  0.00    -0.320 N 
HETATM   16  C18 UNL     1     -15.572  -0.620  14.738  1.00  0.00     0.098 A 
HETATM   17  C19 UNL     1     -16.713  -0.882  14.080  1.00  0.00     0.045 A 
HETATM   18  C20 UNL     1     -17.661   0.267  13.812  1.00  0.00     0.194 A 
HETATM   19  O5  UNL     1     -18.764   0.036  13.335  1.00  0.00    -0.287 OA
HETATM   20  C21 UNL     1     -17.289   1.658  14.130  1.00  0.00     0.046 A 
HETATM   21  C22 UNL     1     -16.094   1.893  14.791  1.00  0.00     0.032 A 
HETATM   22  C23 UNL     1     -15.694   3.201  15.124  1.00  0.00     0.026 A 
HETATM   23  C24 UNL     1     -16.488   4.306  14.799  1.00  0.00    -0.027 A 
HETATM   24  C25 UNL     1     -16.025   5.684  15.177  1.00  0.00     0.051 C 
HETATM   25  C26 UNL     1     -17.684   4.073  14.116  1.00  0.00     0.086 A 
HETATM   26  C27 UNL     1     -18.092   2.763  13.797  1.00  0.00     0.059 A 
HETATM   27  C28 UNL     1     -19.353   2.627  13.039  1.00  0.00     0.163 C 
HETATM   28  O7  UNL     1     -19.290   2.728  11.813  1.00  0.00    -0.292 OA
HETATM   29  C29 UNL     1     -20.645   2.321  13.780  1.00  0.00     0.084 C 
HETATM   30  C30 UNL     1     -20.821   3.010  15.137  1.00  0.00     0.016 C 
HETATM   31  C31 UNL     1     -15.218   0.780  15.151  1.00  0.00     0.210 A 
HETATM   32  O8  UNL     1     -14.180   0.988  15.778  1.00  0.00    -0.285 OA
HETATM   33  H24 UNL     1     -13.803  -1.026  15.602  1.00  0.00     0.169 HD
ENDROOT
BRANCH   5  34
HETATM   34  C8  UNL     1     -19.449  -3.713  16.992  1.00  0.00     0.010 C 
HETATM   35  C9  UNL     1     -18.262  -3.942  17.590  1.00  0.00    -0.089 C 
HETATM   36  C10 UNL     1     -17.089  -3.000  17.573  1.00  0.00     0.042 C 
HETATM   37  C11 UNL     1     -18.023  -5.212  18.364  1.00  0.00     0.042 C 
ENDBRANCH   5  34
BRANCH   4  38
HETATM   38  O1  UNL     1     -19.212  -0.796  17.911  1.00  0.00    -0.389 OA
HETATM   39  H10 UNL     1     -18.879  -1.501  18.492  1.00  0.00     0.210 HD
ENDBRANCH   4  38
BRANCH   1  40
HETATM   40  C2  UNL     1     -23.095   1.901  15.510  1.00  0.00     0.004 C 
HETATM   41  C1  UNL     1     -23.463   0.427  15.638  1.00  0.00     0.006 C 
ENDBRANCH   1  40
BRANCH  25  42
HETATM   42  O6  UNL     1     -18.506   5.114  13.776  1.00  0.00    -0.359 OA
HETATM   43  H29 UNL     1     -17.989   5.931  13.693  1.00  0.00     0.217 HD
ENDBRANCH  25  42
TORSDOF 4
ENDMDL
