MODEL 1
REMARK minimizedAffinity -7.09744167
REMARK CNNscore 0.712711573
REMARK CNNaffinity 7.03108597
REMARK  6 active torsions:
REMARK  status: ('A' for Active; 'I' for Inactive)
REMARK    1  A    between atoms: C2_2  and  C30_31 
REMARK    2  A    between atoms: C3_3  and  C4_4 
REMARK    3  A    between atoms: C4_4  and  C5_5 
REMARK    4  A    between atoms: C5_5  and  C6_6 
REMARK    5  A    between atoms: C6_6  and  C8_8 
REMARK    6  A    between atoms: C30_31  and  O3_33 
ROOT
HETATM    1  C8  UNL     1       4.537  54.569  -8.835  1.00  0.00    -0.002 C 
HETATM    2  C9  UNL     1       3.957  56.010  -8.680  1.00  0.00     0.007 C 
HETATM    3  C10 UNL     1       2.497  55.977  -9.185  1.00  0.00     0.015 C 
HETATM    4  C11 UNL     1       2.165  54.479  -9.298  1.00  0.00    -0.013 C 
HETATM    5  C12 UNL     1       1.797  54.006  -7.847  1.00  0.00     0.021 C 
HETATM    6  C13 UNL     1       0.984  54.047 -10.174  1.00  0.00    -0.070 C 
HETATM    7  C14 UNL     1      -0.189  54.703 -10.108  1.00  0.00    -0.022 C 
HETATM    8  C15 UNL     1      -1.475  54.148 -10.625  1.00  0.00     0.034 C 
HETATM    9  C16 UNL     1      -1.440  52.606 -10.707  1.00  0.00     0.013 C 
HETATM   10  C17 UNL     1      -2.825  51.954 -11.076  1.00  0.00     0.018 C 
HETATM   11  C18 UNL     1      -3.514  51.496  -9.769  1.00  0.00     0.023 C 
HETATM   12  C19 UNL     1      -3.788  52.935 -11.791  1.00  0.00     0.023 C 
HETATM   13  C20 UNL     1      -2.738  50.695 -11.958  1.00  0.00     0.135 C 
HETATM   14  O1  UNL     1      -3.742  50.250 -12.532  1.00  0.00    -0.297 OA
HETATM   15  C21 UNL     1      -1.446  49.934 -12.102  1.00  0.00     0.080 C 
HETATM   16  C22 UNL     1      -0.222  50.584 -11.490  1.00  0.00     0.017 C 
HETATM   17  C23 UNL     1      -0.216  52.124 -11.543  1.00  0.00    -0.031 C 
HETATM   18  C24 UNL     1      -0.335  52.593 -13.019  1.00  0.00     0.016 C 
HETATM   19  C25 UNL     1       1.144  52.737 -10.963  1.00  0.00     0.024 C 
HETATM   20  C26 UNL     1       2.079  51.770 -10.199  1.00  0.00     0.010 C 
HETATM   21  C27 UNL     1       3.459  52.368  -9.813  1.00  0.00     0.011 C 
HETATM   22  C28 UNL     1       3.527  53.912  -9.834  1.00  0.00    -0.029 C 
HETATM   23  C29 UNL     1       3.896  54.408 -11.270  1.00  0.00     0.016 C 
ENDROOT
BRANCH   1  24
HETATM   24  C6  UNL     1       6.058  54.569  -9.157  1.00  0.00    -0.014 C 
HETATM   25  C7  UNL     1       6.686  53.177  -9.023  1.00  0.00     0.010 C 
BRANCH  24  26
HETATM   26  C5  UNL     1       6.853  55.592  -8.304  1.00  0.00     0.008 C 
BRANCH  26  27
HETATM   27  C4  UNL     1       6.939  55.277  -6.805  1.00  0.00     0.028 C 
BRANCH  27  28
HETATM   28  C3  UNL     1       6.562  56.480  -5.983  1.00  0.00    -0.013 C 
HETATM   29  C2  UNL     1       7.366  57.342  -5.326  1.00  0.00     0.008 C 
HETATM   30  C1  UNL     1       6.798  58.507  -4.562  1.00  0.00     0.055 C 
BRANCH  29  31
HETATM   31  C30 UNL     1       8.838  57.171  -5.271  1.00  0.00     0.171 C 
HETATM   32  O2  UNL     1       9.476  56.157  -5.479  1.00  0.00    -0.646 OA
BRANCH  31  33
HETATM   33  O3  UNL     1       9.457  58.316  -4.932  1.00  0.00    -0.773 OA
HETATM   34  H46 UNL     1      10.405  58.069  -4.942  1.00  0.00     0.167 HD
ENDBRANCH  31  33
ENDBRANCH  29  31
ENDBRANCH  27  28
ENDBRANCH  26  27
ENDBRANCH  24  26
ENDBRANCH   1  24
TORSDOF 6
ENDMDL
