MODEL 1
REMARK minimizedAffinity -8.71476173
REMARK CNNscore 0.411584169
REMARK CNNaffinity 7.31291819
REMARK  13 active torsions:
REMARK  status: ('A' for Active; 'I' for Inactive)
REMARK    1  A    between atoms: O1_2  and  C2_3 
REMARK    2  A    between atoms: C12_14  and  C13_15 
REMARK    3  A    between atoms: C13_15  and  C15_17 
REMARK    4  A    between atoms: C15_17  and  C16_18 
REMARK    5  A    between atoms: C17_19  and  C18_20 
REMARK    6  A    between atoms: C18_20  and  O3_23 
REMARK    7  A    between atoms: C29_32  and  O4_33 
REMARK    8  A    between atoms: O4_33  and  C30_34 
REMARK    9  A    between atoms: C31_36  and  C32_37 
REMARK   10  A    between atoms: C32_37  and  O6_38 
REMARK   11  A    between atoms: C33_39  and  O7_40 
REMARK   12  A    between atoms: C34_41  and  O8_42 
REMARK   13  A    between atoms: C35_43  and  O9_44 
ROOT
HETATM    1  C2  UNL     1      -2.047  49.351 -20.800  1.00  0.00     0.270 C 
HETATM    2  O2  UNL     1      -2.489  50.573 -21.428  1.00  0.00    -0.344 OA
HETATM    3  C3  UNL     1      -3.824  50.355 -21.935  1.00  0.00     0.095 C 
HETATM    4  C4  UNL     1      -4.725  50.743 -20.768  1.00  0.00     0.008 C 
HETATM    5  C5  UNL     1      -4.939  49.915 -19.735  1.00  0.00    -0.021 C 
HETATM    6  C6  UNL     1      -4.242  48.575 -19.632  1.00  0.00     0.030 C 
HETATM    7  C7  UNL     1      -3.240  48.329 -20.845  1.00  0.00     0.024 C 
HETATM    8  C8  UNL     1      -2.677  46.882 -20.842  1.00  0.00     0.016 C 
HETATM    9  C9  UNL     1      -3.651  45.747 -20.478  1.00  0.00     0.011 C 
HETATM   10  C10 UNL     1      -4.419  46.048 -19.180  1.00  0.00    -0.032 C 
HETATM   11  C11 UNL     1      -3.387  46.120 -18.008  1.00  0.00     0.016 C 
HETATM   12  C12 UNL     1      -5.566  45.074 -18.763  1.00  0.00    -0.002 C 
HETATM   13  C22 UNL     1      -6.437  45.977 -17.829  1.00  0.00     0.006 C 
HETATM   14  C23 UNL     1      -6.050  47.445 -18.103  1.00  0.00     0.011 C 
HETATM   15  C24 UNL     1      -5.230  47.384 -19.404  1.00  0.00    -0.029 C 
HETATM   16  C25 UNL     1      -6.289  47.297 -20.554  1.00  0.00     0.016 C 
HETATM   17  C26 UNL     1      -3.885  48.823 -22.166  1.00  0.00     0.039 C 
HETATM   18  C27 UNL     1      -3.167  48.354 -23.442  1.00  0.00     0.011 C 
HETATM   19  C28 UNL     1      -3.592  49.157 -24.660  1.00  0.00     0.033 C 
HETATM   20  C29 UNL     1      -3.319  50.651 -24.457  1.00  0.00     0.136 C 
HETATM   21  C36 UNL     1      -4.107  51.210 -23.224  1.00  0.00     0.014 C 
HETATM   22  C37 UNL     1      -3.691  52.690 -23.019  1.00  0.00     0.021 C 
HETATM   23  C38 UNL     1      -5.619  51.199 -23.575  1.00  0.00     0.021 C 
ENDROOT
BRANCH  20  24
HETATM   24  O4  UNL     1      -1.915  50.896 -24.277  1.00  0.00    -0.352 OA
BRANCH  24  25
HETATM   25  C30 UNL     1      -1.193  51.109 -25.497  1.00  0.00     0.292 C 
HETATM   26  O5  UNL     1       0.211  51.080 -25.266  1.00  0.00    -0.348 OA
HETATM   27  C31 UNL     1       0.946  51.218 -26.489  1.00  0.00     0.179 C 
HETATM   28  C33 UNL     1       0.679  52.596 -27.123  1.00  0.00     0.180 C 
HETATM   29  C34 UNL     1      -0.822  52.842 -27.289  1.00  0.00     0.183 C 
HETATM   30  C35 UNL     1      -1.596  52.505 -26.014  1.00  0.00     0.204 C 
BRANCH  27  31
HETATM   31  C32 UNL     1       2.442  51.044 -26.189  1.00  0.00     0.198 C 
BRANCH  31  32
HETATM   32  O6  UNL     1       3.251  51.400 -27.300  1.00  0.00    -0.398 OA
HETATM   33  H50 UNL     1       2.894  52.242 -27.659  1.00  0.00     0.209 HD
ENDBRANCH  31  32
ENDBRANCH  27  31
BRANCH  28  34
HETATM   34  O7  UNL     1       1.326  52.682 -28.400  1.00  0.00    -0.390 OA
HETATM   35  H52 UNL     1       0.661  52.353 -29.043  1.00  0.00     0.210 HD
ENDBRANCH  28  34
BRANCH  29  36
HETATM   36  O8  UNL     1      -1.300  52.029 -28.379  1.00  0.00    -0.390 OA
HETATM   37  H54 UNL     1      -2.276  52.122 -28.347  1.00  0.00     0.210 HD
ENDBRANCH  29  36
BRANCH  30  38
HETATM   38  O9  UNL     1      -3.002  52.560 -26.299  1.00  0.00    -0.388 OA
HETATM   39  H56 UNL     1      -3.443  52.362 -25.446  1.00  0.00     0.210 HD
ENDBRANCH  30  38
ENDBRANCH  24  25
ENDBRANCH  20  24
BRANCH   1  40
HETATM   40  O1  UNL     1      -1.575  49.556 -19.473  1.00  0.00    -0.365 OA
HETATM   41  C1  UNL     1      -1.181  50.900 -19.254  1.00  0.00     0.204 C 
ENDBRANCH   1  40
BRANCH  12  42
HETATM   42  C13 UNL     1      -5.231  43.710 -18.093  1.00  0.00    -0.010 C 
HETATM   43  C14 UNL     1      -4.564  43.882 -16.723  1.00  0.00     0.010 C 
BRANCH  42  44
HETATM   44  C15 UNL     1      -4.319  42.864 -19.021  1.00  0.00     0.031 C 
BRANCH  44  45
HETATM   45  C16 UNL     1      -2.987  42.529 -18.400  1.00  0.00    -0.027 C 
HETATM   46  C17 UNL     1      -2.526  41.271 -18.296  1.00  0.00     0.006 C 
BRANCH  46  47
HETATM   47  C18 UNL     1      -1.228  40.789 -17.672  1.00  0.00     0.070 C 
HETATM   48  C19 UNL     1      -1.016  41.475 -16.313  1.00  0.00     0.050 C 
HETATM   49  C20 UNL     1      -1.193  39.269 -17.443  1.00  0.00     0.050 C 
BRANCH  47  50
HETATM   50  O3  UNL     1      -0.145  41.045 -18.583  1.00  0.00    -0.382 OA
HETATM   51  C21 UNL     1       1.087  40.388 -18.337  1.00  0.00     0.202 C 
ENDBRANCH  47  50
ENDBRANCH  46  47
ENDBRANCH  44  45
ENDBRANCH  42  44
ENDBRANCH  12  42
TORSDOF 13
ENDMDL
