MODEL 1
REMARK minimizedAffinity -8.31601715
REMARK CNNscore 0.327873409
REMARK CNNaffinity 6.61949158
REMARK  12 active torsions:
REMARK  status: ('A' for Active; 'I' for Inactive)
REMARK    1  A    between atoms: C3_3  and  O1_4 
REMARK    2  A    between atoms: N1_14  and  O2_16 
REMARK    3  A    between atoms: O2_16  and  C13_17 
REMARK    4  A    between atoms: C13_17  and  C14_18 
REMARK       I    between atoms: C14_18  and  N2_20 
REMARK    5  A    between atoms: N2_20  and  C15_21 
REMARK    6  A    between atoms: C15_21  and  C16_22 
REMARK    7  A    between atoms: C15_21  and  C26_36 
REMARK       I    between atoms: C16_22  and  N3_24 
REMARK    8  A    between atoms: N3_24  and  C17_25 
REMARK    9  A    between atoms: C17_25  and  C18_26 
REMARK   10  A    between atoms: C17_25  and  C25_33 
REMARK   11  A    between atoms: C18_26  and  C19_27 
REMARK   12  A    between atoms: C25_33  and  O6_35 
ROOT
HETATM    1  C1  UNL     1      -6.427  18.722  22.222  1.00  0.00     0.015 C 
HETATM    2  C2  UNL     1      -6.708  17.587  21.937  1.00  0.00    -0.078 C 
HETATM    3  C3  UNL     1      -7.041  16.185  21.586  1.00  0.00     0.128 C 
HETATM    4  C4  UNL     1      -7.799  16.148  20.249  1.00  0.00     0.052 C 
HETATM    5  C5  UNL     1      -6.743  15.848  19.168  1.00  0.00     0.010 C 
HETATM    6  C6  UNL     1      -5.387  15.755  19.897  1.00  0.00     0.002 C 
HETATM    7  C7  UNL     1      -4.267  14.926  19.228  1.00  0.00    -0.004 C 
HETATM    8  C8  UNL     1      -4.230  15.106  17.694  1.00  0.00     0.010 C 
HETATM    9  C9  UNL     1      -4.756  13.896  16.933  1.00  0.00     0.035 C 
HETATM   10  C10 UNL     1      -3.982  12.648  17.263  1.00  0.00    -0.069 C 
HETATM   11  C11 UNL     1      -3.794  11.696  16.328  1.00  0.00     0.030 C 
HETATM   12  C12 UNL     1      -3.007  10.464  16.631  1.00  0.00     0.032 C 
HETATM   13  N1  UNL     1      -2.464   9.677  15.753  1.00  0.00    -0.271 N 
ATOM     14  H1  UNL     1      -1.910   8.854  15.991  1.00  0.00     0.194 HD
HETATM   15  C29 UNL     1      -2.767  10.108  18.091  1.00  0.00     0.060 C 
HETATM   16  C30 UNL     1      -3.516  11.015  19.062  1.00  0.00     0.020 C 
HETATM   17  C31 UNL     1      -3.421  12.517  18.676  1.00  0.00    -0.016 C 
HETATM   18  C32 UNL     1      -1.919  12.927  18.679  1.00  0.00     0.020 C 
HETATM   19  C33 UNL     1      -4.181  13.440  19.706  1.00  0.00     0.002 C 
HETATM   20  C34 UNL     1      -5.548  12.936  20.181  1.00  0.00     0.007 C 
HETATM   21  C35 UNL     1      -6.150  13.773  21.319  1.00  0.00     0.014 C 
HETATM   22  C36 UNL     1      -5.784  15.290  21.314  1.00  0.00     0.003 C 
HETATM   23  C37 UNL     1      -4.665  15.529  22.350  1.00  0.00     0.020 C 
ENDROOT
BRANCH   3  24
HETATM   24  O1  UNL     1      -7.861  15.646  22.615  1.00  0.00    -0.377 OA
HETATM   25  H2  UNL     1      -7.526  15.990  23.461  1.00  0.00     0.211 HD
ENDBRANCH   3  24
BRANCH  13  26
HETATM   26  O2  UNL     1      -2.730  10.091  14.436  1.00  0.00    -0.271 OA
BRANCH  26  27
HETATM   27  C13 UNL     1      -1.526  10.096  13.693  1.00  0.00     0.303 C 
BRANCH  27  28
HETATM   28  C14 UNL     1      -1.408   9.050  12.579  1.00  0.00     0.244 C 
HETATM   29  O3  UNL     1      -1.654   9.255  11.392  1.00  0.00    -0.271 OA
HETATM   30  N2  UNL     1      -0.957   7.816  13.043  1.00  0.00    -0.346 N 
HETATM   31  H16 UNL     1      -0.401   7.857  13.892  1.00  0.00     0.163 HD
BRANCH  30  32
HETATM   32  C15 UNL     1      -0.522   6.802  12.080  1.00  0.00     0.180 C 
BRANCH  32  33
HETATM   33  C16 UNL     1       0.930   6.426  12.461  1.00  0.00     0.241 C 
HETATM   34  O4  UNL     1       1.202   5.869  13.527  1.00  0.00    -0.271 OA
HETATM   35  N3  UNL     1       1.876   6.729  11.504  1.00  0.00    -0.345 N 
HETATM   36  H18 UNL     1       1.605   7.417  10.804  1.00  0.00     0.163 HD
BRANCH  35  37
HETATM   37  C17 UNL     1       3.304   6.788  11.857  1.00  0.00     0.186 C 
BRANCH  37  38
HETATM   38  C18 UNL     1       4.170   6.539  10.619  1.00  0.00     0.074 C 
BRANCH  38  39
HETATM   39  C19 UNL     1       3.458   6.890   9.334  1.00  0.00    -0.056 A 
HETATM   40  C20 UNL     1       2.951   5.878   8.511  1.00  0.00     0.007 A 
HETATM   41  C21 UNL     1       2.308   6.195   7.314  1.00  0.00     0.001 A 
HETATM   42  C22 UNL     1       2.168   7.523   6.923  1.00  0.00     0.000 A 
HETATM   43  C23 UNL     1       2.684   8.539   7.727  1.00  0.00     0.001 A 
HETATM   44  C24 UNL     1       3.323   8.227   8.926  1.00  0.00     0.007 A 
ENDBRANCH  38  39
ENDBRANCH  37  38
BRANCH  37  45
HETATM   45  C25 UNL     1       3.596   8.174  12.451  1.00  0.00     0.163 C 
HETATM   46  O5  UNL     1       2.949   9.197  12.306  1.00  0.00    -0.648 OA
BRANCH  45  47
HETATM   47  O6  UNL     1       4.699   8.186  13.245  1.00  0.00    -0.775 OA
HETATM   48  H27 UNL     1       4.804   9.130  13.482  1.00  0.00     0.167 HD
ENDBRANCH  45  47
ENDBRANCH  37  45
ENDBRANCH  35  37
ENDBRANCH  32  33
BRANCH  32  49
HETATM   49  C26 UNL     1      -1.487   5.596  12.054  1.00  0.00     0.009 C 
HETATM   50  C27 UNL     1      -0.734   4.266  11.912  1.00  0.00     0.012 C 
HETATM   51  C28 UNL     1      -2.429   5.529  13.264  1.00  0.00     0.012 C 
ENDBRANCH  32  49
ENDBRANCH  30  32
ENDBRANCH  27  28
ENDBRANCH  26  27
ENDBRANCH  13  26
TORSDOF 12
ENDMDL
