MODEL 1
REMARK minimizedAffinity -9.51543331
REMARK  4 active torsions:
REMARK  status: ('A' for Active; 'I' for Inactive)
REMARK    1  A    between atoms: C4_4  and  C5_5 
REMARK    2  A    between atoms: C5_5  and  C6_6 
REMARK    3  A    between atoms: C6_6  and  C7_7 
REMARK    4  A    between atoms: C7_7  and  C9_9 
ROOT
HETATM    1  C9  UNL     1      -3.034  48.161 -19.483  1.00  0.00    -0.002 C 
HETATM    2  C10 UNL     1      -3.638  47.066 -20.416  1.00  0.00     0.007 C 
HETATM    3  C11 UNL     1      -3.507  47.566 -21.867  1.00  0.00     0.015 C 
HETATM    4  C12 UNL     1      -3.141  49.056 -21.739  1.00  0.00    -0.013 C 
HETATM    5  C13 UNL     1      -4.489  49.819 -21.529  1.00  0.00     0.021 C 
HETATM    6  C14 UNL     1      -2.460  49.728 -22.928  1.00  0.00    -0.070 C 
HETATM    7  C15 UNL     1      -2.724  49.373 -24.197  1.00  0.00    -0.022 C 
HETATM    8  C16 UNL     1      -2.178  50.067 -25.405  1.00  0.00     0.034 C 
HETATM    9  C17 UNL     1      -1.058  51.092 -25.115  1.00  0.00     0.013 C 
HETATM   10  C18 UNL     1      -0.672  51.943 -26.380  1.00  0.00     0.018 C 
HETATM   11  C19 UNL     1      -1.858  52.336 -27.284  1.00  0.00     0.023 C 
HETATM   12  C20 UNL     1       0.318  51.141 -27.255  1.00  0.00     0.023 C 
HETATM   13  C21 UNL     1       0.064  53.213 -25.940  1.00  0.00     0.135 C 
HETATM   14  O1  UNL     1       0.115  54.229 -26.633  1.00  0.00    -0.297 OA
HETATM   15  C22 UNL     1       0.811  53.134 -24.638  1.00  0.00     0.080 C 
HETATM   16  C23 UNL     1      -0.132  52.858 -23.478  1.00  0.00     0.017 C 
HETATM   17  C24 UNL     1      -1.335  51.912 -23.796  1.00  0.00    -0.031 C 
HETATM   18  C25 UNL     1      -2.608  52.783 -23.929  1.00  0.00     0.016 C 
HETATM   19  C26 UNL     1      -1.487  50.867 -22.613  1.00  0.00     0.024 C 
HETATM   20  C27 UNL     1      -1.742  51.490 -21.219  1.00  0.00     0.010 C 
HETATM   21  C28 UNL     1      -1.903  50.482 -20.052  1.00  0.00     0.011 C 
HETATM   22  C29 UNL     1      -2.195  49.029 -20.485  1.00  0.00    -0.029 C 
HETATM   23  C30 UNL     1      -0.840  48.295 -20.738  1.00  0.00     0.016 C 
ENDROOT
BRANCH   1  24
HETATM   24  C7  UNL     1      -2.348  47.537 -18.232  1.00  0.00    -0.014 C 
HETATM   25  C8  UNL     1      -3.128  46.310 -17.724  1.00  0.00     0.010 C 
BRANCH  24  26
HETATM   26  C6  UNL     1      -2.101  48.522 -17.063  1.00  0.00     0.008 C 
BRANCH  26  27
HETATM   27  C5  UNL     1      -0.632  48.851 -16.781  1.00  0.00     0.028 C 
BRANCH  27  28
HETATM   28  C4  UNL     1      -0.048  50.149 -17.289  1.00  0.00    -0.025 C 
HETATM   29  C2  UNL     1       0.730  51.094 -16.723  1.00  0.00    -0.091 C 
HETATM   30  C1  UNL     1       1.121  52.318 -17.515  1.00  0.00     0.042 C 
HETATM   31  C3  UNL     1       1.286  51.058 -15.330  1.00  0.00     0.042 C 
ENDBRANCH  27  28
ENDBRANCH  26  27
ENDBRANCH  24  26
ENDBRANCH   1  24
TORSDOF 4
ENDMDL
