MODEL 1
REMARK minimizedAffinity -9.4188118
REMARK CNNscore 0.580496669
REMARK CNNaffinity 7.3864646
REMARK  11 active torsions:
REMARK  status: ('A' for Active; 'I' for Inactive)
REMARK    1  A    between atoms: C2_2  and  C4_4 
REMARK    2  A    between atoms: C5_5  and  C6_6 
REMARK    3  A    between atoms: C6_6  and  C7_7 
REMARK    4  A    between atoms: C7_7  and  C9_9 
REMARK    5  A    between atoms: C27_28  and  O2_29 
REMARK    6  A    between atoms: O2_29  and  C28_30 
REMARK    7  A    between atoms: C29_32  and  C30_33 
REMARK    8  A    between atoms: C30_33  and  O4_34 
REMARK    9  A    between atoms: C31_35  and  O5_36 
REMARK   10  A    between atoms: C32_37  and  O6_38 
REMARK   11  A    between atoms: C33_39  and  O7_40 
ROOT
HETATM    1  C9  UNL     1      -2.561   6.163  12.819  1.00  0.00    -0.002 C 
HETATM    2  C10 UNL     1      -3.516   5.617  13.928  1.00  0.00     0.006 C 
HETATM    3  C11 UNL     1      -3.748   6.755  14.946  1.00  0.00     0.011 C 
HETATM    4  C12 UNL     1      -3.240   8.016  14.234  1.00  0.00    -0.029 C 
HETATM    5  C13 UNL     1      -4.403   8.430  13.242  1.00  0.00     0.016 C 
HETATM    6  C14 UNL     1      -2.976   9.302  15.091  1.00  0.00     0.028 C 
HETATM    7  C15 UNL     1      -3.188   9.288  16.588  1.00  0.00    -0.021 C 
HETATM    8  C16 UNL     1      -2.730  10.318  17.328  1.00  0.00     0.008 C 
HETATM    9  C17 UNL     1      -1.839  11.402  16.714  1.00  0.00     0.092 C 
HETATM   10  O1  UNL     1      -2.672  12.147  15.789  1.00  0.00    -0.374 OA
HETATM   11  C18 UNL     1      -2.397  11.655  14.454  1.00  0.00     0.179 C 
HETATM   12  C19 UNL     1      -1.779  10.234  14.633  1.00  0.00    -0.004 C 
HETATM   13  C20 UNL     1      -0.991   9.812  13.366  1.00  0.00     0.014 C 
HETATM   14  C21 UNL     1      -1.458   8.570  12.579  1.00  0.00     0.011 C 
HETATM   15  C22 UNL     1      -1.974   7.453  13.493  1.00  0.00    -0.032 C 
HETATM   16  C23 UNL     1      -0.820   7.002  14.420  1.00  0.00     0.016 C 
HETATM   17  C24 UNL     1      -0.840  10.669  15.804  1.00  0.00     0.036 C 
HETATM   18  C25 UNL     1       0.014   9.677  16.610  1.00  0.00     0.011 C 
HETATM   19  C26 UNL     1       0.393  10.233  17.993  1.00  0.00     0.033 C 
HETATM   20  C27 UNL     1       0.342  11.763  18.054  1.00  0.00     0.136 C 
HETATM   21  C34 UNL     1      -1.077  12.354  17.709  1.00  0.00     0.014 C 
HETATM   22  C35 UNL     1      -1.905  12.638  18.986  1.00  0.00     0.021 C 
HETATM   23  C36 UNL     1      -0.844  13.744  17.054  1.00  0.00     0.021 C 
ENDROOT
BRANCH  20  24
HETATM   24  O2  UNL     1       0.743  12.166  19.366  1.00  0.00    -0.352 OA
BRANCH  24  25
HETATM   25  C28 UNL     1       1.966  11.561  19.804  1.00  0.00     0.292 C 
HETATM   26  O3  UNL     1       1.686  10.582  20.806  1.00  0.00    -0.348 OA
HETATM   27  C29 UNL     1       2.850   9.797  21.146  1.00  0.00     0.179 C 
HETATM   28  C31 UNL     1       4.129  10.658  21.255  1.00  0.00     0.180 C 
HETATM   29  C32 UNL     1       3.768  12.129  21.504  1.00  0.00     0.183 C 
HETATM   30  C33 UNL     1       2.870  12.673  20.381  1.00  0.00     0.204 C 
BRANCH  27  31
HETATM   31  C30 UNL     1       2.541   9.080  22.470  1.00  0.00     0.198 C 
BRANCH  31  32
HETATM   32  O4  UNL     1       1.806   7.876  22.238  1.00  0.00    -0.398 OA
HETATM   33  H44 UNL     1       1.918   7.319  23.034  1.00  0.00     0.209 HD
ENDBRANCH  31  32
ENDBRANCH  27  31
BRANCH  28  34
HETATM   34  O5  UNL     1       4.855  10.550  20.014  1.00  0.00    -0.390 OA
HETATM   35  H46 UNL     1       5.307  11.409  19.876  1.00  0.00     0.210 HD
ENDBRANCH  28  34
BRANCH  29  36
HETATM   36  O6  UNL     1       4.966  12.932  21.564  1.00  0.00    -0.390 OA
HETATM   37  H48 UNL     1       5.363  12.767  22.440  1.00  0.00     0.210 HD
ENDBRANCH  29  36
BRANCH  30  38
HETATM   38  O7  UNL     1       3.693  13.241  19.341  1.00  0.00    -0.388 OA
HETATM   39  H50 UNL     1       4.376  13.760  19.813  1.00  0.00     0.210 HD
ENDBRANCH  30  38
ENDBRANCH  24  25
ENDBRANCH  20  24
BRANCH   1  40
HETATM   40  C7  UNL     1      -1.608   5.053  12.281  1.00  0.00    -0.010 C 
HETATM   41  C8  UNL     1      -0.315   5.628  11.690  1.00  0.00     0.010 C 
BRANCH  40  42
HETATM   42  C6  UNL     1      -2.281   4.122  11.235  1.00  0.00     0.031 C 
BRANCH  42  43
HETATM   43  C5  UNL     1      -3.432   3.304  11.759  1.00  0.00    -0.026 C 
HETATM   44  C4  UNL     1      -4.661   3.323  11.220  1.00  0.00     0.002 C 
BRANCH  44  45
HETATM   45  C2  UNL     1      -5.809   2.549  11.675  1.00  0.00    -0.072 C 
HETATM   46  C1  UNL     1      -5.972   1.285  11.252  1.00  0.00     0.018 C 
HETATM   47  C3  UNL     1      -6.800   3.179  12.617  1.00  0.00     0.047 C 
ENDBRANCH  44  45
ENDBRANCH  42  43
ENDBRANCH  40  42
ENDBRANCH   1  40
TORSDOF 11
ENDMDL
