MODEL 1
REMARK minimizedAffinity -9.05975723
REMARK  2 active torsions:
REMARK  status: ('A' for Active; 'I' for Inactive)
REMARK    1  A    between atoms: C1_2  and  C2_3 
REMARK       I    between atoms: C1_2  and  N2_16 
REMARK    2  A    between atoms: C10_14  and  O2_15 
ROOT
HETATM    1  O1  UNL     1      12.708  36.407  15.856  1.00  0.00    -0.267 OA
HETATM    2  C1  UNL     1      13.073  35.986  16.954  1.00  0.00     0.258 C 
HETATM    3  N2  UNL     1      14.380  35.555  17.224  1.00  0.00    -0.339 N 
HETATM    4  C11 UNL     1      14.537  34.224  17.820  1.00  0.00     0.127 C 
HETATM    5  C12 UNL     1      15.913  34.031  18.437  1.00  0.00     0.024 C 
HETATM    6  C13 UNL     1      16.994  34.224  17.385  1.00  0.00     0.037 C 
HETATM    7  C14 UNL     1      16.837  35.565  16.730  1.00  0.00    -0.060 C 
HETATM    8  C15 UNL     1      17.868  36.473  16.662  1.00  0.00    -0.015 C 
HETATM    9  C16 UNL     1      17.773  37.829  15.877  1.00  0.00     0.031 C 
HETATM   10  C17 UNL     1      16.630  37.578  14.938  1.00  0.00     0.019 C 
HETATM   11  C18 UNL     1      15.517  37.410  15.990  1.00  0.00     0.031 C 
HETATM   12  C19 UNL     1      14.838  38.743  16.055  1.00  0.00     0.124 C 
HETATM   13  N3  UNL     1      15.926  39.691  16.507  1.00  0.00    -0.407 N 
HETATM   14  C20 UNL     1      15.783  41.049  15.997  1.00  0.00     0.117 C 
HETATM   15  C21 UNL     1      16.654  41.300  14.771  1.00  0.00     0.019 C 
HETATM   16  C22 UNL     1      18.125  40.943  14.998  1.00  0.00     0.004 C 
HETATM   17  C23 UNL     1      18.372  40.298  16.359  1.00  0.00     0.026 C 
HETATM   18  C24 UNL     1      17.358  39.177  16.668  1.00  0.00     0.086 C 
HETATM   19  C25 UNL     1      15.372  35.913  16.204  1.00  0.00     0.122 C 
ENDROOT
BRANCH   2  20
HETATM   20  C2  UNL     1      12.074  35.987  18.045  1.00  0.00     0.081 A 
HETATM   21  C3  UNL     1      12.455  36.148  19.365  1.00  0.00     0.108 A 
HETATM   22  N1  UNL     1      11.588  36.165  20.408  1.00  0.00    -0.364 N 
HETATM   23  C4  UNL     1      10.274  36.054  20.144  1.00  0.00     0.046 A 
ATOM     24  H1  UNL     1      11.924  36.261  21.366  1.00  0.00     0.165 HD
HETATM   25  C5  UNL     1       9.380  36.079  21.203  1.00  0.00     0.054 A 
HETATM   26  C9  UNL     1       9.772  35.923  18.831  1.00  0.00     0.025 A 
HETATM   27  C6  UNL     1       8.006  35.985  20.990  1.00  0.00     0.036 A 
HETATM   28 CL1  UNL     1       6.927  36.031  22.330  1.00  0.00    -0.084 Cl
HETATM   29  C7  UNL     1       7.498  35.858  19.704  1.00  0.00     0.025 A 
HETATM   30  C8  UNL     1       8.379  35.826  18.626  1.00  0.00     0.018 A 
HETATM   31  C10 UNL     1      10.708  35.907  17.778  1.00  0.00     0.095 A 
BRANCH  31  32
HETATM   32  O2  UNL     1      10.234  35.820  16.487  1.00  0.00    -0.359 OA
HETATM   33  H5  UNL     1      10.961  36.078  15.878  1.00  0.00     0.217 HD
ENDBRANCH  31  32
ENDBRANCH   2  20
TORSDOF 2
ENDMDL
