MODEL 1
REMARK minimizedAffinity -9.13093662
REMARK CNNscore 0.540872693
REMARK CNNaffinity 7.1058898
REMARK  12 active torsions:
REMARK  status: ('A' for Active; 'I' for Inactive)
REMARK    1  A    between atoms: C2_2  and  C3_3 
REMARK    2  A    between atoms: C4_4  and  C18_19 
REMARK    3  A    between atoms: C19_20  and  O1_21 
REMARK    4  A    between atoms: N2_22  and  C20_23 
REMARK    5  A    between atoms: C20_23  and  C21_24 
REMARK    6  A    between atoms: C21_24  and  O3_26 
REMARK    7  A    between atoms: O3_26  and  C22_27 
REMARK    8  A    between atoms: C25_30  and  C26_31 
REMARK    9  A    between atoms: C32_38  and  C33_39 
REMARK   10  A    between atoms: C39_47  and  O7_48 
REMARK   11  A    between atoms: C43_52  and  O8_53 
REMARK   12  A    between atoms: C45_55  and  O9_56 
ROOT
HETATM    1  C22 UNL     1     -13.391   9.817  22.692  1.00  0.00     0.135 C 
HETATM    2  C23 UNL     1     -12.363   9.293  21.693  1.00  0.00     0.034 C 
HETATM    3  C24 UNL     1     -11.450  10.375  21.106  1.00  0.00     0.022 C 
HETATM    4  C25 UNL     1     -11.190  11.589  22.044  1.00  0.00     0.048 C 
HETATM    5  C27 UNL     1      -9.735  12.161  21.818  1.00  0.00     0.011 C 
HETATM    6  C28 UNL     1      -9.395  12.510  20.351  1.00  0.00     0.007 C 
HETATM    7  C29 UNL     1      -8.891  13.935  20.141  1.00  0.00     0.013 C 
HETATM    8  C30 UNL     1      -7.733  14.362  21.076  1.00  0.00    -0.005 C 
HETATM    9  C31 UNL     1      -7.588  15.895  20.932  1.00  0.00     0.019 C 
HETATM   10  C32 UNL     1      -6.397  13.619  20.705  1.00  0.00     0.028 C 
HETATM   11  C37 UNL     1      -5.698  13.427  22.050  1.00  0.00     0.013 C 
HETATM   12  C38 UNL     1      -6.845  12.982  22.943  1.00  0.00     0.040 C 
HETATM   13  C39 UNL     1      -8.005  13.928  22.569  1.00  0.00     0.070 C 
HETATM   14  C40 UNL     1      -9.414  13.318  22.799  1.00  0.00     0.026 C 
HETATM   15  C41 UNL     1      -9.609  12.871  24.261  1.00  0.00     0.011 C 
HETATM   16  C42 UNL     1     -11.001  12.296  24.513  1.00  0.00     0.039 C 
HETATM   17  C43 UNL     1     -11.347  11.158  23.534  1.00  0.00     0.074 C 
HETATM   18  C44 UNL     1     -12.727  10.553  23.869  1.00  0.00     0.071 C 
ENDROOT
BRANCH   1  19
HETATM   19  O3  UNL     1     -14.122   8.663  23.174  1.00  0.00    -0.315 OA
BRANCH  19  20
HETATM   20  C21 UNL     1     -13.419   7.743  23.897  1.00  0.00     0.285 C 
HETATM   21  O2  UNL     1     -12.232   7.491  23.757  1.00  0.00    -0.263 OA
BRANCH  20  22
HETATM   22  C20 UNL     1     -14.375   6.995  24.830  1.00  0.00     0.352 C 
BRANCH  22  23
HETATM   23  N2  UNL     1     -15.253   5.828  24.246  1.00  0.00    -0.021 N 
HETATM   24  C6  UNL     1     -16.131   5.180  25.379  1.00  0.00     0.214 C 
HETATM   25  C5  UNL     1     -17.262   4.401  24.678  1.00  0.00     0.041 C 
HETATM   26  C7  UNL     1     -15.307   4.204  26.277  1.00  0.00     0.109 C 
HETATM   27  C4  UNL     1     -16.792   3.985  23.275  1.00  0.00     0.004 C 
HETATM   28  C3  UNL     1     -16.911   5.272  22.419  1.00  0.00     0.047 C 
HETATM   29  C45 UNL     1     -16.130   6.415  23.134  1.00  0.00     0.329 C 
HETATM   30  N1  UNL     1     -14.494   4.846  27.349  1.00  0.00    -0.279 NA
HETATM   31  C15 UNL     1     -14.282   3.345  25.477  1.00  0.00     0.035 C 
HETATM   32  C8  UNL     1     -15.214   5.373  28.513  1.00  0.00     0.117 C 
HETATM   33  C9  UNL     1     -13.593   3.769  27.670  1.00  0.00     0.018 A 
HETATM   34  C10 UNL     1     -12.856   3.601  28.829  1.00  0.00     0.024 A 
HETATM   35  C14 UNL     1     -13.477   2.836  26.617  1.00  0.00    -0.024 A 
HETATM   36  C11 UNL     1     -12.028   2.479  28.937  1.00  0.00     0.002 A 
HETATM   37  C12 UNL     1     -11.934   1.547  27.888  1.00  0.00     0.001 A 
HETATM   38  C13 UNL     1     -12.659   1.724  26.710  1.00  0.00     0.010 A 
HETATM   39  C16 UNL     1     -13.375   4.187  24.578  1.00  0.00     0.053 C 
HETATM   40  C19 UNL     1     -14.949   2.466  24.420  1.00  0.00     0.139 C 
HETATM   41  C17 UNL     1     -14.387   4.723  23.598  1.00  0.00     0.203 C 
HETATM   42  C18 UNL     1     -15.320   3.505  23.311  1.00  0.00     0.051 C 
BRANCH  28  43
HETATM   43  C2  UNL     1     -16.465   5.051  20.962  1.00  0.00     0.005 C 
HETATM   44  C1  UNL     1     -17.514   5.505  19.955  1.00  0.00     0.005 C 
ENDBRANCH  28  43
BRANCH  29  45
HETATM   45  O9  UNL     1     -17.026   7.379  23.627  1.00  0.00    -0.369 OA
HETATM   46  H59 UNL     1     -17.596   7.675  22.893  1.00  0.00     0.212 HD
ENDBRANCH  29  45
BRANCH  40  47
HETATM   47  O1  UNL     1     -16.068   1.749  24.887  1.00  0.00    -0.394 OA
HETATM   48  H24 UNL     1     -15.751   1.039  25.481  1.00  0.00     0.210 HD
ENDBRANCH  40  47
ENDBRANCH  22  23
ENDBRANCH  20  22
ENDBRANCH  19  20
ENDBRANCH   1  19
BRANCH  17  49
HETATM   49  O8  UNL     1     -10.395  10.094  23.763  1.00  0.00    -0.389 OA
HETATM   50  H55 UNL     1     -10.248  10.004  24.719  1.00  0.00     0.210 HD
ENDBRANCH  17  49
BRANCH   4  51
HETATM   51  C26 UNL     1     -12.200  12.679  21.654  1.00  0.00     0.244 C 
HETATM   52  O4  UNL     1     -12.877  13.325  22.447  1.00  0.00    -0.306 OA
ENDBRANCH   4  51
BRANCH  13  53
HETATM   53  O7  UNL     1      -7.864  15.052  23.450  1.00  0.00    -0.389 OA
HETATM   54  H49 UNL     1      -8.635  15.635  23.342  1.00  0.00     0.210 HD
ENDBRANCH  13  53
BRANCH  10  55
HETATM   55  C33 UNL     1      -5.524  14.207  19.635  1.00  0.00    -0.045 A 
HETATM   56  C34 UNL     1      -5.715  14.104  18.319  1.00  0.00     0.087 A 
HETATM   57  C35 UNL     1      -4.611  14.803  17.664  1.00  0.00     0.283 A 
HETATM   58  O5  UNL     1      -4.478  14.918  16.459  1.00  0.00    -0.260 OA
HETATM   59  O6  UNL     1      -3.772  15.298  18.612  1.00  0.00    -0.314 OA
HETATM   60  C36 UNL     1      -4.268  14.948  19.904  1.00  0.00     0.213 A 
ENDBRANCH  10  55
TORSDOF 12
ENDMDL
