MODEL 1
REMARK minimizedAffinity -8.52780724
REMARK CNNscore 0.564228117
REMARK CNNaffinity 6.55710459
REMARK  10 active torsions:
REMARK  status: ('A' for Active; 'I' for Inactive)
REMARK    1  A    between atoms: O1_2  and  C2_3 
REMARK    2  A    between atoms: C4_5  and  O2_6 
REMARK    3  A    between atoms: O2_6  and  C5_7 
REMARK    4  A    between atoms: C6_8  and  O3_9 
REMARK    5  A    between atoms: C8_11  and  O4_12 
REMARK    6  A    between atoms: O4_12  and  C9_13 
REMARK    7  A    between atoms: C20_24  and  C21_25 
REMARK    8  A    between atoms: C21_25  and  O5_27 
REMARK    9  A    between atoms: C25_30  and  O6_31 
REMARK   10  A    between atoms: C34_42  and  O9_43 
ROOT
HETATM    1  C9  UNL     1      -7.938  46.209 -24.929  1.00  0.00     0.046 C 
HETATM    2  C10 UNL     1      -7.951  46.057 -23.597  1.00  0.00     0.011 C 
HETATM    3  C11 UNL     1      -7.230  46.976 -22.629  1.00  0.00     0.019 C 
HETATM    4  C12 UNL     1      -6.283  46.115 -21.773  1.00  0.00     0.010 C 
HETATM    5  C13 UNL     1      -5.267  46.947 -21.003  1.00  0.00     0.009 C 
HETATM    6  C14 UNL     1      -4.295  47.680 -21.955  1.00  0.00     0.025 C 
HETATM    7  C15 UNL     1      -4.972  48.025 -23.321  1.00  0.00     0.001 C 
HETATM    8  C16 UNL     1      -4.189  49.058 -24.147  1.00  0.00     0.007 C 
HETATM    9  C17 UNL     1      -2.756  49.247 -23.657  1.00  0.00     0.013 C 
HETATM   10  C18 UNL     1      -2.697  49.786 -22.199  1.00  0.00    -0.007 C 
HETATM   11  C19 UNL     1      -3.251  51.229 -22.202  1.00  0.00     0.019 C 
HETATM   12  C20 UNL     1      -1.191  49.734 -21.721  1.00  0.00     0.025 C 
HETATM   13  C23 UNL     1      -1.094  48.355 -21.058  1.00  0.00     0.011 C 
HETATM   14  C24 UNL     1      -2.411  48.182 -20.317  1.00  0.00     0.039 C 
HETATM   15  C25 UNL     1      -3.490  48.821 -21.238  1.00  0.00     0.070 C 
HETATM   16  C26 UNL     1      -6.532  48.241 -23.277  1.00  0.00    -0.033 C 
HETATM   17  C27 UNL     1      -6.907  49.488 -22.438  1.00  0.00     0.016 C 
HETATM   18  C28 UNL     1      -7.117  48.515 -24.701  1.00  0.00     0.016 C 
HETATM   19  C29 UNL     1      -7.139  47.285 -25.600  1.00  0.00     0.065 C 
ENDROOT
BRANCH   1  20
HETATM   20  O4  UNL     1      -8.719  45.406 -25.747  1.00  0.00    -0.325 OA
BRANCH  20  21
HETATM   21  C8  UNL     1     -10.011  46.019 -25.983  1.00  0.00     0.269 C 
HETATM   22  C7  UNL     1     -11.089  44.968 -25.706  1.00  0.00     0.095 C 
HETATM   23  C6  UNL     1     -11.704  44.403 -26.981  1.00  0.00     0.154 C 
HETATM   24  C5  UNL     1     -12.254  45.529 -27.881  1.00  0.00     0.182 C 
HETATM   25  C30 UNL     1     -11.403  46.823 -27.778  1.00  0.00     0.152 C 
HETATM   26  O7  UNL     1     -10.088  46.555 -27.302  1.00  0.00    -0.353 OA
HETATM   27  C31 UNL     1     -12.038  47.972 -26.993  1.00  0.00     0.042 C 
BRANCH  23  28
HETATM   28  O3  UNL     1     -10.742  43.630 -27.710  1.00  0.00    -0.393 OA
HETATM   29  H10 UNL     1     -10.238  43.096 -27.066  1.00  0.00     0.210 HD
ENDBRANCH  23  28
BRANCH  24  30
HETATM   30  O2  UNL     1     -13.615  45.863 -27.575  1.00  0.00    -0.351 OA
BRANCH  30  31
HETATM   31  C4  UNL     1     -14.478  44.749 -27.370  1.00  0.00     0.263 C 
HETATM   32  C3  UNL     1     -15.400  44.676 -28.586  1.00  0.00     0.095 C 
HETATM   33  C2  UNL     1     -16.741  44.059 -28.223  1.00  0.00     0.156 C 
HETATM   34  C34 UNL     1     -17.420  44.839 -27.070  1.00  0.00     0.175 C 
HETATM   35  C32 UNL     1     -16.383  45.683 -26.298  1.00  0.00     0.151 C 
HETATM   36  O8  UNL     1     -15.190  44.897 -26.141  1.00  0.00    -0.354 OA
HETATM   37  C33 UNL     1     -16.860  46.120 -24.919  1.00  0.00     0.042 C 
BRANCH  33  38
HETATM   38  O1  UNL     1     -17.539  44.076 -29.418  1.00  0.00    -0.388 OA
HETATM   39  C1  UNL     1     -18.001  42.786 -29.802  1.00  0.00     0.202 C 
ENDBRANCH  33  38
BRANCH  34  40
HETATM   40  O9  UNL     1     -18.036  43.868 -26.199  1.00  0.00    -0.390 OA
HETATM   41  H56 UNL     1     -17.318  43.462 -25.691  1.00  0.00     0.210 HD
ENDBRANCH  34  40
ENDBRANCH  30  31
ENDBRANCH  24  30
ENDBRANCH  20  21
ENDBRANCH   1  20
BRANCH  15  42
HETATM   42  O6  UNL     1      -4.405  49.588 -20.453  1.00  0.00    -0.389 OA
HETATM   43  H39 UNL     1      -4.123  49.563 -19.520  1.00  0.00     0.210 HD
ENDBRANCH  15  42
BRANCH  12  44
HETATM   44  C21 UNL     1      -0.716  50.887 -20.797  1.00  0.00     0.119 C 
HETATM   45  C22 UNL     1       0.321  51.797 -21.446  1.00  0.00     0.040 C 
BRANCH  44  46
HETATM   46  O5  UNL     1      -0.165  50.397 -19.575  1.00  0.00    -0.396 OA
HETATM   47  H34 UNL     1      -0.207  51.121 -18.934  1.00  0.00     0.210 HD
ENDBRANCH  44  46
ENDBRANCH  12  44
TORSDOF 10
ENDMDL
