MODEL 1
REMARK minimizedAffinity -8.10493851
REMARK CNNscore 0.530628204
REMARK CNNaffinity 6.9199357
REMARK  11 active torsions:
REMARK  status: ('A' for Active; 'I' for Inactive)
REMARK    1  A    between atoms: O1_2  and  C2_3 
REMARK    2  A    between atoms: C4_5  and  O2_6 
REMARK    3  A    between atoms: O2_6  and  C5_7 
REMARK    4  A    between atoms: C8_10  and  C9_11 
REMARK    5  A    between atoms: N1_12  and  C10_14 
REMARK    6  A    between atoms: C10_14  and  C11_15 
REMARK    7  A    between atoms: C11_15  and  O3_16 
REMARK    8  A    between atoms: C17_22  and  C18_23 
REMARK    9  A    between atoms: C24_31  and  O6_32 
REMARK   10  A    between atoms: C28_36  and  O7_37 
REMARK   11  A    between atoms: C32_42  and  O9_43 
ROOT
HETATM    1  C5  UNL     1      -2.787  50.042 -22.756  1.00  0.00     0.127 C 
HETATM    2  C6  UNL     1      -3.384  50.923 -21.668  1.00  0.00     0.033 C 
HETATM    3  C7  UNL     1      -4.829  50.559 -21.323  1.00  0.00     0.021 C 
HETATM    4  C8  UNL     1      -5.253  49.090 -21.657  1.00  0.00     0.026 C 
HETATM    5  C12 UNL     1      -6.471  48.703 -20.710  1.00  0.00     0.009 C 
HETATM    6  C13 UNL     1      -7.812  48.431 -21.416  1.00  0.00     0.007 C 
HETATM    7  C14 UNL     1      -8.945  48.262 -20.404  1.00  0.00     0.013 C 
HETATM    8  C15 UNL     1      -8.698  47.107 -19.407  1.00  0.00    -0.005 C 
HETATM    9  C16 UNL     1      -8.862  45.763 -20.143  1.00  0.00     0.019 C 
HETATM   10  C17 UNL     1      -9.649  47.189 -18.166  1.00  0.00     0.028 C 
HETATM   11  C22 UNL     1      -9.003  48.260 -17.266  1.00  0.00     0.013 C 
HETATM   12  C23 UNL     1      -7.519  48.315 -17.644  1.00  0.00     0.040 C 
HETATM   13  C24 UNL     1      -7.301  47.245 -18.730  1.00  0.00     0.070 C 
HETATM   14  C25 UNL     1      -6.147  47.544 -19.730  1.00  0.00     0.026 C 
HETATM   15  C26 UNL     1      -4.807  47.834 -19.034  1.00  0.00     0.011 C 
HETATM   16  C27 UNL     1      -3.628  47.996 -20.002  1.00  0.00     0.039 C 
HETATM   17  C28 UNL     1      -4.019  48.143 -21.490  1.00  0.00     0.073 C 
HETATM   18  C29 UNL     1      -2.774  48.574 -22.315  1.00  0.00     0.071 C 
ENDROOT
BRANCH   1  19
HETATM   19  O2  UNL     1      -1.470  50.531 -23.026  1.00  0.00    -0.356 OA
BRANCH  19  20
HETATM   20  C4  UNL     1      -1.439  51.785 -23.706  1.00  0.00     0.263 C 
HETATM   21  C3  UNL     1      -0.036  51.981 -24.262  1.00  0.00     0.095 C 
HETATM   22  C2  UNL     1      -0.071  52.886 -25.477  1.00  0.00     0.156 C 
HETATM   23  C32 UNL     1      -0.941  52.251 -26.583  1.00  0.00     0.175 C 
HETATM   24  C30 UNL     1      -2.120  51.432 -26.004  1.00  0.00     0.151 C 
HETATM   25  O8  UNL     1      -2.470  51.858 -24.688  1.00  0.00    -0.354 OA
HETATM   26  C31 UNL     1      -1.886  49.924 -26.065  1.00  0.00     0.042 C 
BRANCH  22  27
HETATM   27  O1  UNL     1       1.293  53.069 -25.899  1.00  0.00    -0.388 OA
HETATM   28  C1  UNL     1       1.932  51.858 -26.284  1.00  0.00     0.202 C 
ENDBRANCH  22  27
BRANCH  23  29
HETATM   29  O9  UNL     1      -1.451  53.333 -27.392  1.00  0.00    -0.390 OA
HETATM   30  H49 UNL     1      -1.993  52.941 -28.099  1.00  0.00     0.210 HD
ENDBRANCH  23  29
ENDBRANCH  19  20
ENDBRANCH   1  19
BRANCH  17  31
HETATM   31  O7  UNL     1      -4.344  46.807 -21.916  1.00  0.00    -0.389 OA
HETATM   32  H41 UNL     1      -4.702  46.882 -22.828  1.00  0.00     0.210 HD
ENDBRANCH  17  31
BRANCH   4  33
HETATM   33  C9  UNL     1      -5.733  49.098 -23.122  1.00  0.00     0.068 C 
HETATM   34  N1  UNL     1      -5.932  48.007 -23.776  1.00  0.00    -0.399 N 
ATOM     35  H1  UNL     1      -5.761  47.087 -23.373  1.00  0.00     0.158 HD
BRANCH  34  36
HETATM   36  C10 UNL     1      -6.425  48.190 -25.149  1.00  0.00     0.144 C 
BRANCH  36  37
HETATM   37  C11 UNL     1      -7.952  48.168 -25.160  1.00  0.00     0.183 C 
BRANCH  37  38
HETATM   38  O3  UNL     1      -8.467  49.491 -25.140  1.00  0.00    -0.399 OA
HETATM   39  H18 UNL     1      -8.259  49.895 -26.003  1.00  0.00     0.209 HD
ENDBRANCH  37  38
ENDBRANCH  36  37
ENDBRANCH  34  36
ENDBRANCH   4  33
BRANCH  13  40
HETATM   40  O6  UNL     1      -7.024  46.008 -18.058  1.00  0.00    -0.389 OA
HETATM   41  H35 UNL     1      -6.207  46.104 -17.544  1.00  0.00     0.210 HD
ENDBRANCH  13  40
BRANCH  10  42
HETATM   42  C18 UNL     1     -11.116  47.382 -18.442  1.00  0.00    -0.045 A 
HETATM   43  C19 UNL     1     -12.156  47.230 -17.620  1.00  0.00     0.087 A 
HETATM   44  C20 UNL     1     -13.364  47.493 -18.394  1.00  0.00     0.283 A 
HETATM   45  O4  UNL     1     -14.494  47.457 -17.945  1.00  0.00    -0.260 OA
HETATM   46  O5  UNL     1     -13.019  47.771 -19.678  1.00  0.00    -0.314 OA
HETATM   47  C21 UNL     1     -11.598  47.729 -19.801  1.00  0.00     0.213 A 
ENDBRANCH  10  42
TORSDOF 11
ENDMDL
