MODEL 1
REMARK minimizedAffinity -9.11685944
REMARK  4 active torsions:
REMARK  status: ('A' for Active; 'I' for Inactive)
REMARK    1  A    between atoms: C4_4  and  C5_5 
REMARK    2  A    between atoms: C5_5  and  C6_7 
REMARK    3  A    between atoms: C6_7  and  C7_8 
REMARK    4  A    between atoms: C7_8  and  C9_10 
ROOT
HETATM    1  C9  UNL     1      -1.852  51.415 -24.958  1.00  0.00    -0.001 C 
HETATM    2  C10 UNL     1      -1.912  52.672 -24.054  1.00  0.00     0.007 C 
HETATM    3  C11 UNL     1      -3.079  52.456 -23.061  1.00  0.00     0.015 C 
HETATM    4  C12 UNL     1      -3.793  51.174 -23.542  1.00  0.00    -0.013 C 
HETATM    5  C13 UNL     1      -4.824  51.639 -24.622  1.00  0.00     0.021 C 
HETATM    6  C14 UNL     1      -4.582  50.353 -22.530  1.00  0.00    -0.070 C 
HETATM    7  C15 UNL     1      -5.169  50.905 -21.457  1.00  0.00    -0.022 C 
HETATM    8  C16 UNL     1      -6.005  50.167 -20.460  1.00  0.00     0.034 C 
HETATM    9  C17 UNL     1      -6.256  48.660 -20.718  1.00  0.00     0.013 C 
HETATM   10  C18 UNL     1      -5.613  47.705 -19.647  1.00  0.00     0.018 C 
HETATM   11  C19 UNL     1      -6.168  48.029 -18.240  1.00  0.00     0.023 C 
HETATM   12  C20 UNL     1      -4.079  47.761 -19.596  1.00  0.00     0.023 C 
HETATM   13  C21 UNL     1      -6.019  46.250 -19.946  1.00  0.00     0.135 C 
HETATM   14  O2  UNL     1      -5.783  45.330 -19.160  1.00  0.00    -0.297 OA
HETATM   15  C22 UNL     1      -6.730  45.974 -21.248  1.00  0.00     0.080 C 
HETATM   16  C23 UNL     1      -5.980  46.689 -22.359  1.00  0.00     0.017 C 
HETATM   17  C24 UNL     1      -6.030  48.239 -22.227  1.00  0.00    -0.031 C 
HETATM   18  C25 UNL     1      -7.253  48.744 -23.045  1.00  0.00     0.016 C 
HETATM   19  C26 UNL     1      -4.698  48.857 -22.796  1.00  0.00     0.024 C 
HETATM   20  C27 UNL     1      -4.374  48.470 -24.264  1.00  0.00     0.010 C 
HETATM   21  C28 UNL     1      -3.100  49.112 -24.866  1.00  0.00     0.011 C 
HETATM   22  C29 UNL     1      -2.584  50.341 -24.089  1.00  0.00    -0.029 C 
HETATM   23  C30 UNL     1      -1.609  49.845 -22.974  1.00  0.00     0.016 C 
ENDROOT
BRANCH   1  24
HETATM   24  C7  UNL     1      -0.480  51.019 -25.577  1.00  0.00    -0.007 C 
HETATM   25  C8  UNL     1      -0.501  51.217 -27.103  1.00  0.00     0.011 C 
BRANCH  24  26
HETATM   26  C6  UNL     1       0.793  51.622 -24.947  1.00  0.00     0.087 C 
BRANCH  26  27
HETATM   27  C5  UNL     1       0.644  52.866 -24.072  1.00  0.00     0.149 C 
HETATM   28  O1  UNL     1       0.601  54.004 -24.524  1.00  0.00    -0.293 OA
BRANCH  27  29
HETATM   29  C4  UNL     1       0.551  52.600 -22.598  1.00  0.00     0.052 C 
HETATM   30  C2  UNL     1       1.063  53.338 -21.595  1.00  0.00    -0.084 C 
HETATM   31  C1  UNL     1       1.886  54.589 -21.743  1.00  0.00     0.043 C 
HETATM   32  C3  UNL     1       0.834  52.927 -20.160  1.00  0.00     0.043 C 
ENDBRANCH  27  29
ENDBRANCH  26  27
ENDBRANCH  24  26
ENDBRANCH   1  24
TORSDOF 4
ENDMDL
