MODEL 1
REMARK minimizedAffinity -7.83613014
REMARK CNNscore 0.630218029
REMARK CNNaffinity 6.26163149
REMARK  8 active torsions:
REMARK  status: ('A' for Active; 'I' for Inactive)
REMARK    1  A    between atoms: O1_2  and  C2_3 
REMARK    2  A    between atoms: C2_3  and  C3_4 
REMARK    3  A    between atoms: C7_8  and  C8_9 
REMARK    4  A    between atoms: C8_9  and  C9_10 
REMARK    5  A    between atoms: C8_9  and  C10_12 
REMARK    6  A    between atoms: C9_10  and  O2_11 
REMARK    7  A    between atoms: C19_21  and  S1_22 
REMARK    8  A    between atoms: S1_22  and  O5_25 
ROOT
HETATM    1  C10 UNL     1     -10.234  46.596 -28.425  1.00  0.00     0.003 C 
HETATM    2  C11 UNL     1     -10.610  48.077 -28.322  1.00  0.00     0.006 C 
HETATM    3  C12 UNL     1     -12.121  48.097 -28.588  1.00  0.00     0.006 C 
HETATM    4  C13 UNL     1     -12.604  46.626 -28.501  1.00  0.00    -0.001 C 
HETATM    5  C14 UNL     1     -14.030  46.489 -27.934  1.00  0.00    -0.001 C 
HETATM    6  C15 UNL     1     -14.754  45.271 -28.534  1.00  0.00     0.033 C 
HETATM    7  C16 UNL     1     -16.058  44.982 -27.867  1.00  0.00    -0.022 C 
HETATM    8  C17 UNL     1     -16.209  45.115 -26.542  1.00  0.00    -0.066 C 
HETATM    9  C18 UNL     1     -17.500  44.766 -25.846  1.00  0.00     0.057 C 
HETATM   10  C19 UNL     1     -18.084  45.986 -25.128  1.00  0.00     0.132 C 
HETATM   11  C20 UNL     1     -17.025  46.973 -24.641  1.00  0.00     0.101 C 
HETATM   12  C21 UNL     1     -15.690  46.289 -24.427  1.00  0.00     0.141 C 
HETATM   13  O6  UNL     1     -15.115  46.374 -23.341  1.00  0.00    -0.297 OA
HETATM   14  C22 UNL     1     -15.053  45.580 -25.654  1.00  0.00     0.044 C 
HETATM   15  C23 UNL     1     -14.299  44.335 -25.160  1.00  0.00     0.029 C 
HETATM   16  C24 UNL     1     -14.142  46.630 -26.391  1.00  0.00     0.010 C 
HETATM   17  C25 UNL     1     -12.792  46.909 -25.715  1.00  0.00     0.007 C 
HETATM   18  C26 UNL     1     -11.596  46.097 -26.213  1.00  0.00     0.010 C 
HETATM   19  C27 UNL     1     -11.461  45.891 -27.746  1.00  0.00    -0.036 C 
HETATM   20  C28 UNL     1     -11.409  44.388 -28.062  1.00  0.00     0.016 C 
ENDROOT
BRANCH   1  21
HETATM   21  C8  UNL     1      -8.748  46.202 -28.110  1.00  0.00     0.044 C 
BRANCH  21  22
HETATM   22  C7  UNL     1      -7.839  46.474 -29.358  1.00  0.00     0.142 C 
HETATM   23  C6  UNL     1      -8.500  47.219 -30.517  1.00  0.00     0.067 C 
HETATM   24  C4  UNL     1      -7.469  47.598 -31.551  1.00  0.00    -0.067 C 
HETATM   25  C3  UNL     1      -6.171  47.753 -31.206  1.00  0.00     0.043 C 
HETATM   26  C5  UNL     1      -8.015  47.782 -32.939  1.00  0.00     0.044 C 
HETATM   27  C29 UNL     1      -5.790  47.720 -29.769  1.00  0.00     0.292 C 
HETATM   28  O7  UNL     1      -6.710  47.253 -28.893  1.00  0.00    -0.311 OA
HETATM   29  O8  UNL     1      -4.705  48.140 -29.383  1.00  0.00    -0.260 OA
BRANCH  25  30
HETATM   30  C2  UNL     1      -5.008  48.036 -32.123  1.00  0.00     0.212 C 
BRANCH  30  31
HETATM   31  O1  UNL     1      -4.061  46.963 -32.092  1.00  0.00    -0.391 OA
HETATM   32  C1  UNL     1      -4.616  45.764 -32.615  1.00  0.00     0.201 C 
ENDBRANCH  30  31
ENDBRANCH  25  30
ENDBRANCH  21  22
BRANCH  21  33
HETATM   33  C9  UNL     1      -8.169  46.790 -26.821  1.00  0.00     0.171 C 
BRANCH  33  34
HETATM   34  O2  UNL     1      -8.174  48.213 -26.845  1.00  0.00    -0.400 OA
HETATM   35  H15 UNL     1      -7.506  48.499 -27.496  1.00  0.00     0.209 HD
ENDBRANCH  33  34
ENDBRANCH  21  33
ENDBRANCH   1  21
BRANCH  10  36
HETATM   36  S1  UNL     1     -19.132  45.414 -23.784  1.00  0.00     0.099 S 
HETATM   37  O3  UNL     1     -18.677  45.984 -22.538  1.00  0.00    -0.601 OA
HETATM   38  O4  UNL     1     -20.520  45.447 -24.176  1.00  0.00    -0.601 OA
BRANCH  36  39
HETATM   39  O5  UNL     1     -18.685  43.863 -23.773  1.00  0.00    -0.295 OA
HETATM   40  H29 UNL     1     -19.321  43.359 -23.220  1.00  0.00     0.232 HD
ENDBRANCH  36  39
ENDBRANCH  10  36
TORSDOF 8
ENDMDL
