MODEL 1
REMARK minimizedAffinity -6.83321142
REMARK CNNscore 0.604948759
REMARK CNNaffinity 6.21679688
REMARK  2 active torsions:
REMARK  status: ('A' for Active; 'I' for Inactive)
REMARK       I    between atoms: C1_2  and  N1_3 
REMARK    1  A    between atoms: C1_2  and  C14_18 
REMARK    2  A    between atoms: N1_3  and  C2_4 
ROOT
HETATM    1  C2  UNL     1       0.278  56.264  -7.635  1.00  0.00     0.135 C 
HETATM    2  C3  UNL     1       0.102  56.493  -6.114  1.00  0.00     0.032 C 
HETATM    3  C4  UNL     1       1.238  57.336  -5.507  1.00  0.00     0.007 C 
HETATM    4  C5  UNL     1       2.613  56.665  -5.689  1.00  0.00     0.042 C 
HETATM    5  C6  UNL     1       2.784  56.182  -7.091  1.00  0.00    -0.021 A 
HETATM    6  C7  UNL     1       1.713  55.999  -7.942  1.00  0.00     0.040 A 
HETATM    7  N2  UNL     1       2.197  55.601  -9.158  1.00  0.00    -0.355 N 
HETATM    8  C8  UNL     1       3.567  55.463  -9.094  1.00  0.00     0.065 A 
HETATM    9  C9  UNL     1       4.487  55.057 -10.068  1.00  0.00     0.061 A 
HETATM   10 CL1  UNL     1       3.973  54.612 -11.647  1.00  0.00    -0.082 Cl
HETATM   11  C10 UNL     1       5.840  55.019  -9.728  1.00  0.00     0.026 A 
HETATM   12  C11 UNL     1       6.261  55.379  -8.449  1.00  0.00     0.003 A 
HETATM   13  C12 UNL     1       5.335  55.785  -7.480  1.00  0.00     0.014 A 
HETATM   14  C13 UNL     1       3.963  55.827  -7.803  1.00  0.00     0.001 A 
HETATM   15  H9  UNL     1       1.638  55.425  -9.984  1.00  0.00     0.166 HD
ENDROOT
BRANCH   1  16
HETATM   16  N1  UNL     1      -0.487  55.119  -8.073  1.00  0.00    -0.347 N 
HETATM   17  C1  UNL     1      -1.109  55.102  -9.302  1.00  0.00     0.252 C 
HETATM   18  O1  UNL     1      -0.952  55.973 -10.148  1.00  0.00    -0.268 OA
HETATM   19  H1  UNL     1      -0.670  54.393  -7.396  1.00  0.00     0.163 HD
BRANCH  17  20
HETATM   20  C14 UNL     1      -1.985  53.929  -9.585  1.00  0.00     0.034 A 
HETATM   21  C15 UNL     1      -3.011  54.093 -10.522  1.00  0.00     0.018 A 
HETATM   22  C16 UNL     1      -3.869  53.032 -10.841  1.00  0.00     0.015 A 
HETATM   23  C17 UNL     1      -3.697  51.792 -10.198  1.00  0.00    -0.008 A 
HETATM   24  C18 UNL     1      -4.368  50.539 -10.276  1.00  0.00     0.030 A 
HETATM   25  C20 UNL     1      -2.680  51.655  -9.254  1.00  0.00     0.043 A 
HETATM   26  C19 UNL     1      -3.759  49.682  -9.389  1.00  0.00     0.089 A 
HETATM   27  N3  UNL     1      -2.744  50.366  -8.773  1.00  0.00    -0.365 N 
HETATM   28  H17 UNL     1      -2.130  49.982  -8.068  1.00  0.00     0.165 HD
HETATM   29  C21 UNL     1      -1.809  52.703  -8.921  1.00  0.00     0.047 A 
ENDBRANCH  17  20
ENDBRANCH   1  16
TORSDOF 2
ENDMDL
