MODEL 1
REMARK minimizedAffinity -9.50062656
REMARK CNNscore 0.793452799
REMARK CNNaffinity 7.62267351
REMARK  13 active torsions:
REMARK  status: ('A' for Active; 'I' for Inactive)
REMARK    1  A    between atoms: O1_2  and  C2_3 
REMARK    2  A    between atoms: C2_3  and  C3_4 
REMARK    3  A    between atoms: C3_4  and  C4_5 
REMARK    4  A    between atoms: C4_5  and  O2_6 
REMARK    5  A    between atoms: O2_6  and  C5_7 
REMARK    6  A    between atoms: C20_23  and  C21_24 
REMARK    7  A    between atoms: C21_24  and  O4_26 
REMARK    8  A    between atoms: C21_24  and  C23_27 
REMARK    9  A    between atoms: C23_27  and  O5_28 
REMARK   10  A    between atoms: C23_27  and  C24_29 
REMARK   11  A    between atoms: C28_34  and  C29_35 
REMARK       I    between atoms: C29_35  and  N1_37 
REMARK   12  A    between atoms: C32_41  and  O8_42 
REMARK   13  A    between atoms: C37_47  and  O9_48 
ROOT
HETATM    1  C5  UNL     1      -1.905  52.217 -26.175  1.00  0.00     0.122 C 
HETATM    2  C6  UNL     1      -3.326  51.672 -26.046  1.00  0.00     0.033 C 
HETATM    3  C7  UNL     1      -3.623  51.163 -24.641  1.00  0.00     0.013 C 
HETATM    4  C8  UNL     1      -2.583  50.124 -24.109  1.00  0.00    -0.026 C 
HETATM    5  C9  UNL     1      -2.687  48.838 -24.974  1.00  0.00     0.016 C 
HETATM    6  C10 UNL     1      -1.159  50.731 -24.233  1.00  0.00     0.071 C 
HETATM    7  C11 UNL     1      -0.861  51.224 -25.661  1.00  0.00     0.045 C 
HETATM    8  C12 UNL     1      -0.923  51.870 -23.243  1.00  0.00     0.154 C 
HETATM    9  O3  UNL     1      -0.171  52.814 -23.473  1.00  0.00    -0.293 OA
HETATM   10  C13 UNL     1      -1.558  51.806 -21.910  1.00  0.00     0.057 C 
HETATM   11  C14 UNL     1      -2.448  50.851 -21.608  1.00  0.00    -0.037 C 
HETATM   12  C15 UNL     1      -2.944  49.801 -22.611  1.00  0.00     0.026 C 
HETATM   13  C16 UNL     1      -2.554  48.399 -22.090  1.00  0.00     0.011 C 
HETATM   14  C17 UNL     1      -3.078  48.148 -20.659  1.00  0.00     0.014 C 
HETATM   15  C18 UNL     1      -2.616  49.240 -19.670  1.00  0.00    -0.002 C 
HETATM   16  C19 UNL     1      -1.078  49.107 -19.485  1.00  0.00     0.019 C 
HETATM   17  C20 UNL     1      -3.380  49.288 -18.302  1.00  0.00     0.034 C 
HETATM   18  C35 UNL     1      -3.089  50.724 -17.787  1.00  0.00     0.012 C 
HETATM   19  C36 UNL     1      -2.686  51.561 -19.029  1.00  0.00     0.044 C 
HETATM   20  C37 UNL     1      -3.012  50.652 -20.222  1.00  0.00     0.089 C 
ENDROOT
BRANCH  17  21
HETATM   21  C21 UNL     1      -3.294  48.135 -17.250  1.00  0.00     0.087 C 
HETATM   22  C22 UNL     1      -3.102  46.745 -17.864  1.00  0.00     0.049 C 
BRANCH  21  23
HETATM   23  O4  UNL     1      -4.553  48.108 -16.558  1.00  0.00    -0.387 OA
HETATM   24  H34 UNL     1      -4.782  49.009 -16.282  1.00  0.00     0.210 HD
ENDBRANCH  21  23
BRANCH  21  25
HETATM   25  C23 UNL     1      -2.129  48.463 -16.224  1.00  0.00     0.181 C 
BRANCH  25  26
HETATM   26  O5  UNL     1      -1.956  47.364 -15.321  1.00  0.00    -0.390 OA
HETATM   27  H36 UNL     1      -1.028  47.074 -15.367  1.00  0.00     0.210 HD
ENDBRANCH  25  26
BRANCH  25  28
HETATM   28  C24 UNL     1      -2.292  49.798 -15.453  1.00  0.00     0.158 C 
HETATM   29  O6  UNL     1      -2.856  49.603 -14.125  1.00  0.00    -0.373 OA
HETATM   30  C25 UNL     1      -2.374  50.697 -13.341  1.00  0.00     0.185 C 
HETATM   31  C26 UNL     1      -0.922  50.776 -13.741  1.00  0.00     0.028 C 
HETATM   32  C32 UNL     1      -2.498  50.539 -11.821  1.00  0.00     0.384 C 
HETATM   33  C27 UNL     1      -0.315  52.008 -13.111  1.00  0.00     0.053 C 
HETATM   34  C33 UNL     1      -1.040  50.710 -15.256  1.00  0.00     0.020 C 
HETATM   35  C28 UNL     1      -0.507  51.963 -11.576  1.00  0.00     0.309 C 
HETATM   36  N2  UNL     1      -1.888  51.663 -11.130  1.00  0.00     0.128 N 
HETATM   37  H47 UNL     1      -2.472  52.483 -11.291  1.00  0.00     0.320 HD
HETATM   38  C34 UNL     1       0.263  50.325 -15.947  1.00  0.00     0.013 C 
BRANCH  35  39
HETATM   39  C29 UNL     1      -0.110  53.345 -11.025  1.00  0.00     0.233 C 
HETATM   40  O7  UNL     1       1.008  53.834 -11.202  1.00  0.00    -0.277 OA
HETATM   41  N1  UNL     1      -1.110  53.919 -10.239  1.00  0.00    -0.249 NA
HETATM   42  C30 UNL     1      -0.779  54.530  -8.981  1.00  0.00     0.113 A 
HETATM   43  C31 UNL     1      -1.201  55.351 -10.146  1.00  0.00     0.113 A 
ENDBRANCH  35  39
BRANCH  32  44
HETATM   44  O8  UNL     1      -3.871  50.500 -11.473  1.00  0.00    -0.366 OA
HETATM   45  H49 UNL     1      -4.259  49.821 -12.060  1.00  0.00     0.212 HD
ENDBRANCH  32  44
ENDBRANCH  25  28
ENDBRANCH  21  25
ENDBRANCH  17  21
BRANCH  20  46
HETATM   46  O9  UNL     1      -4.442  50.754 -20.382  1.00  0.00    -0.384 OA
HETATM   47  H58 UNL     1      -4.613  51.595 -20.837  1.00  0.00     0.211 HD
ENDBRANCH  20  46
BRANCH   1  48
HETATM   48  O2  UNL     1      -1.661  52.451 -27.567  1.00  0.00    -0.386 OA
BRANCH  48  49
HETATM   49  C4  UNL     1      -0.346  52.947 -27.826  1.00  0.00     0.170 C 
BRANCH  49  50
HETATM   50  C3  UNL     1       0.579  51.762 -28.069  1.00  0.00     0.052 C 
BRANCH  50  51
HETATM   51  C2  UNL     1       2.006  52.225 -28.353  1.00  0.00     0.169 C 
BRANCH  51  52
HETATM   52  O1  UNL     1       2.934  51.466 -27.575  1.00  0.00    -0.396 OA
HETATM   53  C1  UNL     1       2.441  51.172 -26.271  1.00  0.00     0.201 C 
ENDBRANCH  51  52
ENDBRANCH  50  51
ENDBRANCH  49  50
ENDBRANCH  48  49
ENDBRANCH   1  48
TORSDOF 13
ENDMDL
