MODEL 1
REMARK minimizedAffinity -10.0021753
REMARK  6 active torsions:
REMARK  status: ('A' for Active; 'I' for Inactive)
REMARK    1  A    between atoms: C4_4  and  C5_5 
REMARK    2  A    between atoms: C5_5  and  C6_6 
REMARK    3  A    between atoms: C6_6  and  C7_7 
REMARK    4  A    between atoms: C7_7  and  C9_9 
REMARK    5  A    between atoms: C24_24  and  O1_25 
REMARK    6  A    between atoms: C27_28  and  O2_29 
ROOT
HETATM    1  C9  UNL     1      -1.219  49.203 -18.757  1.00  0.00    -0.002 C 
HETATM    2  C10 UNL     1      -2.525  48.370 -18.673  1.00  0.00     0.007 C 
HETATM    3  C11 UNL     1      -3.181  48.426 -20.073  1.00  0.00     0.015 C 
HETATM    4  C12 UNL     1      -2.081  48.970 -21.005  1.00  0.00    -0.013 C 
HETATM    5  C13 UNL     1      -1.183  47.757 -21.403  1.00  0.00     0.021 C 
HETATM    6  C14 UNL     1      -2.457  49.617 -22.335  1.00  0.00    -0.065 C 
HETATM    7  C15 UNL     1      -1.640  50.555 -22.887  1.00  0.00    -0.068 C 
HETATM    8  C16 UNL     1      -0.414  51.097 -22.132  1.00  0.00     0.036 C 
HETATM    9  C17 UNL     1      -0.131  50.530 -20.724  1.00  0.00     0.015 C 
HETATM   10  C18 UNL     1      -1.418  50.038 -20.055  1.00  0.00    -0.029 C 
HETATM   11  C19 UNL     1      -2.342  51.266 -19.808  1.00  0.00     0.016 C 
HETATM   12  C20 UNL     1      -1.950  51.199 -24.265  1.00  0.00    -0.014 C 
HETATM   13  C21 UNL     1      -2.548  52.596 -23.950  1.00  0.00     0.020 C 
HETATM   14  C22 UNL     1      -0.659  51.349 -25.132  1.00  0.00     0.016 C 
HETATM   15  C23 UNL     1      -0.834  51.103 -26.640  1.00  0.00     0.033 C 
HETATM   16  C24 UNL     1      -2.175  51.564 -27.185  1.00  0.00     0.118 C 
HETATM   17  C25 UNL     1      -3.355  50.946 -26.425  1.00  0.00     0.039 C 
HETATM   18  C26 UNL     1      -2.950  50.318 -25.072  1.00  0.00     0.029 C 
HETATM   19  C27 UNL     1      -4.167  49.926 -24.229  1.00  0.00     0.127 C 
HETATM   20  C28 UNL     1      -3.730  49.136 -22.991  1.00  0.00     0.067 C 
ENDROOT
BRANCH   1  21
HETATM   21  C7  UNL     1      -0.747  49.861 -17.428  1.00  0.00    -0.014 C 
HETATM   22  C8  UNL     1      -0.022  48.945 -16.434  1.00  0.00     0.010 C 
BRANCH  21  23
HETATM   23  C6  UNL     1       0.192  51.073 -17.687  1.00  0.00     0.008 C 
BRANCH  23  24
HETATM   24  C5  UNL     1       0.714  51.770 -16.424  1.00  0.00     0.028 C 
BRANCH  24  25
HETATM   25  C4  UNL     1       2.136  52.225 -16.619  1.00  0.00    -0.025 C 
HETATM   26  C2  UNL     1       3.181  52.076 -15.780  1.00  0.00    -0.091 C 
HETATM   27  C1  UNL     1       4.549  52.572 -16.169  1.00  0.00     0.042 C 
HETATM   28  C3  UNL     1       3.121  51.428 -14.426  1.00  0.00     0.042 C 
ENDBRANCH  24  25
ENDBRANCH  23  24
ENDBRANCH  21  23
ENDBRANCH   1  21
BRANCH  19  29
HETATM   29  O2  UNL     1      -5.074  49.128 -24.996  1.00  0.00    -0.395 OA
HETATM   30  H44 UNL     1      -4.600  48.329 -25.279  1.00  0.00     0.210 HD
ENDBRANCH  19  29
BRANCH  16  31
HETATM   31  O1  UNL     1      -2.248  52.985 -27.119  1.00  0.00    -0.396 OA
HETATM   32  H39 UNL     1      -1.526  53.343 -27.663  1.00  0.00     0.210 HD
ENDBRANCH  16  31
TORSDOF 6
ENDMDL
