MODEL 1
REMARK minimizedAffinity -7.68382645
REMARK  8 active torsions:
REMARK  status: ('A' for Active; 'I' for Inactive)
REMARK    1  A    between atoms: C5_5  and  C6_6 
REMARK    2  A    between atoms: C6_6  and  O1_9 
REMARK    3  A    between atoms: C14_16  and  C15_17 
REMARK    4  A    between atoms: C16_19  and  O4_20 
REMARK    5  A    between atoms: C17_21  and  C18_22 
REMARK    6  A    between atoms: C19_24  and  O6_25 
REMARK    7  A    between atoms: C21_27  and  C22_28 
REMARK    8  A    between atoms: C22_28  and  C23_29 
ROOT
HETATM    1  C1  UNL     1      -0.309   8.860   9.643  1.00  0.00     0.019 C 
HETATM    2  C2  UNL     1      -0.035   8.741  10.956  1.00  0.00    -0.068 C 
HETATM    3  C3  UNL     1       1.343   8.456  11.336  1.00  0.00     0.003 C 
HETATM    4  C4  UNL     1       1.903   7.896  12.425  1.00  0.00    -0.019 C 
HETATM    5  C5  UNL     1       1.279   7.349  13.697  1.00  0.00     0.042 C 
HETATM    6  C9  UNL     1       0.869   5.854  13.546  1.00  0.00     0.014 C 
HETATM    7  C10 UNL     1       0.101   5.455  12.270  1.00  0.00     0.039 C 
HETATM    8  C11 UNL     1      -1.455   5.569  12.252  1.00  0.00     0.068 C 
HETATM    9  C12 UNL     1      -1.856   5.430  10.755  1.00  0.00     0.047 C 
HETATM   10  O2  UNL     1      -1.921   4.354  12.935  1.00  0.00    -0.338 OA
HETATM   11  C13 UNL     1      -3.297   4.253  12.898  1.00  0.00     0.095 A 
HETATM   12  C14 UNL     1      -3.898   3.073  12.458  1.00  0.00     0.070 A 
HETATM   13  C16 UNL     1      -5.288   3.035  12.294  1.00  0.00     0.097 A 
HETATM   14  C17 UNL     1      -6.048   4.181  12.559  1.00  0.00     0.069 A 
HETATM   15  C19 UNL     1      -5.426   5.354  13.040  1.00  0.00     0.091 A 
HETATM   16  C20 UNL     1      -4.050   5.382  13.270  1.00  0.00     0.015 A 
HETATM   17  C21 UNL     1      -3.221   6.464  13.927  1.00  0.00     0.031 C 
HETATM   18  C26 UNL     1      -2.035   6.847  12.972  1.00  0.00     0.029 C 
HETATM   19  C27 UNL     1      -2.303   8.072  12.062  1.00  0.00     0.013 C 
HETATM   20  C28 UNL     1      -1.127   9.071  11.948  1.00  0.00     0.038 C 
ENDROOT
BRANCH   5  21
HETATM   21  C6  UNL     1       2.161   7.612  14.979  1.00  0.00     0.057 C 
HETATM   22  C7  UNL     1       3.406   8.445  14.633  1.00  0.00     0.046 C 
HETATM   23  C8  UNL     1       1.417   8.279  16.144  1.00  0.00     0.046 C 
BRANCH  21  24
HETATM   24  O1  UNL     1       2.642   6.338  15.443  1.00  0.00    -0.390 OA
HETATM   25  H12 UNL     1       3.194   6.487  16.230  1.00  0.00     0.210 HD
ENDBRANCH  21  24
ENDBRANCH   5  21
BRANCH  17  26
HETATM   26  C22 UNL     1      -3.862   7.673  14.658  1.00  0.00     0.014 C 
BRANCH  26  27
HETATM   27  C23 UNL     1      -2.902   8.614  15.432  1.00  0.00    -0.022 C 
HETATM   28  C24 UNL     1      -2.125   7.870  16.525  1.00  0.00     0.009 C 
HETATM   29  C25 UNL     1      -3.561   9.860  16.016  1.00  0.00     0.009 C 
ENDBRANCH  26  27
ENDBRANCH  17  26
BRANCH  12  30
HETATM   30  C15 UNL     1      -3.061   1.902  12.144  1.00  0.00     0.275 C 
HETATM   31  O3  UNL     1      -3.582   0.857  11.760  1.00  0.00    -0.301 OA
ENDBRANCH  12  30
BRANCH  13  32
HETATM   32  O4  UNL     1      -5.930   1.905  11.849  1.00  0.00    -0.359 OA
HETATM   33  H21 UNL     1      -5.259   1.198  11.700  1.00  0.00     0.217 HD
ENDBRANCH  13  32
BRANCH  15  34
HETATM   34  O6  UNL     1      -6.150   6.490  13.270  1.00  0.00    -0.359 OA
HETATM   35  H23 UNL     1      -7.097   6.320  13.056  1.00  0.00     0.217 HD
ENDBRANCH  15  34
BRANCH  14  36
HETATM   36  C18 UNL     1      -7.508   4.143  12.330  1.00  0.00     0.275 C 
HETATM   37  O5  UNL     1      -8.214   3.343  12.941  1.00  0.00    -0.301 OA
ENDBRANCH  14  36
TORSDOF 8
ENDMDL
