MODEL 1
REMARK minimizedAffinity -5.85040379
REMARK CNNscore 0.831930101
REMARK CNNaffinity 6.32672119
REMARK  8 active torsions:
REMARK  status: ('A' for Active; 'I' for Inactive)
REMARK    1  A    between atoms: C4_4  and  C5_5 
REMARK    2  A    between atoms: C5_5  and  C6_6 
REMARK    3  A    between atoms: C6_6  and  C7_7 
REMARK    4  A    between atoms: C9_9  and  C10_10 
REMARK    5  A    between atoms: C11_11  and  C12_12 
REMARK    6  A    between atoms: C14_14  and  C15_15 
REMARK    7  A    between atoms: C24_25  and  C26_27 
REMARK    8  A    between atoms: C29_31  and  O3_33 
ROOT
HETATM    1  C15 UNL     1       0.522  11.152  19.448  1.00  0.00     0.149 C 
HETATM    2  C16 UNL     1       1.155  11.627  20.750  1.00  0.00     0.054 C 
HETATM    3  C17 UNL     1       2.690  11.371  20.576  1.00  0.00     0.050 C 
HETATM    4  C18 UNL     1       2.740  10.837  19.111  1.00  0.00     0.272 C 
HETATM    5  O1  UNL     1       3.904  11.069  18.335  1.00  0.00    -0.360 OA
HETATM    6  C19 UNL     1       4.132  12.409  17.946  1.00  0.00     0.171 C 
HETATM    7  C20 UNL     1       5.123  13.076  18.885  1.00  0.00     0.027 C 
HETATM    8  C21 UNL     1       4.901  12.779  20.368  1.00  0.00     0.012 C 
HETATM    9  C22 UNL     1       3.412  12.758  20.772  1.00  0.00     0.032 C 
HETATM   10  C23 UNL     1       3.238  13.290  22.211  1.00  0.00    -0.066 C 
HETATM   11  C24 UNL     1       3.143  14.607  22.533  1.00  0.00    -0.021 C 
HETATM   12  C25 UNL     1       2.860  15.152  23.910  1.00  0.00     0.052 C 
HETATM   13  C27 UNL     1       3.119  12.215  23.276  1.00  0.00     0.038 C 
HETATM   14  C28 UNL     1       3.821  10.924  22.883  1.00  0.00     0.042 C 
HETATM   15  C29 UNL     1       3.273  10.298  21.583  1.00  0.00     0.067 C 
HETATM   16  C30 UNL     1       2.293   9.161  21.933  1.00  0.00     0.047 C 
HETATM   17  O4  UNL     1       1.543  11.303  18.465  1.00  0.00    -0.351 OA
ENDROOT
BRANCH   1  18
HETATM   18  C14 UNL     1      -0.755  11.855  19.081  1.00  0.00     0.011 C 
HETATM   19  C12 UNL     1      -1.977  11.355  18.801  1.00  0.00    -0.063 C 
HETATM   20  C13 UNL     1      -2.284   9.882  18.733  1.00  0.00     0.048 C 
BRANCH  19  21
HETATM   21  C11 UNL     1      -3.069  12.293  18.526  1.00  0.00     0.006 C 
HETATM   22  C10 UNL     1      -3.899  12.268  17.469  1.00  0.00     0.001 C 
BRANCH  22  23
HETATM   23  C9  UNL     1      -4.963  13.237  17.287  1.00  0.00     0.002 C 
HETATM   24  C7  UNL     1      -5.196  14.000  16.199  1.00  0.00    -0.084 C 
HETATM   25  C8  UNL     1      -4.353  13.994  14.945  1.00  0.00     0.043 C 
BRANCH  24  26
HETATM   26  C6  UNL     1      -6.359  14.984  16.098  1.00  0.00     0.037 C 
BRANCH  26  27
HETATM   27  C5  UNL     1      -6.424  15.902  14.869  1.00  0.00     0.031 C 
BRANCH  27  28
HETATM   28  C4  UNL     1      -7.848  16.185  14.468  1.00  0.00    -0.024 C 
HETATM   29  C2  UNL     1      -8.297  17.166  13.662  1.00  0.00    -0.091 C 
HETATM   30  C1  UNL     1      -9.763  17.282  13.335  1.00  0.00     0.042 C 
HETATM   31  C3  UNL     1      -7.437  18.226  13.030  1.00  0.00     0.042 C 
ENDBRANCH  27  28
ENDBRANCH  26  27
ENDBRANCH  24  26
ENDBRANCH  22  23
ENDBRANCH  19  21
ENDBRANCH   1  18
BRANCH  15  32
HETATM   32  O3  UNL     1       4.390   9.638  20.964  1.00  0.00    -0.389 OA
HETATM   33  H44 UNL     1       4.795   9.026  21.603  1.00  0.00     0.210 HD
ENDBRANCH  15  32
BRANCH  11  34
HETATM   34  C26 UNL     1       3.310  15.691  21.512  1.00  0.00     0.265 C 
HETATM   35  O2  UNL     1       2.391  16.069  20.791  1.00  0.00    -0.302 OA
ENDBRANCH  11  34
TORSDOF 8
ENDMDL
