MODEL 1
REMARK minimizedAffinity -7.48575687
REMARK CNNscore 0.750960648
REMARK CNNaffinity 6.86391592
REMARK  6 active torsions:
REMARK  status: ('A' for Active; 'I' for Inactive)
REMARK    1  A    between atoms: C2_2  and  C30_32 
REMARK    2  A    between atoms: C3_3  and  C4_4 
REMARK    3  A    between atoms: C4_4  and  C5_6 
REMARK    4  A    between atoms: C5_6  and  C6_7 
REMARK    5  A    between atoms: C6_7  and  C8_9 
REMARK    6  A    between atoms: C30_32  and  O4_34 
ROOT
HETATM    1  C8  UNL     1       4.843  55.945  -8.333  1.00  0.00    -0.001 C 
HETATM    2  C9  UNL     1       4.069  57.272  -8.062  1.00  0.00     0.007 C 
HETATM    3  C10 UNL     1       2.612  57.060  -8.508  1.00  0.00     0.015 C 
HETATM    4  C11 UNL     1       2.652  55.782  -9.369  1.00  0.00    -0.013 C 
HETATM    5  C12 UNL     1       3.126  56.234 -10.788  1.00  0.00     0.021 C 
HETATM    6  C13 UNL     1       1.366  54.988  -9.590  1.00  0.00    -0.070 C 
HETATM    7  C14 UNL     1       0.152  55.478  -9.296  1.00  0.00    -0.022 C 
HETATM    8  C15 UNL     1      -1.135  54.793  -9.611  1.00  0.00     0.034 C 
HETATM    9  C16 UNL     1      -1.019  53.643 -10.646  1.00  0.00     0.013 C 
HETATM   10  C17 UNL     1      -2.376  52.856 -10.816  1.00  0.00     0.018 C 
HETATM   11  C18 UNL     1      -2.605  52.509 -12.306  1.00  0.00     0.023 C 
HETATM   12  C19 UNL     1      -3.628  53.638 -10.366  1.00  0.00     0.023 C 
HETATM   13  C20 UNL     1      -2.349  51.567  -9.987  1.00  0.00     0.135 C 
HETATM   14  O2  UNL     1      -3.050  50.594 -10.269  1.00  0.00    -0.297 OA
HETATM   15  C21 UNL     1      -1.506  51.563  -8.733  1.00  0.00     0.080 C 
HETATM   16  C22 UNL     1      -0.060  52.007  -8.957  1.00  0.00     0.017 C 
HETATM   17  C23 UNL     1       0.217  52.730 -10.303  1.00  0.00    -0.031 C 
HETATM   18  C24 UNL     1       0.446  51.648 -11.395  1.00  0.00     0.016 C 
HETATM   19  C25 UNL     1       1.541  53.617 -10.254  1.00  0.00     0.024 C 
HETATM   20  C26 UNL     1       2.773  52.837  -9.702  1.00  0.00     0.010 C 
HETATM   21  C27 UNL     1       4.027  53.677  -9.400  1.00  0.00     0.011 C 
HETATM   22  C28 UNL     1       3.687  54.919  -8.559  1.00  0.00    -0.029 C 
HETATM   23  C29 UNL     1       3.131  54.454  -7.177  1.00  0.00     0.016 C 
ENDROOT
BRANCH   1  24
HETATM   24  C6  UNL     1       5.925  55.677  -7.243  1.00  0.00    -0.007 C 
HETATM   25  C7  UNL     1       7.274  55.266  -7.847  1.00  0.00     0.011 C 
BRANCH  24  26
HETATM   26  C5  UNL     1       6.130  56.939  -6.368  1.00  0.00     0.087 C 
BRANCH  26  27
HETATM   27  C4  UNL     1       7.067  56.718  -5.188  1.00  0.00     0.150 C 
HETATM   28  O1  UNL     1       6.831  55.913  -4.293  1.00  0.00    -0.293 OA
BRANCH  27  29
HETATM   29  C3  UNL     1       8.271  57.599  -5.146  1.00  0.00     0.063 C 
HETATM   30  C2  UNL     1       9.541  57.172  -5.021  1.00  0.00     0.015 C 
HETATM   31  C1  UNL     1      10.020  55.754  -4.970  1.00  0.00     0.055 C 
BRANCH  30  32
HETATM   32  C30 UNL     1      10.555  58.251  -4.961  1.00  0.00     0.171 C 
HETATM   33  O3  UNL     1      10.387  59.418  -5.268  1.00  0.00    -0.646 OA
BRANCH  32  34
HETATM   34  O4  UNL     1      11.739  57.819  -4.501  1.00  0.00    -0.773 OA
HETATM   35  H44 UNL     1      12.302  58.621  -4.501  1.00  0.00     0.167 HD
ENDBRANCH  32  34
ENDBRANCH  30  32
ENDBRANCH  27  29
ENDBRANCH  26  27
ENDBRANCH  24  26
ENDBRANCH   1  24
TORSDOF 6
ENDMDL
