MODEL 1
REMARK minimizedAffinity -9.56507492
REMARK  6 active torsions:
REMARK  status: ('A' for Active; 'I' for Inactive)
REMARK    1  A    between atoms: C2_2  and  O2_4 
REMARK    2  A    between atoms: O2_4  and  C3_5 
REMARK    3  A    between atoms: C13_15  and  C14_16 
REMARK    4  A    between atoms: C14_16  and  C16_18 
REMARK    5  A    between atoms: C16_18  and  C17_19 
REMARK    6  A    between atoms: C17_19  and  C18_20 
ROOT
HETATM    1  C3  UNL     1      -5.898   4.603  13.127  1.00  0.00     0.132 C 
HETATM    2  C4  UNL     1      -4.637   3.757  12.919  1.00  0.00     0.033 C 
HETATM    3  C5  UNL     1      -3.442   4.609  12.492  1.00  0.00     0.013 C 
HETATM    4  C6  UNL     1      -3.215   5.737  13.486  1.00  0.00    -0.028 A 
HETATM    5  C7  UNL     1      -2.375   5.427  14.699  1.00  0.00     0.021 A 
HETATM    6  C8  UNL     1      -1.826   6.382  13.645  1.00  0.00    -0.027 A 
HETATM    7  C9  UNL     1      -0.643   5.840  12.863  1.00  0.00     0.011 C 
HETATM    8  C10 UNL     1       0.652   6.381  13.442  1.00  0.00     0.011 C 
HETATM    9  C11 UNL     1       0.827   7.911  13.315  1.00  0.00    -0.032 C 
HETATM   10  C12 UNL     1       1.685   8.337  14.533  1.00  0.00     0.016 C 
HETATM   11  C13 UNL     1       1.478   8.405  11.974  1.00  0.00    -0.002 C 
HETATM   12  C22 UNL     1       0.317   8.477  10.976  1.00  0.00     0.006 C 
HETATM   13  C23 UNL     1      -0.935   8.796  11.782  1.00  0.00     0.011 C 
HETATM   14  C24 UNL     1      -0.582   8.654  13.292  1.00  0.00    -0.032 C 
HETATM   15  C25 UNL     1      -0.475  10.099  13.862  1.00  0.00     0.016 C 
HETATM   16  C26 UNL     1      -1.699   7.866  14.081  1.00  0.00     0.004 C 
HETATM   17  C27 UNL     1      -3.052   8.620  14.054  1.00  0.00     0.006 C 
HETATM   18  C28 UNL     1      -4.234   7.803  14.557  1.00  0.00     0.006 C 
HETATM   19  C29 UNL     1      -4.456   6.605  13.639  1.00  0.00    -0.003 C 
HETATM   20  C30 UNL     1      -5.633   5.746  14.116  1.00  0.00     0.038 C 
ENDROOT
BRANCH  11  21
HETATM   21  C14 UNL     1       2.778   7.800  11.350  1.00  0.00    -0.014 C 
HETATM   22  C15 UNL     1       4.022   8.103  12.191  1.00  0.00     0.010 C 
BRANCH  21  23
HETATM   23  C16 UNL     1       2.747   6.311  10.929  1.00  0.00     0.008 C 
BRANCH  23  24
HETATM   24  C17 UNL     1       3.544   6.040   9.643  1.00  0.00     0.028 C 
BRANCH  24  25
HETATM   25  C18 UNL     1       2.671   6.174   8.424  1.00  0.00    -0.025 C 
HETATM   26  C19 UNL     1       2.468   7.277   7.676  1.00  0.00    -0.091 C 
HETATM   27  C20 UNL     1       3.054   8.633   7.964  1.00  0.00     0.042 C 
HETATM   28  C21 UNL     1       1.594   7.224   6.451  1.00  0.00     0.042 C 
ENDBRANCH  24  25
ENDBRANCH  23  24
ENDBRANCH  21  23
ENDBRANCH  11  21
BRANCH   1  29
HETATM   29  O2  UNL     1      -6.919   3.725  13.640  1.00  0.00    -0.316 OA
BRANCH  29  30
HETATM   30  C2  UNL     1      -8.044   3.604  12.884  1.00  0.00     0.255 C 
HETATM   31  C1  UNL     1      -8.525   4.961  12.468  1.00  0.00     0.126 C 
HETATM   32  O1  UNL     1      -8.597   2.556  12.589  1.00  0.00    -0.266 OA
ENDBRANCH  29  30
ENDBRANCH   1  29
TORSDOF 6
ENDMDL
