MODEL 1
REMARK minimizedAffinity -8.95621014
REMARK CNNscore 0.690877557
REMARK CNNaffinity 8.04377556
REMARK  15 active torsions:
REMARK  status: ('A' for Active; 'I' for Inactive)
REMARK    1  A    between atoms: O1_2  and  C2_3 
REMARK    2  A    between atoms: C10_14  and  C11_15 
REMARK    3  A    between atoms: C11_15  and  C12_16 
REMARK    4  A    between atoms: C12_16  and  O5_17 
REMARK    5  A    between atoms: C12_16  and  C13_18 
REMARK    6  A    between atoms: C13_18  and  C14_19 
REMARK    7  A    between atoms: C15_20  and  C16_21 
REMARK    8  A    between atoms: C17_22  and  C19_24 
REMARK    9  A    between atoms: C19_24  and  C20_25 
REMARK   10  A    between atoms: C21_26  and  C22_27 
REMARK   11  A    between atoms: C23_28  and  C24_29 
REMARK   12  A    between atoms: C24_29  and  C25_30 
REMARK   13  A    between atoms: C25_30  and  O6_31 
REMARK   14  A    between atoms: C32_39  and  O8_40 
REMARK   15  A    between atoms: C33_41  and  O9_42 
ROOT
HETATM    1  C2  UNL     1      -6.885   6.305  14.155  1.00  0.00     0.192 C 
HETATM    2  C3  UNL     1      -7.742   5.954  12.916  1.00  0.00     0.074 C 
HETATM    3  C4  UNL     1      -7.854   4.454  12.558  1.00  0.00     0.037 C 
HETATM    4  C5  UNL     1      -6.568   3.613  12.488  1.00  0.00     0.122 C 
HETATM    5  C6  UNL     1      -6.847   2.195  12.024  1.00  0.00     0.035 C 
HETATM    6  C7  UNL     1      -5.465   1.726  11.647  1.00  0.00     0.045 C 
HETATM    7  C8  UNL     1      -4.799   2.984  11.083  1.00  0.00     0.221 C 
HETATM    8  O2  UNL     1      -5.597   4.097  11.538  1.00  0.00    -0.371 OA
HETATM    9  C9  UNL     1      -3.284   2.978  11.419  1.00  0.00     0.288 C 
HETATM   10  O3  UNL     1      -2.636   1.963  11.652  1.00  0.00    -0.262 OA
HETATM   11  O4  UNL     1      -2.744   4.229  11.394  1.00  0.00    -0.314 OA
HETATM   12  C10 UNL     1      -1.360   4.383  11.825  1.00  0.00     0.134 C 
HETATM   13  C26 UNL     1      -1.229   4.333  13.374  1.00  0.00     0.033 C 
HETATM   14  C27 UNL     1      -1.948   5.431  14.197  1.00  0.00     0.005 C 
HETATM   15  C28 UNL     1      -3.395   5.543  13.775  1.00  0.00     0.032 C 
HETATM   16  C29 UNL     1      -4.490   6.155  14.640  1.00  0.00     0.131 C 
HETATM   17  O7  UNL     1      -5.576   5.969  13.733  1.00  0.00    -0.347 OA
HETATM   18  C30 UNL     1      -4.370   7.640  14.995  1.00  0.00     0.042 C 
HETATM   19  C31 UNL     1      -3.326   7.903  16.081  1.00  0.00     0.015 C 
HETATM   20  C32 UNL     1      -5.754   8.166  15.442  1.00  0.00     0.158 C 
HETATM   21  C33 UNL     1      -6.856   7.831  14.419  1.00  0.00     0.209 C 
ENDROOT
BRANCH  12  22
HETATM   22  C11 UNL     1      -0.860   5.694  11.205  1.00  0.00     0.064 C 
BRANCH  22  23
HETATM   23  C12 UNL     1       0.352   6.359  11.871  1.00  0.00     0.124 C 
BRANCH  23  24
HETATM   24  O5  UNL     1      -0.153   7.045  13.029  1.00  0.00    -0.395 OA
HETATM   25  H18 UNL     1       0.612   7.385  13.525  1.00  0.00     0.210 HD
ENDBRANCH  23  24
BRANCH  23  26
HETATM   26  C13 UNL     1       1.084   7.390  10.993  1.00  0.00     0.059 C 
BRANCH  26  27
HETATM   27  C14 UNL     1       0.202   8.425  10.353  1.00  0.00    -0.024 C 
HETATM   28  C15 UNL     1      -0.029   8.610   9.043  1.00  0.00    -0.004 C 
BRANCH  28  29
HETATM   29  C16 UNL     1       0.519   7.814   7.967  1.00  0.00     0.002 C 
HETATM   30  C17 UNL     1       1.803   7.424   7.827  1.00  0.00    -0.080 C 
HETATM   31  C18 UNL     1       2.208   6.571   6.648  1.00  0.00     0.043 C 
BRANCH  30  32
HETATM   32  C19 UNL     1       2.944   7.782   8.756  1.00  0.00     0.060 C 
BRANCH  32  33
HETATM   33  C20 UNL     1       3.705   6.561   9.191  1.00  0.00    -0.022 C 
HETATM   34  C21 UNL     1       4.302   6.313  10.369  1.00  0.00    -0.004 C 
BRANCH  34  35
HETATM   35  C22 UNL     1       4.359   7.204  11.505  1.00  0.00    -0.004 C 
HETATM   36  C23 UNL     1       5.376   8.016  11.834  1.00  0.00    -0.025 C 
BRANCH  36  37
HETATM   37  C24 UNL     1       6.695   8.213  11.134  1.00  0.00     0.053 C 
BRANCH  37  38
HETATM   38  C25 UNL     1       6.830   9.629  10.566  1.00  0.00     0.168 C 
BRANCH  38  39
HETATM   39  O6  UNL     1       5.686   9.988   9.796  1.00  0.00    -0.401 OA
HETATM   40  H37 UNL     1       4.908   9.912  10.374  1.00  0.00     0.209 HD
ENDBRANCH  38  39
ENDBRANCH  37  38
ENDBRANCH  36  37
ENDBRANCH  34  35
ENDBRANCH  32  33
ENDBRANCH  30  32
ENDBRANCH  28  29
ENDBRANCH  26  27
ENDBRANCH  23  26
ENDBRANCH  22  23
ENDBRANCH  12  22
BRANCH   1  41
HETATM   41  O1  UNL     1      -7.213   5.483  15.277  1.00  0.00    -0.358 OA
HETATM   42  C1  UNL     1      -8.180   6.001  16.174  1.00  0.00     0.205 C 
ENDBRANCH   1  41
BRANCH  20  43
HETATM   43  O8  UNL     1      -5.729   9.593  15.617  1.00  0.00    -0.392 OA
HETATM   44  H50 UNL     1      -5.301   9.983  14.835  1.00  0.00     0.210 HD
ENDBRANCH  20  43
BRANCH  21  45
HETATM   45  O9  UNL     1      -8.108   8.380  14.852  1.00  0.00    -0.387 OA
HETATM   46  H52 UNL     1      -7.878   9.224  15.293  1.00  0.00     0.210 HD
ENDBRANCH  21  45
TORSDOF 15
ENDMDL
