MODEL 1
REMARK minimizedAffinity -9.88018608
REMARK  4 active torsions:
REMARK  status: ('A' for Active; 'I' for Inactive)
REMARK    1  A    between atoms: C4_4  and  C5_5 
REMARK    2  A    between atoms: C5_5  and  C6_7 
REMARK    3  A    between atoms: C6_7  and  C7_8 
REMARK    4  A    between atoms: C7_8  and  C9_10 
ROOT
HETATM    1  C9  UNL     1       1.083   7.852  12.325  1.00  0.00    -0.002 C 
HETATM    2  C10 UNL     1       0.540   8.641  11.093  1.00  0.00     0.006 C 
HETATM    3  C11 UNL     1      -1.001   8.583  11.151  1.00  0.00     0.011 C 
HETATM    4  C12 UNL     1      -1.322   8.095  12.575  1.00  0.00    -0.032 C 
HETATM    5  C13 UNL     1      -1.215   9.364  13.490  1.00  0.00     0.016 C 
HETATM    6  C14 UNL     1      -2.725   7.407  12.729  1.00  0.00     0.004 C 
HETATM    7  C15 UNL     1      -3.873   8.413  12.969  1.00  0.00     0.007 C 
HETATM    8  C16 UNL     1      -5.275   7.797  13.044  1.00  0.00     0.007 C 
HETATM    9  C17 UNL     1      -5.310   6.287  13.339  1.00  0.00     0.010 C 
HETATM   10  C18 UNL     1      -6.690   5.763  13.838  1.00  0.00     0.018 C 
HETATM   11  C19 UNL     1      -7.846   6.336  12.994  1.00  0.00     0.023 C 
HETATM   12  C20 UNL     1      -6.757   4.225  13.734  1.00  0.00     0.023 C 
HETATM   13  C21 UNL     1      -6.913   6.146  15.305  1.00  0.00     0.135 C 
HETATM   14  O2  UNL     1      -8.040   6.166  15.807  1.00  0.00    -0.297 OA
HETATM   15  C22 UNL     1      -5.710   6.529  16.134  1.00  0.00     0.080 C 
HETATM   16  C23 UNL     1      -4.499   5.709  15.732  1.00  0.00     0.018 C 
HETATM   17  C24 UNL     1      -4.148   5.891  14.268  1.00  0.00    -0.026 A 
HETATM   18  C25 UNL     1      -3.165   4.935  13.645  1.00  0.00     0.021 A 
HETATM   19  C26 UNL     1      -2.729   6.369  13.878  1.00  0.00    -0.027 A 
HETATM   20  C27 UNL     1      -1.604   6.515  14.895  1.00  0.00     0.011 C 
HETATM   21  C28 UNL     1      -0.194   6.601  14.269  1.00  0.00     0.011 C 
HETATM   22  C29 UNL     1      -0.167   7.040  12.792  1.00  0.00    -0.032 C 
HETATM   23  C30 UNL     1      -0.307   5.781  11.893  1.00  0.00     0.016 C 
ENDROOT
BRANCH   1  24
HETATM   24  C7  UNL     1       2.503   7.251  12.094  1.00  0.00    -0.007 C 
HETATM   25  C8  UNL     1       3.664   8.214  11.830  1.00  0.00     0.011 C 
BRANCH  24  26
HETATM   26  C6  UNL     1       2.522   5.996  11.190  1.00  0.00     0.087 C 
BRANCH  26  27
HETATM   27  C5  UNL     1       3.307   6.048   9.889  1.00  0.00     0.149 C 
HETATM   28  O1  UNL     1       4.533   5.973   9.844  1.00  0.00    -0.293 OA
BRANCH  27  29
HETATM   29  C4  UNL     1       2.587   6.202   8.588  1.00  0.00     0.052 C 
HETATM   30  C2  UNL     1       2.481   7.266   7.771  1.00  0.00    -0.084 C 
HETATM   31  C1  UNL     1       1.731   7.133   6.468  1.00  0.00     0.043 C 
HETATM   32  C3  UNL     1       3.005   8.649   8.033  1.00  0.00     0.043 C 
ENDBRANCH  27  29
ENDBRANCH  26  27
ENDBRANCH  24  26
ENDBRANCH   1  24
TORSDOF 4
ENDMDL
