MODEL 1
REMARK minimizedAffinity -8.80774879
REMARK CNNscore 0.502251327
REMARK CNNaffinity 7.12917662
REMARK  9 active torsions:
REMARK  status: ('A' for Active; 'I' for Inactive)
REMARK    1  A    between atoms: C3_3  and  O1_4 
REMARK    2  A    between atoms: N1_14  and  O2_16 
REMARK    3  A    between atoms: O2_16  and  C13_17 
REMARK    4  A    between atoms: C13_17  and  C14_18 
REMARK       I    between atoms: C14_18  and  N2_20 
REMARK    5  A    between atoms: N2_20  and  C15_21 
REMARK    6  A    between atoms: C15_21  and  C16_22 
REMARK    7  A    between atoms: C15_21  and  C18_26 
REMARK    8  A    between atoms: C16_22  and  C17_23 
REMARK    9  A    between atoms: C17_23  and  O5_25 
ROOT
HETATM    1  C1  UNL     1      -5.294  52.699 -23.616  1.00  0.00     0.015 C 
HETATM    2  C2  UNL     1      -4.974  51.541 -23.657  1.00  0.00    -0.078 C 
HETATM    3  C3  UNL     1      -4.636  50.105 -23.731  1.00  0.00     0.128 C 
HETATM    4  C4  UNL     1      -5.660  49.289 -22.936  1.00  0.00     0.052 C 
HETATM    5  C5  UNL     1      -5.139  49.287 -21.501  1.00  0.00     0.010 C 
HETATM    6  C6  UNL     1      -3.623  49.628 -21.550  1.00  0.00     0.002 C 
HETATM    7  C7  UNL     1      -3.309  50.896 -20.713  1.00  0.00    -0.004 C 
HETATM    8  C8  UNL     1      -3.476  50.638 -19.198  1.00  0.00     0.010 C 
HETATM    9  C9  UNL     1      -2.260  49.986 -18.545  1.00  0.00     0.035 C 
HETATM   10  C10 UNL     1      -1.052  50.842 -18.826  1.00  0.00    -0.069 C 
HETATM   11  C11 UNL     1      -0.453  51.501 -17.817  1.00  0.00     0.030 C 
HETATM   12  C12 UNL     1       0.586  52.531 -18.099  1.00  0.00     0.032 C 
HETATM   13  N1  UNL     1       1.435  53.022 -17.249  1.00  0.00    -0.271 N 
ATOM     14  H1  UNL     1       2.129  53.734 -17.478  1.00  0.00     0.194 HD
HETATM   15  C25 UNL     1       0.606  53.074 -19.508  1.00  0.00     0.060 C 
HETATM   16  C26 UNL     1       0.577  51.901 -20.471  1.00  0.00     0.020 C 
HETATM   17  C27 UNL     1      -0.680  50.984 -20.311  1.00  0.00    -0.016 C 
HETATM   18  C28 UNL     1      -0.232  49.612 -20.857  1.00  0.00     0.020 C 
HETATM   19  C29 UNL     1      -1.949  51.587 -21.035  1.00  0.00     0.002 C 
HETATM   20  C30 UNL     1      -1.853  51.831 -22.549  1.00  0.00     0.007 C 
HETATM   21  C31 UNL     1      -2.086  50.613 -23.434  1.00  0.00     0.014 C 
HETATM   22  C32 UNL     1      -3.278  49.701 -23.066  1.00  0.00     0.003 C 
HETATM   23  C33 UNL     1      -2.870  48.269 -23.544  1.00  0.00     0.020 C 
ENDROOT
BRANCH   3  24
HETATM   24  O1  UNL     1      -4.691  49.710 -25.097  1.00  0.00    -0.377 OA
HETATM   25  H2  UNL     1      -4.235  50.399 -25.610  1.00  0.00     0.211 HD
ENDBRANCH   3  24
BRANCH  13  26
HETATM   26  O2  UNL     1       1.282  52.450 -15.975  1.00  0.00    -0.271 OA
BRANCH  26  27
HETATM   27  C13 UNL     1       2.530  51.945 -15.539  1.00  0.00     0.303 C 
BRANCH  27  28
HETATM   28  C14 UNL     1       2.444  51.010 -14.329  1.00  0.00     0.244 C 
HETATM   29  O3  UNL     1       2.460  49.784 -14.394  1.00  0.00    -0.271 OA
HETATM   30  N2  UNL     1       2.347  51.695 -13.123  1.00  0.00    -0.354 N 
HETATM   31  H16 UNL     1       2.528  52.692 -13.132  1.00  0.00     0.162 HD
BRANCH  30  32
HETATM   32  C15 UNL     1       2.310  50.995 -11.838  1.00  0.00     0.098 C 
BRANCH  32  33
HETATM   33  C16 UNL     1       3.686  51.018 -11.150  1.00  0.00     0.135 C 
BRANCH  33  34
HETATM   34  C17 UNL     1       4.504  49.792 -11.435  1.00  0.00     0.141 C 
HETATM   35  O4  UNL     1       4.647  48.841 -10.683  1.00  0.00    -0.650 OA
BRANCH  34  36
HETATM   36  O5  UNL     1       5.025  49.779 -12.674  1.00  0.00    -0.776 OA
HETATM   37  H20 UNL     1       5.611  48.994 -12.675  1.00  0.00     0.167 HD
ENDBRANCH  34  36
ENDBRANCH  33  34
ENDBRANCH  32  33
BRANCH  32  38
HETATM   38  C18 UNL     1       1.215  51.575 -10.905  1.00  0.00     0.014 C 
HETATM   39  C19 UNL     1       1.743  52.265  -9.644  1.00  0.00     0.033 C 
HETATM   40  C20 UNL     1       0.591  52.682  -8.731  1.00  0.00     0.169 C 
HETATM   41  O6  UNL     1      -0.669  52.725  -9.395  1.00  0.00    -0.381 OA
HETATM   42  C21 UNL     1      -0.669  53.316 -10.700  1.00  0.00     0.054 C 
HETATM   43  C22 UNL     1      -2.116  53.207 -11.209  1.00  0.00     0.045 C 
HETATM   44  C23 UNL     1      -0.298  54.804 -10.613  1.00  0.00     0.045 C 
HETATM   45  C24 UNL     1       0.276  52.543 -11.652  1.00  0.00     0.044 C 
ENDBRANCH  32  38
ENDBRANCH  30  32
ENDBRANCH  27  28
ENDBRANCH  26  27
ENDBRANCH  13  26
TORSDOF 9
ENDMDL
