MODEL 1
REMARK minimizedAffinity -7.24962807
REMARK  5 active torsions:
REMARK  status: ('A' for Active; 'I' for Inactive)
REMARK    1  A    between atoms: C4_4  and  C5_5 
REMARK    2  A    between atoms: C5_5  and  N1_6 
REMARK    3  A    between atoms: N1_6  and  C6_7 
REMARK    4  A    between atoms: N1_6  and  C10_14 
REMARK    5  A    between atoms: C6_7  and  C7_8 
ROOT
HETATM    1  N1  UNL     1      -0.200  51.752 -23.463  1.00  0.00    -0.273 NA
ENDROOT
BRANCH   1   2
HETATM    2  C5  UNL     1      -0.427  52.763 -24.519  1.00  0.00     0.134 C 
BRANCH   2   3
HETATM    3  C4  UNL     1       0.317  52.413 -25.792  1.00  0.00    -0.045 A 
HETATM    4  C3  UNL     1      -0.314  52.508 -27.042  1.00  0.00     0.008 A 
HETATM    5  C2  UNL     1       0.366  52.161 -28.210  1.00  0.00     0.001 A 
HETATM    6  C1  UNL     1       1.681  51.707 -28.142  1.00  0.00     0.000 A 
HETATM    7  C17 UNL     1       2.316  51.597 -26.906  1.00  0.00     0.001 A 
HETATM    8  C16 UNL     1       1.637  51.944 -25.736  1.00  0.00     0.008 A 
ENDBRANCH   2   3
ENDBRANCH   1   2
BRANCH   1   9
HETATM    9  C6  UNL     1      -1.262  50.709 -23.408  1.00  0.00     0.165 C 
BRANCH   9  10
HETATM   10  C7  UNL     1      -2.648  51.338 -23.503  1.00  0.00     0.065 C 
HETATM   11  N2  UNL     1      -3.228  51.907 -22.474  1.00  0.00    -0.382 N 
HETATM   12  C8  UNL     1      -4.559  52.318 -23.011  1.00  0.00     0.135 C 
ATOM     13  H2  UNL     1      -2.858  52.038 -21.532  1.00  0.00     0.160 HD
HETATM   14  C9  UNL     1      -4.736  51.577 -24.343  1.00  0.00     0.113 C 
HETATM   15  N3  UNL     1      -3.363  51.300 -24.681  1.00  0.00    -0.280 NA
HETATM   16  H12 UNL     1      -3.165  50.460 -25.222  1.00  0.00     0.128 HD
ENDBRANCH   9  10
ENDBRANCH   1   9
BRANCH   1  17
HETATM   17  C10 UNL     1       0.231  52.327 -22.250  1.00  0.00     0.011 A 
HETATM   18  C11 UNL     1      -0.042  51.656 -21.044  1.00  0.00     0.024 A 
HETATM   19  C12 UNL     1       0.339  52.182 -19.805  1.00  0.00     0.002 A 
HETATM   20  C13 UNL     1       1.000  53.403 -19.745  1.00  0.00     0.000 A 
HETATM   21  C14 UNL     1       1.272  54.094 -20.922  1.00  0.00     0.002 A 
HETATM   22  C15 UNL     1       0.887  53.562 -22.158  1.00  0.00     0.024 A 
ENDBRANCH   1  17
TORSDOF 5
ENDMDL
