MODEL 1
REMARK minimizedAffinity -9.81809616
REMARK CNNscore 0.479801536
REMARK CNNaffinity 7.36680937
REMARK  12 active torsions:
REMARK  status: ('A' for Active; 'I' for Inactive)
REMARK    1  A    between atoms: C3_3  and  O1_4 
REMARK    2  A    between atoms: N1_14  and  O2_16 
REMARK    3  A    between atoms: O2_16  and  C13_17 
REMARK    4  A    between atoms: C13_17  and  C14_18 
REMARK       I    between atoms: C14_18  and  N2_20 
REMARK    5  A    between atoms: N2_20  and  C15_21 
REMARK    6  A    between atoms: C15_21  and  C16_22 
REMARK    7  A    between atoms: C15_21  and  C26_36 
REMARK       I    between atoms: C16_22  and  N3_24 
REMARK    8  A    between atoms: N3_24  and  C17_25 
REMARK    9  A    between atoms: C17_25  and  C18_26 
REMARK   10  A    between atoms: C17_25  and  C25_33 
REMARK   11  A    between atoms: C18_26  and  C19_27 
REMARK   12  A    between atoms: C25_33  and  O6_35 
ROOT
HETATM    1  C1  UNL     1      -7.464  46.771 -23.403  1.00  0.00     0.015 C 
HETATM    2  C2  UNL     1      -7.062  47.904 -23.348  1.00  0.00    -0.078 C 
HETATM    3  C3  UNL     1      -6.553  49.295 -23.281  1.00  0.00     0.128 C 
HETATM    4  C4  UNL     1      -7.065  49.976 -22.000  1.00  0.00     0.052 C 
HETATM    5  C5  UNL     1      -5.936  49.836 -20.962  1.00  0.00     0.010 C 
HETATM    6  C6  UNL     1      -4.807  49.042 -21.650  1.00  0.00     0.002 C 
HETATM    7  C7  UNL     1      -3.368  49.226 -21.114  1.00  0.00    -0.004 C 
HETATM    8  C8  UNL     1      -3.318  49.330 -19.573  1.00  0.00     0.010 C 
HETATM    9  C9  UNL     1      -3.043  50.742 -19.073  1.00  0.00     0.035 C 
HETATM   10  C10 UNL     1      -1.745  51.282 -19.608  1.00  0.00    -0.069 C 
HETATM   11  C11 UNL     1      -1.000  52.124 -18.865  1.00  0.00     0.030 C 
HETATM   12  C12 UNL     1       0.304  52.648 -19.370  1.00  0.00     0.032 C 
HETATM   13  N1  UNL     1       1.253  53.151 -18.640  1.00  0.00    -0.271 N 
ATOM     14  H1  UNL     1       2.144  53.479 -19.011  1.00  0.00     0.194 HD
HETATM   15  C29 UNL     1       0.586  52.551 -20.863  1.00  0.00     0.060 C 
HETATM   16  C30 UNL     1      -0.607  52.046 -21.668  1.00  0.00     0.020 C 
HETATM   17  C31 UNL     1      -1.312  50.833 -21.002  1.00  0.00    -0.016 C 
HETATM   18  C32 UNL     1      -0.278  49.676 -20.877  1.00  0.00     0.020 C 
HETATM   19  C33 UNL     1      -2.528  50.311 -21.862  1.00  0.00     0.002 C 
HETATM   20  C34 UNL     1      -3.435  51.387 -22.469  1.00  0.00     0.007 C 
HETATM   21  C35 UNL     1      -4.479  50.830 -23.447  1.00  0.00     0.014 C 
HETATM   22  C36 UNL     1      -4.996  49.389 -23.142  1.00  0.00     0.003 C 
HETATM   23  C37 UNL     1      -4.268  48.399 -24.076  1.00  0.00     0.020 C 
ENDROOT
BRANCH   3  24
HETATM   24  O1  UNL     1      -7.026  50.003 -24.419  1.00  0.00    -0.377 OA
HETATM   25  H2  UNL     1      -6.998  49.389 -25.174  1.00  0.00     0.211 HD
ENDBRANCH   3  24
BRANCH  13  26
HETATM   26  O2  UNL     1       0.907  53.190 -17.278  1.00  0.00    -0.271 OA
BRANCH  26  27
HETATM   27  C13 UNL     1       1.834  52.421 -16.536  1.00  0.00     0.303 C 
BRANCH  27  28
HETATM   28  C14 UNL     1       1.261  51.587 -15.386  1.00  0.00     0.244 C 
HETATM   29  O3  UNL     1       1.318  50.361 -15.306  1.00  0.00    -0.271 OA
HETATM   30  N2  UNL     1       0.676  52.368 -14.392  1.00  0.00    -0.346 N 
HETATM   31  H16 UNL     1       1.034  53.316 -14.328  1.00  0.00     0.163 HD
BRANCH  30  32
HETATM   32  C15 UNL     1       0.338  51.759 -13.103  1.00  0.00     0.180 C 
BRANCH  32  33
HETATM   33  C16 UNL     1       1.137  52.532 -12.027  1.00  0.00     0.241 C 
HETATM   34  O4  UNL     1       2.167  52.077 -11.526  1.00  0.00    -0.271 OA
HETATM   35  N3  UNL     1       0.627  53.774 -11.707  1.00  0.00    -0.345 N 
HETATM   36  H18 UNL     1      -0.348  53.939 -11.957  1.00  0.00     0.163 HD
BRANCH  35  37
HETATM   37  C17 UNL     1       1.033  54.452 -10.466  1.00  0.00     0.186 C 
BRANCH  37  38
HETATM   38  C18 UNL     1       1.915  55.663 -10.785  1.00  0.00     0.074 C 
BRANCH  38  39
HETATM   39  C19 UNL     1       3.230  55.633 -10.043  1.00  0.00    -0.056 A 
HETATM   40  C20 UNL     1       3.437  56.476  -8.945  1.00  0.00     0.007 A 
HETATM   41  C21 UNL     1       4.655  56.466  -8.265  1.00  0.00     0.001 A 
HETATM   42  C22 UNL     1       5.682  55.621  -8.676  1.00  0.00     0.000 A 
HETATM   43  C23 UNL     1       5.493  54.790  -9.780  1.00  0.00     0.001 A 
HETATM   44  C24 UNL     1       4.275  54.792 -10.459  1.00  0.00     0.007 A 
ENDBRANCH  38  39
ENDBRANCH  37  38
BRANCH  37  45
HETATM   45  C25 UNL     1      -0.234  54.889  -9.719  1.00  0.00     0.163 C 
HETATM   46  O5  UNL     1      -0.502  54.714  -8.542  1.00  0.00    -0.648 OA
BRANCH  45  47
HETATM   47  O6  UNL     1      -1.104  55.571 -10.509  1.00  0.00    -0.775 OA
HETATM   48  H27 UNL     1      -1.882  55.713  -9.931  1.00  0.00     0.167 HD
ENDBRANCH  45  47
ENDBRANCH  37  45
ENDBRANCH  35  37
ENDBRANCH  32  33
BRANCH  32  49
HETATM   49  C26 UNL     1      -1.188  51.760 -12.861  1.00  0.00     0.009 C 
HETATM   50  C27 UNL     1      -1.958  51.218 -14.073  1.00  0.00     0.012 C 
HETATM   51  C28 UNL     1      -1.615  51.002 -11.597  1.00  0.00     0.012 C 
ENDBRANCH  32  49
ENDBRANCH  30  32
ENDBRANCH  27  28
ENDBRANCH  26  27
ENDBRANCH  13  26
TORSDOF 12
ENDMDL
