MODEL 1
REMARK minimizedAffinity -10.1149769
REMARK  9 active torsions:
REMARK  status: ('A' for Active; 'I' for Inactive)
REMARK    1  A    between atoms: C3_3  and  O1_4 
REMARK    2  A    between atoms: N1_14  and  O2_16 
REMARK    3  A    between atoms: O2_16  and  C13_17 
REMARK    4  A    between atoms: C13_17  and  C14_18 
REMARK       I    between atoms: C14_18  and  N2_20 
REMARK    5  A    between atoms: N2_20  and  C15_21 
REMARK    6  A    between atoms: C15_21  and  C16_22 
REMARK    7  A    between atoms: C15_21  and  C17_25 
REMARK    8  A    between atoms: C16_22  and  O5_24 
REMARK    9  A    between atoms: C17_25  and  C19_27 
ROOT
HETATM    1  C1  UNL     1      -2.127  51.015 -27.663  1.00  0.00     0.015 C 
HETATM    2  C2  UNL     1      -1.352  51.329 -26.801  1.00  0.00    -0.078 C 
HETATM    3  C3  UNL     1      -0.391  51.700 -25.752  1.00  0.00     0.128 C 
HETATM    4  C4  UNL     1       0.202  53.114 -25.963  1.00  0.00     0.052 C 
HETATM    5  C5  UNL     1       0.448  53.696 -24.554  1.00  0.00     0.010 C 
HETATM    6  C6  UNL     1       0.150  52.542 -23.602  1.00  0.00     0.002 C 
HETATM    7  C7  UNL     1      -0.162  52.858 -22.135  1.00  0.00    -0.004 C 
HETATM    8  C8  UNL     1       0.983  53.638 -21.475  1.00  0.00     0.010 C 
HETATM    9  C9  UNL     1       0.681  53.926 -20.010  1.00  0.00     0.035 C 
HETATM   10  C10 UNL     1       0.363  52.669 -19.235  1.00  0.00    -0.069 C 
HETATM   11  C11 UNL     1       0.993  52.433 -18.070  1.00  0.00     0.030 C 
HETATM   12  C12 UNL     1       0.637  51.283 -17.201  1.00  0.00     0.032 C 
HETATM   13  N1  UNL     1       1.328  51.107 -16.110  1.00  0.00    -0.271 N 
ATOM     14  H1  UNL     1       2.121  51.686 -15.834  1.00  0.00     0.194 HD
HETATM   15  C21 UNL     1      -0.549  50.434 -17.612  1.00  0.00     0.060 C 
HETATM   16  C22 UNL     1      -0.650  50.353 -19.128  1.00  0.00     0.020 C 
HETATM   17  C23 UNL     1      -0.699  51.738 -19.835  1.00  0.00    -0.016 C 
HETATM   18  C24 UNL     1      -2.087  52.375 -19.594  1.00  0.00     0.020 C 
HETATM   19  C25 UNL     1      -0.405  51.520 -21.368  1.00  0.00     0.002 C 
HETATM   20  C26 UNL     1      -1.447  50.622 -22.087  1.00  0.00     0.007 C 
HETATM   21  C27 UNL     1      -1.156  50.426 -23.586  1.00  0.00     0.014 C 
HETATM   22  C28 UNL     1      -0.985  51.769 -24.316  1.00  0.00     0.003 C 
HETATM   23  C29 UNL     1      -2.340  52.536 -24.314  1.00  0.00     0.020 C 
ENDROOT
BRANCH   3  24
HETATM   24  O1  UNL     1       0.689  50.763 -25.791  1.00  0.00    -0.377 OA
HETATM   25  H2  UNL     1       0.990  50.716 -26.715  1.00  0.00     0.211 HD
ENDBRANCH   3  24
BRANCH  13  26
HETATM   26  O2  UNL     1       0.847  50.023 -15.366  1.00  0.00    -0.271 OA
BRANCH  26  27
HETATM   27  C13 UNL     1       0.936  50.336 -13.978  1.00  0.00     0.303 C 
BRANCH  27  28
HETATM   28  C14 UNL     1      -0.025  51.467 -13.615  1.00  0.00     0.244 C 
HETATM   29  O3  UNL     1       0.244  52.647 -13.825  1.00  0.00    -0.271 OA
HETATM   30  N2  UNL     1      -1.194  51.058 -13.017  1.00  0.00    -0.344 N 
HETATM   31  H16 UNL     1      -1.404  50.063 -13.063  1.00  0.00     0.163 HD
BRANCH  30  32
HETATM   32  C15 UNL     1      -2.289  51.965 -12.686  1.00  0.00     0.186 C 
BRANCH  32  33
HETATM   33  C16 UNL     1      -3.201  52.069 -13.911  1.00  0.00     0.163 C 
HETATM   34  O4  UNL     1      -3.340  51.221 -14.781  1.00  0.00    -0.648 OA
BRANCH  33  35
HETATM   35  O5  UNL     1      -3.898  53.222 -13.963  1.00  0.00    -0.775 OA
HETATM   36  H18 UNL     1      -4.420  53.149 -14.789  1.00  0.00     0.167 HD
ENDBRANCH  33  35
ENDBRANCH  32  33
BRANCH  32  37
HETATM   37  C17 UNL     1      -3.079  51.556 -11.421  1.00  0.00     0.014 C 
HETATM   38  C18 UNL     1      -3.544  50.098 -11.492  1.00  0.00     0.012 C 
BRANCH  37  39
HETATM   39  C19 UNL     1      -4.230  52.503 -11.008  1.00  0.00     0.002 C 
HETATM   40  C20 UNL     1      -3.839  53.886 -10.507  1.00  0.00     0.005 C 
ENDBRANCH  37  39
ENDBRANCH  32  37
ENDBRANCH  30  32
ENDBRANCH  27  28
ENDBRANCH  26  27
ENDBRANCH  13  26
TORSDOF 9
ENDMDL
