MODEL 1
REMARK minimizedAffinity -8.85945415
REMARK CNNscore 0.375817269
REMARK CNNaffinity 6.22472572
REMARK  15 active torsions:
REMARK  status: ('A' for Active; 'I' for Inactive)
REMARK    1  A    between atoms: C2_2  and  C26_34 
REMARK    2  A    between atoms: C3_3  and  C4_4 
REMARK    3  A    between atoms: C5_5  and  C6_6 
REMARK    4  A    between atoms: C6_6  and  C7_7 
REMARK    5  A    between atoms: C7_7  and  O1_8 
REMARK    6  A    between atoms: C7_7  and  C8_9 
REMARK    7  A    between atoms: C8_9  and  C9_10 
REMARK    8  A    between atoms: C14_16  and  O3_17 
REMARK    9  A    between atoms: C22_28  and  O7_29 
REMARK   10  A    between atoms: C23_30  and  O8_31 
REMARK   11  A    between atoms: C26_34  and  C27_35 
REMARK   12  A    between atoms: C28_36  and  C29_37 
REMARK   13  A    between atoms: C30_38  and  C31_39 
REMARK   14  A    between atoms: C31_39  and  C32_40 
REMARK   15  A    between atoms: C32_40  and  O9_41 
ROOT
HETATM    1  C9  UNL     1      -1.691  49.594 -17.886  1.00  0.00     0.134 C 
HETATM    2  C10 UNL     1      -2.316  48.517 -18.858  1.00  0.00     0.033 C 
HETATM    3  C11 UNL     1      -3.585  48.941 -19.674  1.00  0.00     0.005 C 
HETATM    4  C12 UNL     1      -3.572  48.423 -21.140  1.00  0.00     0.032 C 
HETATM    5  C13 UNL     1      -4.092  49.407 -22.251  1.00  0.00     0.131 C 
HETATM    6  O2  UNL     1      -3.098  50.411 -22.412  1.00  0.00    -0.347 OA
HETATM    7  C14 UNL     1      -3.206  51.393 -23.427  1.00  0.00     0.191 C 
HETATM    8  C15 UNL     1      -1.753  51.761 -23.942  1.00  0.00     0.074 C 
HETATM    9  C16 UNL     1      -0.715  52.510 -23.025  1.00  0.00     0.037 C 
HETATM   10  C17 UNL     1       0.165  51.682 -22.029  1.00  0.00     0.122 C 
HETATM   11  C18 UNL     1      -0.576  50.527 -21.443  1.00  0.00     0.035 C 
HETATM   12  C19 UNL     1      -1.473  51.341 -20.532  1.00  0.00     0.045 C 
HETATM   13  C20 UNL     1      -0.452  52.150 -19.794  1.00  0.00     0.221 C 
HETATM   14  O4  UNL     1       0.510  52.456 -20.832  1.00  0.00    -0.371 OA
HETATM   15  C21 UNL     1      -0.105  51.395 -18.471  1.00  0.00     0.288 C 
HETATM   16  O5  UNL     1       0.431  51.933 -17.507  1.00  0.00    -0.262 OA
HETATM   17  O6  UNL     1      -0.417  50.058 -18.476  1.00  0.00    -0.314 OA
HETATM   18  C22 UNL     1      -4.137  50.936 -24.590  1.00  0.00     0.209 C 
HETATM   19  C23 UNL     1      -4.043  49.434 -24.843  1.00  0.00     0.158 C 
HETATM   20  C24 UNL     1      -4.304  48.610 -23.565  1.00  0.00     0.042 C 
HETATM   21  C25 UNL     1      -5.717  48.010 -23.581  1.00  0.00     0.015 C 
ENDROOT
BRANCH   1  22
HETATM   22  C8  UNL     1      -1.354  48.944 -16.530  1.00  0.00     0.064 C 
BRANCH  22  23
HETATM   23  C7  UNL     1      -2.054  49.638 -15.350  1.00  0.00     0.124 C 
BRANCH  23  24
HETATM   24  C6  UNL     1      -1.141  49.819 -14.119  1.00  0.00     0.059 C 
BRANCH  24  25
HETATM   25  C5  UNL     1      -0.019  50.815 -14.303  1.00  0.00    -0.024 C 
HETATM   26  C4  UNL     1       0.183  51.985 -13.675  1.00  0.00    -0.004 C 
BRANCH  26  27
HETATM   27  C3  UNL     1      -0.642  52.566 -12.638  1.00  0.00     0.002 C 
HETATM   28  C2  UNL     1      -0.224  53.272 -11.566  1.00  0.00    -0.080 C 
HETATM   29  C1  UNL     1      -1.236  53.805 -10.579  1.00  0.00     0.043 C 
BRANCH  28  30
HETATM   30  C26 UNL     1       1.215  53.586 -11.216  1.00  0.00     0.060 C 
BRANCH  30  31
HETATM   31  C27 UNL     1       1.309  54.505 -10.029  1.00  0.00    -0.022 C 
HETATM   32  C28 UNL     1       2.093  55.584  -9.852  1.00  0.00    -0.004 C 
BRANCH  32  33
HETATM   33  C29 UNL     1       3.081  56.081 -10.779  1.00  0.00    -0.004 C 
HETATM   34  C30 UNL     1       4.358  55.669 -10.870  1.00  0.00    -0.025 C 
BRANCH  34  35
HETATM   35  C31 UNL     1       5.081  54.662 -10.011  1.00  0.00     0.053 C 
BRANCH  35  36
HETATM   36  C32 UNL     1       6.166  55.304  -9.149  1.00  0.00     0.168 C 
BRANCH  36  37
HETATM   37  O9  UNL     1       7.384  54.574  -9.245  1.00  0.00    -0.401 OA
HETATM   38  H50 UNL     1       7.666  54.607 -10.178  1.00  0.00     0.209 HD
ENDBRANCH  36  37
ENDBRANCH  35  36
ENDBRANCH  34  35
ENDBRANCH  32  33
ENDBRANCH  30  31
ENDBRANCH  28  30
ENDBRANCH  26  27
ENDBRANCH  24  25
ENDBRANCH  23  24
BRANCH  23  39
HETATM   39  O1  UNL     1      -3.232  48.897 -15.020  1.00  0.00    -0.395 OA
HETATM   40  H10 UNL     1      -3.065  48.401 -14.201  1.00  0.00     0.210 HD
ENDBRANCH  23  39
ENDBRANCH  22  23
ENDBRANCH   1  22
BRANCH   7  41
HETATM   41  O3  UNL     1      -3.851  52.556 -22.876  1.00  0.00    -0.363 OA
HETATM   42  H21 UNL     1      -3.174  53.249 -22.777  1.00  0.00     0.213 HD
ENDBRANCH   7  41
BRANCH  19  43
HETATM   43  O8  UNL     1      -2.752  49.090 -25.367  1.00  0.00    -0.392 OA
HETATM   44  H35 UNL     1      -2.743  49.361 -26.304  1.00  0.00     0.210 HD
ENDBRANCH  19  43
BRANCH  18  45
HETATM   45  O7  UNL     1      -5.511  51.243 -24.266  1.00  0.00    -0.387 OA
HETATM   46  H33 UNL     1      -5.452  51.962 -23.601  1.00  0.00     0.210 HD
ENDBRANCH  18  45
TORSDOF 15
ENDMDL
