MODEL 1
REMARK minimizedAffinity -10.0390215
REMARK CNNscore 0.591821074
REMARK CNNaffinity 7.08745623
REMARK  11 active torsions:
REMARK  status: ('A' for Active; 'I' for Inactive)
REMARK    1  A    between atoms: C12_13  and  O2_14 
REMARK    2  A    between atoms: C19_21  and  O3_22 
REMARK    3  A    between atoms: C19_21  and  C20_23 
REMARK    4  A    between atoms: C20_23  and  C21_25 
REMARK    5  A    between atoms: C21_25  and  O5_26 
REMARK    6  A    between atoms: O5_26  and  C22_27 
REMARK    7  A    between atoms: C22_27  and  C23_29 
REMARK    8  A    between atoms: C23_29  and  C24_30 
REMARK    9  A    between atoms: C24_30  and  C25_31 
REMARK       I    between atoms: C25_31  and  N1_33 
REMARK   10  A    between atoms: N1_33  and  C26_34 
REMARK   11  A    between atoms: C26_34  and  C27_35 
ROOT
HETATM    1  C1  UNL     1       4.097   6.877   9.717  1.00  0.00     0.020 C 
HETATM    2  C2  UNL     1       2.841   6.036   9.387  1.00  0.00    -0.014 C 
HETATM    3  C3  UNL     1       3.207   4.524   9.445  1.00  0.00     0.022 C 
HETATM    4  C4  UNL     1       4.091   4.062   8.291  1.00  0.00     0.084 C 
HETATM    5  C5  UNL     1       3.467   4.415   6.965  1.00  0.00     0.149 C 
HETATM    6  O1  UNL     1       3.661   3.756   5.947  1.00  0.00    -0.293 OA
HETATM    7  C6  UNL     1       2.667   5.657   6.879  1.00  0.00     0.053 C 
HETATM    8  C7  UNL     1       2.420   6.418   7.960  1.00  0.00    -0.068 C 
HETATM    9  C8  UNL     1       1.736   7.754   7.786  1.00  0.00     0.035 C 
HETATM   10  C9  UNL     1       0.554   7.904   8.728  1.00  0.00     0.010 C 
HETATM   11  C10 UNL     1       0.964   7.682  10.192  1.00  0.00    -0.002 C 
HETATM   12  C11 UNL     1       1.619   6.276  10.365  1.00  0.00     0.031 C 
HETATM   13  C12 UNL     1       1.861   5.888  11.861  1.00  0.00     0.124 C 
HETATM   14  C13 UNL     1       0.696   6.233  12.819  1.00  0.00     0.045 C 
HETATM   15  C14 UNL     1       0.093   7.642  12.615  1.00  0.00     0.001 C 
HETATM   16  C15 UNL     1       1.079   8.732  13.097  1.00  0.00     0.019 C 
HETATM   17  C16 UNL     1      -0.260   7.772  11.116  1.00  0.00     0.002 C 
HETATM   18  C17 UNL     1      -1.133   9.018  11.055  1.00  0.00     0.009 C 
HETATM   19  C18 UNL     1      -1.909   9.029  12.392  1.00  0.00     0.047 C 
HETATM   20  C19 UNL     1      -1.316   7.895  13.255  1.00  0.00     0.128 C 
ENDROOT
BRANCH  20  21
HETATM   21  O3  UNL     1      -2.160   6.746  13.040  1.00  0.00    -0.381 OA
HETATM   22  H27 UNL     1      -1.912   6.092  13.728  1.00  0.00     0.211 HD
ENDBRANCH  20  21
BRANCH  20  23
HETATM   23  C20 UNL     1      -1.314   8.086  14.787  1.00  0.00     0.185 C 
HETATM   24  O4  UNL     1      -0.380   8.705  15.311  1.00  0.00    -0.292 OA
BRANCH  23  25
HETATM   25  C21 UNL     1      -2.401   7.449  15.646  1.00  0.00     0.260 C 
BRANCH  25  26
HETATM   26  O5  UNL     1      -3.692   8.040  15.526  1.00  0.00    -0.314 OA
BRANCH  26  27
HETATM   27  C22 UNL     1      -4.695   7.167  15.232  1.00  0.00     0.259 C 
HETATM   28  O6  UNL     1      -4.514   6.018  14.868  1.00  0.00    -0.265 OA
BRANCH  27  29
HETATM   29  C23 UNL     1      -6.057   7.742  15.548  1.00  0.00     0.120 C 
BRANCH  29  30
HETATM   30  C24 UNL     1      -7.033   6.737  16.146  1.00  0.00     0.112 C 
BRANCH  30  31
HETATM   31  C25 UNL     1      -7.878   6.142  15.043  1.00  0.00     0.218 C 
HETATM   32  O7  UNL     1      -9.041   6.499  14.862  1.00  0.00    -0.274 OA
HETATM   33  N1  UNL     1      -7.260   5.138  14.331  1.00  0.00    -0.357 N 
HETATM   34  H34 UNL     1      -6.422   4.720  14.715  1.00  0.00     0.162 HD
BRANCH  33  35
HETATM   35  C26 UNL     1      -8.007   4.348  13.376  1.00  0.00     0.162 C 
BRANCH  35  36
HETATM   36  C27 UNL     1      -7.112   3.369  12.673  1.00  0.00    -0.025 A 
HETATM   37  C28 UNL     1      -5.855   3.746  12.188  1.00  0.00     0.011 A 
HETATM   38  C29 UNL     1      -5.073   2.820  11.500  1.00  0.00     0.018 A 
HETATM   39  C30 UNL     1      -5.574   1.542  11.316  1.00  0.00     0.087 A 
HETATM   40  N2  UNL     1      -6.782   1.139  11.775  1.00  0.00    -0.375 N 
HETATM   41  C31 UNL     1      -7.516   2.057  12.446  1.00  0.00     0.096 A 
ATOM     42  H2  UNL     1      -7.123   0.189  11.623  1.00  0.00     0.164 HD
ENDBRANCH  35  36
ENDBRANCH  33  35
ENDBRANCH  30  31
ENDBRANCH  29  30
ENDBRANCH  27  29
ENDBRANCH  26  27
ENDBRANCH  25  26
ENDBRANCH  23  25
ENDBRANCH  20  23
BRANCH  13  43
HETATM   43  O2  UNL     1       3.073   6.398  12.389  1.00  0.00    -0.395 OA
HETATM   44  H16 UNL     1       3.158   7.335  12.159  1.00  0.00     0.210 HD
ENDBRANCH  13  43
TORSDOF 11
ENDMDL
