MODEL 1
REMARK minimizedAffinity -7.67991877
REMARK  8 active torsions:
REMARK  status: ('A' for Active; 'I' for Inactive)
REMARK    1  A    between atoms: O1_2  and  C2_3 
REMARK    2  A    between atoms: C3_6  and  N2_7 
REMARK    3  A    between atoms: N5_15  and  C7_16 
REMARK    4  A    between atoms: C9_18  and  N6_19 
REMARK    5  A    between atoms: N6_19  and  N7_21 
REMARK    6  A    between atoms: N7_21  and  N8_22 
REMARK    7  A    between atoms: C10_25  and  C11_26 
REMARK    8  A    between atoms: C11_26  and  O2_27 
ROOT
HETATM    1  C2  UNL     1      -7.645   5.672  13.709  1.00  0.00     0.175 A 
HETATM    2  N1  UNL     1      -8.368   4.557  13.426  1.00  0.00    -0.311 N 
ATOM      3  H1  UNL     1      -9.376   4.536  13.582  1.00  0.00     0.170 HD
HETATM    4  C3  UNL     1      -7.729   3.483  12.940  1.00  0.00     0.158 A 
HETATM    5  N3  UNL     1      -6.421   3.378  12.666  1.00  0.00    -0.317 N 
ATOM      6  H3  UNL     1      -5.987   2.538  12.281  1.00  0.00     0.170 HD
HETATM    7  C4  UNL     1      -5.746   4.502  12.955  1.00  0.00     0.144 A 
HETATM    8  C5  UNL     1      -6.269   5.677  13.471  1.00  0.00     0.129 A 
HETATM    9  N4  UNL     1      -5.278   6.618  13.646  1.00  0.00    -0.346 N 
ATOM     10  H4  UNL     1      -5.377   7.565  14.012  1.00  0.00     0.167 HD
HETATM   11  C6  UNL     1      -4.175   6.028  13.238  1.00  0.00     0.188 A 
HETATM   12  N5  UNL     1      -4.404   4.743  12.819  1.00  0.00    -0.300 N 
ENDROOT
BRANCH  12  13
HETATM   13  C7  UNL     1      -3.385   3.833  12.348  1.00  0.00     0.233 C 
HETATM   14  C8  UNL     1      -3.305   3.673  10.838  1.00  0.00     0.084 C 
HETATM   15  C9  UNL     1      -1.868   3.239  10.648  1.00  0.00     0.149 C 
HETATM   16  C10 UNL     1      -1.138   4.010  11.757  1.00  0.00     0.172 C 
HETATM   17  O3  UNL     1      -2.095   4.280  12.801  1.00  0.00    -0.357 OA
BRANCH  15  18
HETATM   18  N6  UNL     1      -1.797   1.785  10.897  1.00  0.00    -0.245 N 
ATOM     19  H6  UNL     1      -2.259   1.347  11.694  1.00  0.00     0.197 HD
BRANCH  18  20
HETATM   20  N7  UNL     1      -1.136   1.128  10.068  1.00  0.00    -0.248 NA
BRANCH  20  21
HETATM   21  N8  UNL     1      -0.531   0.527   9.315  1.00  0.00    -0.261 N 
ATOM     22  H82 UNL     1      -0.978   0.989  10.107  1.00  0.00     0.193 HD
ATOM     23  H81 UNL     1       0.010  -0.010   8.636  1.00  0.00     0.193 HD
ENDBRANCH  20  21
ENDBRANCH  18  20
ENDBRANCH  15  18
BRANCH  16  24
HETATM   24  C11 UNL     1      -0.552   5.335  11.262  1.00  0.00     0.198 C 
BRANCH  24  25
HETATM   25  O2  UNL     1       0.704   5.111  10.632  1.00  0.00    -0.398 OA
HETATM   26  H14 UNL     1       1.069   5.986  10.408  1.00  0.00     0.209 HD
ENDBRANCH  24  25
ENDBRANCH  16  24
ENDBRANCH  12  13
BRANCH   4  27
HETATM   27  N2  UNL     1      -8.515   2.384  12.650  1.00  0.00    -0.274 NA
HETATM   28  H4  UNL     1      -8.094   1.845  11.908  1.00  0.00     0.127 HD
HETATM   29  H5  UNL     1      -9.471   2.683  12.518  1.00  0.00     0.127 HD
ENDBRANCH   4  27
BRANCH   1  30
HETATM   30  O1  UNL     1      -8.267   6.795  14.221  1.00  0.00    -0.339 OA
HETATM   31  C1  UNL     1      -9.668   6.819  13.976  1.00  0.00     0.211 C 
ENDBRANCH   1  30
TORSDOF 8
ENDMDL
