MODEL 1
REMARK minimizedAffinity -8.74437714
REMARK CNNscore 0.724632621
REMARK CNNaffinity 7.18668413
REMARK  8 active torsions:
REMARK  status: ('A' for Active; 'I' for Inactive)
REMARK    1  A    between atoms: C4_4  and  C5_5 
REMARK    2  A    between atoms: C5_5  and  C6_6 
REMARK    3  A    between atoms: C6_6  and  C7_7 
REMARK    4  A    between atoms: C7_7  and  C9_9 
REMARK    5  A    between atoms: C22_22  and  O1_23 
REMARK    6  A    between atoms: C24_25  and  O2_26 
REMARK    7  A    between atoms: C25_27  and  C27_29 
REMARK    8  A    between atoms: C27_29  and  O4_31 
ROOT
HETATM    1  C9  UNL     1      -5.960   7.150  14.951  1.00  0.00    -0.002 C 
HETATM    2  C10 UNL     1      -5.674   8.539  15.559  1.00  0.00     0.007 C 
HETATM    3  C11 UNL     1      -4.223   8.909  15.157  1.00  0.00     0.015 C 
HETATM    4  C12 UNL     1      -3.858   7.937  14.016  1.00  0.00    -0.005 C 
HETATM    5  C13 UNL     1      -4.468   8.527  12.705  1.00  0.00     0.021 C 
HETATM    6  C14 UNL     1      -2.405   7.640  13.650  1.00  0.00    -0.000 C 
HETATM    7  C15 UNL     1      -2.033   6.427  13.159  1.00  0.00    -0.058 C 
HETATM    8  C16 UNL     1      -3.065   5.290  13.015  1.00  0.00     0.036 C 
HETATM    9  C17 UNL     1      -4.513   5.572  13.464  1.00  0.00     0.015 C 
HETATM   10  C18 UNL     1      -4.545   6.624  14.574  1.00  0.00    -0.028 C 
HETATM   11  C19 UNL     1      -3.804   6.045  15.819  1.00  0.00     0.016 C 
HETATM   12  C20 UNL     1      -0.554   6.070  12.801  1.00  0.00     0.011 C 
HETATM   13  C21 UNL     1       0.002   5.381  14.069  1.00  0.00     0.023 C 
HETATM   14  C22 UNL     1      -0.478   5.125  11.546  1.00  0.00     0.133 C 
HETATM   15  C23 UNL     1       0.829   5.144  10.743  1.00  0.00     0.065 C 
HETATM   16  C24 UNL     1       2.007   5.767  11.480  1.00  0.00     0.139 C 
HETATM   17  C25 UNL     1       1.719   7.209  11.983  1.00  0.00     0.072 C 
HETATM   18  C26 UNL     1       2.010   8.232  10.850  1.00  0.00     0.030 C 
HETATM   19  C28 UNL     1       0.213   7.382  12.433  1.00  0.00     0.029 C 
HETATM   20  C29 UNL     1       0.046   8.455  13.508  1.00  0.00     0.090 C 
HETATM   21  C30 UNL     1      -1.397   8.725  13.855  1.00  0.00     0.157 C 
HETATM   22  O5  UNL     1      -1.708   9.810  14.347  1.00  0.00    -0.293 OA
ENDROOT
BRANCH   1  23
HETATM   23  C7  UNL     1      -7.020   6.261  15.658  1.00  0.00    -0.014 C 
HETATM   24  C8  UNL     1      -7.451   5.125  14.712  1.00  0.00     0.010 C 
BRANCH  23  25
HETATM   25  C6  UNL     1      -8.250   6.873  16.370  1.00  0.00     0.008 C 
BRANCH  25  26
HETATM   26  C5  UNL     1      -9.101   7.958  15.696  1.00  0.00     0.028 C 
BRANCH  26  27
HETATM   27  C4  UNL     1     -10.066   7.450  14.662  1.00  0.00    -0.025 C 
HETATM   28  C2  UNL     1     -10.949   8.163  13.931  1.00  0.00    -0.091 C 
HETATM   29  C1  UNL     1     -11.838   7.482  12.922  1.00  0.00     0.042 C 
HETATM   30  C3  UNL     1     -11.159   9.651  14.022  1.00  0.00     0.042 C 
ENDBRANCH  26  27
ENDBRANCH  25  26
ENDBRANCH  23  25
ENDBRANCH   1  23
BRANCH  14  31
HETATM   31  O1  UNL     1      -0.776   3.764  11.891  1.00  0.00    -0.394 OA
HETATM   32  H35 UNL     1      -0.001   3.370  12.319  1.00  0.00     0.210 HD
ENDBRANCH  14  31
BRANCH  17  33
HETATM   33  C27 UNL     1       2.679   7.455  13.153  1.00  0.00     0.151 C 
HETATM   34  O3  UNL     1       2.352   7.750  14.290  1.00  0.00    -0.649 OA
BRANCH  33  35
HETATM   35  O4  UNL     1       3.984   7.401  12.827  1.00  0.00    -0.776 OA
HETATM   36  H43 UNL     1       4.471   7.610  13.655  1.00  0.00     0.167 HD
ENDBRANCH  33  35
ENDBRANCH  17  33
BRANCH  16  37
HETATM   37  O2  UNL     1       3.134   5.735  10.595  1.00  0.00    -0.394 OA
HETATM   38  H39 UNL     1       3.933   5.607  11.133  1.00  0.00     0.210 HD
ENDBRANCH  16  37
TORSDOF 8
ENDMDL
