MODEL 1
REMARK minimizedAffinity -9.98458099
REMARK  6 active torsions:
REMARK  status: ('A' for Active; 'I' for Inactive)
REMARK    1  A    between atoms: C2_2  and  C30_32 
REMARK    2  A    between atoms: C3_3  and  C4_4 
REMARK    3  A    between atoms: C4_4  and  C5_5 
REMARK    4  A    between atoms: C5_5  and  C6_6 
REMARK    5  A    between atoms: C6_6  and  C8_8 
REMARK    6  A    between atoms: C30_32  and  O4_34 
ROOT
HETATM    1  C8  UNL     1      -0.505  50.369 -21.523  1.00  0.00    -0.002 C 
HETATM    2  C9  UNL     1      -0.745  49.944 -20.047  1.00  0.00     0.007 C 
HETATM    3  C10 UNL     1      -2.041  49.113 -20.009  1.00  0.00     0.015 C 
HETATM    4  C11 UNL     1      -2.373  48.809 -21.483  1.00  0.00    -0.005 C 
HETATM    5  C12 UNL     1      -1.541  47.554 -21.891  1.00  0.00     0.021 C 
HETATM    6  C13 UNL     1      -3.803  48.480 -21.894  1.00  0.00    -0.000 C 
HETATM    7  C14 UNL     1      -4.271  48.793 -23.130  1.00  0.00    -0.060 C 
HETATM    8  C15 UNL     1      -3.373  49.527 -24.138  1.00  0.00     0.036 C 
HETATM    9  C16 UNL     1      -1.971  49.968 -23.671  1.00  0.00     0.015 C 
HETATM   10  C17 UNL     1      -1.917  50.165 -22.154  1.00  0.00    -0.028 C 
HETATM   11  C18 UNL     1      -2.830  51.377 -21.781  1.00  0.00     0.016 C 
HETATM   12  C19 UNL     1      -5.719  48.478 -23.599  1.00  0.00    -0.014 C 
HETATM   13  C20 UNL     1      -6.526  49.793 -23.503  1.00  0.00     0.020 C 
HETATM   14  C21 UNL     1      -5.714  47.959 -25.058  1.00  0.00     0.021 C 
HETATM   15  C22 UNL     1      -7.044  47.442 -25.586  1.00  0.00     0.080 C 
HETATM   16  C23 UNL     1      -8.145  47.267 -24.570  1.00  0.00     0.135 C 
HETATM   17  O1  UNL     1      -9.317  47.326 -24.953  1.00  0.00    -0.297 OA
HETATM   18  C24 UNL     1      -7.793  46.910 -23.121  1.00  0.00     0.018 C 
HETATM   19  C25 UNL     1      -8.859  47.550 -22.202  1.00  0.00     0.023 C 
HETATM   20  C26 UNL     1      -7.936  45.378 -23.008  1.00  0.00     0.023 C 
HETATM   21  C27 UNL     1      -6.328  47.325 -22.743  1.00  0.00     0.020 C 
HETATM   22  C28 UNL     1      -6.136  47.595 -21.249  1.00  0.00     0.090 C 
HETATM   23  C29 UNL     1      -4.675  47.760 -20.917  1.00  0.00     0.157 C 
HETATM   24  O2  UNL     1      -4.232  47.335 -19.852  1.00  0.00    -0.293 OA
ENDROOT
BRANCH   1  25
HETATM   25  C6  UNL     1       0.197  51.751 -21.635  1.00  0.00    -0.014 C 
HETATM   26  C7  UNL     1      -0.048  52.648 -20.416  1.00  0.00     0.010 C 
BRANCH  25  27
HETATM   27  C5  UNL     1      -0.134  52.510 -22.951  1.00  0.00     0.008 C 
BRANCH  27  28
HETATM   28  C4  UNL     1       0.932  52.574 -24.055  1.00  0.00     0.028 C 
BRANCH  28  29
HETATM   29  C3  UNL     1       0.424  52.411 -25.458  1.00  0.00    -0.013 C 
HETATM   30  C2  UNL     1       1.063  51.901 -26.532  1.00  0.00     0.008 C 
HETATM   31  C1  UNL     1       0.352  51.699 -27.843  1.00  0.00     0.055 C 
BRANCH  30  32
HETATM   32  C30 UNL     1       2.474  51.455 -26.554  1.00  0.00     0.171 C 
HETATM   33  O3  UNL     1       2.932  50.533 -25.904  1.00  0.00    -0.646 OA
BRANCH  32  34
HETATM   34  O4  UNL     1       3.235  52.113 -27.444  1.00  0.00    -0.773 OA
HETATM   35  H44 UNL     1       4.108  51.678 -27.369  1.00  0.00     0.167 HD
ENDBRANCH  32  34
ENDBRANCH  30  32
ENDBRANCH  28  29
ENDBRANCH  27  28
ENDBRANCH  25  27
ENDBRANCH   1  25
TORSDOF 6
ENDMDL
