MODEL 1
REMARK minimizedAffinity -8.11453247
REMARK CNNscore 0.766182065
REMARK CNNaffinity 6.35269213
REMARK  8 active torsions:
REMARK  status: ('A' for Active; 'I' for Inactive)
REMARK    1  A    between atoms: C3_3  and  C4_4 
REMARK    2  A    between atoms: C4_4  and  O1_5 
REMARK    3  A    between atoms: C6_9  and  C7_10 
REMARK    4  A    between atoms: C7_10  and  O4_12 
REMARK    5  A    between atoms: C7_10  and  C9_13 
REMARK    6  A    between atoms: C9_13  and  O5_14 
REMARK    7  A    between atoms: C12_17  and  O6_18 
REMARK    8  A    between atoms: C27_34  and  O8_35 
ROOT
HETATM    1  C9  UNL     1      -4.186 -10.328   7.328  1.00  0.00     0.101 C 
HETATM    2  C10 UNL     1      -3.433  -9.057   6.764  1.00  0.00     0.045 C 
HETATM    3  C11 UNL     1      -2.802  -9.419   5.412  1.00  0.00     0.045 C 
HETATM    4  C12 UNL     1      -3.710 -10.520   4.890  1.00  0.00     0.100 C 
HETATM    5  C13 UNL     1      -3.902 -11.410   6.171  1.00  0.00     0.024 C 
HETATM    6  C14 UNL     1      -2.619 -12.215   6.578  1.00  0.00     0.022 C 
HETATM    7  C15 UNL     1      -4.982 -12.443   5.814  1.00  0.00     0.016 C 
HETATM    8  C16 UNL     1      -4.603 -13.284   4.573  1.00  0.00     0.010 C 
HETATM    9  C17 UNL     1      -4.268 -12.438   3.309  1.00  0.00     0.043 C 
HETATM   10  C18 UNL     1      -3.870 -13.291   2.038  1.00  0.00     0.046 C 
HETATM   11  C19 UNL     1      -2.938 -14.475   2.365  1.00  0.00     0.029 C 
HETATM   12  C20 UNL     1      -5.173 -13.891   1.438  1.00  0.00     0.140 C 
HETATM   13  O7  UNL     1      -5.973 -14.547   2.110  1.00  0.00    -0.297 OA
HETATM   14  C21 UNL     1      -5.453 -13.661  -0.036  1.00  0.00     0.080 C 
HETATM   15  C22 UNL     1      -4.197 -13.953  -0.837  1.00  0.00     0.012 C 
HETATM   16  C23 UNL     1      -3.028 -13.060  -0.421  1.00  0.00     0.035 C 
HETATM   17  C24 UNL     1      -3.236 -12.420   0.936  1.00  0.00    -0.067 C 
HETATM   18  C25 UNL     1      -2.939 -11.119   1.106  1.00  0.00    -0.020 C 
HETATM   19  C26 UNL     1      -3.127 -10.371   2.391  1.00  0.00     0.069 C 
HETATM   20  C27 UNL     1      -3.233 -11.304   3.624  1.00  0.00     0.098 C 
ENDROOT
BRANCH   1  21
HETATM   21  C7  UNL     1      -5.682  -9.958   7.743  1.00  0.00     0.113 C 
HETATM   22  C8  UNL     1      -6.092  -8.589   7.132  1.00  0.00     0.052 C 
BRANCH  21  23
HETATM   23  C6  UNL     1      -6.010  -9.938   9.279  1.00  0.00     0.173 C 
HETATM   24  O3  UNL     1      -6.937 -11.035   9.520  1.00  0.00    -0.309 OA
HETATM   25  C5  UNL     1      -7.495 -11.216  10.742  1.00  0.00     0.292 C 
HETATM   26  C3  UNL     1      -7.374 -10.094  11.715  1.00  0.00     0.042 C 
HETATM   27  O2  UNL     1      -8.110 -12.243  10.999  1.00  0.00    -0.260 OA
HETATM   28  C2  UNL     1      -7.019  -8.864  11.279  1.00  0.00    -0.067 C 
HETATM   29  C1  UNL     1      -6.992  -7.622  12.128  1.00  0.00     0.044 C 
HETATM   30  C28 UNL     1      -6.603  -8.652   9.843  1.00  0.00     0.070 C 
BRANCH  26  31
HETATM   31  C4  UNL     1      -7.791 -10.429  13.119  1.00  0.00     0.209 C 
BRANCH  31  32
HETATM   32  O1  UNL     1      -7.079  -9.609  14.041  1.00  0.00    -0.396 OA
HETATM   33  H6  UNL     1      -7.220  -8.683  13.787  1.00  0.00     0.209 HD
ENDBRANCH  31  32
ENDBRANCH  26  31
ENDBRANCH  21  23
BRANCH  21  34
HETATM   34  O4  UNL     1      -6.573 -10.933   7.156  1.00  0.00    -0.384 OA
HETATM   35  H11 UNL     1      -7.472 -10.715   7.482  1.00  0.00     0.210 HD
ENDBRANCH  21  34
ENDBRANCH   1  21
BRANCH   1  36
HETATM   36  O5  UNL     1      -3.489 -10.632   8.553  1.00  0.00    -0.386 OA
HETATM   37  H12 UNL     1      -3.474 -11.587   8.705  1.00  0.00     0.210 HD
ENDBRANCH   1  36
BRANCH   4  38
HETATM   38  O6  UNL     1      -4.939  -9.884   4.483  1.00  0.00    -0.386 OA
HETATM   39  H17 UNL     1      -5.493  -9.646   5.256  1.00  0.00     0.210 HD
ENDBRANCH   4  38
BRANCH  20  40
HETATM   40  O8  UNL     1      -1.937 -11.880   3.843  1.00  0.00    -0.386 OA
HETATM   41  H38 UNL     1      -1.265 -11.197   3.678  1.00  0.00     0.210 HD
ENDBRANCH  20  40
TORSDOF 8
ENDMDL
