MODEL 1
REMARK minimizedAffinity -6.91738272
REMARK CNNscore 0.512439072
REMARK CNNaffinity 7.19348669
REMARK  10 active torsions:
REMARK  status: ('A' for Active; 'I' for Inactive)
REMARK    1  A    between atoms: C2_2  and  O1_3 
REMARK    2  A    between atoms: O1_3  and  C3_4 
REMARK    3  A    between atoms: C3_4  and  C4_6 
REMARK    4  A    between atoms: C5_7  and  C6_8 
REMARK    5  A    between atoms: C12_16  and  C13_17 
REMARK    6  A    between atoms: C23_28  and  O5_29 
REMARK    7  A    between atoms: C27_34  and  C28_35 
REMARK    8  A    between atoms: C28_35  and  O7_36 
REMARK    9  A    between atoms: C38_47  and  C39_48 
REMARK   10  A    between atoms: C39_48  and  O8_49 
ROOT
HETATM    1  C4  UNL     1     -12.936  12.247  24.434  1.00  0.00     0.165 C 
HETATM    2  C5  UNL     1     -13.812  11.230  24.557  1.00  0.00     0.053 C 
HETATM    3  C7  UNL     1     -13.625  10.069  23.686  1.00  0.00    -0.002 C 
HETATM    4  C8  UNL     1     -13.742   8.786  24.123  1.00  0.00    -0.066 C 
HETATM    5  C9  UNL     1     -14.255   8.353  25.479  1.00  0.00     0.042 C 
HETATM    6  C10 UNL     1     -15.622   7.705  25.307  1.00  0.00     0.083 C 
HETATM    7  C11 UNL     1     -15.750   6.872  24.041  1.00  0.00     0.136 C 
HETATM    8  O4  UNL     1     -16.863   6.454  23.704  1.00  0.00    -0.297 OA
HETATM    9  C12 UNL     1     -14.496   6.513  23.232  1.00  0.00     0.092 C 
HETATM   10  C21 UNL     1     -13.340   7.528  23.370  1.00  0.00     0.052 C 
HETATM   11  C22 UNL     1     -13.079  10.430  22.343  1.00  0.00     0.044 C 
HETATM   12  C23 UNL     1     -13.478   9.897  21.112  1.00  0.00     0.091 C 
HETATM   13  C25 UNL     1     -12.794  10.275  19.968  1.00  0.00     0.013 C 
HETATM   14  C26 UNL     1     -11.800  11.245  20.014  1.00  0.00     0.089 C 
HETATM   15  O6  UNL     1     -11.263  11.517  18.779  1.00  0.00    -0.341 OA
HETATM   16  C27 UNL     1     -11.666  10.385  17.979  1.00  0.00     0.168 C 
HETATM   17  C37 UNL     1     -12.979   9.833  18.566  1.00  0.00     0.080 C 
HETATM   18  C38 UNL     1     -11.440  11.885  21.186  1.00  0.00     0.034 C 
HETATM   19  C40 UNL     1     -12.125  11.482  22.344  1.00  0.00     0.101 C 
HETATM   20  O9  UNL     1     -11.891  12.208  23.504  1.00  0.00    -0.302 OA
ENDROOT
BRANCH   2  21
HETATM   21  C6  UNL     1     -15.021  11.419  25.390  1.00  0.00     0.273 C 
HETATM   22  O3  UNL     1     -16.154  11.379  24.921  1.00  0.00    -0.301 OA
ENDBRANCH   2  21
BRANCH   1  23
HETATM   23  C3  UNL     1     -13.074  13.489  25.244  1.00  0.00     0.318 C 
HETATM   24  O2  UNL     1     -13.121  14.622  24.788  1.00  0.00    -0.257 OA
BRANCH  23  25
HETATM   25  O1  UNL     1     -13.110  13.156  26.558  1.00  0.00    -0.316 OA
BRANCH  25  26
HETATM   26  C2  UNL     1     -13.805  14.083  27.401  1.00  0.00     0.175 C 
HETATM   27  C1  UNL     1     -14.116  13.384  28.709  1.00  0.00     0.034 C 
ENDBRANCH  25  26
ENDBRANCH  23  25
ENDBRANCH   1  23
BRANCH  12  28
HETATM   28  O5  UNL     1     -14.499   8.995  20.994  1.00  0.00    -0.354 OA
HETATM   29  C24 UNL     1     -14.088   7.880  20.194  1.00  0.00     0.210 C 
ENDBRANCH  12  28
BRANCH   9  30
HETATM   30  C13 UNL     1     -14.028   5.085  23.495  1.00  0.00    -0.046 A 
HETATM   31  C14 UNL     1     -13.840   4.173  22.445  1.00  0.00     0.010 A 
HETATM   32  C15 UNL     1     -13.436   2.851  22.673  1.00  0.00     0.031 A 
HETATM   33  C16 UNL     1     -13.225   2.457  23.996  1.00  0.00     0.042 A 
HETATM   34  N1  UNL     1     -12.816   1.247  24.512  1.00  0.00    -0.365 N 
HETATM   35  C19 UNL     1     -13.405   3.325  25.074  1.00  0.00    -0.008 A 
HETATM   36  C17 UNL     1     -12.729   1.322  25.878  1.00  0.00     0.089 A 
HETATM   37  H14 UNL     1     -12.594   0.430  23.957  1.00  0.00     0.165 HD
HETATM   38  C18 UNL     1     -13.107   2.587  26.257  1.00  0.00     0.030 A 
HETATM   39  C20 UNL     1     -13.809   4.655  24.820  1.00  0.00     0.021 A 
ENDBRANCH   9  30
BRANCH  18  40
HETATM   40  C39 UNL     1     -10.387  12.950  21.212  1.00  0.00     0.208 C 
BRANCH  40  41
HETATM   41  O8  UNL     1      -9.321  12.575  20.344  1.00  0.00    -0.396 OA
HETATM   42  H42 UNL     1      -8.681  13.302  20.365  1.00  0.00     0.209 HD
ENDBRANCH  40  41
ENDBRANCH  18  40
BRANCH  16  43
HETATM   43  C28 UNL     1     -11.706  10.688  16.453  1.00  0.00     0.092 C 
HETATM   44  C29 UNL     1     -10.495  11.541  15.962  1.00  0.00     0.067 C 
HETATM   45  C30 UNL     1      -9.313  10.787  15.421  1.00  0.00    -0.027 C 
HETATM   46  C31 UNL     1      -9.308   9.464  15.200  1.00  0.00    -0.024 C 
HETATM   47  C32 UNL     1     -10.504   8.596  15.471  1.00  0.00     0.043 C 
HETATM   48  C33 UNL     1     -10.665   7.496  14.404  1.00  0.00     0.278 C 
HETATM   49  C36 UNL     1     -11.816   9.417  15.551  1.00  0.00     0.034 C 
HETATM   50  N2  UNL     1     -11.766   6.586  14.745  1.00  0.00     0.084 N 
HETATM   51  C34 UNL     1     -13.039   7.299  14.881  1.00  0.00     0.270 C 
HETATM   52  H32 UNL     1     -11.853   5.882  14.012  1.00  0.00     0.315 HD
HETATM   53  C35 UNL     1     -12.959   8.442  15.901  1.00  0.00     0.038 C 
BRANCH  43  54
HETATM   54  O7  UNL     1     -12.885  11.494  16.216  1.00  0.00    -0.386 OA
HETATM   55  H24 UNL     1     -13.669  10.964  16.432  1.00  0.00     0.210 HD
ENDBRANCH  43  54
ENDBRANCH  16  43
TORSDOF 10
ENDMDL
