MODEL 1
REMARK minimizedAffinity -9.01457214
REMARK  8 active torsions:
REMARK  status: ('A' for Active; 'I' for Inactive)
REMARK    1  A    between atoms: C12_14  and  C13_15 
REMARK    2  A    between atoms: C13_15  and  C15_17 
REMARK    3  A    between atoms: C15_17  and  C16_18 
REMARK    4  A    between atoms: C16_18  and  C17_19 
REMARK    5  A    between atoms: C26_28  and  C27_29 
REMARK    6  A    between atoms: C27_29  and  C28_30 
REMARK    7  A    between atoms: C28_30  and  C29_31 
REMARK    8  A    between atoms: C29_31  and  O4_33 
ROOT
HETATM    1  C1  UNL     1       6.399   7.400  10.922  1.00  0.00     0.025 C 
HETATM    2  C2  UNL     1       5.299   7.792  11.574  1.00  0.00     0.015 C 
HETATM    3  C3  UNL     1       5.221   7.836  13.051  1.00  0.00     0.289 C 
HETATM    4  O1  UNL     1       6.021   7.357  13.832  1.00  0.00    -0.260 OA
HETATM    5  O2  UNL     1       4.078   8.492  13.386  1.00  0.00    -0.311 OA
HETATM    6  C4  UNL     1       3.506   9.086  12.213  1.00  0.00     0.142 C 
HETATM    7  C5  UNL     1       1.990   9.169  12.330  1.00  0.00     0.039 C 
HETATM    8  C6  UNL     1       1.358   7.775  12.459  1.00  0.00     0.006 C 
HETATM    9  C7  UNL     1       1.689   6.919  11.214  1.00  0.00    -0.027 A 
HETATM   10  C8  UNL     1       0.495   6.409  10.404  1.00  0.00     0.011 C 
HETATM   11  C9  UNL     1      -0.717   5.902  11.209  1.00  0.00     0.011 C 
HETATM   12  C10 UNL     1      -0.746   6.343  12.681  1.00  0.00    -0.032 C 
HETATM   13  C11 UNL     1       0.049   5.294  13.515  1.00  0.00     0.016 C 
HETATM   14  C12 UNL     1      -2.162   6.523  13.327  1.00  0.00    -0.002 C 
HETATM   15  C21 UNL     1      -1.875   7.515  14.493  1.00  0.00     0.006 C 
HETATM   16  C22 UNL     1      -0.508   8.169  14.228  1.00  0.00     0.011 C 
HETATM   17  C23 UNL     1      -0.167   7.802  12.772  1.00  0.00    -0.032 C 
HETATM   18  C24 UNL     1      -0.899   8.853  11.878  1.00  0.00     0.016 C 
HETATM   19  C25 UNL     1       2.849   5.956  11.349  1.00  0.00     0.022 A 
HETATM   20  C26 UNL     1       3.045   7.193  10.498  1.00  0.00    -0.021 A 
HETATM   21  C30 UNL     1       4.003   8.282  11.019  1.00  0.00     0.063 C 
ENDROOT
BRANCH  14  22
HETATM   22  C13 UNL     1      -2.976   5.276  13.796  1.00  0.00    -0.014 C 
HETATM   23  C14 UNL     1      -3.398   4.393  12.617  1.00  0.00     0.010 C 
BRANCH  22  24
HETATM   24  C15 UNL     1      -4.226   5.725  14.609  1.00  0.00     0.008 C 
BRANCH  24  25
HETATM   25  C16 UNL     1      -5.501   5.866  13.768  1.00  0.00     0.028 C 
BRANCH  25  26
HETATM   26  C17 UNL     1      -6.364   4.652  13.523  1.00  0.00    -0.025 C 
HETATM   27  C18 UNL     1      -7.554   4.483  12.912  1.00  0.00    -0.091 C 
HETATM   28  C19 UNL     1      -8.201   3.119  12.889  1.00  0.00     0.042 C 
HETATM   29  C20 UNL     1      -8.345   5.544  12.201  1.00  0.00     0.042 C 
ENDBRANCH  25  26
ENDBRANCH  24  25
ENDBRANCH  22  24
ENDBRANCH  14  22
BRANCH  20  30
HETATM   30  C27 UNL     1       3.190   6.941   8.993  1.00  0.00     0.021 C 
BRANCH  30  31
HETATM   31  C28 UNL     1       2.746   8.126   8.136  1.00  0.00     0.111 C 
BRANCH  31  32
HETATM   32  C29 UNL     1       1.619   7.737   7.219  1.00  0.00     0.139 C 
HETATM   33  O3  UNL     1       1.692   7.097   6.185  1.00  0.00    -0.650 OA
BRANCH  32  34
HETATM   34  O4  UNL     1       0.432   8.205   7.654  1.00  0.00    -0.776 OA
HETATM   35  H43 UNL     1      -0.207   7.897   6.977  1.00  0.00     0.167 HD
ENDBRANCH  32  34
ENDBRANCH  31  32
ENDBRANCH  30  31
ENDBRANCH  20  30
TORSDOF 8
ENDMDL
