MODEL 1
REMARK minimizedAffinity -8.76764011
REMARK CNNscore 0.323218793
REMARK CNNaffinity 7.01343489
REMARK  19 active torsions:
REMARK  status: ('A' for Active; 'I' for Inactive)
REMARK    1  A    between atoms: O1_2  and  C2_3 
REMARK    2  A    between atoms: C2_3  and  C3_4 
REMARK    3  A    between atoms: C2_3  and  C28_36 
REMARK    4  A    between atoms: C3_4  and  C4_5 
REMARK    5  A    between atoms: C4_5  and  C6_7 
REMARK    6  A    between atoms: C6_7  and  O2_8 
REMARK    7  A    between atoms: C6_7  and  C7_9 
REMARK    8  A    between atoms: C8_10  and  C9_11 
REMARK    9  A    between atoms: C10_12  and  C11_13 
REMARK   10  A    between atoms: C11_13  and  N1_14 
REMARK       I    between atoms: N1_14  and  C12_15 
REMARK   11  A    between atoms: C12_15  and  C13_17 
REMARK   12  A    between atoms: C13_17  and  C16_20 
REMARK   13  A    between atoms: C16_20  and  O4_21 
REMARK   14  A    between atoms: C16_20  and  C17_22 
REMARK   15  A    between atoms: C19_24  and  C20_25 
REMARK   16  A    between atoms: C21_26  and  C22_27 
REMARK   17  A    between atoms: C23_28  and  C24_29 
REMARK   18  A    between atoms: C26_31  and  N2_33 
REMARK   19  A    between atoms: C28_36  and  O7_37 
ROOT
HETATM    1  C9  UNL     1      -4.694  48.298 -27.778  1.00  0.00    -0.003 C 
HETATM    2  C10 UNL     1      -3.927  49.366 -27.513  1.00  0.00    -0.007 C 
ENDROOT
BRANCH   1   3
HETATM    3  C8  UNL     1      -4.981  47.866 -29.127  1.00  0.00    -0.002 C 
HETATM    4  C7  UNL     1      -6.118  48.174 -29.776  1.00  0.00     0.005 C 
BRANCH   4   5
HETATM    5  C6  UNL     1      -6.485  47.735 -31.174  1.00  0.00     0.144 C 
BRANCH   5   6
HETATM    6  C4  UNL     1      -7.706  48.456 -31.796  1.00  0.00     0.016 C 
HETATM    7  C5  UNL     1      -8.574  49.120 -30.707  1.00  0.00     0.013 C 
BRANCH   6   8
HETATM    8  C3  UNL     1      -8.622  47.589 -32.694  1.00  0.00     0.042 C 
BRANCH   8   9
HETATM    9  C2  UNL     1      -8.268  46.108 -32.960  1.00  0.00     0.159 C 
BRANCH   9  10
HETATM   10  O1  UNL     1      -8.384  45.791 -34.362  1.00  0.00    -0.388 OA
HETATM   11  C1  UNL     1      -8.661  46.940 -35.162  1.00  0.00     0.202 C 
ENDBRANCH   9  10
BRANCH   9  12
HETATM   12  C28 UNL     1      -9.025  44.973 -32.179  1.00  0.00     0.133 C 
HETATM   13  C29 UNL     1     -10.106  45.478 -31.180  1.00  0.00     0.114 C 
HETATM   14  C30 UNL     1     -11.290  44.532 -30.976  1.00  0.00     0.023 C 
HETATM   15  C31 UNL     1      -9.347  45.579 -29.873  1.00  0.00     0.227 C 
HETATM   16  O8  UNL     1      -9.682  46.246 -28.910  1.00  0.00    -0.273 OA
HETATM   17  N3  UNL     1      -8.239  44.754 -29.961  1.00  0.00    -0.332 N 
HETATM   18  C32 UNL     1      -7.212  44.725 -28.945  1.00  0.00     0.154 C 
HETATM   19  C33 UNL     1      -8.092  44.115 -31.306  1.00  0.00     0.183 C 
HETATM   20  C34 UNL     1      -6.653  43.819 -31.811  1.00  0.00     0.294 C 
HETATM   21  C35 UNL     1      -8.143  42.545 -31.230  1.00  0.00     0.169 C 
HETATM   22  O9  UNL     1      -5.703  44.448 -32.222  1.00  0.00    -0.262 OA
HETATM   23  O10 UNL     1      -6.728  42.486 -31.584  1.00  0.00    -0.311 OA
HETATM   24  C36 UNL     1      -8.931  41.658 -32.178  1.00  0.00     0.043 C 
BRANCH  12  25
HETATM   25  O7  UNL     1      -9.664  44.171 -33.188  1.00  0.00    -0.383 OA
HETATM   26  H42 UNL     1     -10.063  44.809 -33.818  1.00  0.00     0.210 HD
ENDBRANCH  12  25
ENDBRANCH   9  12
ENDBRANCH   8   9
ENDBRANCH   6   8
ENDBRANCH   5   6
BRANCH   5  27
HETATM   27  O2  UNL     1      -5.365  47.922 -32.047  1.00  0.00    -0.391 OA
HETATM   28  H12 UNL     1      -4.640  47.386 -31.685  1.00  0.00     0.210 HD
ENDBRANCH   5  27
ENDBRANCH   4   5
ENDBRANCH   1   3
BRANCH   2  29
HETATM   29  C11 UNL     1      -3.617  49.851 -26.132  1.00  0.00     0.149 C 
BRANCH  29  30
HETATM   30  N1  UNL     1      -2.282  50.397 -26.148  1.00  0.00    -0.357 N 
HETATM   31  C12 UNL     1      -2.022  51.723 -26.411  1.00  0.00     0.228 C 
HETATM   32  O3  UNL     1      -2.916  52.533 -26.639  1.00  0.00    -0.273 OA
HETATM   33  H19 UNL     1      -1.491  49.765 -26.041  1.00  0.00     0.162 HD
BRANCH  31  34
HETATM   34  C13 UNL     1      -0.525  52.112 -26.388  1.00  0.00     0.063 C 
HETATM   35  C14 UNL     1       0.288  50.845 -26.032  1.00  0.00     0.028 C 
HETATM   36  C15 UNL     1      -0.134  52.562 -27.807  1.00  0.00     0.028 C 
BRANCH  34  37
HETATM   37  C16 UNL     1      -0.341  53.215 -25.300  1.00  0.00     0.164 C 
BRANCH  37  38
HETATM   38  O4  UNL     1       0.974  53.790 -25.383  1.00  0.00    -0.390 OA
HETATM   39  H27 UNL     1       1.051  54.404 -24.630  1.00  0.00     0.210 HD
ENDBRANCH  37  38
BRANCH  37  40
HETATM   40  C17 UNL     1      -0.576  52.816 -23.845  1.00  0.00    -0.054 C 
HETATM   41  C18 UNL     1      -1.995  52.508 -23.439  1.00  0.00     0.046 C 
HETATM   42  C19 UNL     1       0.482  52.742 -23.009  1.00  0.00     0.005 C 
BRANCH  42  43
HETATM   43  C20 UNL     1       0.463  52.424 -21.596  1.00  0.00     0.000 C 
HETATM   44  C21 UNL     1       0.320  53.371 -20.654  1.00  0.00     0.000 C 
BRANCH  44  45
HETATM   45  C22 UNL     1       0.281  53.085 -19.232  1.00  0.00     0.001 C 
HETATM   46  C23 UNL     1       0.443  51.842 -18.747  1.00  0.00     0.009 C 
BRANCH  46  47
HETATM   47  C24 UNL     1       0.448  51.437 -17.334  1.00  0.00    -0.034 C 
HETATM   48  C25 UNL     1      -0.707  50.555 -16.895  1.00  0.00     0.050 C 
HETATM   49  C26 UNL     1       1.442  51.842 -16.506  1.00  0.00     0.082 C 
HETATM   50  C27 UNL     1       2.661  52.678 -16.727  1.00  0.00     0.075 C 
BRANCH  49  51
HETATM   51  N2  UNL     1       1.356  51.434 -15.116  1.00  0.00    -0.120 N 
HETATM   52  O5  UNL     1       0.845  52.240 -14.329  1.00  0.00    -0.532 OA
HETATM   53  O6  UNL     1       1.776  50.304 -14.835  1.00  0.00    -0.532 OA
ENDBRANCH  49  51
ENDBRANCH  46  47
ENDBRANCH  44  45
ENDBRANCH  42  43
ENDBRANCH  37  40
ENDBRANCH  34  37
ENDBRANCH  31  34
ENDBRANCH  29  30
ENDBRANCH   2  29
TORSDOF 19
ENDMDL
