MODEL 1
REMARK minimizedAffinity -7.71544266
REMARK CNNscore 0.591770649
REMARK CNNaffinity 6.11010742
REMARK  10 active torsions:
REMARK  status: ('A' for Active; 'I' for Inactive)
REMARK    1  A    between atoms: C3_3  and  O1_4 
REMARK    2  A    between atoms: N1_14  and  O2_16 
REMARK    3  A    between atoms: O2_16  and  C13_17 
REMARK    4  A    between atoms: C13_17  and  C14_18 
REMARK       I    between atoms: C14_18  and  N2_20 
REMARK    5  A    between atoms: N2_20  and  C15_21 
REMARK    6  A    between atoms: C15_21  and  C16_22 
REMARK    7  A    between atoms: C15_21  and  C19_29 
REMARK       I    between atoms: C16_22  and  N3_24 
REMARK    8  A    between atoms: N3_24  and  C17_25 
REMARK    9  A    between atoms: C17_25  and  C18_26 
REMARK   10  A    between atoms: C18_26  and  O6_28 
ROOT
HETATM    1  C1  UNL     1      -6.569  47.187 -30.109  1.00  0.00     0.015 C 
HETATM    2  C2  UNL     1      -7.614  47.591 -29.686  1.00  0.00    -0.078 C 
HETATM    3  C3  UNL     1      -8.900  48.126 -29.186  1.00  0.00     0.128 C 
HETATM    4  C4  UNL     1      -9.924  48.149 -30.336  1.00  0.00     0.052 C 
HETATM    5  C5  UNL     1     -10.684  46.822 -30.260  1.00  0.00     0.010 C 
HETATM    6  C6  UNL     1     -10.198  46.102 -28.979  1.00  0.00     0.002 C 
HETATM    7  C7  UNL     1     -11.253  45.228 -28.261  1.00  0.00    -0.004 C 
HETATM    8  C8  UNL     1     -11.868  44.197 -29.224  1.00  0.00     0.010 C 
HETATM    9  C9  UNL     1     -12.882  43.306 -28.518  1.00  0.00     0.035 C 
HETATM   10  C10 UNL     1     -13.950  44.136 -27.845  1.00  0.00    -0.069 C 
HETATM   11  C11 UNL     1     -15.246  43.946 -28.156  1.00  0.00     0.030 C 
HETATM   12  C12 UNL     1     -16.319  44.712 -27.462  1.00  0.00     0.032 C 
HETATM   13  N1  UNL     1     -17.506  44.732 -27.994  1.00  0.00    -0.271 N 
ATOM     14  H1  UNL     1     -17.760  44.236 -28.848  1.00  0.00     0.194 HD
HETATM   15  C22 UNL     1     -15.927  45.398 -26.169  1.00  0.00     0.060 C 
HETATM   16  C23 UNL     1     -14.616  46.132 -26.416  1.00  0.00     0.020 C 
HETATM   17  C24 UNL     1     -13.452  45.191 -26.850  1.00  0.00    -0.016 C 
HETATM   18  C25 UNL     1     -12.921  44.475 -25.592  1.00  0.00     0.020 C 
HETATM   19  C26 UNL     1     -12.350  46.069 -27.556  1.00  0.00     0.002 C 
HETATM   20  C27 UNL     1     -11.700  47.103 -26.615  1.00  0.00     0.007 C 
HETATM   21  C28 UNL     1     -10.716  48.007 -27.360  1.00  0.00     0.014 C 
HETATM   22  C29 UNL     1      -9.592  47.232 -28.109  1.00  0.00     0.003 C 
HETATM   23  C30 UNL     1      -8.597  46.690 -27.063  1.00  0.00     0.020 C 
ENDROOT
BRANCH   3  24
HETATM   24  O1  UNL     1      -8.636  49.435 -28.694  1.00  0.00    -0.377 OA
HETATM   25  H2  UNL     1      -9.472  49.930 -28.657  1.00  0.00     0.211 HD
ENDBRANCH   3  24
BRANCH  13  26
HETATM   26  O2  UNL     1     -18.394  45.521 -27.246  1.00  0.00    -0.271 OA
BRANCH  26  27
HETATM   27  C13 UNL     1     -19.243  44.692 -26.460  1.00  0.00     0.303 C 
BRANCH  27  28
HETATM   28  C14 UNL     1     -19.662  45.327 -25.139  1.00  0.00     0.244 C 
HETATM   29  O3  UNL     1     -20.353  46.339 -25.084  1.00  0.00    -0.271 OA
HETATM   30  N2  UNL     1     -19.224  44.642 -24.030  1.00  0.00    -0.346 N 
HETATM   31  H16 UNL     1     -18.687  43.800 -24.222  1.00  0.00     0.163 HD
BRANCH  30  32
HETATM   32  C15 UNL     1     -19.459  45.079 -22.651  1.00  0.00     0.180 C 
BRANCH  32  33
HETATM   33  C16 UNL     1     -19.928  43.872 -21.796  1.00  0.00     0.241 C 
HETATM   34  O4  UNL     1     -20.270  43.971 -20.621  1.00  0.00    -0.271 OA
HETATM   35  N3  UNL     1     -19.844  42.641 -22.428  1.00  0.00    -0.349 N 
HETATM   36  H18 UNL     1     -19.838  42.685 -23.448  1.00  0.00     0.163 HD
BRANCH  35  37
HETATM   37  C17 UNL     1     -20.491  41.478 -21.836  1.00  0.00     0.232 C 
BRANCH  37  38
HETATM   38  C18 UNL     1     -21.926  41.314 -22.310  1.00  0.00     0.158 C 
HETATM   39  O5  UNL     1     -22.834  40.796 -21.677  1.00  0.00    -0.649 OA
BRANCH  38  40
HETATM   40  O6  UNL     1     -22.125  41.720 -23.587  1.00  0.00    -0.775 OA
HETATM   41  H21 UNL     1     -23.086  41.590 -23.730  1.00  0.00     0.167 HD
ENDBRANCH  38  40
ENDBRANCH  37  38
ENDBRANCH  35  37
ENDBRANCH  32  33
BRANCH  32  42
HETATM   42  C19 UNL     1     -18.184  45.723 -22.049  1.00  0.00     0.009 C 
HETATM   43  C20 UNL     1     -18.550  46.686 -20.909  1.00  0.00     0.012 C 
HETATM   44  C21 UNL     1     -17.370  46.510 -23.087  1.00  0.00     0.012 C 
ENDBRANCH  32  42
ENDBRANCH  30  32
ENDBRANCH  27  28
ENDBRANCH  26  27
ENDBRANCH  13  26
TORSDOF 10
ENDMDL
