MODEL 1
REMARK minimizedAffinity -9.49017906
REMARK CNNscore 0.570654035
REMARK CNNaffinity 6.92861032
REMARK  8 active torsions:
REMARK  status: ('A' for Active; 'I' for Inactive)
REMARK    1  A    between atoms: C4_4  and  C5_5 
REMARK    2  A    between atoms: C5_5  and  C6_6 
REMARK    3  A    between atoms: C12_14  and  O3_15 
REMARK    4  A    between atoms: C20_24  and  O5_25 
REMARK    5  A    between atoms: C27_33  and  C28_34 
REMARK    6  A    between atoms: C28_34  and  C29_35 
REMARK    7  A    between atoms: C30_36  and  C32_38 
REMARK    8  A    between atoms: C32_38  and  O8_40 
ROOT
HETATM    1  C6  UNL     1      -8.680  47.089 -34.431  1.00  0.00     0.014 A 
HETATM    2  C7  UNL     1      -9.293  46.793 -35.667  1.00  0.00     0.096 A 
HETATM    3  O1  UNL     1      -8.639  47.198 -36.796  1.00  0.00    -0.333 OA
HETATM    4  C8  UNL     1      -9.258  47.057 -38.083  1.00  0.00     0.126 C 
HETATM    5  C9  UNL     1     -10.126  45.792 -38.163  1.00  0.00     0.129 C 
HETATM    6  C10 UNL     1     -11.043  45.671 -36.976  1.00  0.00     0.174 C 
HETATM    7  O2  UNL     1     -12.146  45.130 -37.036  1.00  0.00    -0.292 OA
HETATM    8  C11 UNL     1     -10.514  46.121 -35.683  1.00  0.00     0.078 A 
HETATM    9  C12 UNL     1     -11.185  45.821 -34.487  1.00  0.00     0.095 A 
HETATM   10  C13 UNL     1     -10.618  46.165 -33.254  1.00  0.00     0.032 A 
HETATM   11  C14 UNL     1      -9.362  46.786 -33.231  1.00  0.00     0.092 A 
HETATM   12  O4  UNL     1      -8.722  47.122 -32.069  1.00  0.00    -0.335 OA
HETATM   13  C15 UNL     1      -9.338  46.850 -30.795  1.00  0.00     0.078 A 
HETATM   14  C16 UNL     1      -8.365  45.945 -30.030  1.00  0.00     0.051 C 
HETATM   15  C17 UNL     1      -9.462  48.198 -30.074  1.00  0.00     0.051 C 
HETATM   16  C18 UNL     1     -10.691  46.192 -30.852  1.00  0.00     0.012 A 
HETATM   17  C19 UNL     1     -11.296  45.869 -31.998  1.00  0.00     0.016 A 
HETATM   18  C20 UNL     1     -10.855  45.704 -39.512  1.00  0.00     0.144 C 
HETATM   19  C21 UNL     1     -10.128  46.586 -40.529  1.00  0.00     0.089 C 
HETATM   20  C22 UNL     1      -8.617  46.348 -40.426  1.00  0.00     0.025 C 
HETATM   21  C23 UNL     1      -8.073  46.972 -39.110  1.00  0.00     0.060 C 
HETATM   22  C24 UNL     1      -7.625  48.467 -39.234  1.00  0.00     0.062 C 
HETATM   23  C25 UNL     1      -6.497  48.820 -38.254  1.00  0.00     0.046 C 
HETATM   24  C26 UNL     1      -7.169  48.924 -40.625  1.00  0.00     0.046 C 
HETATM   25  O6  UNL     1      -8.783  49.254 -38.872  1.00  0.00    -0.358 OA
HETATM   26  C27 UNL     1      -9.900  48.353 -38.665  1.00  0.00     0.158 C 
HETATM   27  C33 UNL     1     -10.386  48.022 -40.106  1.00  0.00     0.171 C 
HETATM   28  O9  UNL     1     -10.841  48.850 -40.893  1.00  0.00    -0.294 OA
ENDROOT
BRANCH  26  29
HETATM   29  C28 UNL     1     -11.042  49.050 -37.908  1.00  0.00     0.077 C 
BRANCH  29  30
HETATM   30  C29 UNL     1     -12.340  48.290 -37.784  1.00  0.00    -0.010 C 
HETATM   31  C30 UNL     1     -13.490  48.522 -38.447  1.00  0.00     0.008 C 
HETATM   32  C31 UNL     1     -14.717  47.679 -38.274  1.00  0.00     0.055 C 
BRANCH  31  33
HETATM   33  C32 UNL     1     -13.613  49.626 -39.421  1.00  0.00     0.171 C 
HETATM   34  O7  UNL     1     -13.982  49.541 -40.577  1.00  0.00    -0.646 OA
BRANCH  33  35
HETATM   35  O8  UNL     1     -13.279  50.801 -38.865  1.00  0.00    -0.773 OA
HETATM   36  H38 UNL     1     -13.344  51.429 -39.614  1.00  0.00     0.167 HD
ENDBRANCH  33  35
ENDBRANCH  31  33
ENDBRANCH  29  30
ENDBRANCH  26  29
BRANCH  18  37
HETATM   37  O5  UNL     1     -12.210  46.130 -39.451  1.00  0.00    -0.394 OA
HETATM   38  H21 UNL     1     -12.686  45.551 -38.815  1.00  0.00     0.210 HD
ENDBRANCH  18  37
BRANCH   1  39
HETATM   39  C5  UNL     1      -7.293  47.705 -34.376  1.00  0.00     0.072 C 
BRANCH  39  40
HETATM   40  C4  UNL     1      -6.349  46.989 -33.450  1.00  0.00    -0.020 C 
HETATM   41  C2  UNL     1      -5.024  47.181 -33.295  1.00  0.00    -0.091 C 
HETATM   42  C1  UNL     1      -4.182  48.147 -34.083  1.00  0.00     0.042 C 
HETATM   43  C3  UNL     1      -4.254  46.407 -32.256  1.00  0.00     0.042 C 
ENDBRANCH  39  40
ENDBRANCH   1  39
BRANCH   9  44
HETATM   44  O3  UNL     1     -12.397  45.173 -34.484  1.00  0.00    -0.359 OA
HETATM   45  H11 UNL     1     -12.674  45.003 -35.411  1.00  0.00     0.217 HD
ENDBRANCH   9  44
TORSDOF 8
ENDMDL
