MODEL 1
REMARK minimizedAffinity -9.59276962
REMARK  9 active torsions:
REMARK  status: ('A' for Active; 'I' for Inactive)
REMARK    1  A    between atoms: C2_2  and  C3_3 
REMARK    2  A    between atoms: C2_2  and  C9_12 
REMARK    3  A    between atoms: C3_3  and  C4_4 
REMARK    4  A    between atoms: C4_4  and  C5_5 
REMARK    5  A    between atoms: C5_5  and  O1_6 
REMARK    6  A    between atoms: C5_5  and  C6_7 
REMARK    7  A    between atoms: C6_7  and  O2_9 
REMARK    8  A    between atoms: C6_7  and  C8_10 
REMARK    9  A    between atoms: C8_10  and  O3_11 
ROOT
HETATM    1  C9  UNL     1      -5.441  48.466 -22.212  1.00  0.00    -0.002 C 
HETATM    2  C10 UNL     1      -4.254  47.577 -21.785  1.00  0.00     0.007 C 
HETATM    3  C11 UNL     1      -2.966  48.360 -22.019  1.00  0.00     0.015 C 
HETATM    4  C12 UNL     1      -3.369  49.790 -22.437  1.00  0.00    -0.005 C 
HETATM    5  C13 UNL     1      -3.508  50.681 -21.170  1.00  0.00     0.021 C 
HETATM    6  C14 UNL     1      -2.316  50.384 -23.392  1.00  0.00    -0.000 C 
HETATM    7  C15 UNL     1      -2.505  50.564 -24.723  1.00  0.00    -0.060 C 
HETATM    8  C16 UNL     1      -3.766  50.055 -25.397  1.00  0.00     0.036 C 
HETATM    9  C17 UNL     1      -4.569  49.061 -24.561  1.00  0.00     0.015 C 
HETATM   10  C18 UNL     1      -4.783  49.564 -23.119  1.00  0.00    -0.028 C 
HETATM   11  C19 UNL     1      -5.616  50.868 -23.144  1.00  0.00     0.016 C 
HETATM   12  C20 UNL     1      -1.457  51.240 -25.647  1.00  0.00    -0.014 C 
HETATM   13  C21 UNL     1      -0.618  50.093 -26.255  1.00  0.00     0.020 C 
HETATM   14  C22 UNL     1      -2.141  52.046 -26.784  1.00  0.00     0.021 C 
HETATM   15  C23 UNL     1      -1.168  52.857 -27.624  1.00  0.00     0.080 C 
HETATM   16  C24 UNL     1      -0.400  53.823 -26.760  1.00  0.00     0.135 C 
HETATM   17  O4  UNL     1      -0.288  55.000 -27.105  1.00  0.00    -0.297 OA
HETATM   18  C25 UNL     1       0.310  53.255 -25.521  1.00  0.00     0.018 C 
HETATM   19  C26 UNL     1       0.636  54.445 -24.581  1.00  0.00     0.023 C 
HETATM   20  C27 UNL     1       1.652  52.662 -25.976  1.00  0.00     0.023 C 
HETATM   21  C28 UNL     1      -0.647  52.260 -24.776  1.00  0.00     0.020 C 
HETATM   22  C29 UNL     1       0.021  51.529 -23.611  1.00  0.00     0.090 C 
HETATM   23  C30 UNL     1      -0.959  50.699 -22.816  1.00  0.00     0.157 C 
HETATM   24  O5  UNL     1      -0.612  50.243 -21.727  1.00  0.00    -0.293 OA
ENDROOT
BRANCH   1  25
HETATM   25  C2  UNL     1      -6.630  47.612 -22.763  1.00  0.00    -0.014 C 
HETATM   26  C1  UNL     1      -6.707  46.225 -22.114  1.00  0.00     0.010 C 
BRANCH  25  27
HETATM   27  C3  UNL     1      -6.515  47.468 -24.310  1.00  0.00     0.007 C 
BRANCH  27  28
HETATM   28  C4  UNL     1      -7.858  47.237 -25.020  1.00  0.00     0.035 C 
BRANCH  28  29
HETATM   29  C5  UNL     1      -8.865  48.399 -24.915  1.00  0.00     0.154 C 
BRANCH  29  30
HETATM   30  O1  UNL     1      -8.144  49.558 -24.466  1.00  0.00    -0.392 OA
HETATM   31  H10 UNL     1      -8.814  50.266 -24.339  1.00  0.00     0.210 HD
ENDBRANCH  29  30
BRANCH  29  32
HETATM   32  C6  UNL     1      -9.657  48.764 -26.208  1.00  0.00     0.101 C 
HETATM   33  C7  UNL     1      -8.947  48.326 -27.487  1.00  0.00     0.051 C 
BRANCH  32  34
HETATM   34  O2  UNL     1      -9.850  50.190 -26.262  1.00  0.00    -0.385 OA
HETATM   35  H14 UNL     1      -9.807  50.495 -25.333  1.00  0.00     0.210 HD
ENDBRANCH  32  34
BRANCH  32  36
HETATM   36  C8  UNL     1     -11.068  48.133 -26.171  1.00  0.00     0.204 C 
BRANCH  36  37
HETATM   37  O3  UNL     1     -12.002  48.956 -26.877  1.00  0.00    -0.398 OA
HETATM   38  H17 UNL     1     -11.770  48.849 -27.821  1.00  0.00     0.209 HD
ENDBRANCH  36  37
ENDBRANCH  32  36
ENDBRANCH  29  32
ENDBRANCH  28  29
ENDBRANCH  27  28
ENDBRANCH  25  27
ENDBRANCH   1  25
TORSDOF 9
ENDMDL
