MODEL 1
REMARK minimizedAffinity -6.87255192
REMARK CNNscore 0.731923521
REMARK CNNaffinity 6.44092131
REMARK  7 active torsions:
REMARK  status: ('A' for Active; 'I' for Inactive)
REMARK    1  A    between atoms: C2_2  and  C4_4 
REMARK    2  A    between atoms: C7_7  and  C8_8 
REMARK    3  A    between atoms: C8_8  and  O2_10 
REMARK    4  A    between atoms: C15_17  and  O3_18 
REMARK    5  A    between atoms: C21_24  and  O4_25 
REMARK    6  A    between atoms: C22_26  and  C24_28 
REMARK    7  A    between atoms: C24_28  and  O5_29 
ROOT
HETATM    1  C4  UNL     1     -17.145   1.812  13.606  1.00  0.00     0.019 C 
HETATM    2  C5  UNL     1     -18.406   2.656  13.274  1.00  0.00     0.011 C 
HETATM    3  C6  UNL     1     -19.595   1.680  13.238  1.00  0.00     0.021 C 
HETATM    4  C7  UNL     1     -18.947   0.320  12.964  1.00  0.00     0.050 C 
HETATM    5  C9  UNL     1     -19.779  -0.900  13.368  1.00  0.00     0.022 C 
HETATM    6  C10 UNL     1     -18.932  -2.179  13.229  1.00  0.00     0.011 C 
HETATM    7  C11 UNL     1     -17.578  -2.186  14.038  1.00  0.00    -0.032 C 
HETATM    8  C12 UNL     1     -18.021  -2.266  15.536  1.00  0.00     0.016 C 
HETATM    9  C13 UNL     1     -16.802  -0.844  13.779  1.00  0.00     0.003 C 
HETATM   10  C14 UNL     1     -15.582  -0.738  14.702  1.00  0.00     0.038 C 
HETATM   11  C15 UNL     1     -14.736  -2.013  14.793  1.00  0.00     0.124 C 
HETATM   12  C16 UNL     1     -15.035  -3.067  13.698  1.00  0.00     0.032 C 
HETATM   13  C17 UNL     1     -14.003  -4.324  13.698  1.00  0.00    -0.033 C 
HETATM   14  C18 UNL     1     -13.836  -4.808  12.224  1.00  0.00     0.016 C 
HETATM   15  C19 UNL     1     -12.576  -3.888  14.161  1.00  0.00     0.012 C 
HETATM   16  C20 UNL     1     -11.582  -5.037  14.351  1.00  0.00     0.033 C 
HETATM   17  C21 UNL     1     -12.113  -6.110  15.299  1.00  0.00     0.128 C 
HETATM   18  C22 UNL     1     -13.515  -6.672  14.907  1.00  0.00     0.007 C 
HETATM   19  C23 UNL     1     -13.367  -7.597  13.680  1.00  0.00     0.020 C 
HETATM   20  C25 UNL     1     -14.512  -5.462  14.661  1.00  0.00     0.007 C 
HETATM   21  C26 UNL     1     -15.952  -5.872  14.310  1.00  0.00     0.007 C 
HETATM   22  C27 UNL     1     -16.903  -4.691  14.487  1.00  0.00     0.011 C 
HETATM   23  C28 UNL     1     -16.594  -3.445  13.618  1.00  0.00    -0.030 C 
HETATM   24  C29 UNL     1     -16.897  -3.843  12.141  1.00  0.00     0.016 C 
HETATM   25  C30 UNL     1     -17.719   0.402  13.896  1.00  0.00     0.017 C 
ENDROOT
BRANCH   4  26
HETATM   26  C8  UNL     1     -18.631   0.254  11.461  1.00  0.00     0.149 C 
HETATM   27  O1  UNL     1     -19.402   0.398  10.528  1.00  0.00    -0.649 OA
BRANCH  26  28
HETATM   28  O2  UNL     1     -17.332  -0.015  11.209  1.00  0.00    -0.776 OA
HETATM   29  H11 UNL     1     -17.279  -0.031  10.231  1.00  0.00     0.167 HD
ENDBRANCH  26  28
ENDBRANCH   4  26
BRANCH   1  30
HETATM   30  C2  UNL     1     -16.308   2.507  14.668  1.00  0.00    -0.088 C 
HETATM   31  C1  UNL     1     -16.791   3.361  15.588  1.00  0.00     0.014 C 
HETATM   32  C3  UNL     1     -14.833   2.200  14.617  1.00  0.00     0.043 C 
ENDBRANCH   1  30
BRANCH  11  33
HETATM   33  O3  UNL     1     -14.827  -2.591  16.091  1.00  0.00    -0.395 OA
HETATM   34  H23 UNL     1     -14.640  -1.890  16.739  1.00  0.00     0.210 HD
ENDBRANCH  11  33
BRANCH  18  35
HETATM   35  C24 UNL     1     -13.997  -7.548  16.112  1.00  0.00     0.176 C 
BRANCH  35  36
HETATM   36  O5  UNL     1     -14.407  -6.786  17.243  1.00  0.00    -0.400 OA
HETATM   37  H39 UNL     1     -15.298  -6.444  17.060  1.00  0.00     0.209 HD
ENDBRANCH  35  36
ENDBRANCH  18  35
BRANCH  17  38
HETATM   38  O4  UNL     1     -12.119  -5.576  16.627  1.00  0.00    -0.395 OA
HETATM   39  H33 UNL     1     -12.760  -4.843  16.668  1.00  0.00     0.210 HD
ENDBRANCH  17  38
TORSDOF 7
ENDMDL
