MODEL 1
REMARK minimizedAffinity -8.81883812
REMARK CNNscore 0.563189507
REMARK CNNaffinity 7.26990366
REMARK  11 active torsions:
REMARK  status: ('A' for Active; 'I' for Inactive)
REMARK    1  A    between atoms: C2_2  and  O1_3 
REMARK    2  A    between atoms: O1_3  and  C3_4 
REMARK    3  A    between atoms: C3_4  and  C4_6 
REMARK    4  A    between atoms: C5_7  and  C6_8 
REMARK    5  A    between atoms: C10_13  and  C11_14 
REMARK    6  A    between atoms: C11_14  and  O4_15 
REMARK    7  A    between atoms: C13_18  and  C14_19 
REMARK    8  A    between atoms: C25_32  and  C26_33 
REMARK    9  A    between atoms: C26_33  and  O7_34 
REMARK   10  A    between atoms: C33_42  and  O9_44 
REMARK   11  A    between atoms: C36_46  and  O10_47 
ROOT
HETATM    1  C4  UNL     1      -5.029   6.783  15.173  1.00  0.00     0.165 C 
HETATM    2  C5  UNL     1      -4.980   8.130  15.232  1.00  0.00     0.053 C 
HETATM    3  C7  UNL     1      -3.671   8.770  15.027  1.00  0.00    -0.002 C 
HETATM    4  C8  UNL     1      -3.218   9.824  15.768  1.00  0.00    -0.066 C 
HETATM    5  C9  UNL     1      -1.754  10.257  15.832  1.00  0.00     0.049 C 
HETATM    6  C10 UNL     1      -1.272  10.408  17.284  1.00  0.00     0.084 C 
HETATM    7  C12 UNL     1      -2.133  11.408  18.044  1.00  0.00     0.142 C 
HETATM    8  O5  UNL     1      -1.794  11.800  19.162  1.00  0.00    -0.297 OA
HETATM    9  C13 UNL     1      -3.409  11.866  17.346  1.00  0.00     0.092 C 
HETATM   10  C22 UNL     1      -4.098  10.631  16.726  1.00  0.00     0.052 C 
HETATM   11  C23 UNL     1      -2.787   8.007  14.092  1.00  0.00     0.044 C 
HETATM   12  C24 UNL     1      -2.892   6.594  14.173  1.00  0.00     0.101 C 
HETATM   13  O6  UNL     1      -3.885   6.010  14.945  1.00  0.00    -0.302 OA
HETATM   14  C25 UNL     1      -2.050   5.736  13.446  1.00  0.00     0.034 C 
HETATM   15  C27 UNL     1      -1.148   6.341  12.586  1.00  0.00     0.090 C 
HETATM   16  O8  UNL     1      -0.237   5.666  11.812  1.00  0.00    -0.341 OA
HETATM   17  C28 UNL     1       0.220   6.667  10.849  1.00  0.00     0.171 C 
HETATM   18  C29 UNL     1       0.004   8.064  11.462  1.00  0.00     0.057 C 
HETATM   19  C30 UNL     1       1.244   8.643  12.157  1.00  0.00     0.012 C 
HETATM   20  C31 UNL     1       2.167   7.572  12.728  1.00  0.00     0.004 C 
HETATM   21  C32 UNL     1       2.628   6.542  11.693  1.00  0.00     0.040 C 
HETATM   22  C33 UNL     1       1.686   6.361  10.489  1.00  0.00     0.081 C 
HETATM   23  C34 UNL     1       2.142   7.195   9.285  1.00  0.00     0.049 C 
HETATM   24  C35 UNL     1      -1.078   7.718  12.425  1.00  0.00     0.017 C 
HETATM   25  C36 UNL     1      -1.928   8.557  13.129  1.00  0.00     0.091 C 
ENDROOT
BRANCH   2  26
HETATM   26  C6  UNL     1      -6.217   8.886  15.519  1.00  0.00     0.273 C 
HETATM   27  O3  UNL     1      -7.192   8.834  14.781  1.00  0.00    -0.301 OA
ENDBRANCH   2  26
BRANCH   1  28
HETATM   28  C3  UNL     1      -6.308   6.043  15.331  1.00  0.00     0.318 C 
HETATM   29  O2  UNL     1      -6.859   5.841  16.403  1.00  0.00    -0.257 OA
BRANCH  28  30
HETATM   30  O1  UNL     1      -6.765   5.672  14.105  1.00  0.00    -0.316 OA
BRANCH  30  31
HETATM   31  C2  UNL     1      -7.164   4.301  13.985  1.00  0.00     0.175 C 
HETATM   32  C1  UNL     1      -8.173   4.148  12.862  1.00  0.00     0.034 C 
ENDBRANCH  30  31
ENDBRANCH  28  30
ENDBRANCH   1  28
BRANCH  25  33
HETATM   33  O10 UNL     1      -1.855   9.901  12.884  1.00  0.00    -0.354 OA
HETATM   34  C37 UNL     1      -0.734  10.471  13.563  1.00  0.00     0.210 C 
ENDBRANCH  25  33
BRANCH   6  35
HETATM   35  C11 UNL     1       0.196  10.824  17.357  1.00  0.00     0.176 C 
BRANCH  35  36
HETATM   36  O4  UNL     1       1.042   9.680  17.403  1.00  0.00    -0.400 OA
HETATM   37  H12 UNL     1       1.949   9.995  17.240  1.00  0.00     0.209 HD
ENDBRANCH  35  36
ENDBRANCH   6  35
BRANCH   9  38
HETATM   38  C14 UNL     1      -4.365  12.651  18.234  1.00  0.00    -0.046 A 
HETATM   39  C15 UNL     1      -5.175  13.649  17.671  1.00  0.00     0.010 A 
HETATM   40  C16 UNL     1      -6.077  14.392  18.441  1.00  0.00     0.031 A 
HETATM   41  C17 UNL     1      -6.149  14.106  19.808  1.00  0.00     0.042 A 
HETATM   42  N1  UNL     1      -6.927  14.666  20.795  1.00  0.00    -0.365 N 
HETATM   43  C20 UNL     1      -5.364  13.125  20.412  1.00  0.00    -0.008 A 
HETATM   44  C18 UNL     1      -6.660  14.075  22.003  1.00  0.00     0.089 A 
HETATM   45  H16 UNL     1      -7.595  15.409  20.647  1.00  0.00     0.165 HD
HETATM   46  C19 UNL     1      -5.695  13.117  21.795  1.00  0.00     0.030 A 
HETATM   47  C21 UNL     1      -4.463  12.390  19.615  1.00  0.00     0.021 A 
ENDBRANCH   9  38
BRANCH  14  48
HETATM   48  C26 UNL     1      -2.163   4.247  13.546  1.00  0.00     0.208 C 
BRANCH  48  49
HETATM   49  O7  UNL     1      -3.492   3.866  13.220  1.00  0.00    -0.396 OA
HETATM   50  H24 UNL     1      -3.530   2.898  13.294  1.00  0.00     0.209 HD
ENDBRANCH  48  49
ENDBRANCH  14  48
BRANCH  22  51
HETATM   51  O9  UNL     1       1.784   4.991  10.063  1.00  0.00    -0.388 OA
HETATM   52  H36 UNL     1       1.257   4.466  10.695  1.00  0.00     0.210 HD
ENDBRANCH  22  51
TORSDOF 11
ENDMDL
