MODEL 1
REMARK minimizedAffinity -7.18085814
REMARK CNNscore 0.636175394
REMARK CNNaffinity 5.51910448
REMARK  5 active torsions:
REMARK  status: ('A' for Active; 'I' for Inactive)
REMARK    1  A    between atoms: C4_4  and  O1_5 
REMARK    2  A    between atoms: C5_6  and  O2_7 
REMARK    3  A    between atoms: C8_11  and  C9_12 
REMARK    4  A    between atoms: C19_23  and  C20_24 
REMARK    5  A    between atoms: C26_32  and  O7_33 
ROOT
HETATM    1  C1  UNL     1     -17.687  -6.469  17.448  1.00  0.00     0.040 C 
HETATM    2  C2  UNL     1     -17.325  -5.010  17.690  1.00  0.00     0.123 C 
HETATM    3  C3  UNL     1     -18.418  -4.291  18.495  1.00  0.00     0.069 C 
HETATM    4  C4  UNL     1     -18.501  -2.804  18.132  1.00  0.00     0.188 C 
HETATM    5  C5  UNL     1     -17.104  -2.241  17.760  1.00  0.00     0.240 C 
HETATM    6  O3  UNL     1     -17.192  -0.826  17.606  1.00  0.00    -0.341 OA
HETATM    7  C6  UNL     1     -16.595  -0.334  16.408  1.00  0.00     0.156 C 
HETATM    8  C7  UNL     1     -16.963   1.151  16.311  1.00  0.00     0.056 C 
HETATM    9  C8  UNL     1     -16.470   1.840  15.016  1.00  0.00     0.043 C 
HETATM   10  C10 UNL     1     -16.874   0.988  13.813  1.00  0.00    -0.065 C 
HETATM   11  C11 UNL     1     -17.408   1.518  12.699  1.00  0.00    -0.022 C 
HETATM   12  C12 UNL     1     -17.627   2.983  12.482  1.00  0.00     0.035 C 
HETATM   13  C13 UNL     1     -16.914   3.893  13.510  1.00  0.00     0.030 C 
HETATM   14  C14 UNL     1     -17.077   3.296  14.931  1.00  0.00     0.012 C 
HETATM   15  C15 UNL     1     -16.536   4.246  16.015  1.00  0.00     0.007 C 
HETATM   16  C16 UNL     1     -17.115   5.649  15.895  1.00  0.00     0.013 C 
HETATM   17  C17 UNL     1     -16.856   6.306  14.510  1.00  0.00    -0.005 C 
HETATM   18  C18 UNL     1     -15.349   6.618  14.385  1.00  0.00     0.019 C 
HETATM   19  C19 UNL     1     -17.778   7.581  14.398  1.00  0.00     0.028 C 
HETATM   20  C24 UNL     1     -19.033   7.111  13.623  1.00  0.00     0.013 C 
HETATM   21  C25 UNL     1     -18.884   5.608  13.404  1.00  0.00     0.040 C 
HETATM   22  C26 UNL     1     -17.368   5.374  13.373  1.00  0.00     0.070 C 
HETATM   23  C27 UNL     1     -16.617  -0.499  13.901  1.00  0.00     0.069 C 
HETATM   24  C28 UNL     1     -17.109  -1.124  15.208  1.00  0.00     0.158 C 
HETATM   25  O8  UNL     1     -16.626  -2.467  15.241  1.00  0.00    -0.347 OA
HETATM   26  C29 UNL     1     -16.545  -3.071  16.534  1.00  0.00     0.325 C 
HETATM   27  O9  UNL     1     -17.164  -4.370  16.424  1.00  0.00    -0.351 OA
ENDROOT
BRANCH  19  28
HETATM   28  C20 UNL     1     -17.165   8.833  13.830  1.00  0.00    -0.045 A 
HETATM   29  C21 UNL     1     -16.498   9.806  14.453  1.00  0.00     0.087 A 
HETATM   30  C22 UNL     1     -16.126  10.789  13.440  1.00  0.00     0.283 A 
HETATM   31  O5  UNL     1     -15.506  11.814  13.657  1.00  0.00    -0.260 OA
HETATM   32  O6  UNL     1     -16.572  10.371  12.225  1.00  0.00    -0.314 OA
HETATM   33  C23 UNL     1     -17.258   9.131  12.381  1.00  0.00     0.213 A 
ENDBRANCH  19  28
BRANCH  22  34
HETATM   34  O7  UNL     1     -16.885   5.879  12.121  1.00  0.00    -0.389 OA
HETATM   35  H34 UNL     1     -17.325   5.402  11.398  1.00  0.00     0.210 HD
ENDBRANCH  22  34
BRANCH   9  36
HETATM   36  C9  UNL     1     -14.930   1.921  15.083  1.00  0.00     0.245 C 
HETATM   37  O4  UNL     1     -14.206   1.214  15.778  1.00  0.00    -0.306 OA
ENDBRANCH   9  36
BRANCH   5  38
HETATM   38  O2  UNL     1     -16.258  -2.446  18.907  1.00  0.00    -0.360 OA
HETATM   39  H9  UNL     1     -15.411  -2.030  18.685  1.00  0.00     0.213 HD
ENDBRANCH   5  38
BRANCH   4  40
HETATM   40  O1  UNL     1     -19.444  -2.641  17.056  1.00  0.00    -0.390 OA
HETATM   41  H8  UNL     1     -19.191  -3.273  16.355  1.00  0.00     0.210 HD
ENDBRANCH   4  40
TORSDOF 5
ENDMDL
