MODEL 1
REMARK minimizedAffinity -9.88619518
REMARK CNNscore 0.41595304
REMARK CNNaffinity 7.71070242
REMARK  10 active torsions:
REMARK  status: ('A' for Active; 'I' for Inactive)
REMARK    1  A    between atoms: C2_2  and  C3_3 
REMARK    2  A    between atoms: C4_4  and  C18_19 
REMARK    3  A    between atoms: C19_20  and  O1_21 
REMARK    4  A    between atoms: N2_22  and  C20_23 
REMARK    5  A    between atoms: C20_23  and  C21_24 
REMARK    6  A    between atoms: C21_24  and  O3_26 
REMARK    7  A    between atoms: O3_26  and  C22_27 
REMARK    8  A    between atoms: C32_37  and  C33_38 
REMARK    9  A    between atoms: C39_46  and  O6_47 
REMARK   10  A    between atoms: C45_53  and  O7_54 
ROOT
HETATM    1  C21 UNL     1      -1.060  52.750 -10.645  1.00  0.00     0.222 C 
HETATM    2  O2  UNL     1      -2.031  52.659  -9.908  1.00  0.00    -0.287 OA
ENDROOT
BRANCH   1   3
HETATM    3  C20 UNL     1      -0.132  51.579 -10.975  1.00  0.00     0.328 C 
BRANCH   3   4
HETATM    4  N2  UNL     1      -0.766  50.432 -11.870  1.00  0.00    -0.023 N 
HETATM    5  C6  UNL     1       0.391  49.455 -12.301  1.00  0.00     0.214 C 
HETATM    6  C5  UNL     1      -0.276  48.115 -12.684  1.00  0.00     0.041 C 
HETATM    7  C7  UNL     1       1.205  49.986 -13.524  1.00  0.00     0.109 C 
HETATM    8  C4  UNL     1      -1.716  48.387 -13.151  1.00  0.00     0.004 C 
HETATM    9  C3  UNL     1      -2.520  48.598 -11.850  1.00  0.00     0.047 C 
HETATM   10  C45 UNL     1      -1.802  49.695 -11.005  1.00  0.00     0.329 C 
HETATM   11  N1  UNL     1       2.289  50.959 -13.209  1.00  0.00    -0.279 NA
HETATM   12  C15 UNL     1       0.322  50.708 -14.581  1.00  0.00     0.035 C 
HETATM   13  C8  UNL     1       3.500  50.443 -12.567  1.00  0.00     0.117 C 
HETATM   14  C9  UNL     1       2.518  51.517 -14.511  1.00  0.00     0.018 A 
HETATM   15  C10 UNL     1       3.646  52.190 -14.964  1.00  0.00     0.024 A 
HETATM   16  C14 UNL     1       1.402  51.374 -15.361  1.00  0.00    -0.024 A 
HETATM   17  C11 UNL     1       3.649  52.694 -16.271  1.00  0.00     0.002 A 
HETATM   18  C12 UNL     1       2.536  52.530 -17.109  1.00  0.00     0.001 A 
HETATM   19  C13 UNL     1       1.395  51.870 -16.655  1.00  0.00     0.010 A 
HETATM   20  C16 UNL     1      -0.578  51.780 -13.965  1.00  0.00     0.053 C 
HETATM   21  C19 UNL     1      -0.734  49.778 -15.186  1.00  0.00     0.139 C 
HETATM   22  C17 UNL     1      -1.498  50.924 -13.138  1.00  0.00     0.202 C 
HETATM   23  C18 UNL     1      -1.774  49.666 -14.026  1.00  0.00     0.051 C 
BRANCH   9  24
HETATM   24  C2  UNL     1      -4.008  48.936 -12.057  1.00  0.00     0.005 C 
HETATM   25  C1  UNL     1      -4.530  49.997 -11.097  1.00  0.00     0.005 C 
ENDBRANCH   9  24
BRANCH  10  26
HETATM   26  O7  UNL     1      -1.185  49.158  -9.854  1.00  0.00    -0.369 OA
HETATM   27  H61 UNL     1      -1.601  48.297  -9.625  1.00  0.00     0.212 HD
ENDBRANCH  10  26
BRANCH  21  28
HETATM   28  O1  UNL     1      -0.239  48.516 -15.572  1.00  0.00    -0.394 OA
HETATM   29  H24 UNL     1      -0.154  48.499 -16.550  1.00  0.00     0.210 HD
ENDBRANCH  21  28
ENDBRANCH   3   4
ENDBRANCH   1   3
BRANCH   1  30
HETATM   30  O3  UNL     1      -0.642  53.882 -11.277  1.00  0.00     0.000 OA
HETATM   31 BR1  UNL     1      -1.507  54.903 -10.156  1.00  0.00    -0.148 Br
BRANCH  30  32
HETATM   32  C22 UNL     1      -0.111  54.930 -10.427  1.00  0.00    -0.009 C 
HETATM   33  C23 UNL     1      -0.806  54.818  -9.081  1.00  0.00     0.006 C 
HETATM   34  C24 UNL     1       0.019  55.499  -7.996  1.00  0.00     0.010 C 
HETATM   35  C25 UNL     1       1.361  54.759  -7.728  1.00  0.00    -0.036 C 
HETATM   36  C26 UNL     1       1.017  53.537  -6.822  1.00  0.00     0.016 C 
HETATM   37  C27 UNL     1       2.366  55.701  -6.955  1.00  0.00     0.001 C 
HETATM   38  C43 UNL     1       1.988  54.203  -9.054  1.00  0.00    -0.005 C 
HETATM   39  C28 UNL     1       2.683  57.025  -7.697  1.00  0.00     0.007 C 
HETATM   40  C40 UNL     1       3.652  54.944  -6.559  1.00  0.00     0.025 C 
HETATM   41  C29 UNL     1       4.143  57.484  -7.583  1.00  0.00     0.013 C 
HETATM   42  C30 UNL     1       4.730  57.344  -6.159  1.00  0.00    -0.005 C 
HETATM   43  C31 UNL     1       3.994  58.379  -5.270  1.00  0.00     0.019 C 
HETATM   44  C32 UNL     1       6.278  57.625  -6.237  1.00  0.00     0.028 C 
HETATM   45  C39 UNL     1       4.600  55.847  -5.682  1.00  0.00     0.070 C 
HETATM   46  C37 UNL     1       6.904  56.231  -6.391  1.00  0.00     0.013 C 
HETATM   47  C38 UNL     1       6.037  55.312  -5.543  1.00  0.00     0.040 C 
HETATM   48  C41 UNL     1       4.264  54.179  -7.763  1.00  0.00     0.008 C 
HETATM   49  C42 UNL     1       3.528  54.314  -9.102  1.00  0.00     0.006 C 
HETATM   50  C44 UNL     1       1.418  54.828 -10.355  1.00  0.00     0.156 C 
BRANCH  44  51
HETATM   51  C33 UNL     1       6.917  58.421  -5.127  1.00  0.00    -0.045 A 
HETATM   52  C34 UNL     1       8.225  58.507  -4.899  1.00  0.00     0.087 A 
HETATM   53  C35 UNL     1       8.420  59.347  -3.719  1.00  0.00     0.283 A 
HETATM   54  O4  UNL     1       9.494  59.604  -3.213  1.00  0.00    -0.260 OA
HETATM   55  O5  UNL     1       7.205  59.755  -3.271  1.00  0.00    -0.314 OA
HETATM   56  C36 UNL     1       6.179  59.209  -4.104  1.00  0.00     0.213 A 
ENDBRANCH  44  51
BRANCH  45  57
HETATM   57  O6  UNL     1       4.043  55.856  -4.353  1.00  0.00    -0.389 OA
HETATM   58  H51 UNL     1       3.987  54.938  -4.039  1.00  0.00     0.210 HD
ENDBRANCH  45  57
ENDBRANCH  30  32
ENDBRANCH   1  30
TORSDOF 10
ENDMDL
