MODEL 1
REMARK minimizedAffinity -9.56261158
REMARK  8 active torsions:
REMARK  status: ('A' for Active; 'I' for Inactive)
REMARK    1  A    between atoms: C4_4  and  C5_5 
REMARK    2  A    between atoms: C5_5  and  C6_6 
REMARK    3  A    between atoms: C6_6  and  C7_7 
REMARK    4  A    between atoms: C7_7  and  C9_9 
REMARK    5  A    between atoms: C18_18  and  C20_20 
REMARK    6  A    between atoms: C20_20  and  O2_22 
REMARK    7  A    between atoms: C21_23  and  O3_24 
REMARK    8  A    between atoms: C23_26  and  O4_27 
ROOT
HETATM    1  C9  UNL     1      -2.852   6.132  13.379  1.00  0.00    -0.002 C 
HETATM    2  C10 UNL     1      -2.897   5.166  12.162  1.00  0.00     0.006 C 
HETATM    3  C11 UNL     1      -1.505   5.195  11.513  1.00  0.00     0.011 C 
HETATM    4  C12 UNL     1      -0.583   5.820  12.576  1.00  0.00    -0.032 C 
HETATM    5  C13 UNL     1      -0.201   4.668  13.561  1.00  0.00     0.016 C 
HETATM    6  C14 UNL     1       0.691   6.490  12.002  1.00  0.00     0.004 C 
HETATM    7  C15 UNL     1       1.701   5.499  11.403  1.00  0.00     0.007 C 
HETATM    8  C16 UNL     1       2.864   6.259  10.778  1.00  0.00     0.007 C 
HETATM    9  C17 UNL     1       3.716   6.914  11.876  1.00  0.00     0.018 C 
HETATM   10  C18 UNL     1       4.942   7.739  11.339  1.00  0.00     0.072 C 
HETATM   11  C19 UNL     1       4.562   8.688  10.181  1.00  0.00     0.030 C 
HETATM   12  C21 UNL     1       5.649   8.524  12.490  1.00  0.00     0.139 C 
HETATM   13  C22 UNL     1       5.251   8.016  13.869  1.00  0.00     0.065 C 
HETATM   14  C23 UNL     1       3.738   8.116  14.120  1.00  0.00     0.130 C 
HETATM   15  C24 UNL     1       2.896   7.716  12.900  1.00  0.00    -0.001 A 
HETATM   16  C25 UNL     1       1.900   8.744  12.408  1.00  0.00     0.024 A 
HETATM   17  C26 UNL     1       1.352   7.466  13.011  1.00  0.00    -0.025 A 
HETATM   18  C27 UNL     1       0.678   7.604  14.386  1.00  0.00     0.011 C 
HETATM   19  C28 UNL     1      -0.859   7.477  14.456  1.00  0.00     0.011 C 
HETATM   20  C29 UNL     1      -1.521   6.929  13.182  1.00  0.00    -0.032 C 
HETATM   21  C30 UNL     1      -1.754   8.141  12.239  1.00  0.00     0.016 C 
ENDROOT
BRANCH   1  22
HETATM   22  C7  UNL     1      -4.224   6.819  13.662  1.00  0.00    -0.014 C 
HETATM   23  C8  UNL     1      -4.335   8.291  13.239  1.00  0.00     0.010 C 
BRANCH  22  24
HETATM   24  C6  UNL     1      -4.675   6.600  15.127  1.00  0.00     0.008 C 
BRANCH  24  25
HETATM   25  C5  UNL     1      -6.166   6.273  15.313  1.00  0.00     0.028 C 
BRANCH  25  26
HETATM   26  C4  UNL     1      -6.950   6.185  14.036  1.00  0.00    -0.025 C 
HETATM   27  C2  UNL     1      -7.494   5.091  13.462  1.00  0.00    -0.091 C 
HETATM   28  C1  UNL     1      -8.249   5.204  12.166  1.00  0.00     0.042 C 
HETATM   29  C3  UNL     1      -7.403   3.683  13.997  1.00  0.00     0.042 C 
ENDBRANCH  25  26
ENDBRANCH  24  25
ENDBRANCH  22  24
ENDBRANCH   1  22
BRANCH  14  30
HETATM   30  O4  UNL     1       3.447   7.240  15.213  1.00  0.00    -0.395 OA
HETATM   31  H39 UNL     1       3.842   7.640  16.007  1.00  0.00     0.210 HD
ENDBRANCH  14  30
BRANCH  10  32
HETATM   32  C20 UNL     1       5.968   6.748  10.781  1.00  0.00     0.151 C 
HETATM   33  O1  UNL     1       7.104   7.002  10.417  1.00  0.00    -0.649 OA
BRANCH  32  34
HETATM   34  O2  UNL     1       5.528   5.476  10.726  1.00  0.00    -0.776 OA
HETATM   35  H33 UNL     1       6.271   4.980  10.322  1.00  0.00     0.167 HD
ENDBRANCH  32  34
ENDBRANCH  10  32
BRANCH  12  36
HETATM   36  O3  UNL     1       5.374   9.932  12.458  1.00  0.00    -0.394 OA
HETATM   37  H35 UNL     1       5.925  10.326  11.755  1.00  0.00     0.210 HD
ENDBRANCH  12  36
TORSDOF 8
ENDMDL
