MODEL 1
REMARK minimizedAffinity -7.91747952
REMARK CNNscore 0.535239875
REMARK CNNaffinity 7.52067566
REMARK  19 active torsions:
REMARK  status: ('A' for Active; 'I' for Inactive)
REMARK    1  A    between atoms: O1_2  and  C2_3 
REMARK    2  A    between atoms: C2_3  and  C3_4 
REMARK    3  A    between atoms: C2_3  and  C28_36 
REMARK    4  A    between atoms: C3_4  and  C4_5 
REMARK    5  A    between atoms: C4_5  and  C6_7 
REMARK    6  A    between atoms: C6_7  and  O2_8 
REMARK    7  A    between atoms: C6_7  and  C7_9 
REMARK    8  A    between atoms: C8_10  and  C9_11 
REMARK    9  A    between atoms: C10_12  and  C11_13 
REMARK   10  A    between atoms: C11_13  and  N1_14 
REMARK       I    between atoms: N1_14  and  C12_15 
REMARK   11  A    between atoms: C12_15  and  C13_17 
REMARK   12  A    between atoms: C13_17  and  C16_20 
REMARK   13  A    between atoms: C16_20  and  O4_21 
REMARK   14  A    between atoms: C16_20  and  C17_22 
REMARK   15  A    between atoms: C19_24  and  C20_25 
REMARK   16  A    between atoms: C21_26  and  C22_27 
REMARK   17  A    between atoms: C23_28  and  C24_29 
REMARK   18  A    between atoms: C26_31  and  N2_33 
REMARK   19  A    between atoms: C28_36  and  O7_37 
ROOT
HETATM    1  C9  UNL     1      -5.614   3.257  11.781  1.00  0.00    -0.003 C 
HETATM    2  C10 UNL     1      -5.963   3.668  13.010  1.00  0.00    -0.007 C 
ENDROOT
BRANCH   1   3
HETATM    3  C8  UNL     1      -4.244   3.226  11.329  1.00  0.00    -0.002 C 
HETATM    4  C7  UNL     1      -3.218   3.669  12.073  1.00  0.00     0.005 C 
BRANCH   4   5
HETATM    5  C6  UNL     1      -1.788   3.641  11.619  1.00  0.00     0.144 C 
BRANCH   5   6
HETATM    6  C4  UNL     1      -1.053   5.000  11.748  1.00  0.00     0.016 C 
HETATM    7  C5  UNL     1      -1.806   5.957  12.684  1.00  0.00     0.013 C 
BRANCH   6   8
HETATM    8  C3  UNL     1       0.398   4.762  12.254  1.00  0.00     0.042 C 
BRANCH   8   9
HETATM    9  C2  UNL     1       1.490   5.592  11.529  1.00  0.00     0.159 C 
BRANCH   9  10
HETATM   10  O1  UNL     1       1.534   5.181  10.156  1.00  0.00    -0.388 OA
HETATM   11  C1  UNL     1       2.712   4.458   9.813  1.00  0.00     0.202 C 
ENDBRANCH   9  10
BRANCH   9  12
HETATM   12  C28 UNL     1       1.229   7.145  11.577  1.00  0.00     0.133 C 
HETATM   13  C29 UNL     1       0.243   7.621  10.459  1.00  0.00     0.114 C 
HETATM   14  C30 UNL     1      -0.542   8.890  10.789  1.00  0.00     0.023 C 
HETATM   15  C31 UNL     1       1.145   7.910   9.280  1.00  0.00     0.227 C 
HETATM   16  O8  UNL     1       0.795   7.930   8.112  1.00  0.00    -0.273 OA
HETATM   17  N3  UNL     1       2.405   8.203   9.776  1.00  0.00    -0.332 N 
HETATM   18  C32 UNL     1       3.544   8.256   8.886  1.00  0.00     0.154 C 
HETATM   19  C33 UNL     1       2.527   7.934  11.251  1.00  0.00     0.183 A 
HETATM   20  C34 UNL     1       3.896   7.386  11.757  1.00  0.00     0.294 A 
HETATM   21  C35 UNL     1       2.997   9.206  12.046  1.00  0.00     0.169 A 
HETATM   22  O9  UNL     1       4.552   6.373  11.671  1.00  0.00    -0.262 OA
HETATM   23  O10 UNL     1       4.264   8.550  12.350  1.00  0.00    -0.311 OA
HETATM   24  C36 UNL     1       2.380   9.712  13.338  1.00  0.00     0.043 C 
BRANCH  12  25
HETATM   25  O7  UNL     1       0.736   7.505  12.870  1.00  0.00    -0.383 OA
HETATM   26  H42 UNL     1      -0.188   7.194  12.951  1.00  0.00     0.210 HD
ENDBRANCH  12  25
ENDBRANCH   9  12
ENDBRANCH   8   9
ENDBRANCH   6   8
ENDBRANCH   5   6
BRANCH   5  27
HETATM   27  O2  UNL     1      -1.824   3.276  10.236  1.00  0.00    -0.391 OA
HETATM   28  H12 UNL     1      -2.155   2.357  10.214  1.00  0.00     0.210 HD
ENDBRANCH   5  27
ENDBRANCH   4   5
ENDBRANCH   1   3
BRANCH   2  29
HETATM   29  C11 UNL     1      -7.373   3.752  13.495  1.00  0.00     0.149 C 
BRANCH  29  30
HETATM   30  N1  UNL     1      -7.447   4.808  14.469  1.00  0.00    -0.357 N 
HETATM   31  C12 UNL     1      -7.908   6.068  14.163  1.00  0.00     0.228 C 
HETATM   32  O3  UNL     1      -8.219   6.387  13.018  1.00  0.00    -0.273 OA
HETATM   33  H19 UNL     1      -7.342   4.568  15.453  1.00  0.00     0.162 HD
BRANCH  31  34
HETATM   34  C13 UNL     1      -7.982   7.054  15.357  1.00  0.00     0.063 C 
HETATM   35  C14 UNL     1      -7.459   8.419  14.863  1.00  0.00     0.028 C 
HETATM   36  C15 UNL     1      -7.033   6.518  16.445  1.00  0.00     0.028 C 
BRANCH  34  37
HETATM   37  C16 UNL     1      -9.482   7.140  15.787  1.00  0.00     0.164 C 
BRANCH  37  38
HETATM   38  O4  UNL     1      -9.571   7.588  17.151  1.00  0.00    -0.390 OA
HETATM   39  H27 UNL     1     -10.066   8.429  17.154  1.00  0.00     0.210 HD
ENDBRANCH  37  38
BRANCH  37  40
HETATM   40  C17 UNL     1     -10.518   7.932  14.983  1.00  0.00    -0.054 C 
HETATM   41  C18 UNL     1     -10.431   9.418  15.256  1.00  0.00     0.046 C 
HETATM   42  C19 UNL     1     -11.385   7.374  14.112  1.00  0.00     0.005 C 
BRANCH  42  43
HETATM   43  C20 UNL     1     -12.410   8.050  13.342  1.00  0.00     0.000 C 
HETATM   44  C21 UNL     1     -13.713   7.995  13.660  1.00  0.00     0.000 C 
BRANCH  44  45
HETATM   45  C22 UNL     1     -14.735   8.687  12.899  1.00  0.00     0.001 C 
HETATM   46  C23 UNL     1     -14.905  10.019  12.948  1.00  0.00     0.009 C 
BRANCH  46  47
HETATM   47  C24 UNL     1     -15.924  10.802  12.229  1.00  0.00    -0.034 C 
HETATM   48  C25 UNL     1     -15.760  12.312  12.289  1.00  0.00     0.050 C 
HETATM   49  C26 UNL     1     -16.912  10.182  11.542  1.00  0.00     0.082 C 
HETATM   50  C27 UNL     1     -17.242   8.738  11.351  1.00  0.00     0.075 C 
BRANCH  49  51
HETATM   51  N2  UNL     1     -17.903  11.020  10.890  1.00  0.00    -0.120 N 
HETATM   52  O5  UNL     1     -19.011  10.511  10.681  1.00  0.00    -0.532 OA
HETATM   53  O6  UNL     1     -17.575  12.182  10.628  1.00  0.00    -0.532 OA
ENDBRANCH  49  51
ENDBRANCH  46  47
ENDBRANCH  44  45
ENDBRANCH  42  43
ENDBRANCH  37  40
ENDBRANCH  34  37
ENDBRANCH  31  34
ENDBRANCH  29  30
ENDBRANCH   2  29
TORSDOF 19
ENDMDL
