MODEL 1
REMARK minimizedAffinity -9.42775345
REMARK CNNscore 0.372556657
REMARK CNNaffinity 6.73707581
REMARK  8 active torsions:
REMARK  status: ('A' for Active; 'I' for Inactive)
REMARK    1  A    between atoms: C3_3  and  O1_4 
REMARK    2  A    between atoms: N1_14  and  O2_16 
REMARK    3  A    between atoms: O2_16  and  C13_17 
REMARK    4  A    between atoms: C13_17  and  C14_18 
REMARK       I    between atoms: C14_18  and  N2_20 
REMARK    5  A    between atoms: N2_20  and  C15_21 
REMARK    6  A    between atoms: C15_21  and  C16_22 
REMARK    7  A    between atoms: C16_22  and  O4_23 
REMARK    8  A    between atoms: C16_22  and  C17_24 
ROOT
HETATM    1  C1  UNL     1      -0.087  55.342 -27.243  1.00  0.00     0.015 C 
HETATM    2  C2  UNL     1      -0.424  54.203 -27.069  1.00  0.00    -0.078 C 
HETATM    3  C3  UNL     1      -0.860  52.810 -26.880  1.00  0.00     0.128 C 
HETATM    4  C4  UNL     1       0.162  51.804 -27.422  1.00  0.00     0.052 C 
HETATM    5  C5  UNL     1      -0.337  50.485 -26.841  1.00  0.00     0.010 C 
HETATM    6  C6  UNL     1      -0.693  50.843 -25.393  1.00  0.00     0.002 C 
HETATM    7  C7  UNL     1      -1.668  49.889 -24.664  1.00  0.00    -0.004 C 
HETATM    8  C8  UNL     1      -2.875  49.380 -25.470  1.00  0.00     0.010 C 
HETATM    9  C9  UNL     1      -3.756  48.428 -24.656  1.00  0.00     0.035 C 
HETATM   10  C10 UNL     1      -4.115  48.933 -23.273  1.00  0.00    -0.069 C 
HETATM   11  C11 UNL     1      -5.377  48.811 -22.822  1.00  0.00     0.030 C 
HETATM   12  C12 UNL     1      -5.741  49.148 -21.412  1.00  0.00     0.032 C 
HETATM   13  N1  UNL     1      -6.938  49.143 -20.910  1.00  0.00    -0.271 N 
ATOM     14  H1  UNL     1      -7.147  49.352 -19.933  1.00  0.00     0.194 HD
HETATM   15  C23 UNL     1      -4.605  49.462 -20.461  1.00  0.00     0.060 C 
HETATM   16  C24 UNL     1      -3.514  50.247 -21.177  1.00  0.00     0.020 C 
HETATM   17  C25 UNL     1      -2.972  49.522 -22.445  1.00  0.00    -0.016 C 
HETATM   18  C26 UNL     1      -2.061  48.359 -21.966  1.00  0.00     0.020 C 
HETATM   19  C27 UNL     1      -2.133  50.526 -23.329  1.00  0.00     0.002 C 
HETATM   20  C28 UNL     1      -2.845  51.884 -23.576  1.00  0.00     0.007 C 
HETATM   21  C29 UNL     1      -2.494  52.605 -24.881  1.00  0.00     0.014 C 
HETATM   22  C30 UNL     1      -1.062  52.366 -25.386  1.00  0.00     0.003 C 
HETATM   23  C31 UNL     1      -0.076  53.096 -24.432  1.00  0.00     0.020 C 
ENDROOT
BRANCH   3  24
HETATM   24  O1  UNL     1      -2.065  52.620 -27.629  1.00  0.00    -0.377 OA
HETATM   25  H2  UNL     1      -1.935  53.063 -28.486  1.00  0.00     0.211 HD
ENDBRANCH   3  24
BRANCH  13  26
HETATM   26  O2  UNL     1      -7.910  48.817 -21.865  1.00  0.00    -0.271 OA
BRANCH  26  27
HETATM   27  C13 UNL     1      -7.435  49.218 -23.147  1.00  0.00     0.303 C 
BRANCH  27  28
HETATM   28  C14 UNL     1      -8.475  48.817 -24.181  1.00  0.00     0.243 C 
HETATM   29  O3  UNL     1      -9.151  47.798 -24.098  1.00  0.00    -0.271 OA
HETATM   30  N2  UNL     1      -8.598  49.708 -25.233  1.00  0.00    -0.356 N 
HETATM   31  H16 UNL     1      -8.246  50.646 -25.080  1.00  0.00     0.162 HD
BRANCH  30  32
HETATM   32  C15 UNL     1      -9.676  49.560 -26.208  1.00  0.00     0.159 C 
BRANCH  32  33
HETATM   33  C16 UNL     1      -9.443  48.399 -27.203  1.00  0.00     0.170 C 
BRANCH  33  34
HETATM   34  O4  UNL     1      -8.814  48.934 -28.379  1.00  0.00    -0.389 OA
HETATM   35  H20 UNL     1      -7.947  49.253 -28.080  1.00  0.00     0.210 HD
ENDBRANCH  33  34
BRANCH  33  36
HETATM   36  C17 UNL     1     -10.740  47.710 -27.559  1.00  0.00    -0.013 A 
HETATM   37  C18 UNL     1     -11.974  48.076 -27.022  1.00  0.00     0.013 A 
HETATM   38  C19 UNL     1     -13.127  47.387 -27.394  1.00  0.00     0.025 A 
HETATM   39  C20 UNL     1     -13.021  46.343 -28.307  1.00  0.00     0.005 A 
HETATM   40  C21 UNL     1     -14.241  45.581 -28.728  1.00  0.00     0.068 C 
HETATM   41  N3  UNL     1     -11.836  45.962 -28.838  1.00  0.00    -0.369 N 
HETATM   42  C22 UNL     1     -10.737  46.652 -28.462  1.00  0.00     0.097 A 
ATOM     43  H3  UNL     1     -11.775  45.184 -29.494  1.00  0.00     0.165 HD
ENDBRANCH  33  36
ENDBRANCH  32  33
ENDBRANCH  30  32
ENDBRANCH  27  28
ENDBRANCH  26  27
ENDBRANCH  13  26
TORSDOF 8
ENDMDL
