MODEL 1
REMARK minimizedAffinity -7.78613806
REMARK CNNscore 0.621810973
REMARK CNNaffinity 7.30272055
REMARK  7 active torsions:
REMARK  status: ('A' for Active; 'I' for Inactive)
REMARK    1  A    between atoms: C3_3  and  C5_5 
REMARK    2  A    between atoms: C24_26  and  O3_27 
REMARK    3  A    between atoms: C30_35  and  O6_36 
REMARK    4  A    between atoms: C31_38  and  O8_39 
REMARK    5  A    between atoms: C32_40  and  O9_41 
REMARK    6  A    between atoms: O9_41  and  C33_42 
REMARK    7  A    between atoms: C33_42  and  C34_44 
ROOT
HETATM    1  C5  UNL     1      -8.821  42.753 -21.122  1.00  0.00     0.160 C 
HETATM    2  O1  UNL     1      -9.302  44.093 -21.254  1.00  0.00    -0.342 OA
HETATM    3  C6  UNL     1      -8.954  44.700 -22.510  1.00  0.00     0.196 C 
HETATM    4  C7  UNL     1      -9.089  46.227 -22.279  1.00  0.00     0.104 C 
HETATM    5  C8  UNL     1      -9.678  46.948 -23.485  1.00  0.00     0.139 C 
HETATM    6  C9  UNL     1     -11.029  46.344 -23.885  1.00  0.00     0.065 C 
HETATM    7  C10 UNL     1     -11.155  44.879 -23.446  1.00  0.00     0.131 C 
HETATM    8  C11 UNL     1     -12.121  44.061 -24.324  1.00  0.00     0.059 C 
HETATM    9  C12 UNL     1     -13.505  44.647 -24.451  1.00  0.00    -0.022 C 
HETATM   10  C13 UNL     1     -14.339  44.555 -25.510  1.00  0.00    -0.087 C 
HETATM   11  C14 UNL     1     -15.701  45.198 -25.436  1.00  0.00     0.043 C 
HETATM   12  C15 UNL     1     -14.055  43.727 -26.754  1.00  0.00     0.041 C 
HETATM   13  C16 UNL     1     -13.700  44.463 -28.074  1.00  0.00     0.008 C 
HETATM   14  C17 UNL     1     -14.918  45.129 -28.724  1.00  0.00     0.014 C 
HETATM   15  C18 UNL     1     -12.484  45.352 -27.914  1.00  0.00    -0.022 C 
HETATM   16  C19 UNL     1     -12.380  46.658 -28.207  1.00  0.00    -0.003 C 
HETATM   17  C20 UNL     1     -11.197  47.444 -27.942  1.00  0.00     0.008 C 
HETATM   18  C21 UNL     1      -9.947  47.172 -28.350  1.00  0.00    -0.019 C 
HETATM   19  C22 UNL     1      -9.502  46.052 -29.254  1.00  0.00     0.206 C 
HETATM   20  O2  UNL     1      -8.097  46.285 -29.517  1.00  0.00    -0.375 OA
HETATM   21  C23 UNL     1      -7.905  47.699 -29.278  1.00  0.00     0.194 C 
HETATM   22  C24 UNL     1      -6.415  48.079 -29.155  1.00  0.00     0.179 C 
HETATM   23  C25 UNL     1      -5.818  48.017 -27.765  1.00  0.00    -0.056 C 
HETATM   24  C26 UNL     1      -4.351  48.333 -27.660  1.00  0.00     0.046 C 
HETATM   25  C27 UNL     1      -6.553  47.730 -26.675  1.00  0.00    -0.004 C 
HETATM   26  C28 UNL     1      -8.018  47.399 -26.761  1.00  0.00     0.150 C 
HETATM   27  C29 UNL     1      -8.761  47.823 -25.506  1.00  0.00     0.270 C 
HETATM   28  O4  UNL     1      -9.305  48.913 -25.356  1.00  0.00    -0.264 OA
HETATM   29  O5  UNL     1      -8.759  46.816 -24.590  1.00  0.00    -0.315 OA
HETATM   30  C30 UNL     1      -8.719  47.986 -28.021  1.00  0.00     0.128 C 
HETATM   31  O7  UNL     1      -9.870  44.261 -23.525  1.00  0.00    -0.347 OA
HETATM   32  C31 UNL     1      -7.490  44.321 -22.939  1.00  0.00     0.210 C 
HETATM   33  C32 UNL     1      -6.641  43.956 -21.708  1.00  0.00     0.172 C 
HETATM   34  C37 UNL     1      -7.291  42.805 -20.892  1.00  0.00     0.047 C 
HETATM   35  C38 UNL     1      -6.624  41.464 -21.218  1.00  0.00     0.015 C 
ENDROOT
BRANCH  32  36
HETATM   36  O8  UNL     1      -7.463  43.194 -23.839  1.00  0.00    -0.387 OA
HETATM   37  H42 UNL     1      -6.593  43.183 -24.272  1.00  0.00     0.210 HD
ENDBRANCH  32  36
BRANCH   1  38
HETATM   38  C3  UNL     1      -9.572  42.084 -19.968  1.00  0.00    -0.059 C 
HETATM   39  C2  UNL     1     -10.780  41.500 -20.137  1.00  0.00    -0.026 C 
HETATM   40  C1  UNL     1     -11.617  40.829 -19.097  1.00  0.00     0.036 C 
HETATM   41  C4  UNL     1      -8.847  42.062 -18.648  1.00  0.00     0.046 C 
ENDBRANCH   1  38
BRANCH  33  42
HETATM   42  O9  UNL     1      -6.493  45.128 -20.874  1.00  0.00    -0.312 OA
BRANCH  42  43
HETATM   43  C33 UNL     1      -5.466  45.964 -21.199  1.00  0.00     0.262 C 
HETATM   44  O10 UNL     1      -5.606  47.013 -21.814  1.00  0.00    -0.265 OA
BRANCH  43  45
HETATM   45  C34 UNL     1      -4.125  45.383 -20.776  1.00  0.00     0.077 C 
HETATM   46  C35 UNL     1      -2.998  46.356 -21.124  1.00  0.00     0.020 C 
HETATM   47  C36 UNL     1      -4.072  45.047 -19.285  1.00  0.00     0.020 C 
ENDBRANCH  43  45
ENDBRANCH  42  43
ENDBRANCH  33  42
BRANCH  30  48
HETATM   48  O6  UNL     1      -8.999  49.381 -27.970  1.00  0.00    -0.381 OA
HETATM   49  H40 UNL     1      -9.290  49.604 -27.061  1.00  0.00     0.211 HD
ENDBRANCH  30  48
BRANCH  22  50
HETATM   50  O3  UNL     1      -5.641  47.246 -30.019  1.00  0.00    -0.389 OA
HETATM   51  H34 UNL     1      -6.171  46.431 -30.133  1.00  0.00     0.210 HD
ENDBRANCH  22  50
TORSDOF 7
ENDMDL
