MODEL 1
REMARK minimizedAffinity -8.45221615
REMARK CNNscore 0.2053608
REMARK CNNaffinity 5.80626822
REMARK  19 active torsions:
REMARK  status: ('A' for Active; 'I' for Inactive)
REMARK    1  A    between atoms: O1_2  and  C2_3 
REMARK    2  A    between atoms: C2_3  and  C3_4 
REMARK    3  A    between atoms: C2_3  and  C28_36 
REMARK    4  A    between atoms: C3_4  and  C4_5 
REMARK    5  A    between atoms: C4_5  and  C6_7 
REMARK    6  A    between atoms: C6_7  and  O2_8 
REMARK    7  A    between atoms: C6_7  and  C7_9 
REMARK    8  A    between atoms: C8_10  and  C9_11 
REMARK    9  A    between atoms: C10_12  and  C11_13 
REMARK   10  A    between atoms: C11_13  and  N1_14 
REMARK       I    between atoms: N1_14  and  C12_15 
REMARK   11  A    between atoms: C12_15  and  C13_17 
REMARK   12  A    between atoms: C13_17  and  C16_20 
REMARK   13  A    between atoms: C16_20  and  O4_21 
REMARK   14  A    between atoms: C16_20  and  C17_22 
REMARK   15  A    between atoms: C19_24  and  C20_25 
REMARK   16  A    between atoms: C21_26  and  C22_27 
REMARK   17  A    between atoms: C23_28  and  C24_29 
REMARK   18  A    between atoms: C26_31  and  N2_33 
REMARK   19  A    between atoms: C28_36  and  O7_37 
ROOT
HETATM    1  C9  UNL     1      -6.974  49.685 -21.726  1.00  0.00    -0.003 C 
HETATM    2  C10 UNL     1      -5.730  49.814 -21.236  1.00  0.00    -0.007 C 
ENDROOT
BRANCH   1   3
HETATM    3  C8  UNL     1      -7.238  49.688 -23.150  1.00  0.00    -0.002 C 
HETATM    4  C7  UNL     1      -8.209  48.958 -23.719  1.00  0.00     0.005 C 
BRANCH   4   5
HETATM    5  C6  UNL     1      -8.531  48.909 -25.197  1.00  0.00     0.144 C 
BRANCH   5   6
HETATM    6  C4  UNL     1      -9.161  47.570 -25.634  1.00  0.00     0.016 C 
HETATM    7  C5  UNL     1      -9.247  46.580 -24.468  1.00  0.00     0.013 C 
BRANCH   6   8
HETATM    8  C3  UNL     1      -8.543  46.939 -26.918  1.00  0.00     0.042 C 
BRANCH   8   9
HETATM    9  C2  UNL     1      -9.481  46.245 -27.942  1.00  0.00     0.159 C 
BRANCH   9  10
HETATM   10  O1  UNL     1      -9.014  44.928 -28.272  1.00  0.00    -0.388 OA
HETATM   11  C1  UNL     1      -8.168  44.354 -27.282  1.00  0.00     0.202 C 
ENDBRANCH   9  10
BRANCH   9  12
HETATM   12  C28 UNL     1      -9.702  47.003 -29.300  1.00  0.00     0.133 C 
HETATM   13  C29 UNL     1     -10.679  46.156 -30.197  1.00  0.00     0.114 C 
HETATM   14  C30 UNL     1     -11.590  46.944 -31.134  1.00  0.00     0.023 C 
HETATM   15  C31 UNL     1      -9.759  45.314 -31.044  1.00  0.00     0.227 C 
HETATM   16  O8  UNL     1     -10.075  44.275 -31.598  1.00  0.00    -0.273 OA
HETATM   17  N3  UNL     1      -8.547  45.971 -31.137  1.00  0.00    -0.332 N 
HETATM   18  C32 UNL     1      -7.397  45.275 -31.672  1.00  0.00     0.154 C 
HETATM   19  C33 UNL     1      -8.415  47.114 -30.166  1.00  0.00     0.183 C 
HETATM   20  C34 UNL     1      -7.012  47.265 -29.468  1.00  0.00     0.294 C 
HETATM   21  C35 UNL     1      -7.940  48.437 -30.873  1.00  0.00     0.169 C 
HETATM   22  O9  UNL     1      -6.267  46.636 -28.754  1.00  0.00    -0.262 OA
HETATM   23  O10 UNL     1      -6.760  48.482 -30.027  1.00  0.00    -0.311 OA
HETATM   24  C36 UNL     1      -8.648  49.779 -30.824  1.00  0.00     0.043 C 
BRANCH  12  25
HETATM   25  O7  UNL     1     -10.271  48.277 -28.996  1.00  0.00    -0.383 OA
HETATM   26  H42 UNL     1     -10.706  48.661 -29.776  1.00  0.00     0.210 HD
ENDBRANCH  12  25
ENDBRANCH   9  12
ENDBRANCH   8   9
ENDBRANCH   6   8
ENDBRANCH   5   6
BRANCH   5  27
HETATM   27  O2  UNL     1      -9.405  49.979 -25.545  1.00  0.00    -0.391 OA
HETATM   28  H12 UNL     1      -9.063  50.778 -25.101  1.00  0.00     0.210 HD
ENDBRANCH   5  27
ENDBRANCH   4   5
ENDBRANCH   1   3
BRANCH   2  29
HETATM   29  C11 UNL     1      -5.248  49.818 -19.816  1.00  0.00     0.149 C 
BRANCH  29  30
HETATM   30  N1  UNL     1      -3.856  50.160 -19.679  1.00  0.00    -0.357 N 
HETATM   31  C12 UNL     1      -3.032  49.345 -18.926  1.00  0.00     0.228 C 
HETATM   32  O3  UNL     1      -3.451  48.284 -18.461  1.00  0.00    -0.273 OA
HETATM   33  H19 UNL     1      -3.554  51.101 -19.865  1.00  0.00     0.162 HD
BRANCH  31  34
HETATM   34  C13 UNL     1      -1.576  49.824 -18.736  1.00  0.00     0.063 C 
HETATM   35  C14 UNL     1      -0.842  49.784 -20.092  1.00  0.00     0.028 C 
HETATM   36  C15 UNL     1      -0.870  48.785 -17.823  1.00  0.00     0.028 C 
BRANCH  34  37
HETATM   37  C16 UNL     1      -1.465  51.219 -18.046  1.00  0.00     0.164 C 
BRANCH  37  38
HETATM   38  O4  UNL     1      -2.219  52.199 -18.763  1.00  0.00    -0.390 OA
HETATM   39  H27 UNL     1      -2.227  53.006 -18.223  1.00  0.00     0.210 HD
ENDBRANCH  37  38
BRANCH  37  40
HETATM   40  C17 UNL     1      -0.085  51.799 -17.757  1.00  0.00    -0.054 C 
HETATM   41  C18 UNL     1       0.556  51.422 -16.439  1.00  0.00     0.046 C 
HETATM   42  C19 UNL     1       0.653  52.520 -18.635  1.00  0.00     0.005 C 
BRANCH  42  43
HETATM   43  C20 UNL     1       0.299  52.877 -19.995  1.00  0.00     0.000 C 
HETATM   44  C21 UNL     1       1.164  52.796 -21.021  1.00  0.00     0.000 C 
BRANCH  44  45
HETATM   45  C22 UNL     1       0.784  53.108 -22.387  1.00  0.00     0.001 C 
HETATM   46  C23 UNL     1      -0.049  52.330 -23.105  1.00  0.00     0.009 C 
BRANCH  46  47
HETATM   47  C24 UNL     1      -0.530  52.586 -24.472  1.00  0.00    -0.034 C 
HETATM   48  C25 UNL     1       0.054  53.811 -25.160  1.00  0.00     0.050 C 
HETATM   49  C26 UNL     1      -1.432  51.757 -25.051  1.00  0.00     0.082 C 
HETATM   50  C27 UNL     1      -2.099  50.510 -24.568  1.00  0.00     0.075 C 
BRANCH  49  51
HETATM   51  N2  UNL     1      -1.884  52.087 -26.389  1.00  0.00    -0.120 N 
HETATM   52  O5  UNL     1      -2.841  52.868 -26.475  1.00  0.00    -0.532 OA
HETATM   53  O6  UNL     1      -1.264  51.583 -27.334  1.00  0.00    -0.532 OA
ENDBRANCH  49  51
ENDBRANCH  46  47
ENDBRANCH  44  45
ENDBRANCH  42  43
ENDBRANCH  37  40
ENDBRANCH  34  37
ENDBRANCH  31  34
ENDBRANCH  29  30
ENDBRANCH   2  29
TORSDOF 19
ENDMDL
