MODEL 1
REMARK minimizedAffinity -9.24616623
REMARK CNNscore 0.465068191
REMARK CNNaffinity 6.8419919
REMARK  9 active torsions:
REMARK  status: ('A' for Active; 'I' for Inactive)
REMARK    1  A    between atoms: C7_8  and  O1_9 
REMARK    2  A    between atoms: O1_9  and  C8_10 
REMARK    3  A    between atoms: C8_10  and  C9_11 
REMARK       I    between atoms: C9_11  and  N1_13 
REMARK    4  A    between atoms: N1_13  and  N2_14 
REMARK    5  A    between atoms: C10_16  and  C11_17 
REMARK    6  A    between atoms: C14_20  and  O3_21 
REMARK    7  A    between atoms: C16_23  and  O4_24 
REMARK    8  A    between atoms: C25_33  and  C26_34 
REMARK    9  A    between atoms: C32_42  and  O7_43 
ROOT
HETATM    1  C11 UNL     1      -4.101   7.532  14.419  1.00  0.00     0.028 C 
HETATM    2  C12 UNL     1      -5.213   8.234  13.584  1.00  0.00     0.021 C 
HETATM    3  C13 UNL     1      -6.480   8.528  14.406  1.00  0.00     0.033 C 
HETATM    4  C14 UNL     1      -7.026   7.322  15.171  1.00  0.00     0.121 C 
HETATM    5  C15 UNL     1      -5.939   6.483  15.861  1.00  0.00     0.070 C 
HETATM    6  C16 UNL     1      -4.701   6.205  14.979  1.00  0.00     0.073 C 
HETATM    7  C17 UNL     1      -3.669   5.351  15.731  1.00  0.00     0.039 C 
HETATM    8  C18 UNL     1      -2.399   5.090  14.917  1.00  0.00     0.011 C 
HETATM    9  C19 UNL     1      -1.784   6.347  14.257  1.00  0.00     0.026 C 
HETATM   10  C20 UNL     1      -2.841   7.228  13.532  1.00  0.00     0.009 C 
HETATM   11  C21 UNL     1      -2.210   8.500  12.921  1.00  0.00     0.007 C 
HETATM   12  C22 UNL     1      -0.686   8.530  12.957  1.00  0.00     0.013 C 
HETATM   13  C23 UNL     1       0.000   7.221  12.521  1.00  0.00    -0.005 C 
HETATM   14  C24 UNL     1       1.521   7.406  12.769  1.00  0.00     0.019 C 
HETATM   15  C25 UNL     1      -0.273   6.857  11.019  1.00  0.00     0.028 C 
HETATM   16  C30 UNL     1      -0.148   5.328  11.017  1.00  0.00     0.013 C 
HETATM   17  C31 UNL     1      -0.934   4.925  12.252  1.00  0.00     0.040 C 
HETATM   18  C32 UNL     1      -0.583   5.985  13.321  1.00  0.00     0.070 C 
ENDROOT
BRANCH   1  19
HETATM   19  C10 UNL     1      -3.707   8.523  15.531  1.00  0.00     0.093 C 
HETATM   20  N2  UNL     1      -2.935   8.202  16.522  1.00  0.00    -0.312 N 
ATOM     21  H2  UNL     1      -2.493   7.285  16.579  1.00  0.00     0.185 HD
BRANCH  20  22
HETATM   22  N1  UNL     1      -2.742   9.156  17.490  1.00  0.00    -0.269 N 
HETATM   23  C9  UNL     1      -1.588   9.951  17.521  1.00  0.00     0.260 C 
HETATM   24  O2  UNL     1      -0.567   9.721  16.873  1.00  0.00    -0.269 OA
HETATM   25  H9  UNL     1      -3.610   9.615  17.756  1.00  0.00     0.190 HD
BRANCH  23  26
HETATM   26  C8  UNL     1      -1.731  11.143  18.477  1.00  0.00     0.280 C 
BRANCH  26  27
HETATM   27  O1  UNL     1      -2.454  12.249  17.964  1.00  0.00    -0.342 OA
BRANCH  27  28
HETATM   28  C7  UNL     1      -3.257  12.961  18.812  1.00  0.00     0.075 A 
HETATM   29  C2  UNL     1      -2.829  14.272  19.098  1.00  0.00    -0.027 A 
HETATM   30  C1  UNL     1      -1.575  14.824  18.475  1.00  0.00     0.051 C 
HETATM   31  C3  UNL     1      -3.594  15.080  19.953  1.00  0.00     0.033 A 
HETATM   32  C4  UNL     1      -4.761  14.585  20.525  1.00  0.00     0.034 A 
HETATM   33 CL1  UNL     1      -5.700  15.587  21.562  1.00  0.00    -0.084 Cl
HETATM   34  C5  UNL     1      -5.176  13.283  20.260  1.00  0.00     0.026 A 
HETATM   35  C6  UNL     1      -4.422  12.470  19.408  1.00  0.00     0.039 A 
ENDBRANCH  27  28
ENDBRANCH  26  27
ENDBRANCH  23  26
ENDBRANCH  20  22
ENDBRANCH   1  19
BRANCH   6  36
HETATM   36  O4  UNL     1      -5.171   5.398  13.878  1.00  0.00    -0.389 OA
HETATM   37  H19 UNL     1      -4.429   4.997  13.405  1.00  0.00     0.210 HD
ENDBRANCH   6  36
BRANCH   4  38
HETATM   38  O3  UNL     1      -7.788   6.502  14.287  1.00  0.00    -0.395 OA
HETATM   39  H16 UNL     1      -8.501   7.047  13.916  1.00  0.00     0.210 HD
ENDBRANCH   4  38
BRANCH  18  40
HETATM   40  O7  UNL     1       0.452   5.431  14.146  1.00  0.00    -0.389 OA
HETATM   41  H41 UNL     1       0.161   4.571  14.490  1.00  0.00     0.210 HD
ENDBRANCH  18  40
BRANCH  15  42
HETATM   42  C26 UNL     1       0.543   7.542   9.956  1.00  0.00    -0.045 A 
HETATM   43  C27 UNL     1       1.812   7.317   9.613  1.00  0.00     0.087 A 
HETATM   44  C28 UNL     1       2.127   8.196   8.488  1.00  0.00     0.283 A 
HETATM   45  O5  UNL     1       3.209   8.257   7.935  1.00  0.00    -0.260 OA
HETATM   46  O6  UNL     1       1.021   8.915   8.166  1.00  0.00    -0.314 OA
HETATM   47  C29 UNL     1      -0.035   8.580   9.066  1.00  0.00     0.213 A 
ENDBRANCH  15  42
TORSDOF 9
ENDMDL
