MODEL 1
REMARK minimizedAffinity -8.6080637
REMARK  11 active torsions:
REMARK  status: ('A' for Active; 'I' for Inactive)
REMARK    1  A    between atoms: C3_3  and  C4_4 
REMARK    2  A    between atoms: C5_5  and  C6_6 
REMARK    3  A    between atoms: C6_6  and  O1_7 
REMARK       I    between atoms: N1_12  and  C11_13 
REMARK    4  A    between atoms: C11_13  and  C12_15 
REMARK    5  A    between atoms: C12_15  and  C14_17 
REMARK    6  A    between atoms: C14_17  and  C15_19 
REMARK    7  A    between atoms: C15_19  and  C16_20 
REMARK    8  A    between atoms: C16_20  and  C17_21 
REMARK    9  A    between atoms: C17_21  and  C18_22 
REMARK   10  A    between atoms: C18_22  and  C19_23 
REMARK   11  A    between atoms: C27_32  and  O5_34 
ROOT
HETATM    1  C6  UNL     1       1.162   7.766  11.026  1.00  0.00     0.069 C 
HETATM    2  C7  UNL     1       0.666   7.840  12.280  1.00  0.00    -0.026 C 
HETATM    3  C8  UNL     1      -0.393   8.905  12.676  1.00  0.00     0.044 C 
HETATM    4  C9  UNL     1      -1.631   8.929  11.751  1.00  0.00     0.031 C 
HETATM    5  C10 UNL     1      -2.671   8.102  12.478  1.00  0.00     0.127 C 
HETATM    6  N1  UNL     1      -2.466   8.455  13.867  1.00  0.00    -0.344 N 
HETATM    7  C11 UNL     1      -3.467   8.743  14.779  1.00  0.00     0.231 C 
HETATM    8  O2  UNL     1      -3.253   9.455  15.761  1.00  0.00    -0.273 OA
HETATM    9  C22 UNL     1      -1.061   8.821  14.118  1.00  0.00     0.118 C 
HETATM   10  C23 UNL     1      -0.333   7.848  15.067  1.00  0.00     0.102 C 
HETATM   11  C24 UNL     1      -0.977   7.488  16.392  1.00  0.00     0.034 C 
HETATM   12  C25 UNL     1      -0.033   6.633  14.220  1.00  0.00     0.156 C 
HETATM   13  O4  UNL     1      -0.731   5.639  14.097  1.00  0.00    -0.296 OA
HETATM   14  C26 UNL     1       1.189   6.939  13.395  1.00  0.00     0.130 C 
HETATM   15  C27 UNL     1       2.085   7.657  14.434  1.00  0.00     0.130 C 
HETATM   16  C28 UNL     1       3.138   8.594  13.848  1.00  0.00     0.055 C 
HETATM   17  C29 UNL     1       1.063   8.406  15.290  1.00  0.00     0.179 C 
HETATM   18  O6  UNL     1       1.346   9.326  16.048  1.00  0.00    -0.293 OA
ENDROOT
BRANCH   7  19
HETATM   19  C12 UNL     1      -4.859   8.189  14.503  1.00  0.00     0.143 C 
HETATM   20  C13 UNL     1      -5.861   9.070  15.250  1.00  0.00     0.028 C 
BRANCH  19  21
HETATM   21  C14 UNL     1      -4.951   6.705  14.852  1.00  0.00     0.139 C 
HETATM   22  O3  UNL     1      -3.939   6.021  15.040  1.00  0.00    -0.297 OA
BRANCH  21  23
HETATM   23  C15 UNL     1      -6.300   6.014  14.802  1.00  0.00     0.079 C 
BRANCH  23  24
HETATM   24  C16 UNL     1      -6.965   6.220  13.443  1.00  0.00     0.008 C 
BRANCH  24  25
HETATM   25  C17 UNL     1      -7.315   4.905  12.745  1.00  0.00     0.004 C 
BRANCH  25  26
HETATM   26  C18 UNL     1      -6.422   3.733  13.169  1.00  0.00     0.027 C 
BRANCH  26  27
HETATM   27  C19 UNL     1      -5.331   3.502  12.164  1.00  0.00    -0.031 C 
HETATM   28  C20 UNL     1      -5.160   2.443  11.359  1.00  0.00    -0.035 C 
HETATM   29  C21 UNL     1      -6.006   1.213  11.262  1.00  0.00     0.036 C 
ENDBRANCH  26  27
ENDBRANCH  25  26
ENDBRANCH  24  25
ENDBRANCH  23  24
ENDBRANCH  21  23
ENDBRANCH  19  21
ENDBRANCH   7  19
BRANCH   1  30
HETATM   30  C5  UNL     1       2.200   6.851  10.592  1.00  0.00     0.037 C 
HETATM   31  C4  UNL     1       3.142   7.053   9.651  1.00  0.00     0.002 C 
BRANCH  31  32
HETATM   32  C3  UNL     1       3.228   8.187   8.758  1.00  0.00    -0.004 C 
HETATM   33  C2  UNL     1       2.668   8.284   7.543  1.00  0.00    -0.031 C 
HETATM   34  C1  UNL     1       1.879   7.259   6.793  1.00  0.00     0.036 C 
ENDBRANCH  31  32
ENDBRANCH   1  30
BRANCH   1  35
HETATM   35  O1  UNL     1       0.796   8.712  10.088  1.00  0.00    -0.360 OA
HETATM   36  H8  UNL     1       1.262   8.511   9.255  1.00  0.00     0.217 HD
ENDBRANCH   1  35
BRANCH  15  37
HETATM   37  O5  UNL     1       2.736   6.671  15.232  1.00  0.00    -0.381 OA
HETATM   38  H39 UNL     1       3.380   7.117  15.817  1.00  0.00     0.211 HD
ENDBRANCH  15  37
TORSDOF 11
ENDMDL
