MODEL 1
REMARK minimizedAffinity -8.70088768
REMARK CNNscore 0.544339895
REMARK CNNaffinity 7.1104207
REMARK  12 active torsions:
REMARK  status: ('A' for Active; 'I' for Inactive)
REMARK    1  A    between atoms: C2_2  and  C3_3 
REMARK    2  A    between atoms: C2_2  and  C10_14 
REMARK    3  A    between atoms: C3_3  and  O1_4 
REMARK    4  A    between atoms: C3_3  and  C4_5 
REMARK    5  A    between atoms: C4_5  and  C5_6 
REMARK    6  A    between atoms: C5_6  and  O2_7 
REMARK    7  A    between atoms: C5_6  and  C6_8 
REMARK    8  A    between atoms: C5_6  and  C7_10 
REMARK    9  A    between atoms: C6_8  and  O3_9 
REMARK   10  A    between atoms: C7_10  and  O4_13 
REMARK   11  A    between atoms: C19_23  and  C20_24 
REMARK   12  A    between atoms: C20_24  and  O5_25 
ROOT
HETATM    1  C10 UNL     1      -1.881  50.639 -23.398  1.00  0.00     0.001 C 
HETATM    2  C11 UNL     1      -1.500  52.153 -23.365  1.00  0.00     0.007 C 
HETATM    3  C12 UNL     1      -1.208  52.515 -21.899  1.00  0.00     0.011 C 
HETATM    4  C13 UNL     1      -0.979  51.162 -21.197  1.00  0.00    -0.032 C 
HETATM    5  C14 UNL     1       0.489  50.736 -21.552  1.00  0.00     0.016 C 
HETATM    6  C15 UNL     1      -1.195  51.191 -19.643  1.00  0.00     0.004 C 
HETATM    7  C16 UNL     1       0.051  51.671 -18.873  1.00  0.00     0.007 C 
HETATM    8  C17 UNL     1      -0.126  51.808 -17.359  1.00  0.00     0.007 C 
HETATM    9  C18 UNL     1      -1.285  50.988 -16.765  1.00  0.00     0.008 C 
HETATM   10  C19 UNL     1      -1.106  50.757 -15.249  1.00  0.00     0.083 C 
HETATM   11  C21 UNL     1      -0.054  49.688 -14.990  1.00  0.00     0.133 C 
HETATM   12  O6  UNL     1       0.550  49.622 -13.917  1.00  0.00    -0.297 OA
HETATM   13  C22 UNL     1       0.257  48.711 -16.096  1.00  0.00     0.079 C 
HETATM   14  C23 UNL     1      -0.988  48.432 -16.915  1.00  0.00     0.018 C 
HETATM   15  C24 UNL     1      -1.524  49.698 -17.553  1.00  0.00    -0.027 A 
HETATM   16  C25 UNL     1      -2.862  49.637 -18.237  1.00  0.00     0.021 A 
HETATM   17  C26 UNL     1      -1.619  49.802 -19.096  1.00  0.00    -0.027 A 
HETATM   18  C27 UNL     1      -1.350  48.619 -20.020  1.00  0.00     0.011 C 
HETATM   19  C28 UNL     1      -1.822  48.809 -21.482  1.00  0.00     0.011 C 
HETATM   20  C29 UNL     1      -2.082  50.277 -21.884  1.00  0.00    -0.032 C 
HETATM   21  C30 UNL     1      -3.530  50.647 -21.470  1.00  0.00     0.016 C 
ENDROOT
BRANCH   1  22
HETATM   22  C2  UNL     1      -2.932  50.276 -24.512  1.00  0.00     0.015 C 
HETATM   23  C1  UNL     1      -3.337  48.790 -24.556  1.00  0.00     0.013 C 
BRANCH  22  24
HETATM   24  C3  UNL     1      -2.543  50.795 -25.932  1.00  0.00     0.125 C 
BRANCH  24  25
HETATM   25  O1  UNL     1      -1.833  49.838 -26.699  1.00  0.00    -0.395 OA
HETATM   26  H6  UNL     1      -2.088  48.937 -26.444  1.00  0.00     0.210 HD
ENDBRANCH  24  25
BRANCH  24  27
HETATM   27  C4  UNL     1      -1.769  52.122 -26.014  1.00  0.00     0.075 C 
BRANCH  27  28
HETATM   28  C5  UNL     1      -0.731  52.424 -27.138  1.00  0.00     0.111 C 
BRANCH  28  29
HETATM   29  O2  UNL     1      -1.212  51.581 -28.255  1.00  0.00    -0.384 OA
HETATM   30  H9  UNL     1      -2.018  52.036 -28.575  1.00  0.00     0.210 HD
ENDBRANCH  28  29
BRANCH  28  31
HETATM   31  C6  UNL     1      -0.803  53.870 -27.677  1.00  0.00     0.205 C 
BRANCH  31  32
HETATM   32  O3  UNL     1      -1.998  54.023 -28.453  1.00  0.00    -0.398 OA
HETATM   33  H12 UNL     1      -1.946  54.902 -28.868  1.00  0.00     0.209 HD
ENDBRANCH  31  32
ENDBRANCH  28  31
BRANCH  28  34
HETATM   34  C7  UNL     1       0.761  51.962 -26.928  1.00  0.00     0.084 C 
HETATM   35  C8  UNL     1       1.568  51.869 -28.228  1.00  0.00     0.049 C 
HETATM   36  C9  UNL     1       0.969  50.708 -26.073  1.00  0.00     0.049 C 
BRANCH  34  37
HETATM   37  O4  UNL     1       1.410  53.014 -26.165  1.00  0.00    -0.387 OA
HETATM   38  H19 UNL     1       1.046  53.843 -26.549  1.00  0.00     0.210 HD
ENDBRANCH  34  37
ENDBRANCH  28  34
ENDBRANCH  27  28
ENDBRANCH  24  27
ENDBRANCH  22  24
ENDBRANCH   1  22
BRANCH  10  39
HETATM   39  C20 UNL     1      -2.412  50.341 -14.561  1.00  0.00     0.176 C 
BRANCH  39  40
HETATM   40  O5  UNL     1      -3.487  51.120 -15.079  1.00  0.00    -0.400 OA
HETATM   41  H37 UNL     1      -4.199  51.120 -14.417  1.00  0.00     0.209 HD
ENDBRANCH  39  40
ENDBRANCH  10  39
TORSDOF 12
ENDMDL
