MODEL 1
REMARK minimizedAffinity -9.16107941
REMARK  4 active torsions:
REMARK  status: ('A' for Active; 'I' for Inactive)
REMARK    1  A    between atoms: C4_4  and  C5_5 
REMARK    2  A    between atoms: C5_5  and  C6_7 
REMARK    3  A    between atoms: C6_7  and  C7_8 
REMARK    4  A    between atoms: C7_8  and  C9_10 
ROOT
HETATM    1  C9  UNL     1       0.846   7.475  12.986  1.00  0.00    -0.002 C 
HETATM    2  C10 UNL     1       0.681   6.605  11.703  1.00  0.00     0.006 C 
HETATM    3  C11 UNL     1      -0.822   6.290  11.552  1.00  0.00     0.011 C 
HETATM    4  C12 UNL     1      -1.526   7.267  12.510  1.00  0.00    -0.032 C 
HETATM    5  C13 UNL     1      -1.598   8.636  11.739  1.00  0.00     0.016 C 
HETATM    6  C14 UNL     1      -2.996   6.954  12.951  1.00  0.00     0.004 C 
HETATM    7  C15 UNL     1      -3.511   5.542  12.641  1.00  0.00     0.007 C 
HETATM    8  C16 UNL     1      -4.978   5.313  13.059  1.00  0.00     0.007 C 
HETATM    9  C17 UNL     1      -5.667   6.520  13.745  1.00  0.00     0.010 C 
HETATM   10  C18 UNL     1      -7.081   6.200  14.329  1.00  0.00     0.018 C 
HETATM   11  C19 UNL     1      -8.019   5.682  13.220  1.00  0.00     0.023 C 
HETATM   12  C20 UNL     1      -7.047   5.173  15.471  1.00  0.00     0.023 C 
HETATM   13  C21 UNL     1      -7.697   7.492  14.887  1.00  0.00     0.135 C 
HETATM   14  O2  UNL     1      -8.889   7.568  15.192  1.00  0.00    -0.297 OA
HETATM   15  C22 UNL     1      -6.800   8.698  15.030  1.00  0.00     0.080 C 
HETATM   16  C23 UNL     1      -5.467   8.280  15.624  1.00  0.00     0.018 C 
HETATM   17  C24 UNL     1      -4.769   7.214  14.792  1.00  0.00    -0.026 A 
HETATM   18  C25 UNL     1      -3.717   6.394  15.494  1.00  0.00     0.021 A 
HETATM   19  C26 UNL     1      -3.281   7.371  14.412  1.00  0.00    -0.027 A 
HETATM   20  C27 UNL     1      -2.453   8.551  14.900  1.00  0.00     0.011 C 
HETATM   21  C28 UNL     1      -0.931   8.395  14.699  1.00  0.00     0.011 C 
HETATM   22  C29 UNL     1      -0.521   7.275  13.724  1.00  0.00    -0.032 C 
HETATM   23  C30 UNL     1      -0.487   5.928  14.493  1.00  0.00     0.016 C 
ENDROOT
BRANCH   1  24
HETATM   24  C7  UNL     1       2.240   7.315  13.671  1.00  0.00    -0.007 C 
HETATM   25  C8  UNL     1       2.292   7.386  15.201  1.00  0.00     0.011 C 
BRANCH  24  26
HETATM   26  C6  UNL     1       3.351   8.126  12.955  1.00  0.00     0.087 C 
BRANCH  26  27
HETATM   27  C5  UNL     1       3.932   7.524  11.689  1.00  0.00     0.149 C 
HETATM   28  O1  UNL     1       4.727   6.584  11.729  1.00  0.00    -0.293 OA
BRANCH  27  29
HETATM   29  C4  UNL     1       3.664   8.142  10.358  1.00  0.00     0.052 C 
HETATM   30  C2  UNL     1       3.238   7.602   9.199  1.00  0.00    -0.084 C 
HETATM   31  C1  UNL     1       2.981   6.148   8.918  1.00  0.00     0.043 C 
HETATM   32  C3  UNL     1       3.018   8.493   8.000  1.00  0.00     0.043 C 
ENDBRANCH  27  29
ENDBRANCH  26  27
ENDBRANCH  24  26
ENDBRANCH   1  24
TORSDOF 4
ENDMDL
