MODEL 1
REMARK minimizedAffinity -8.65672493
REMARK CNNscore 0.557453632
REMARK CNNaffinity 7.26077604
REMARK  19 active torsions:
REMARK  status: ('A' for Active; 'I' for Inactive)
REMARK    1  A    between atoms: C19_20  and  O2_21 
REMARK    2  A    between atoms: C19_20  and  C20_22 
REMARK    3  A    between atoms: C20_22  and  C21_24 
REMARK    4  A    between atoms: C21_24  and  O4_25 
REMARK    5  A    between atoms: O4_25  and  C22_26 
REMARK    6  A    between atoms: C22_26  and  C23_28 
REMARK    7  A    between atoms: C23_28  and  C24_29 
REMARK    8  A    between atoms: C24_29  and  C25_30 
REMARK       I    between atoms: C25_30  and  N1_32 
REMARK    9  A    between atoms: N1_32  and  C26_33 
REMARK   10  A    between atoms: C26_33  and  C27_34 
REMARK   11  A    between atoms: C27_34  and  C28_35 
REMARK   12  A    between atoms: C28_35  and  C29_36 
REMARK   13  A    between atoms: C29_36  and  C30_37 
REMARK   14  A    between atoms: C30_37  and  C31_38 
REMARK       I    between atoms: C31_38  and  N2_40 
REMARK   15  A    between atoms: N2_40  and  C32_41 
REMARK   16  A    between atoms: C32_41  and  C33_42 
REMARK   17  A    between atoms: C32_41  and  C40_49 
REMARK   18  A    between atoms: C33_42  and  C34_43 
REMARK   19  A    between atoms: C40_49  and  O9_51 
ROOT
HETATM    1  C22 UNL     1       1.041  53.402 -22.036  1.00  0.00     0.259 C 
HETATM    2  O5  UNL     1       1.419  54.442 -22.563  1.00  0.00    -0.265 OA
ENDROOT
BRANCH   1   3
HETATM    3  O4  UNL     1       0.298  52.455 -22.661  1.00  0.00    -0.314 OA
BRANCH   3   4
HETATM    4  C21 UNL     1      -0.111  52.793 -23.990  1.00  0.00     0.260 C 
BRANCH   4   5
HETATM    5  C20 UNL     1      -1.073  51.721 -24.497  1.00  0.00     0.185 C 
HETATM    6  O3  UNL     1      -1.111  51.402 -25.688  1.00  0.00    -0.292 OA
BRANCH   5   7
HETATM    7  C19 UNL     1      -2.071  51.128 -23.478  1.00  0.00     0.128 C 
HETATM    8  C14 UNL     1      -3.438  50.627 -24.050  1.00  0.00    -0.002 C 
HETATM    9  C13 UNL     1      -3.435  49.218 -24.693  1.00  0.00     0.013 C 
HETATM   10  C15 UNL     1      -4.016  51.676 -25.038  1.00  0.00     0.019 C 
HETATM   11  C16 UNL     1      -4.252  50.534 -22.743  1.00  0.00     0.002 C 
HETATM   12  C12 UNL     1      -4.624  48.315 -24.277  1.00  0.00     0.007 C 
HETATM   13  C11 UNL     1      -5.936  49.107 -24.069  1.00  0.00     0.002 C 
HETATM   14  C2  UNL     1      -7.292  48.281 -24.000  1.00  0.00    -0.016 C 
HETATM   15  C10 UNL     1      -5.739  50.157 -22.918  1.00  0.00    -0.004 C 
HETATM   16  C1  UNL     1      -8.388  49.126 -24.707  1.00  0.00     0.020 C 
HETATM   17  C3  UNL     1      -7.162  46.922 -24.749  1.00  0.00     0.022 C 
HETATM   18  C7  UNL     1      -7.787  48.025 -22.577  1.00  0.00    -0.068 C 
HETATM   19  C4  UNL     1      -8.371  46.011 -24.586  1.00  0.00     0.084 C 
HETATM   20  C5  UNL     1      -8.627  45.766 -23.122  1.00  0.00     0.149 C 
HETATM   21  O1  UNL     1      -9.109  44.717 -22.703  1.00  0.00    -0.293 OA
HETATM   22  C6  UNL     1      -8.351  46.871 -22.176  1.00  0.00     0.053 C 
HETATM   23  C8  UNL     1      -7.684  49.173 -21.615  1.00  0.00     0.035 C 
HETATM   24  C9  UNL     1      -6.258  49.672 -21.553  1.00  0.00     0.010 C 
HETATM   25  C17 UNL     1      -3.948  51.834 -22.010  1.00  0.00     0.009 C 
HETATM   26  C18 UNL     1      -2.498  52.168 -22.402  1.00  0.00     0.047 C 
BRANCH   7  27
HETATM   27  O2  UNL     1      -1.395  50.058 -22.806  1.00  0.00    -0.381 OA
HETATM   28  H27 UNL     1      -0.670  50.447 -22.281  1.00  0.00     0.211 HD
ENDBRANCH   7  27
ENDBRANCH   5   7
ENDBRANCH   4   5
ENDBRANCH   3   4
ENDBRANCH   1   3
BRANCH   1  29
HETATM   29  C23 UNL     1       1.247  53.080 -20.573  1.00  0.00     0.120 C 
BRANCH  29  30
HETATM   30  C24 UNL     1       0.098  52.307 -19.935  1.00  0.00     0.112 C 
BRANCH  30  31
HETATM   31  C25 UNL     1       0.349  52.026 -18.468  1.00  0.00     0.217 C 
HETATM   32  O6  UNL     1      -0.086  51.036 -17.891  1.00  0.00    -0.274 OA
HETATM   33  N1  UNL     1       1.136  52.982 -17.864  1.00  0.00    -0.361 N 
HETATM   34  H34 UNL     1       1.477  53.760 -18.414  1.00  0.00     0.162 HD
BRANCH  33  35
HETATM   35  C26 UNL     1       1.625  52.830 -16.508  1.00  0.00     0.122 C 
BRANCH  35  36
HETATM   36  C27 UNL     1       3.049  52.278 -16.514  1.00  0.00     0.020 C 
BRANCH  36  37
HETATM   37  C28 UNL     1       3.748  52.374 -15.156  1.00  0.00     0.002 C 
BRANCH  37  38
HETATM   38  C29 UNL     1       3.281  51.297 -14.171  1.00  0.00     0.009 C 
BRANCH  38  39
HETATM   39  C30 UNL     1       2.146  51.785 -13.270  1.00  0.00     0.103 C 
BRANCH  39  40
HETATM   40  C31 UNL     1       2.628  52.398 -11.967  1.00  0.00     0.218 C 
HETATM   41  O7  UNL     1       3.508  51.918 -11.263  1.00  0.00    -0.274 OA
HETATM   42  N2  UNL     1       1.962  53.564 -11.647  1.00  0.00    -0.346 N 
HETATM   43  H45 UNL     1       1.041  53.679 -12.056  1.00  0.00     0.163 HD
BRANCH  42  44
HETATM   44  C32 UNL     1       2.160  54.191 -10.331  1.00  0.00     0.186 C 
BRANCH  44  45
HETATM   45  C33 UNL     1       2.994  55.468 -10.478  1.00  0.00     0.074 C 
BRANCH  45  46
HETATM   46  C34 UNL     1       4.245  55.484  -9.634  1.00  0.00    -0.056 A 
HETATM   47  C35 UNL     1       4.309  56.266  -8.471  1.00  0.00     0.007 A 
HETATM   48  C36 UNL     1       5.472  56.293  -7.701  1.00  0.00     0.001 A 
HETATM   49  C37 UNL     1       6.580  55.538  -8.081  1.00  0.00     0.000 A 
HETATM   50  C38 UNL     1       6.526  54.757  -9.234  1.00  0.00     0.001 A 
HETATM   51  C39 UNL     1       5.366  54.729 -10.008  1.00  0.00     0.007 A 
ENDBRANCH  45  46
ENDBRANCH  44  45
BRANCH  44  52
HETATM   52  C40 UNL     1       0.775  54.529  -9.785  1.00  0.00     0.163 C 
HETATM   53  O8  UNL     1       0.464  55.577  -9.233  1.00  0.00    -0.648 OA
BRANCH  52  54
HETATM   54  O9  UNL     1      -0.127  53.544  -9.948  1.00  0.00    -0.775 OA
HETATM   55  H54 UNL     1      -0.960  53.895  -9.575  1.00  0.00     0.167 HD
ENDBRANCH  52  54
ENDBRANCH  44  52
ENDBRANCH  42  44
ENDBRANCH  39  40
ENDBRANCH  38  39
ENDBRANCH  37  38
ENDBRANCH  36  37
ENDBRANCH  35  36
ENDBRANCH  33  35
ENDBRANCH  30  31
ENDBRANCH  29  30
ENDBRANCH   1  29
TORSDOF 19
ENDMDL
