MODEL 1
REMARK minimizedAffinity -10.6249256
REMARK  5 active torsions:
REMARK  status: ('A' for Active; 'I' for Inactive)
REMARK    1  A    between atoms: C2_2  and  C3_3 
REMARK    2  A    between atoms: C20_20  and  O1_21 
REMARK    3  A    between atoms: O1_21  and  C21_22 
REMARK    4  A    between atoms: C21_22  and  C22_24 
REMARK    5  A    between atoms: C22_24  and  C23_25 
ROOT
HETATM    1  C3  UNL     1      -7.934   5.482  14.212  1.00  0.00     0.012 C 
HETATM    2  C4  UNL     1      -9.222   6.174  14.734  1.00  0.00     0.009 C 
HETATM    3  C5  UNL     1      -8.825   7.604  15.136  1.00  0.00     0.010 C 
HETATM    4  C6  UNL     1      -7.304   7.539  15.324  1.00  0.00    -0.039 C 
HETATM    5  C7  UNL     1      -7.008   6.933  16.721  1.00  0.00     0.015 C 
HETATM    6  C8  UNL     1      -6.590   8.889  15.188  1.00  0.00     0.010 C 
HETATM    7  C9  UNL     1      -5.060   8.715  15.110  1.00  0.00     0.011 C 
HETATM    8  C10 UNL     1      -4.566   7.700  14.015  1.00  0.00    -0.032 C 
HETATM    9  C11 UNL     1      -4.847   8.410  12.646  1.00  0.00     0.016 C 
HETATM   10  C12 UNL     1      -5.398   6.354  14.111  1.00  0.00    -0.000 C 
HETATM   11  C13 UNL     1      -4.966   5.353  13.033  1.00  0.00     0.006 C 
HETATM   12  C14 UNL     1      -3.465   5.057  13.059  1.00  0.00     0.006 C 
HETATM   13  C15 UNL     1      -2.579   6.324  13.025  1.00  0.00     0.003 C 
HETATM   14  C16 UNL     1      -1.019   6.041  12.843  1.00  0.00    -0.035 C 
HETATM   15  C17 UNL     1      -0.450   5.168  13.988  1.00  0.00     0.016 C 
HETATM   16  C18 UNL     1      -0.802   5.262  11.509  1.00  0.00     0.012 C 
HETATM   17  C19 UNL     1       0.653   5.183  11.054  1.00  0.00     0.034 C 
HETATM   18  C20 UNL     1       1.311   6.556  10.943  1.00  0.00     0.140 C 
HETATM   19  C26 UNL     1       1.205   7.402  12.250  1.00  0.00    -0.017 C 
HETATM   20  C27 UNL     1       1.683   8.840  11.906  1.00  0.00     0.018 C 
HETATM   21  C28 UNL     1       2.169   6.886  13.338  1.00  0.00     0.018 C 
HETATM   22  C29 UNL     1      -0.304   7.438  12.698  1.00  0.00     0.004 C 
HETATM   23  C30 UNL     1      -0.599   8.344  13.910  1.00  0.00     0.007 C 
HETATM   24  C31 UNL     1      -2.101   8.613  14.052  1.00  0.00     0.011 C 
HETATM   25  C32 UNL     1      -2.984   7.340  14.169  1.00  0.00    -0.032 C 
HETATM   26  C33 UNL     1      -2.713   6.740  15.582  1.00  0.00     0.016 C 
HETATM   27  C34 UNL     1      -6.917   6.640  14.124  1.00  0.00     0.006 C 
ENDROOT
BRANCH  18  28
HETATM   28  O1  UNL     1       2.696   6.319  10.602  1.00  0.00    -0.315 OA
BRANCH  28  29
HETATM   29  C21 UNL     1       3.026   6.282   9.284  1.00  0.00     0.259 C 
HETATM   30  O2  UNL     1       3.205   5.273   8.617  1.00  0.00    -0.265 OA
BRANCH  29  31
HETATM   31  C22 UNL     1       3.179   7.683   8.742  1.00  0.00     0.115 C 
BRANCH  31  32
HETATM   32  C23 UNL     1       2.123   8.043   7.690  1.00  0.00    -0.013 C 
HETATM   33  C24 UNL     1       2.006   6.920   6.659  1.00  0.00     0.010 C 
HETATM   34  C25 UNL     1       0.757   8.298   8.333  1.00  0.00     0.010 C 
ENDBRANCH  31  32
ENDBRANCH  29  31
ENDBRANCH  28  29
ENDBRANCH  18  28
BRANCH   1  35
HETATM   35  C2  UNL     1      -8.201   4.787  12.903  1.00  0.00    -0.032 C 
HETATM   36  C1  UNL     1      -8.118   3.461  12.725  1.00  0.00     0.007 C 
ENDBRANCH   1  35
TORSDOF 5
ENDMDL
