MODEL 1
REMARK minimizedAffinity -9.07746029
REMARK CNNscore 0.489343256
REMARK CNNaffinity 7.36837339
REMARK  12 active torsions:
REMARK  status: ('A' for Active; 'I' for Inactive)
REMARK    1  A    between atoms: O1_2  and  C2_3 
REMARK    2  A    between atoms: C2_3  and  C3_4 
REMARK    3  A    between atoms: C2_3  and  C7_8 
REMARK    4  A    between atoms: C7_8  and  C8_9 
REMARK    5  A    between atoms: C8_9  and  C10_11 
REMARK    6  A    between atoms: C28_30  and  O3_31 
REMARK    7  A    between atoms: O3_31  and  C29_32 
REMARK    8  A    between atoms: C30_34  and  C31_35 
REMARK    9  A    between atoms: C31_35  and  O5_36 
REMARK   10  A    between atoms: C32_37  and  O6_38 
REMARK   11  A    between atoms: C33_39  and  O7_40 
REMARK   12  A    between atoms: C34_41  and  O8_42 
ROOT
HETATM    1  C10 UNL     1      -1.729  50.694 -17.160  1.00  0.00    -0.002 C 
HETATM    2  C11 UNL     1      -0.407  51.265 -17.771  1.00  0.00     0.006 C 
HETATM    3  C12 UNL     1      -0.338  50.799 -19.242  1.00  0.00     0.011 C 
HETATM    4  C13 UNL     1      -1.753  50.276 -19.541  1.00  0.00    -0.029 C 
HETATM    5  C14 UNL     1      -2.612  51.556 -19.826  1.00  0.00     0.016 C 
HETATM    6  C15 UNL     1      -1.866  49.253 -20.718  1.00  0.00     0.028 C 
HETATM    7  C16 UNL     1      -1.426  49.825 -22.047  1.00  0.00    -0.021 C 
HETATM    8  C17 UNL     1      -2.209  49.757 -23.138  1.00  0.00     0.008 C 
HETATM    9  C18 UNL     1      -3.605  49.147 -23.089  1.00  0.00     0.092 C 
HETATM   10  O2  UNL     1      -3.361  47.722 -23.076  1.00  0.00    -0.374 OA
HETATM   11  C19 UNL     1      -3.205  47.305 -21.705  1.00  0.00     0.179 C 
HETATM   12  C20 UNL     1      -3.301  48.564 -20.803  1.00  0.00    -0.004 C 
HETATM   13  C21 UNL     1      -3.802  48.133 -19.400  1.00  0.00     0.014 C 
HETATM   14  C22 UNL     1      -3.566  49.116 -18.239  1.00  0.00     0.011 C 
HETATM   15  C23 UNL     1      -2.096  49.565 -18.172  1.00  0.00    -0.032 C 
HETATM   16  C24 UNL     1      -1.211  48.316 -17.860  1.00  0.00     0.016 C 
HETATM   17  C25 UNL     1      -4.240  49.424 -21.699  1.00  0.00     0.036 C 
HETATM   18  C26 UNL     1      -5.748  49.121 -21.650  1.00  0.00     0.011 C 
HETATM   19  C27 UNL     1      -6.258  48.283 -22.808  1.00  0.00     0.033 C 
HETATM   20  C28 UNL     1      -5.981  48.959 -24.152  1.00  0.00     0.136 C 
HETATM   21  C35 UNL     1      -4.519  49.531 -24.306  1.00  0.00     0.014 C 
HETATM   22  C36 UNL     1      -3.895  49.044 -25.640  1.00  0.00     0.021 C 
HETATM   23  C37 UNL     1      -4.643  51.075 -24.401  1.00  0.00     0.021 C 
ENDROOT
BRANCH  20  24
HETATM   24  O3  UNL     1      -6.286  48.032 -25.202  1.00  0.00    -0.352 OA
BRANCH  24  25
HETATM   25  C29 UNL     1      -7.510  47.322 -25.032  1.00  0.00     0.292 C 
HETATM   26  O4  UNL     1      -7.776  46.513 -26.179  1.00  0.00    -0.348 OA
HETATM   27  C30 UNL     1      -7.853  47.243 -27.417  1.00  0.00     0.179 C 
HETATM   28  C32 UNL     1      -8.276  48.717 -27.250  1.00  0.00     0.180 C 
HETATM   29  C33 UNL     1      -9.292  48.798 -26.116  1.00  0.00     0.183 C 
HETATM   30  C34 UNL     1      -8.667  48.324 -24.794  1.00  0.00     0.204 C 
BRANCH  27  31
HETATM   31  C31 UNL     1      -6.546  47.130 -28.215  1.00  0.00     0.198 C 
BRANCH  31  32
HETATM   32  O5  UNL     1      -5.935  48.403 -28.409  1.00  0.00    -0.398 OA
HETATM   33  H48 UNL     1      -6.024  48.905 -27.570  1.00  0.00     0.209 HD
ENDBRANCH  31  32
ENDBRANCH  27  31
BRANCH  28  34
HETATM   34  O6  UNL     1      -8.841  49.220 -28.468  1.00  0.00    -0.390 OA
HETATM   35  H50 UNL     1      -9.309  50.040 -28.207  1.00  0.00     0.210 HD
ENDBRANCH  28  34
BRANCH  29  36
HETATM   36  O7  UNL     1      -9.769  50.148 -25.996  1.00  0.00    -0.390 OA
HETATM   37  H52 UNL     1     -10.333  50.169 -25.198  1.00  0.00     0.210 HD
ENDBRANCH  29  36
BRANCH  30  38
HETATM   38  O8  UNL     1      -9.716  47.739 -24.000  1.00  0.00    -0.388 OA
HETATM   39  H54 UNL     1      -9.957  46.891 -24.420  1.00  0.00     0.210 HD
ENDBRANCH  30  38
ENDBRANCH  24  25
ENDBRANCH  20  24
BRANCH   1  40
HETATM   40  C8  UNL     1      -1.583  50.384 -15.645  1.00  0.00    -0.011 C 
HETATM   41  C9  UNL     1      -2.425  51.296 -14.750  1.00  0.00     0.010 C 
BRANCH  40  42
HETATM   42  C7  UNL     1      -0.104  50.369 -15.161  1.00  0.00     0.040 C 
BRANCH  42  43
HETATM   43  C2  UNL     1       0.455  51.621 -14.446  1.00  0.00     0.144 C 
BRANCH  43  44
HETATM   44  O1  UNL     1       0.933  51.163 -13.168  1.00  0.00    -0.387 OA
HETATM   45  C1  UNL     1       0.464  49.862 -12.833  1.00  0.00     0.202 C 
ENDBRANCH  43  44
BRANCH  43  46
HETATM   46  C3  UNL     1       1.616  52.242 -15.173  1.00  0.00     0.007 C 
HETATM   47  C4  UNL     1       2.919  51.894 -15.124  1.00  0.00    -0.089 C 
HETATM   48  C5  UNL     1       3.485  50.749 -14.331  1.00  0.00     0.042 C 
HETATM   49  C6  UNL     1       3.948  52.685 -15.887  1.00  0.00     0.042 C 
ENDBRANCH  43  46
ENDBRANCH  42  43
ENDBRANCH  40  42
ENDBRANCH   1  40
TORSDOF 12
ENDMDL
