MODEL 1
REMARK minimizedAffinity -6.84705162
REMARK CNNscore 0.526900768
REMARK CNNaffinity 6.59416819
REMARK  10 active torsions:
REMARK  status: ('A' for Active; 'I' for Inactive)
REMARK    1  A    between atoms: C2_2  and  N1_3 
REMARK    2  A    between atoms: N1_3  and  C3_4 
REMARK    3  A    between atoms: C3_4  and  C4_5 
REMARK    4  A    between atoms: C4_5  and  C5_6 
REMARK    5  A    between atoms: C8_9  and  C9_10 
REMARK    6  A    between atoms: C13_14  and  C14_15 
REMARK    7  A    between atoms: C14_15  and  O1_16 
REMARK    8  A    between atoms: C23_27  and  O4_28 
REMARK    9  A    between atoms: C28_33  and  C29_34 
REMARK   10  A    between atoms: C29_34  and  O5_35 
ROOT
HETATM    1  C5  UNL     1       0.720   9.786  17.226  1.00  0.00    -0.012 C 
HETATM    2  C6  UNL     1       0.186  10.931  17.717  1.00  0.00     0.015 C 
HETATM    3  C7  UNL     1       0.499  11.321  19.157  1.00  0.00     0.066 C 
HETATM    4  C8  UNL     1       1.969  11.758  19.409  1.00  0.00     0.102 C 
HETATM    5  C16 UNL     1       2.165  13.194  19.114  1.00  0.00    -0.096 C 
HETATM    6  C17 UNL     1       2.258  14.369  18.877  1.00  0.00    -0.096 C 
HETATM    7  C18 UNL     1       2.202  15.809  18.538  1.00  0.00     0.110 C 
HETATM    8  C19 UNL     1       2.410  16.634  19.799  1.00  0.00     0.133 C 
HETATM    9  C20 UNL     1       2.254  18.100  19.508  1.00  0.00     0.265 C 
HETATM   10  O2  UNL     1       3.001  18.951  19.976  1.00  0.00    -0.265 OA
HETATM   11  O3  UNL     1       1.138  18.449  18.760  1.00  0.00    -0.278 OA
HETATM   12  C21 UNL     1       0.377  17.466  18.105  1.00  0.00     0.089 A 
HETATM   13  C22 UNL     1      -0.866  17.847  17.601  1.00  0.00     0.075 A 
HETATM   14  C23 UNL     1      -1.651  16.899  16.944  1.00  0.00     0.074 A 
HETATM   15  C24 UNL     1      -1.195  15.590  16.761  1.00  0.00    -0.022 A 
HETATM   16  C25 UNL     1       0.092  15.267  17.209  1.00  0.00     0.021 A 
HETATM   17  C26 UNL     1       0.868  16.177  17.938  1.00  0.00    -0.007 A 
HETATM   18  C27 UNL     1      -2.034  14.506  16.128  1.00  0.00     0.077 C 
HETATM   19  C28 UNL     1      -2.536  13.368  17.069  1.00  0.00     0.171 C 
HETATM   20  O7  UNL     1      -1.433  12.641  17.677  1.00  0.00    -0.309 OA
HETATM   21  C39 UNL     1      -0.800  11.721  16.908  1.00  0.00     0.289 C 
HETATM   22  O8  UNL     1      -1.056  11.525  15.729  1.00  0.00    -0.260 OA
ENDROOT
BRANCH  19  23
HETATM   23  C29 UNL     1      -3.573  13.781  18.183  1.00  0.00     0.089 C 
HETATM   24  C30 UNL     1      -4.055  12.574  19.022  1.00  0.00     0.041 C 
HETATM   25  C31 UNL     1      -5.071  12.960  20.100  1.00  0.00     0.004 C 
HETATM   26  C32 UNL     1      -6.265  13.706  19.518  1.00  0.00     0.005 C 
HETATM   27  C33 UNL     1      -5.819  14.929  18.701  1.00  0.00    -0.001 C 
HETATM   28  C34 UNL     1      -7.027  15.696  18.157  1.00  0.00     0.083 C 
HETATM   29  C38 UNL     1      -4.813  14.539  17.580  1.00  0.00     0.027 C 
HETATM   30  C35 UNL     1      -7.659  14.970  16.996  1.00  0.00     0.127 C 
HETATM   31  O6  UNL     1      -8.876  14.812  16.916  1.00  0.00    -0.298 OA
HETATM   32  C36 UNL     1      -6.731  14.561  15.883  1.00  0.00     0.079 C 
HETATM   33  C37 UNL     1      -5.524  13.803  16.423  1.00  0.00     0.015 C 
BRANCH  23  34
HETATM   34  O5  UNL     1      -2.961  14.711  19.094  1.00  0.00    -0.387 OA
HETATM   35  H31 UNL     1      -2.524  15.414  18.584  1.00  0.00     0.210 HD
ENDBRANCH  23  34
ENDBRANCH  19  23
BRANCH  14  36
HETATM   36  O4  UNL     1      -2.882  17.245  16.464  1.00  0.00    -0.360 OA
HETATM   37  H26 UNL     1      -3.117  18.120  16.813  1.00  0.00     0.217 HD
ENDBRANCH  14  36
BRANCH   1  38
HETATM   38  C4  UNL     1       0.539   9.164  15.861  1.00  0.00     0.058 C 
BRANCH  38  39
HETATM   39  C3  UNL     1       1.728   8.254  15.492  1.00  0.00     0.273 C 
BRANCH  39  40
HETATM   40  N1  UNL     1       1.355   6.872  15.172  1.00  0.00     0.083 N 
HETATM   41  H6  UNL     1       0.426   6.694  15.551  1.00  0.00     0.315 HD
BRANCH  40  42
HETATM   42  C2  UNL     1       1.339   6.611  13.732  1.00  0.00     0.265 C 
HETATM   43  C1  UNL     1       0.390   5.460  13.426  1.00  0.00     0.037 C 
ENDBRANCH  40  42
ENDBRANCH  39  40
ENDBRANCH  38  39
ENDBRANCH   1  38
BRANCH   4  44
HETATM   44  C9  UNL     1       2.401  11.459  20.840  1.00  0.00    -0.042 A 
HETATM   45  C10 UNL     1       2.884  12.466  21.692  1.00  0.00     0.008 A 
HETATM   46  C11 UNL     1       3.267  12.167  23.000  1.00  0.00     0.001 A 
HETATM   47  C12 UNL     1       3.188  10.857  23.472  1.00  0.00     0.009 A 
HETATM   48  C13 UNL     1       2.725   9.830  22.641  1.00  0.00    -0.034 A 
HETATM   49  C15 UNL     1       2.335  10.143  21.329  1.00  0.00     0.017 A 
BRANCH  48  50
HETATM   50  C14 UNL     1       2.663   8.408  23.127  1.00  0.00     0.202 C 
BRANCH  50  51
HETATM   51  O1  UNL     1       1.772   7.669  22.303  1.00  0.00    -0.396 OA
HETATM   52  H20 UNL     1       1.840   6.739  22.583  1.00  0.00     0.209 HD
ENDBRANCH  50  51
ENDBRANCH  48  50
ENDBRANCH   4  44
TORSDOF 10
ENDMDL
