MODEL 1
REMARK minimizedAffinity -6.54186153
REMARK CNNscore 0.415439188
REMARK CNNaffinity 5.61705971
REMARK  4 active torsions:
REMARK  status: ('A' for Active; 'I' for Inactive)
REMARK    1  A    between atoms: C4_4  and  C5_5 
REMARK    2  A    between atoms: C5_5  and  C6_6 
REMARK    3  A    between atoms: C6_6  and  C7_7 
REMARK    4  A    between atoms: C7_7  and  C9_9 
ROOT
HETATM    1  C9  UNL     1      -0.205  10.653  17.592  1.00  0.00    -0.002 C 
HETATM    2  C10 UNL     1       0.418  11.361  16.359  1.00  0.00     0.006 C 
HETATM    3  C11 UNL     1       1.633  12.164  16.849  1.00  0.00     0.011 C 
HETATM    4  C12 UNL     1       1.869  11.703  18.301  1.00  0.00    -0.032 C 
HETATM    5  C13 UNL     1       2.753  10.417  18.232  1.00  0.00     0.016 C 
HETATM    6  C14 UNL     1       2.541  12.769  19.207  1.00  0.00     0.004 C 
HETATM    7  C15 UNL     1       3.968  13.141  18.760  1.00  0.00     0.007 C 
HETATM    8  C16 UNL     1       5.070  12.825  19.765  1.00  0.00     0.007 C 
HETATM    9  C17 UNL     1       4.769  13.536  21.096  1.00  0.00     0.010 C 
HETATM   10  C18 UNL     1       5.982  13.624  22.077  1.00  0.00     0.018 C 
HETATM   11  C19 UNL     1       5.726  14.707  23.148  1.00  0.00     0.023 C 
HETATM   12  C20 UNL     1       7.285  14.023  21.350  1.00  0.00     0.023 C 
HETATM   13  C21 UNL     1       6.227  12.289  22.790  1.00  0.00     0.135 C 
HETATM   14  O1  UNL     1       7.327  11.997  23.267  1.00  0.00    -0.297 OA
HETATM   15  C22 UNL     1       5.082  11.313  22.892  1.00  0.00     0.080 C 
HETATM   16  C23 UNL     1       3.768  12.060  22.968  1.00  0.00     0.018 C 
HETATM   17  C24 UNL     1       3.519  12.867  21.702  1.00  0.00    -0.026 A 
HETATM   18  C25 UNL     1       2.222  13.634  21.638  1.00  0.00     0.021 A 
HETATM   19  C26 UNL     1       2.388  12.437  20.718  1.00  0.00    -0.027 A 
HETATM   20  C27 UNL     1       1.566  11.187  21.082  1.00  0.00     0.011 C 
HETATM   21  C28 UNL     1       0.458  10.715  20.127  1.00  0.00     0.011 C 
HETATM   22  C29 UNL     1       0.396  11.456  18.791  1.00  0.00    -0.032 C 
HETATM   23  C30 UNL     1      -0.428  12.760  19.009  1.00  0.00     0.016 C 
ENDROOT
BRANCH   1  24
HETATM   24  C7  UNL     1      -1.746  10.491  17.462  1.00  0.00    -0.014 C 
HETATM   25  C8  UNL     1      -2.486  10.860  18.753  1.00  0.00     0.010 C 
BRANCH  24  26
HETATM   26  C6  UNL     1      -2.171   9.071  17.002  1.00  0.00     0.008 C 
BRANCH  26  27
HETATM   27  C5  UNL     1      -1.693   8.664  15.603  1.00  0.00     0.028 C 
BRANCH  27  28
HETATM   28  C4  UNL     1      -2.705   7.780  14.927  1.00  0.00    -0.025 C 
HETATM   29  C2  UNL     1      -2.783   7.469  13.618  1.00  0.00    -0.091 C 
HETATM   30  C1  UNL     1      -3.890   6.587  13.102  1.00  0.00     0.042 C 
HETATM   31  C3  UNL     1      -1.815   7.927  12.561  1.00  0.00     0.042 C 
ENDBRANCH  27  28
ENDBRANCH  26  27
ENDBRANCH  24  26
ENDBRANCH   1  24
TORSDOF 4
ENDMDL
