MODEL 1
REMARK minimizedAffinity -5.52145958
REMARK CNNscore 0.61929208
REMARK CNNaffinity 6.18671751
REMARK  6 active torsions:
REMARK  status: ('A' for Active; 'I' for Inactive)
REMARK    1  A    between atoms: C2_2  and  C4_4 
REMARK    2  A    between atoms: C11_11  and  C12_12 
REMARK    3  A    between atoms: C12_12  and  O2_14 
REMARK    4  A    between atoms: C21_23  and  O3_24 
REMARK    5  A    between atoms: C22_25  and  C24_27 
REMARK    6  A    between atoms: C24_27  and  O4_28 
ROOT
HETATM    1  C4  UNL     1     -18.765  -3.683  15.602  1.00  0.00     0.018 C 
HETATM    2  C5  UNL     1     -18.086  -5.021  16.013  1.00  0.00     0.010 C 
HETATM    3  C6  UNL     1     -16.585  -4.725  16.177  1.00  0.00     0.010 C 
HETATM    4  C7  UNL     1     -16.358  -3.450  15.354  1.00  0.00    -0.039 C 
HETATM    5  C8  UNL     1     -16.252  -3.849  13.858  1.00  0.00     0.015 C 
HETATM    6  C9  UNL     1     -15.122  -2.642  15.759  1.00  0.00     0.011 C 
HETATM    7  C10 UNL     1     -15.131  -1.228  15.134  1.00  0.00     0.022 C 
HETATM    8  C11 UNL     1     -16.455  -0.401  15.380  1.00  0.00     0.057 C 
HETATM    9  C13 UNL     1     -17.682  -1.310  14.974  1.00  0.00     0.011 C 
HETATM   10  C14 UNL     1     -19.030  -0.591  15.030  1.00  0.00     0.007 C 
HETATM   11  C15 UNL     1     -19.025   0.722  14.252  1.00  0.00     0.006 C 
HETATM   12  C16 UNL     1     -17.877   1.677  14.653  1.00  0.00     0.003 C 
HETATM   13  C17 UNL     1     -18.010   3.150  14.010  1.00  0.00    -0.035 C 
HETATM   14  C18 UNL     1     -18.590   3.068  12.574  1.00  0.00     0.016 C 
HETATM   15  C19 UNL     1     -19.057   3.910  14.890  1.00  0.00     0.012 C 
HETATM   16  C20 UNL     1     -19.141   5.408  14.642  1.00  0.00     0.033 C 
HETATM   17  C21 UNL     1     -17.786   6.062  14.873  1.00  0.00     0.128 C 
HETATM   18  C22 UNL     1     -16.688   5.515  13.929  1.00  0.00     0.007 C 
HETATM   19  C23 UNL     1     -16.946   5.957  12.459  1.00  0.00     0.020 C 
HETATM   20  C25 UNL     1     -16.621   3.920  14.022  1.00  0.00     0.007 C 
HETATM   21  C26 UNL     1     -15.794   3.409  15.218  1.00  0.00     0.007 C 
HETATM   22  C27 UNL     1     -15.368   1.949  15.059  1.00  0.00     0.011 C 
HETATM   23  C28 UNL     1     -16.470   0.981  14.537  1.00  0.00    -0.022 C 
HETATM   24  C29 UNL     1     -16.145   0.694  13.041  1.00  0.00     0.017 C 
HETATM   25  C30 UNL     1     -17.627  -2.648  15.745  1.00  0.00     0.007 C 
ENDROOT
BRANCH   8  26
HETATM   26  C12 UNL     1     -16.452  -0.101  16.909  1.00  0.00     0.149 C 
HETATM   27  O1  UNL     1     -15.489   0.248  17.577  1.00  0.00    -0.649 OA
BRANCH  26  28
HETATM   28  O2  UNL     1     -17.628  -0.224  17.534  1.00  0.00    -0.776 OA
HETATM   29  H18 UNL     1     -17.427   0.015  18.463  1.00  0.00     0.167 HD
ENDBRANCH  26  28
ENDBRANCH   8  26
BRANCH   1  30
HETATM   30  C2  UNL     1     -20.060  -3.489  16.378  1.00  0.00    -0.089 C 
HETATM   31  C1  UNL     1     -21.294  -3.568  15.852  1.00  0.00     0.014 C 
HETATM   32  C3  UNL     1     -19.882  -3.166  17.838  1.00  0.00     0.043 C 
ENDBRANCH   1  30
BRANCH  18  33
HETATM   33  C24 UNL     1     -15.322   6.191  14.273  1.00  0.00     0.176 C 
BRANCH  33  34
HETATM   34  O4  UNL     1     -15.338   6.839  15.542  1.00  0.00    -0.400 OA
HETATM   35  H39 UNL     1     -14.420   7.104  15.735  1.00  0.00     0.209 HD
ENDBRANCH  33  34
ENDBRANCH  18  33
BRANCH  17  36
HETATM   36  O3  UNL     1     -17.944   7.473  14.710  1.00  0.00    -0.395 OA
HETATM   37  H33 UNL     1     -17.233   7.884  15.233  1.00  0.00     0.210 HD
ENDBRANCH  17  36
TORSDOF 6
ENDMDL
