MODEL 1
REMARK minimizedAffinity -8.39913654
REMARK CNNscore 0.355984718
REMARK CNNaffinity 7.02409935
REMARK  10 active torsions:
REMARK  status: ('A' for Active; 'I' for Inactive)
REMARK    1  A    between atoms: O1_2  and  C2_3 
REMARK    2  A    between atoms: C2_3  and  C3_5 
REMARK    3  A    between atoms: C3_5  and  C4_6 
REMARK    4  A    between atoms: C3_5  and  N1_13 
REMARK    5  A    between atoms: C4_6  and  C5_7 
REMARK       I    between atoms: N1_13  and  C11_14 
REMARK    6  A    between atoms: C11_14  and  C12_16 
REMARK    7  A    between atoms: C12_16  and  O4_17 
REMARK    8  A    between atoms: O4_17  and  N2_18 
REMARK    9  A    between atoms: C27_34  and  O5_35 
REMARK   10  A    between atoms: C27_34  and  C28_36 
ROOT
HETATM    1  N2  UNL     1      -4.281   7.065  13.889  1.00  0.00    -0.271 N 
ATOM      2  H2  UNL     1      -3.711   7.877  14.128  1.00  0.00     0.194 HD
HETATM    3  C13 UNL     1      -5.573   7.008  14.050  1.00  0.00     0.032 C 
HETATM    4  C14 UNL     1      -6.238   8.179  14.673  1.00  0.00     0.030 C 
HETATM    5  C15 UNL     1      -7.556   8.195  14.937  1.00  0.00    -0.069 C 
HETATM    6  C16 UNL     1      -8.139   9.349  15.716  1.00  0.00     0.035 C 
HETATM    7  C17 UNL     1      -9.384   9.921  15.053  1.00  0.00     0.010 C 
HETATM    8  C18 UNL     1     -10.436   8.830  14.828  1.00  0.00    -0.004 C 
HETATM    9  C19 UNL     1      -9.844   7.698  13.934  1.00  0.00     0.002 C 
HETATM   10  C20 UNL     1     -10.920   6.644  13.559  1.00  0.00     0.007 C 
HETATM   11  C21 UNL     1     -12.220   7.259  13.008  1.00  0.00     0.013 C 
HETATM   12  C22 UNL     1     -12.805   8.329  13.948  1.00  0.00    -0.002 C 
HETATM   13  C23 UNL     1     -13.271   7.669  15.275  1.00  0.00     0.019 C 
HETATM   14  C24 UNL     1     -11.694   9.392  14.154  1.00  0.00     0.002 C 
HETATM   15  C25 UNL     1     -12.420  10.546  14.833  1.00  0.00     0.009 C 
HETATM   16  C26 UNL     1     -13.834  10.525  14.224  1.00  0.00     0.047 C 
HETATM   17  C27 UNL     1     -13.936   9.232  13.366  1.00  0.00     0.125 C 
HETATM   18  C30 UNL     1      -8.520   7.076  14.526  1.00  0.00    -0.016 C 
HETATM   19  C31 UNL     1      -8.800   6.205  15.771  1.00  0.00     0.020 C 
HETATM   20  C32 UNL     1      -7.859   6.200  13.424  1.00  0.00     0.020 C 
HETATM   21  C33 UNL     1      -6.421   5.799  13.727  1.00  0.00     0.060 C 
ENDROOT
BRANCH   1  22
HETATM   22  O4  UNL     1      -3.767   5.876  13.350  1.00  0.00    -0.271 OA
BRANCH  22  23
HETATM   23  C12 UNL     1      -2.681   5.448  14.163  1.00  0.00     0.303 C 
BRANCH  23  24
HETATM   24  C11 UNL     1      -1.495   6.365  13.911  1.00  0.00     0.244 C 
HETATM   25  N1  UNL     1      -1.694   7.290  12.909  1.00  0.00    -0.345 N 
HETATM   26  H12 UNL     1      -2.519   7.221  12.317  1.00  0.00     0.163 HD
HETATM   27  O3  UNL     1      -0.451   6.301  14.557  1.00  0.00    -0.271 OA
BRANCH  25  28
HETATM   28  C3  UNL     1      -0.644   8.234  12.515  1.00  0.00     0.188 C 
BRANCH  28  29
HETATM   29  C2  UNL     1      -0.744   9.442  13.446  1.00  0.00     0.281 C 
HETATM   30  O2  UNL     1      -1.605  10.311  13.349  1.00  0.00    -0.263 OA
BRANCH  29  31
HETATM   31  O1  UNL     1       0.240   9.415  14.386  1.00  0.00    -0.325 OA
HETATM   32  C1  UNL     1       1.551   9.657  13.875  1.00  0.00     0.213 C 
ENDBRANCH  29  31
ENDBRANCH  28  29
BRANCH  28  33
HETATM   33  C4  UNL     1      -0.822   8.674  11.055  1.00  0.00     0.074 C 
BRANCH  33  34
HETATM   34  C5  UNL     1       0.329   8.268  10.166  1.00  0.00    -0.056 A 
HETATM   35  C6  UNL     1       0.217   8.386   8.774  1.00  0.00     0.007 A 
HETATM   36  C7  UNL     1       1.270   7.998   7.944  1.00  0.00     0.001 A 
HETATM   37  C8  UNL     1       2.444   7.494   8.499  1.00  0.00     0.000 A 
HETATM   38  C9  UNL     1       2.567   7.376   9.882  1.00  0.00     0.001 A 
HETATM   39  C10 UNL     1       1.514   7.760  10.714  1.00  0.00     0.007 A 
ENDBRANCH  33  34
ENDBRANCH  28  33
ENDBRANCH  25  28
ENDBRANCH  23  24
ENDBRANCH  22  23
ENDBRANCH   1  22
BRANCH  17  40
HETATM   40  O5  UNL     1     -13.637   9.583  12.008  1.00  0.00    -0.381 OA
HETATM   41  H34 UNL     1     -14.241  10.305  11.750  1.00  0.00     0.211 HD
ENDBRANCH  17  40
BRANCH  17  42
HETATM   42  C28 UNL     1     -15.355   8.618  13.391  1.00  0.00     0.158 C 
HETATM   43  C29 UNL     1     -15.684   7.564  12.363  1.00  0.00     0.094 C 
HETATM   44  O6  UNL     1     -16.209   8.963  14.212  1.00  0.00    -0.295 OA
ENDBRANCH  17  42
TORSDOF 10
ENDMDL
