MODEL 1
REMARK minimizedAffinity -9.20701885
REMARK CNNscore 0.695907414
REMARK CNNaffinity 7.09088135
REMARK  13 active torsions:
REMARK  status: ('A' for Active; 'I' for Inactive)
REMARK    1  A    between atoms: O1_2  and  C2_3 
REMARK    2  A    between atoms: C2_3  and  C3_5 
REMARK    3  A    between atoms: C3_5  and  C4_6 
REMARK    4  A    between atoms: C3_5  and  N2_16 
REMARK    5  A    between atoms: C4_6  and  C5_7 
REMARK       I    between atoms: N2_16  and  C13_17 
REMARK    6  A    between atoms: C13_17  and  C14_19 
REMARK    7  A    between atoms: C14_19  and  C15_20 
REMARK    8  A    between atoms: C15_20  and  C16_21 
REMARK    9  A    between atoms: C16_21  and  O5_23 
REMARK   10  A    between atoms: O5_23  and  C17_24 
REMARK   11  A    between atoms: C17_24  and  C18_25 
REMARK   12  A    between atoms: C18_25  and  C19_27 
REMARK   13  A    between atoms: C19_27  and  O7_28 
ROOT
HETATM    1  O5  UNL     1      -7.360  46.677 -28.596  1.00  0.00    -0.314 OA
ENDROOT
BRANCH   1   2
HETATM    2  C16 UNL     1      -6.394  47.512 -29.072  1.00  0.00     0.259 C 
HETATM    3  O4  UNL     1      -6.345  47.945 -30.211  1.00  0.00    -0.265 OA
BRANCH   2   4
HETATM    4  C15 UNL     1      -5.372  47.799 -28.003  1.00  0.00     0.120 C 
BRANCH   4   5
HETATM    5  C14 UNL     1      -4.408  48.894 -28.435  1.00  0.00     0.112 C 
BRANCH   5   6
HETATM    6  C13 UNL     1      -3.462  49.240 -27.305  1.00  0.00     0.218 C 
HETATM    7  N2  UNL     1      -3.418  50.579 -26.995  1.00  0.00    -0.347 N 
HETATM    8  H13 UNL     1      -3.692  51.231 -27.719  1.00  0.00     0.163 HD
HETATM    9  O3  UNL     1      -2.803  48.388 -26.720  1.00  0.00    -0.274 OA
BRANCH   7  10
HETATM   10  C3  UNL     1      -2.411  51.065 -26.042  1.00  0.00     0.188 C 
BRANCH  10  11
HETATM   11  C2  UNL     1      -1.738  52.293 -26.658  1.00  0.00     0.281 C 
HETATM   12  O2  UNL     1      -2.337  53.175 -27.266  1.00  0.00    -0.263 OA
BRANCH  11  13
HETATM   13  O1  UNL     1      -0.403  52.294 -26.389  1.00  0.00    -0.325 OA
HETATM   14  C1  UNL     1       0.103  53.549 -25.932  1.00  0.00     0.213 C 
ENDBRANCH  11  13
ENDBRANCH  10  11
BRANCH  10  15
HETATM   15  C4  UNL     1      -3.029  51.494 -24.706  1.00  0.00     0.076 C 
BRANCH  15  16
HETATM   16  C5  UNL     1      -2.165  51.189 -23.520  1.00  0.00    -0.028 A 
HETATM   17  C6  UNL     1      -1.318  52.074 -22.877  1.00  0.00     0.096 A 
HETATM   18  N1  UNL     1      -0.705  51.410 -21.849  1.00  0.00    -0.365 N 
HETATM   19  C7  UNL     1      -1.130  50.103 -21.803  1.00  0.00     0.042 A 
HETATM   20  H8  UNL     1      -0.032  51.814 -21.213  1.00  0.00     0.165 HD
HETATM   21  C8  UNL     1      -0.775  49.071 -20.926  1.00  0.00     0.030 A 
HETATM   22  C12 UNL     1      -2.045  49.931 -22.843  1.00  0.00    -0.002 A 
HETATM   23  C9  UNL     1      -1.375  47.824 -21.115  1.00  0.00     0.002 A 
HETATM   24  C10 UNL     1      -2.289  47.618 -22.146  1.00  0.00     0.001 A 
HETATM   25  C11 UNL     1      -2.630  48.660 -23.017  1.00  0.00     0.014 A 
ENDBRANCH  15  16
ENDBRANCH  10  15
ENDBRANCH   7  10
ENDBRANCH   5   6
ENDBRANCH   4   5
ENDBRANCH   2   4
ENDBRANCH   1   2
BRANCH   1  26
HETATM   26  C17 UNL     1      -8.615  46.820 -29.261  1.00  0.00     0.260 C 
BRANCH  26  27
HETATM   27  C18 UNL     1      -9.602  47.459 -28.297  1.00  0.00     0.185 C 
HETATM   28  O6  UNL     1      -9.200  48.108 -27.326  1.00  0.00    -0.292 OA
BRANCH  27  29
HETATM   29  C19 UNL     1     -11.110  47.266 -28.591  1.00  0.00     0.128 C 
HETATM   30  C20 UNL     1     -11.363  46.408 -29.865  1.00  0.00     0.047 C 
HETATM   31  C21 UNL     1     -12.604  45.543 -29.577  1.00  0.00     0.009 C 
HETATM   32  C22 UNL     1     -13.153  46.087 -28.264  1.00  0.00     0.002 C 
HETATM   33  C23 UNL     1     -14.119  45.210 -27.456  1.00  0.00    -0.004 C 
HETATM   34  C36 UNL     1     -11.877  46.482 -27.479  1.00  0.00    -0.002 C 
HETATM   35  C24 UNL     1     -15.329  44.769 -28.304  1.00  0.00     0.010 C 
HETATM   36  C33 UNL     1     -14.565  46.004 -26.178  1.00  0.00     0.002 C 
HETATM   37  C25 UNL     1     -16.387  44.028 -27.483  1.00  0.00     0.035 C 
HETATM   38  C26 UNL     1     -16.757  44.869 -26.287  1.00  0.00    -0.068 C 
HETATM   39  C27 UNL     1     -17.988  45.401 -26.195  1.00  0.00     0.053 C 
HETATM   40  C31 UNL     1     -15.605  45.192 -25.327  1.00  0.00    -0.016 C 
HETATM   41  C28 UNL     1     -18.296  46.462 -25.205  1.00  0.00     0.149 C 
HETATM   42  O8  UNL     1     -19.446  46.886 -25.108  1.00  0.00    -0.293 OA
HETATM   43  C29 UNL     1     -17.145  47.058 -24.437  1.00  0.00     0.084 C 
HETATM   44  C30 UNL     1     -16.144  45.969 -24.090  1.00  0.00     0.022 C 
HETATM   45  C32 UNL     1     -14.992  43.890 -24.752  1.00  0.00     0.020 C 
HETATM   46  C34 UNL     1     -13.343  46.520 -25.381  1.00  0.00     0.007 C 
HETATM   47  C35 UNL     1     -12.331  47.291 -26.251  1.00  0.00     0.013 C 
HETATM   48  C37 UNL     1     -11.045  45.260 -27.006  1.00  0.00     0.019 C 
BRANCH  29  49
HETATM   49  O7  UNL     1     -11.736  48.535 -28.803  1.00  0.00    -0.381 OA
HETATM   50  H20 UNL     1     -11.353  48.927 -29.610  1.00  0.00     0.211 HD
ENDBRANCH  29  49
ENDBRANCH  27  29
ENDBRANCH  26  27
ENDBRANCH   1  26
TORSDOF 13
ENDMDL
