MODEL 1
REMARK minimizedAffinity -8.38418674
REMARK CNNscore 0.594326079
REMARK CNNaffinity 6.31259727
REMARK  11 active torsions:
REMARK  status: ('A' for Active; 'I' for Inactive)
REMARK    1  A    between atoms: O1_2  and  C2_3 
REMARK    2  A    between atoms: C4_5  and  O2_6 
REMARK    3  A    between atoms: O2_6  and  C5_7 
REMARK    4  A    between atoms: C8_10  and  C9_11 
REMARK    5  A    between atoms: N1_12  and  C10_14 
REMARK    6  A    between atoms: C10_14  and  C11_15 
REMARK    7  A    between atoms: C11_15  and  O3_16 
REMARK    8  A    between atoms: C17_22  and  C18_23 
REMARK    9  A    between atoms: C24_31  and  O6_32 
REMARK   10  A    between atoms: C28_36  and  O7_37 
REMARK   11  A    between atoms: C32_42  and  O9_43 
ROOT
HETATM    1  C5  UNL     1      -7.609  47.707 -25.306  1.00  0.00     0.127 C 
HETATM    2  C6  UNL     1      -8.460  48.822 -25.938  1.00  0.00     0.033 C 
HETATM    3  C7  UNL     1      -9.920  48.418 -26.156  1.00  0.00     0.021 C 
HETATM    4  C8  UNL     1     -10.132  47.082 -26.955  1.00  0.00     0.026 C 
HETATM    5  C12 UNL     1     -11.511  46.464 -26.464  1.00  0.00     0.009 C 
HETATM    6  C13 UNL     1     -12.737  47.332 -26.849  1.00  0.00     0.007 C 
HETATM    7  C14 UNL     1     -14.063  46.756 -26.353  1.00  0.00     0.013 C 
HETATM    8  C15 UNL     1     -14.294  45.298 -26.813  1.00  0.00    -0.005 C 
HETATM    9  C16 UNL     1     -14.575  45.267 -28.338  1.00  0.00     0.019 C 
HETATM   10  C17 UNL     1     -15.445  44.605 -26.002  1.00  0.00     0.028 C 
HETATM   11  C22 UNL     1     -14.772  44.218 -24.659  1.00  0.00     0.013 C 
HETATM   12  C23 UNL     1     -13.259  44.179 -24.910  1.00  0.00     0.040 C 
HETATM   13  C24 UNL     1     -13.080  44.394 -26.426  1.00  0.00     0.070 C 
HETATM   14  C25 UNL     1     -11.709  44.982 -26.865  1.00  0.00     0.026 C 
HETATM   15  C26 UNL     1     -10.518  44.162 -26.353  1.00  0.00     0.011 C 
HETATM   16  C27 UNL     1      -9.236  44.643 -27.010  1.00  0.00     0.039 C 
HETATM   17  C28 UNL     1      -8.906  46.118 -26.753  1.00  0.00     0.073 C 
HETATM   18  C29 UNL     1      -8.299  46.340 -25.356  1.00  0.00     0.071 C 
ENDROOT
BRANCH   1  19
HETATM   19  O2  UNL     1      -7.258  48.059 -23.961  1.00  0.00    -0.356 OA
BRANCH  19  20
HETATM   20  C4  UNL     1      -5.859  47.896 -23.697  1.00  0.00     0.263 C 
HETATM   21  C3  UNL     1      -5.059  48.232 -24.953  1.00  0.00     0.095 C 
HETATM   22  C2  UNL     1      -3.621  48.542 -24.565  1.00  0.00     0.156 C 
HETATM   23  C32 UNL     1      -3.598  49.787 -23.652  1.00  0.00     0.175 C 
HETATM   24  C30 UNL     1      -4.850  49.892 -22.761  1.00  0.00     0.151 C 
HETATM   25  O8  UNL     1      -5.437  48.605 -22.536  1.00  0.00    -0.354 OA
HETATM   26  C31 UNL     1      -5.898  50.909 -23.216  1.00  0.00     0.042 C 
BRANCH  22  27
HETATM   27  O1  UNL     1      -2.779  48.825 -25.706  1.00  0.00    -0.388 OA
HETATM   28  C1  UNL     1      -3.385  48.481 -26.949  1.00  0.00     0.202 C 
ENDBRANCH  22  27
BRANCH  23  29
HETATM   29  O9  UNL     1      -3.412  50.978 -24.424  1.00  0.00    -0.390 OA
HETATM   30  H49 UNL     1      -2.940  50.679 -25.230  1.00  0.00     0.210 HD
ENDBRANCH  23  29
ENDBRANCH  19  20
ENDBRANCH   1  19
BRANCH  17  31
HETATM   31  O7  UNL     1      -7.862  46.454 -27.695  1.00  0.00    -0.389 OA
HETATM   32  H41 UNL     1      -7.145  45.801 -27.592  1.00  0.00     0.210 HD
ENDBRANCH  17  31
BRANCH   4  33
HETATM   33  C9  UNL     1     -10.158  47.442 -28.447  1.00  0.00     0.068 C 
HETATM   34  N1  UNL     1      -9.455  48.406 -28.945  1.00  0.00    -0.399 N 
ATOM     35  H1  UNL     1      -8.791  48.945 -28.388  1.00  0.00     0.158 HD
BRANCH  34  36
HETATM   36  C10 UNL     1      -9.683  48.667 -30.370  1.00  0.00     0.144 C 
BRANCH  36  37
HETATM   37  C11 UNL     1      -8.567  49.574 -30.893  1.00  0.00     0.183 C 
BRANCH  37  38
HETATM   38  O3  UNL     1      -8.889  50.949 -30.705  1.00  0.00    -0.399 OA
HETATM   39  H18 UNL     1      -8.960  51.102 -29.745  1.00  0.00     0.209 HD
ENDBRANCH  37  38
ENDBRANCH  36  37
ENDBRANCH  34  36
ENDBRANCH   4  33
BRANCH  13  40
HETATM   40  O6  UNL     1     -13.263  43.114 -27.064  1.00  0.00    -0.389 OA
HETATM   41  H35 UNL     1     -12.604  42.498 -26.716  1.00  0.00     0.210 HD
ENDBRANCH  13  40
BRANCH  10  42
HETATM   42  C18 UNL     1     -16.765  45.322 -25.885  1.00  0.00    -0.045 A 
HETATM   43  C19 UNL     1     -17.178  46.200 -24.968  1.00  0.00     0.087 A 
HETATM   44  C20 UNL     1     -18.576  46.506 -25.258  1.00  0.00     0.283 A 
HETATM   45  O4  UNL     1     -19.266  47.277 -24.609  1.00  0.00    -0.260 OA
HETATM   46  O5  UNL     1     -18.980  45.779 -26.330  1.00  0.00    -0.314 OA
HETATM   47  C21 UNL     1     -17.886  44.997 -26.804  1.00  0.00     0.213 A 
ENDBRANCH  10  42
TORSDOF 11
ENDMDL
