MODEL 1
REMARK minimizedAffinity -5.03840256
REMARK CNNscore 0.449347019
REMARK CNNaffinity 4.93608284
REMARK  11 active torsions:
REMARK  status: ('A' for Active; 'I' for Inactive)
REMARK    1  A    between atoms: C2_2  and  O1_3 
REMARK    2  A    between atoms: O1_3  and  C3_4 
REMARK    3  A    between atoms: C3_4  and  C4_6 
REMARK    4  A    between atoms: N1_9  and  C7_10 
REMARK    5  A    between atoms: C7_10  and  C8_11 
REMARK    6  A    between atoms: C8_11  and  N2_12 
REMARK    7  A    between atoms: C15_20  and  C16_21 
REMARK    8  A    between atoms: C16_21  and  O5_23 
REMARK    9  A    between atoms: O5_23  and  C17_24 
REMARK   10  A    between atoms: C19_26  and  C20_27 
REMARK   11  A    between atoms: C25_32  and  C26_33 
ROOT
HETATM    1  C4  UNL     1     -14.196   4.158  24.394  1.00  0.00     0.052 A 
HETATM    2  C5  UNL     1     -15.038   3.596  25.293  1.00  0.00     0.021 A 
HETATM    3  C6  UNL     1     -15.200   2.087  25.362  1.00  0.00     0.069 C 
HETATM    4  N1  UNL     1     -15.793   4.408  26.194  1.00  0.00    -0.351 N 
HETATM    5  C13 UNL     1     -15.603   5.826  26.199  1.00  0.00     0.021 A 
HETATM    6  C14 UNL     1     -16.351   6.650  27.236  1.00  0.00     0.069 C 
HETATM    7  C15 UNL     1     -14.780   6.424  25.301  1.00  0.00     0.052 A 
HETATM    8  C19 UNL     1     -14.021   5.651  24.235  1.00  0.00     0.101 A 
ENDROOT
BRANCH   8   9
HETATM    9  C20 UNL     1     -14.419   6.127  22.821  1.00  0.00    -0.030 A 
HETATM   10  C21 UNL     1     -13.460   6.821  22.048  1.00  0.00     0.009 A 
HETATM   11  C22 UNL     1     -13.753   7.271  20.762  1.00  0.00     0.001 A 
HETATM   12  C23 UNL     1     -15.010   7.045  20.219  1.00  0.00     0.001 A 
HETATM   13  C24 UNL     1     -15.979   6.377  20.965  1.00  0.00     0.017 A 
HETATM   14  C25 UNL     1     -15.708   5.911  22.270  1.00  0.00     0.055 A 
BRANCH  14  15
HETATM   15  C26 UNL     1     -16.828   5.232  23.032  1.00  0.00     0.418 C 
HETATM   16  F1  UNL     1     -16.532   3.942  23.345  1.00  0.00    -0.166 F 
HETATM   17  F2  UNL     1     -17.999   5.192  22.341  1.00  0.00    -0.166 F 
HETATM   18  F3  UNL     1     -17.128   5.836  24.217  1.00  0.00    -0.166 F 
ENDBRANCH  14  15
ENDBRANCH   8   9
BRANCH   1  19
HETATM   19  C3  UNL     1     -13.294   3.309  23.592  1.00  0.00     0.292 C 
HETATM   20  O2  UNL     1     -13.602   2.839  22.508  1.00  0.00    -0.259 OA
BRANCH  19  21
HETATM   21  O1  UNL     1     -12.100   3.196  24.220  1.00  0.00    -0.318 OA
BRANCH  21  22
HETATM   22  C2  UNL     1     -11.559   1.870  24.286  1.00  0.00     0.174 C 
HETATM   23  C1  UNL     1     -11.650   1.339  25.705  1.00  0.00     0.034 C 
ENDBRANCH  21  22
ENDBRANCH  19  21
ENDBRANCH   1  19
BRANCH   7  24
HETATM   24  C16 UNL     1     -14.639   7.901  25.251  1.00  0.00     0.292 C 
HETATM   25  O4  UNL     1     -15.455   8.657  24.747  1.00  0.00    -0.259 OA
BRANCH  24  26
HETATM   26  O5  UNL     1     -13.487   8.262  25.866  1.00  0.00    -0.318 OA
BRANCH  26  27
HETATM   27  C17 UNL     1     -12.691   9.228  25.164  1.00  0.00     0.174 C 
HETATM   28  C18 UNL     1     -11.222   8.838  25.176  1.00  0.00     0.034 C 
ENDBRANCH  26  27
ENDBRANCH  24  26
ENDBRANCH   7  24
BRANCH   4  29
HETATM   29  C7  UNL     1     -16.727   3.772  27.174  1.00  0.00     0.159 C 
BRANCH  29  30
HETATM   30  C8  UNL     1     -16.088   3.651  28.579  1.00  0.00     0.292 C 
BRANCH  30  31
HETATM   31  N2  UNL     1     -14.614   3.683  28.534  1.00  0.00     0.094 N 
HETATM   32  C9  UNL     1     -14.048   2.358  28.868  1.00  0.00     0.298 C 
HETATM   33  C10 UNL     1     -12.557   2.461  29.214  1.00  0.00     0.198 C 
HETATM   34  O3  UNL     1     -12.306   3.249  30.387  1.00  0.00    -0.388 OA
HETATM   35  C11 UNL     1     -13.349   4.186  30.668  1.00  0.00     0.198 C 
HETATM   36  C12 UNL     1     -14.031   4.732  29.402  1.00  0.00     0.298 C 
ENDBRANCH  30  31
ENDBRANCH  29  30
ENDBRANCH   4  29
TORSDOF 11
ENDMDL
