MODEL 1
REMARK minimizedAffinity -8.41981983
REMARK  11 active torsions:
REMARK  status: ('A' for Active; 'I' for Inactive)
REMARK    1  A    between atoms: C4_4  and  C5_5 
REMARK    2  A    between atoms: C5_5  and  C6_6 
REMARK    3  A    between atoms: C6_6  and  C7_7 
REMARK    4  A    between atoms: C9_9  and  C10_10 
REMARK    5  A    between atoms: C10_10  and  C11_11 
REMARK    6  A    between atoms: C11_11  and  C12_12 
REMARK    7  A    between atoms: C14_14  and  C15_15 
REMARK    8  A    between atoms: C15_15  and  C16_16 
REMARK    9  A    between atoms: C16_16  and  O1_17 
REMARK   10  A    between atoms: O1_17  and  C17_18 
REMARK   11  A    between atoms: C23_24  and  O2_25 
ROOT
HETATM    1  C16 UNL     1      -0.915   3.975  11.287  1.00  0.00     0.175 C 
ENDROOT
BRANCH   1   2
HETATM    2  C15 UNL     1      -0.016   4.207  12.516  1.00  0.00     0.054 C 
BRANCH   2   3
HETATM    3  C14 UNL     1       0.979   5.317  12.282  1.00  0.00    -0.022 C 
HETATM    4  C12 UNL     1       0.997   6.541  12.850  1.00  0.00    -0.087 C 
HETATM    5  C13 UNL     1       0.039   6.996  13.920  1.00  0.00     0.043 C 
BRANCH   4   6
HETATM    6  C11 UNL     1       2.038   7.565  12.433  1.00  0.00     0.037 C 
BRANCH   6   7
HETATM    7  C10 UNL     1       1.500   8.559  11.393  1.00  0.00     0.031 C 
BRANCH   7   8
HETATM    8  C9  UNL     1       2.127   8.335  10.038  1.00  0.00    -0.024 C 
HETATM    9  C7  UNL     1       1.494   8.212   8.854  1.00  0.00    -0.087 C 
HETATM   10  C8  UNL     1      -0.004   8.314   8.697  1.00  0.00     0.043 C 
BRANCH   9  11
HETATM   11  C6  UNL     1       2.209   7.969   7.529  1.00  0.00     0.037 C 
BRANCH  11  12
HETATM   12  C5  UNL     1       2.276   6.525   7.007  1.00  0.00     0.031 C 
BRANCH  12  13
HETATM   13  C4  UNL     1       2.890   5.596   8.022  1.00  0.00    -0.024 C 
HETATM   14  C2  UNL     1       3.526   4.432   7.785  1.00  0.00    -0.091 C 
HETATM   15  C1  UNL     1       3.670   3.800   6.428  1.00  0.00     0.042 C 
HETATM   16  C3  UNL     1       4.143   3.649   8.914  1.00  0.00     0.042 C 
ENDBRANCH  12  13
ENDBRANCH  11  12
ENDBRANCH   9  11
ENDBRANCH   7   8
ENDBRANCH   6   7
ENDBRANCH   4   6
ENDBRANCH   2   3
ENDBRANCH   1   2
BRANCH   1  17
HETATM   17  O1  UNL     1      -1.807   2.878  11.501  1.00  0.00    -0.355 OA
BRANCH  17  18
HETATM   18  C17 UNL     1      -3.215   3.184  11.407  1.00  0.00     0.166 C 
HETATM   19  C18 UNL     1      -3.393   3.703   9.971  1.00  0.00     0.079 C 
HETATM   20  C19 UNL     1      -3.956   1.868  11.662  1.00  0.00     0.073 C 
HETATM   21  C20 UNL     1      -5.458   2.055  11.553  1.00  0.00     0.047 C 
HETATM   22  C21 UNL     1      -5.886   3.301  12.269  1.00  0.00    -0.021 A 
HETATM   23  C22 UNL     1      -7.240   3.493  12.572  1.00  0.00     0.046 A 
HETATM   24  C27 UNL     1      -4.962   4.299  12.608  1.00  0.00     0.085 A 
HETATM   25  C23 UNL     1      -7.651   4.649  13.222  1.00  0.00     0.066 A 
HETATM   26  C24 UNL     1      -6.734   5.628  13.595  1.00  0.00     0.046 A 
HETATM   27  C25 UNL     1      -5.375   5.457  13.293  1.00  0.00    -0.025 A 
HETATM   28  C26 UNL     1      -4.378   6.513  13.687  1.00  0.00     0.051 C 
HETATM   29  O3  UNL     1      -3.626   4.214  12.317  1.00  0.00    -0.314 OA
BRANCH  25  30
HETATM   30  O2  UNL     1      -8.987   4.792  13.474  1.00  0.00    -0.361 OA
HETATM   31  H36 UNL     1      -9.124   5.659  13.894  1.00  0.00     0.217 HD
ENDBRANCH  25  30
ENDBRANCH  17  18
ENDBRANCH   1  17
TORSDOF 11
ENDMDL
