MODEL 1
REMARK minimizedAffinity -9.86257458
REMARK  7 active torsions:
REMARK  status: ('A' for Active; 'I' for Inactive)
REMARK    1  A    between atoms: C16_17  and  O2_18 
REMARK    2  A    between atoms: O2_18  and  C17_19 
REMARK    3  A    between atoms: C17_19  and  C18_21 
REMARK    4  A    between atoms: C18_21  and  C19_22 
REMARK    5  A    between atoms: C19_22  and  C20_23 
REMARK       I    between atoms: C20_23  and  N1_25 
REMARK    6  A    between atoms: N1_25  and  C21_26 
REMARK    7  A    between atoms: C21_26  and  C22_27 
ROOT
HETATM    1  C1  UNL     1      -2.153  51.871 -18.735  1.00  0.00     0.020 C 
HETATM    2  C2  UNL     1      -0.747  51.354 -19.107  1.00  0.00    -0.016 C 
HETATM    3  C3  UNL     1      -0.440  50.079 -18.267  1.00  0.00     0.022 C 
HETATM    4  C4  UNL     1      -0.101  50.368 -16.811  1.00  0.00     0.084 C 
HETATM    5  C5  UNL     1       1.048  51.335 -16.730  1.00  0.00     0.149 C 
HETATM    6  O1  UNL     1       1.876  51.301 -15.825  1.00  0.00    -0.293 OA
HETATM    7  C6  UNL     1       1.115  52.416 -17.740  1.00  0.00     0.053 C 
HETATM    8  C7  UNL     1       0.275  52.456 -18.788  1.00  0.00    -0.068 C 
HETATM    9  C8  UNL     1       0.307  53.640 -19.726  1.00  0.00     0.035 C 
HETATM   10  C9  UNL     1       0.436  53.210 -21.181  1.00  0.00     0.010 C 
HETATM   11  C10 UNL     1      -0.670  52.222 -21.574  1.00  0.00    -0.004 C 
HETATM   12  C11 UNL     1      -0.639  50.978 -20.636  1.00  0.00     0.002 C 
HETATM   13  C12 UNL     1      -1.647  49.889 -21.088  1.00  0.00     0.007 C 
HETATM   14  C13 UNL     1      -1.549  49.538 -22.582  1.00  0.00     0.012 C 
HETATM   15  C14 UNL     1      -1.621  50.786 -23.474  1.00  0.00    -0.013 C 
HETATM   16  C15 UNL     1      -3.049  51.383 -23.412  1.00  0.00     0.018 C 
HETATM   17  C16 UNL     1      -1.188  50.569 -24.945  1.00  0.00     0.140 C 
HETATM   18  C27 UNL     1      -0.744  51.976 -25.408  1.00  0.00     0.034 C 
HETATM   19  C28 UNL     1      -0.448  52.786 -24.136  1.00  0.00     0.008 C 
HETATM   20  C29 UNL     1      -0.503  51.747 -23.021  1.00  0.00     0.001 C 
ENDROOT
BRANCH  17  21
HETATM   21  O2  UNL     1      -2.233  50.111 -25.810  1.00  0.00    -0.315 OA
BRANCH  21  22
HETATM   22  C17 UNL     1      -2.461  50.860 -26.925  1.00  0.00     0.259 C 
HETATM   23  O3  UNL     1      -1.988  51.966 -27.145  1.00  0.00    -0.265 OA
BRANCH  22  24
HETATM   24  C18 UNL     1      -3.325  50.096 -27.899  1.00  0.00     0.120 C 
BRANCH  24  25
HETATM   25  C19 UNL     1      -3.832  48.783 -27.317  1.00  0.00     0.112 C 
BRANCH  25  26
HETATM   26  C20 UNL     1      -5.077  48.290 -28.027  1.00  0.00     0.218 C 
HETATM   27  O4  UNL     1      -5.944  47.617 -27.486  1.00  0.00    -0.274 OA
HETATM   28  N1  UNL     1      -5.135  48.680 -29.347  1.00  0.00    -0.357 N 
HETATM   29  H27 UNL     1      -4.323  49.101 -29.775  1.00  0.00     0.162 HD
BRANCH  28  30
HETATM   30  C21 UNL     1      -6.202  48.231 -30.218  1.00  0.00     0.162 C 
BRANCH  30  31
HETATM   31  C22 UNL     1      -5.832  46.955 -30.914  1.00  0.00    -0.025 A 
HETATM   32  C23 UNL     1      -4.785  46.897 -31.839  1.00  0.00     0.011 A 
HETATM   33  C24 UNL     1      -4.472  45.688 -32.453  1.00  0.00     0.018 A 
HETATM   34  C25 UNL     1      -5.215  44.569 -32.116  1.00  0.00     0.087 A 
HETATM   35  N2  UNL     1      -6.227  44.581 -31.223  1.00  0.00    -0.375 N 
HETATM   36  C26 UNL     1      -6.514  45.770 -30.644  1.00  0.00     0.096 A 
ATOM     37  H2  UNL     1      -6.749  43.735 -30.995  1.00  0.00     0.164 HD
ENDBRANCH  30  31
ENDBRANCH  28  30
ENDBRANCH  25  26
ENDBRANCH  24  25
ENDBRANCH  22  24
ENDBRANCH  21  22
ENDBRANCH  17  21
TORSDOF 7
ENDMDL
