MODEL 1
REMARK minimizedAffinity -7.66893196
REMARK CNNscore 0.527498007
REMARK CNNaffinity 6.87647438
REMARK  5 active torsions:
REMARK  status: ('A' for Active; 'I' for Inactive)
REMARK    1  A    between atoms: O1_2  and  C2_3 
REMARK    2  A    between atoms: C12_15  and  C13_16 
REMARK    3  A    between atoms: C13_16  and  C15_18 
REMARK    4  A    between atoms: C15_18  and  C16_19 
REMARK    5  A    between atoms: C16_19  and  C17_21 
ROOT
HETATM    1  C2  UNL     1       0.597   9.812  16.703  1.00  0.00     0.270 C 
HETATM    2  O2  UNL     1      -0.520   9.931  17.588  1.00  0.00    -0.347 OA
HETATM    3  C3  UNL     1      -1.689  10.301  16.827  1.00  0.00     0.089 C 
HETATM    4  C4  UNL     1      -2.499   9.007  16.637  1.00  0.00     0.118 C 
HETATM    5  C5  UNL     1      -1.777   7.927  15.855  1.00  0.00     0.135 C 
HETATM    6  O3  UNL     1      -2.229   6.778  15.864  1.00  0.00    -0.297 OA
HETATM    7  C6  UNL     1      -0.556   8.275  14.998  1.00  0.00     0.078 C 
HETATM    8  C7  UNL     1       0.008   9.731  15.267  1.00  0.00     0.027 C 
HETATM    9  C8  UNL     1       1.116  10.144  14.252  1.00  0.00     0.016 C 
HETATM   10  C9  UNL     1       0.924   9.704  12.792  1.00  0.00     0.011 C 
HETATM   11  C10 UNL     1       0.566   8.212  12.704  1.00  0.00    -0.032 C 
HETATM   12  C11 UNL     1       1.777   7.397  13.258  1.00  0.00     0.016 C 
HETATM   13  C12 UNL     1       0.190   7.677  11.292  1.00  0.00    -0.002 C 
HETATM   14  C21 UNL     1      -0.608   6.384  11.618  1.00  0.00     0.006 C 
HETATM   15  C22 UNL     1      -1.064   6.503  13.096  1.00  0.00     0.011 C 
HETATM   16  C23 UNL     1      -0.782   7.972  13.483  1.00  0.00    -0.025 C 
HETATM   17  C24 UNL     1      -2.003   8.779  12.934  1.00  0.00     0.016 C 
HETATM   18  C25 UNL     1      -1.163  10.725  15.434  1.00  0.00     0.036 C 
HETATM   19  C26 UNL     1      -0.830  12.217  15.354  1.00  0.00     0.016 C 
HETATM   20  C27 UNL     1      -2.063  13.071  15.628  1.00  0.00     0.079 C 
HETATM   21  C28 UNL     1      -3.031  12.413  16.589  1.00  0.00     0.137 C 
HETATM   22  O5  UNL     1      -4.227  12.703  16.547  1.00  0.00    -0.297 OA
HETATM   23  C29 UNL     1      -2.459  11.428  17.612  1.00  0.00     0.045 C 
HETATM   24  C30 UNL     1      -3.604  10.883  18.493  1.00  0.00     0.026 C 
HETATM   25  C31 UNL     1      -1.548  12.235  18.571  1.00  0.00     0.026 C 
ENDROOT
BRANCH  13  26
HETATM   26  C13 UNL     1       1.309   7.560  10.218  1.00  0.00    -0.007 C 
HETATM   27  C14 UNL     1       0.862   8.299   8.941  1.00  0.00     0.011 C 
BRANCH  26  28
HETATM   28  C15 UNL     1       1.723   6.128   9.827  1.00  0.00     0.087 C 
BRANCH  28  29
HETATM   29  C16 UNL     1       3.090   6.095   9.160  1.00  0.00     0.149 C 
HETATM   30  O4  UNL     1       4.086   6.582   9.686  1.00  0.00    -0.293 OA
BRANCH  29  31
HETATM   31  C17 UNL     1       3.168   5.385   7.849  1.00  0.00     0.052 C 
HETATM   32  C18 UNL     1       3.759   4.192   7.645  1.00  0.00    -0.084 C 
HETATM   33  C19 UNL     1       3.741   3.558   6.281  1.00  0.00     0.043 C 
HETATM   34  C20 UNL     1       4.483   3.390   8.692  1.00  0.00     0.043 C 
ENDBRANCH  29  31
ENDBRANCH  28  29
ENDBRANCH  26  28
ENDBRANCH  13  26
BRANCH   1  35
HETATM   35  O1  UNL     1       1.391   8.677  17.005  1.00  0.00    -0.365 OA
HETATM   36  C1  UNL     1       1.160   7.603  16.105  1.00  0.00     0.204 C 
ENDBRANCH   1  35
TORSDOF 5
ENDMDL
