MODEL 1
REMARK minimizedAffinity -8.72333813
REMARK  8 active torsions:
REMARK  status: ('A' for Active; 'I' for Inactive)
REMARK    1  A    between atoms: C12_14  and  C13_15 
REMARK    2  A    between atoms: C13_15  and  C15_17 
REMARK    3  A    between atoms: C15_17  and  C16_18 
REMARK    4  A    between atoms: C16_18  and  C17_19 
REMARK    5  A    between atoms: C26_28  and  C27_29 
REMARK    6  A    between atoms: C27_29  and  C28_30 
REMARK    7  A    between atoms: C28_30  and  C29_31 
REMARK    8  A    between atoms: C29_31  and  O4_33 
ROOT
HETATM    1  C1  UNL     1      -7.190   4.141  13.617  1.00  0.00     0.025 C 
HETATM    2  C2  UNL     1      -6.368   5.167  13.870  1.00  0.00     0.015 C 
HETATM    3  C3  UNL     1      -6.300   5.839  15.193  1.00  0.00     0.289 C 
HETATM    4  O1  UNL     1      -6.782   5.433  16.236  1.00  0.00    -0.260 OA
HETATM    5  O2  UNL     1      -5.574   6.988  15.037  1.00  0.00    -0.311 OA
HETATM    6  C4  UNL     1      -5.425   7.232  13.636  1.00  0.00     0.142 C 
HETATM    7  C5  UNL     1      -4.202   8.065  13.298  1.00  0.00     0.039 C 
HETATM    8  C6  UNL     1      -2.863   7.418  13.705  1.00  0.00     0.006 C 
HETATM    9  C7  UNL     1      -2.729   5.975  13.142  1.00  0.00    -0.027 A 
HETATM   10  C8  UNL     1      -1.375   5.534  12.518  1.00  0.00     0.011 C 
HETATM   11  C9  UNL     1      -0.176   6.490  12.555  1.00  0.00     0.011 C 
HETATM   12  C10 UNL     1      -0.304   7.569  13.625  1.00  0.00    -0.032 C 
HETATM   13  C11 UNL     1      -0.232   6.898  15.018  1.00  0.00     0.016 C 
HETATM   14  C12 UNL     1       0.742   8.721  13.517  1.00  0.00    -0.002 C 
HETATM   15  C21 UNL     1       0.011   9.946  14.107  1.00  0.00     0.006 C 
HETATM   16  C22 UNL     1      -1.476   9.558  14.245  1.00  0.00     0.011 C 
HETATM   17  C23 UNL     1      -1.649   8.323  13.343  1.00  0.00    -0.032 C 
HETATM   18  C24 UNL     1      -1.797   8.838  11.875  1.00  0.00     0.016 C 
HETATM   19  C25 UNL     1      -3.301   4.883  14.042  1.00  0.00     0.022 A 
HETATM   20  C26 UNL     1      -4.049   5.218  12.778  1.00  0.00    -0.021 A 
HETATM   21  C31 UNL     1      -5.433   5.877  12.947  1.00  0.00     0.063 C 
ENDROOT
BRANCH  14  22
HETATM   22  C13 UNL     1       2.236   8.496  13.903  1.00  0.00    -0.014 C 
HETATM   23  C14 UNL     1       2.315   7.392  14.977  1.00  0.00     0.010 C 
BRANCH  22  24
HETATM   24  C15 UNL     1       3.338   8.302  12.829  1.00  0.00     0.008 C 
BRANCH  24  25
HETATM   25  C16 UNL     1       3.189   7.289  11.683  1.00  0.00     0.028 C 
BRANCH  25  26
HETATM   26  C17 UNL     1       2.920   7.910  10.345  1.00  0.00    -0.025 C 
HETATM   27  C18 UNL     1       2.896   7.312   9.139  1.00  0.00    -0.091 C 
HETATM   28  C19 UNL     1       3.064   5.839   8.897  1.00  0.00     0.042 C 
HETATM   29  C20 UNL     1       2.689   8.133   7.891  1.00  0.00     0.042 C 
ENDBRANCH  25  26
ENDBRANCH  24  25
ENDBRANCH  22  24
ENDBRANCH  14  22
BRANCH  20  30
HETATM   30  C27 UNL     1      -4.011   4.170  11.661  1.00  0.00     0.021 C 
BRANCH  30  31
HETATM   31  C28 UNL     1      -3.375   2.856  12.117  1.00  0.00     0.112 C 
BRANCH  31  32
HETATM   32  C29 UNL     1      -2.360   2.380  11.111  1.00  0.00     0.258 C 
HETATM   33  O3  UNL     1      -1.843   3.097  10.263  1.00  0.00    -0.265 OA
BRANCH  32  34
HETATM   34  O4  UNL     1      -2.109   1.052  11.278  1.00  0.00    -0.326 OA
HETATM   35  C30 UNL     1      -0.909   0.605  10.637  1.00  0.00     0.213 C 
ENDBRANCH  32  34
ENDBRANCH  31  32
ENDBRANCH  30  31
ENDBRANCH  20  30
TORSDOF 8
ENDMDL
