MODEL 1
REMARK minimizedAffinity -8.49303436
REMARK  10 active torsions:
REMARK  status: ('A' for Active; 'I' for Inactive)
REMARK       I    between atoms: N1_2  and  C2_3 
REMARK    1  A    between atoms: C2_3  and  C3_5 
REMARK    2  A    between atoms: C3_5  and  C4_6 
REMARK    3  A    between atoms: C3_5  and  N3_16 
REMARK    4  A    between atoms: C4_6  and  C5_7 
REMARK       I    between atoms: N3_16  and  C13_17 
REMARK    5  A    between atoms: C13_17  and  C14_19 
REMARK    6  A    between atoms: C14_19  and  C15_20 
REMARK    7  A    between atoms: C14_19  and  C17_25 
REMARK    8  A    between atoms: C15_20  and  C16_21 
REMARK       I    between atoms: C16_21  and  N4_23 
REMARK    9  A    between atoms: N4_23  and  O4_24 
REMARK   10  A    between atoms: C17_25  and  C18_26 
ROOT
HETATM    1  C3  UNL     1      -1.206   6.085  12.237  1.00  0.00     0.180 C 
ENDROOT
BRANCH   1   2
HETATM    2  C2  UNL     1      -1.377   6.855  13.565  1.00  0.00     0.240 C 
HETATM    3  N1  UNL     1      -0.271   6.802  14.388  1.00  0.00    -0.364 N 
HETATM    4  C1  UNL     1      -0.267   7.383  15.702  1.00  0.00     0.149 C 
HETATM    5  H4  UNL     1       0.508   6.203  14.110  1.00  0.00     0.161 HD
HETATM    6  O1  UNL     1      -2.397   7.479  13.856  1.00  0.00    -0.271 OA
ENDBRANCH   1   2
BRANCH   1   7
HETATM    7  C4  UNL     1      -0.894   4.605  12.517  1.00  0.00     0.075 C 
BRANCH   7   8
HETATM    8  C5  UNL     1      -1.935   3.678  11.965  1.00  0.00    -0.028 A 
HETATM    9  C6  UNL     1      -1.707   2.583  11.148  1.00  0.00     0.096 A 
HETATM   10  N2  UNL     1      -2.910   1.986  10.887  1.00  0.00    -0.365 N 
HETATM   11  C7  UNL     1      -3.926   2.665  11.523  1.00  0.00     0.042 A 
HETATM   12  H9  UNL     1      -3.039   1.157  10.319  1.00  0.00     0.165 HD
HETATM   13  C8  UNL     1      -5.303   2.410  11.544  1.00  0.00     0.030 A 
HETATM   14  C12 UNL     1      -3.346   3.735  12.203  1.00  0.00    -0.002 A 
HETATM   15  C9  UNL     1      -6.112   3.277  12.287  1.00  0.00     0.002 A 
HETATM   16  C10 UNL     1      -5.564   4.353  12.980  1.00  0.00     0.001 A 
HETATM   17  C11 UNL     1      -4.183   4.593  12.948  1.00  0.00     0.014 A 
ENDBRANCH   7   8
ENDBRANCH   1   7
BRANCH   1  18
HETATM   18  N3  UNL     1      -0.153   6.719  11.432  1.00  0.00    -0.347 N 
HETATM   19  C13 UNL     1       0.888   6.016  10.888  1.00  0.00     0.223 C 
HETATM   20  O2  UNL     1       0.960   4.793  10.974  1.00  0.00    -0.273 OA
HETATM   21  H14 UNL     1      -0.131   7.742  11.422  1.00  0.00     0.163 HD
BRANCH  19  22
HETATM   22  C14 UNL     1       1.958   6.871  10.206  1.00  0.00     0.087 C 
BRANCH  22  23
HETATM   23  C15 UNL     1       3.259   6.797  11.024  1.00  0.00     0.119 C 
BRANCH  23  24
HETATM   24  C16 UNL     1       4.299   5.835  10.480  1.00  0.00     0.241 C 
HETATM   25  O3  UNL     1       4.116   5.056   9.548  1.00  0.00    -0.271 OA
HETATM   26  N4  UNL     1       5.531   5.957  11.089  1.00  0.00    -0.237 N 
HETATM   27  H18 UNL     1       5.582   6.200  12.075  1.00  0.00     0.197 HD
BRANCH  26  28
HETATM   28  O4  UNL     1       6.483   4.994  10.661  1.00  0.00    -0.287 OA
HETATM   29  H19 UNL     1       5.990   4.505   9.966  1.00  0.00     0.244 HD
ENDBRANCH  26  28
ENDBRANCH  23  24
ENDBRANCH  22  23
BRANCH  22  30
HETATM   30  C17 UNL     1       2.088   6.530   8.706  1.00  0.00     0.018 C 
BRANCH  30  31
HETATM   31  C18 UNL     1       1.880   7.707   7.728  1.00  0.00    -0.022 C 
HETATM   32  C19 UNL     1       1.790   7.233   6.275  1.00  0.00     0.009 C 
HETATM   33  C20 UNL     1       3.035   8.705   7.875  1.00  0.00     0.009 C 
ENDBRANCH  30  31
ENDBRANCH  22  30
ENDBRANCH  19  22
ENDBRANCH   1  18
TORSDOF 10
ENDMDL
