MODEL 1
REMARK minimizedAffinity -9.29788208
REMARK CNNscore 0.519037843
REMARK CNNaffinity 7.33949661
REMARK  10 active torsions:
REMARK  status: ('A' for Active; 'I' for Inactive)
REMARK    1  A    between atoms: O1_2  and  C2_3 
REMARK    2  A    between atoms: C2_3  and  C3_5 
REMARK    3  A    between atoms: C3_5  and  C4_6 
REMARK    4  A    between atoms: C3_5  and  N1_13 
REMARK    5  A    between atoms: C4_6  and  C5_7 
REMARK       I    between atoms: N1_13  and  C11_14 
REMARK    6  A    between atoms: C11_14  and  C12_16 
REMARK    7  A    between atoms: C12_16  and  O4_17 
REMARK    8  A    between atoms: O4_17  and  N2_18 
REMARK    9  A    between atoms: C27_34  and  O5_35 
REMARK   10  A    between atoms: C27_34  and  C28_36 
ROOT
HETATM    1  N2  UNL     1      -2.954   5.562  13.810  1.00  0.00    -0.271 N 
ATOM      2  H2  UNL     1      -2.363   6.182  14.364  1.00  0.00     0.194 HD
HETATM    3  C13 UNL     1      -4.251   5.497  13.921  1.00  0.00     0.032 C 
HETATM    4  C14 UNL     1      -4.901   6.319  14.972  1.00  0.00     0.030 C 
HETATM    5  C15 UNL     1      -6.238   6.358  15.119  1.00  0.00    -0.069 C 
HETATM    6  C16 UNL     1      -6.837   7.105  16.288  1.00  0.00     0.035 C 
HETATM    7  C17 UNL     1      -7.924   8.078  15.848  1.00  0.00     0.010 C 
HETATM    8  C18 UNL     1      -9.012   7.368  15.032  1.00  0.00    -0.004 C 
HETATM    9  C19 UNL     1      -8.375   6.672  13.789  1.00  0.00     0.002 C 
HETATM   10  C20 UNL     1      -9.456   6.066  12.858  1.00  0.00     0.007 C 
HETATM   11  C21 UNL     1     -10.573   7.060  12.492  1.00  0.00     0.013 C 
HETATM   12  C22 UNL     1     -11.221   7.692  13.737  1.00  0.00    -0.002 C 
HETATM   13  C23 UNL     1     -11.987   6.602  14.533  1.00  0.00     0.019 C 
HETATM   14  C24 UNL     1     -10.082   8.357  14.550  1.00  0.00     0.002 C 
HETATM   15  C25 UNL     1     -10.818   9.187  15.593  1.00  0.00     0.009 C 
HETATM   16  C26 UNL     1     -12.087   9.674  14.870  1.00  0.00     0.047 C 
HETATM   17  C27 UNL     1     -12.140   8.934  13.501  1.00  0.00     0.125 C 
HETATM   18  C30 UNL     1      -7.223   5.665  14.171  1.00  0.00    -0.016 C 
HETATM   19  C31 UNL     1      -7.767   4.401  14.875  1.00  0.00     0.020 C 
HETATM   20  C32 UNL     1      -6.493   5.240  12.864  1.00  0.00     0.020 C 
HETATM   21  C33 UNL     1      -5.138   4.586  13.098  1.00  0.00     0.060 C 
ENDROOT
BRANCH   1  22
HETATM   22  O4  UNL     1      -2.473   4.677  12.838  1.00  0.00    -0.271 OA
BRANCH  22  23
HETATM   23  C12 UNL     1      -1.076   4.472  13.036  1.00  0.00     0.303 C 
BRANCH  23  24
HETATM   24  C11 UNL     1      -0.268   5.278  12.024  1.00  0.00     0.244 C 
HETATM   25  N1  UNL     1       0.673   6.121  12.583  1.00  0.00    -0.345 N 
HETATM   26  H12 UNL     1       0.547   6.301  13.573  1.00  0.00     0.163 HD
HETATM   27  O3  UNL     1      -0.470   5.211  10.815  1.00  0.00    -0.271 OA
BRANCH  25  28
HETATM   28  C3  UNL     1       1.343   7.153  11.778  1.00  0.00     0.188 C 
BRANCH  28  29
HETATM   29  C2  UNL     1       1.968   8.247  12.669  1.00  0.00     0.281 C 
HETATM   30  O2  UNL     1       1.723   9.443  12.575  1.00  0.00    -0.263 OA
BRANCH  29  31
HETATM   31  O1  UNL     1       2.879   7.725  13.547  1.00  0.00    -0.325 OA
HETATM   32  C1  UNL     1       4.162   8.350  13.501  1.00  0.00     0.213 C 
ENDBRANCH  29  31
ENDBRANCH  28  29
BRANCH  28  33
HETATM   33  C4  UNL     1       2.444   6.505  10.922  1.00  0.00     0.074 C 
BRANCH  33  34
HETATM   34  C5  UNL     1       2.250   6.724   9.440  1.00  0.00    -0.056 A 
HETATM   35  C6  UNL     1       1.495   7.806   8.969  1.00  0.00     0.007 A 
HETATM   36  C7  UNL     1       1.309   7.991   7.598  1.00  0.00     0.001 A 
HETATM   37  C8  UNL     1       1.872   7.100   6.688  1.00  0.00     0.000 A 
HETATM   38  C9  UNL     1       2.622   6.019   7.146  1.00  0.00     0.001 A 
HETATM   39  C10 UNL     1       2.808   5.831   8.516  1.00  0.00     0.007 A 
ENDBRANCH  33  34
ENDBRANCH  28  33
ENDBRANCH  25  28
ENDBRANCH  23  24
ENDBRANCH  22  23
ENDBRANCH   1  22
BRANCH  17  40
HETATM   40  O5  UNL     1     -11.549   9.795  12.522  1.00  0.00    -0.381 OA
HETATM   41  H34 UNL     1     -12.002  10.655  12.561  1.00  0.00     0.211 HD
ENDBRANCH  17  40
BRANCH  17  42
HETATM   42  C28 UNL     1     -13.586   8.599  13.069  1.00  0.00     0.158 C 
HETATM   43  C29 UNL     1     -14.681   9.549  13.489  1.00  0.00     0.094 C 
HETATM   44  O6  UNL     1     -13.865   7.601  12.403  1.00  0.00    -0.295 OA
ENDBRANCH  17  42
TORSDOF 10
ENDMDL
