MODEL 1
REMARK minimizedAffinity -7.78739166
REMARK CNNscore 0.689489186
REMARK CNNaffinity 7.04788923
REMARK  2 active torsions:
REMARK  status: ('A' for Active; 'I' for Inactive)
REMARK    1  A    between atoms: C14_15  and  C15_16 
REMARK    2  A    between atoms: C19_21  and  O3_22 
ROOT
HETATM    1  C1  UNL     1      -3.332  51.094 -10.072  1.00  0.00     0.023 C 
HETATM    2  C2  UNL     1      -2.910  52.521 -10.481  1.00  0.00     0.017 C 
HETATM    3  C3  UNL     1      -4.132  53.439 -10.280  1.00  0.00     0.023 C 
HETATM    4  C4  UNL     1      -2.568  52.462 -11.975  1.00  0.00     0.135 C 
HETATM    5  O1  UNL     1      -3.423  52.564 -12.855  1.00  0.00    -0.297 OA
HETATM    6  C5  UNL     1      -1.134  52.172 -12.331  1.00  0.00     0.080 C 
HETATM    7  C6  UNL     1      -0.166  53.183 -11.725  1.00  0.00     0.017 C 
HETATM    8  C7  UNL     1      -0.661  53.919 -10.430  1.00  0.00    -0.035 C 
HETATM    9  C8  UNL     1      -1.356  55.218 -10.896  1.00  0.00     0.016 C 
HETATM   10  C9  UNL     1       0.602  54.207  -9.508  1.00  0.00     0.003 C 
HETATM   11  C10 UNL     1       1.712  55.047 -10.194  1.00  0.00     0.006 C 
HETATM   12  C11 UNL     1       3.002  55.174  -9.367  1.00  0.00     0.006 C 
HETATM   13  C12 UNL     1       2.678  55.680  -7.968  1.00  0.00    -0.000 C 
HETATM   14  C13 UNL     1       3.837  56.049  -7.044  1.00  0.00     0.008 C 
HETATM   15  C14 UNL     1       5.154  56.660  -7.538  1.00  0.00     0.030 C 
HETATM   16  C18 UNL     1       5.734  57.321  -6.249  1.00  0.00     0.040 C 
HETATM   17  C19 UNL     1       4.617  57.263  -5.179  1.00  0.00     0.127 C 
HETATM   18  C20 UNL     1       3.325  57.082  -6.000  1.00  0.00    -0.013 C 
HETATM   19  C21 UNL     1       2.950  58.480  -6.579  1.00  0.00     0.018 C 
HETATM   20  C22 UNL     1       2.077  56.547  -5.262  1.00  0.00     0.013 C 
HETATM   21  C23 UNL     1       1.573  55.151  -5.683  1.00  0.00     0.011 C 
HETATM   22  C24 UNL     1       1.701  54.712  -7.199  1.00  0.00    -0.032 C 
HETATM   23  C25 UNL     1       2.316  53.267  -7.114  1.00  0.00     0.016 C 
HETATM   24  C26 UNL     1       0.304  54.679  -8.020  1.00  0.00    -0.032 C 
HETATM   25  C27 UNL     1      -0.341  56.092  -7.969  1.00  0.00     0.016 C 
HETATM   26  C28 UNL     1      -0.710  53.677  -7.402  1.00  0.00     0.011 C 
HETATM   27  C29 UNL     1      -1.967  53.446  -8.247  1.00  0.00     0.007 C 
HETATM   28  C30 UNL     1      -1.636  52.951  -9.667  1.00  0.00     0.009 C 
ENDROOT
BRANCH  15  29
HETATM   29  C15 UNL     1       6.135  55.684  -8.157  1.00  0.00     0.083 A 
HETATM   30  C16 UNL     1       6.187  55.535  -9.649  1.00  0.00     0.049 C 
HETATM   31  C17 UNL     1       7.332  55.218  -7.346  1.00  0.00     0.207 A 
HETATM   32  O2  UNL     1       6.156  54.416  -7.471  1.00  0.00    -0.375 OA
ENDBRANCH  15  29
BRANCH  17  33
HETATM   33  O3  UNL     1       4.834  56.139  -4.330  1.00  0.00    -0.395 OA
HETATM   34  H30 UNL     1       5.678  56.284  -3.868  1.00  0.00     0.210 HD
ENDBRANCH  17  33
TORSDOF 2
ENDMDL
