MODEL 1
REMARK minimizedAffinity -8.38639069
REMARK  12 active torsions:
REMARK  status: ('A' for Active; 'I' for Inactive)
REMARK    1  A    between atoms: C2_2  and  C3_3 
REMARK    2  A    between atoms: C2_2  and  C22_26 
REMARK    3  A    between atoms: C3_3  and  C4_4 
REMARK    4  A    between atoms: C4_4  and  C5_5 
REMARK    5  A    between atoms: C4_4  and  N1_18 
REMARK    6  A    between atoms: C5_5  and  C6_6 
REMARK    7  A    between atoms: C9_9  and  C10_10 
REMARK       I    between atoms: N1_18  and  C18_19 
REMARK    8  A    between atoms: C18_19  and  C19_21 
REMARK    9  A    between atoms: C19_21  and  C20_22 
REMARK   10  A    between atoms: C20_22  and  C21_23 
REMARK   11  A    between atoms: C21_23  and  O3_25 
REMARK   12  A    between atoms: C22_26  and  O5_28 
ROOT
HETATM    1  C4  UNL     1       0.705   6.073  11.437  1.00  0.00     0.089 C 
ENDROOT
BRANCH   1   2
HETATM    2  C3  UNL     1      -0.403   7.144  11.535  1.00  0.00     0.040 C 
BRANCH   2   3
HETATM    3  C2  UNL     1      -0.265   8.167  12.670  1.00  0.00     0.081 C 
HETATM    4  C1  UNL     1       1.111   8.823  12.743  1.00  0.00     0.021 C 
BRANCH   3   5
HETATM    5  C22 UNL     1      -1.336   9.224  12.516  1.00  0.00     0.143 C 
HETATM    6  O4  UNL     1      -2.325   9.142  11.805  1.00  0.00    -0.650 OA
BRANCH   5   7
HETATM    7  O5  UNL     1      -1.104  10.340  13.232  1.00  0.00    -0.776 OA
HETATM    8  H25 UNL     1      -1.862  10.921  13.008  1.00  0.00     0.167 HD
ENDBRANCH   5   7
ENDBRANCH   3   5
ENDBRANCH   2   3
ENDBRANCH   1   2
BRANCH   1   9
HETATM    9  C5  UNL     1       0.235   4.638  11.784  1.00  0.00     0.063 C 
BRANCH   9  10
HETATM   10  C6  UNL     1      -1.252   4.485  12.010  1.00  0.00    -0.056 A 
HETATM   11  C7  UNL     1      -2.082   3.978  11.004  1.00  0.00     0.008 A 
HETATM   12  C8  UNL     1      -3.459   3.845  11.218  1.00  0.00     0.013 A 
HETATM   13  C9  UNL     1      -4.045   4.225  12.434  1.00  0.00    -0.026 A 
HETATM   14  C16 UNL     1      -3.207   4.751  13.429  1.00  0.00     0.013 A 
HETATM   15  C17 UNL     1      -1.831   4.887  13.220  1.00  0.00     0.008 A 
BRANCH  13  16
HETATM   16  C10 UNL     1      -5.493   4.082  12.658  1.00  0.00    -0.026 A 
HETATM   17  C11 UNL     1      -6.250   5.135  13.198  1.00  0.00     0.012 A 
HETATM   18  C12 UNL     1      -7.625   5.000  13.410  1.00  0.00     0.001 A 
HETATM   19  C13 UNL     1      -8.266   3.808  13.085  1.00  0.00     0.000 A 
HETATM   20  C14 UNL     1      -7.535   2.751  12.549  1.00  0.00     0.001 A 
HETATM   21  C15 UNL     1      -6.161   2.888  12.337  1.00  0.00     0.012 A 
ENDBRANCH  13  16
ENDBRANCH   9  10
ENDBRANCH   1   9
BRANCH   1  22
HETATM   22  N1  UNL     1       1.317   6.117  10.100  1.00  0.00    -0.356 N 
HETATM   23  C18 UNL     1       2.668   5.976   9.867  1.00  0.00     0.218 C 
HETATM   24  O1  UNL     1       3.502   5.849  10.755  1.00  0.00    -0.274 OA
HETATM   25  H19 UNL     1       0.693   6.135   9.301  1.00  0.00     0.162 HD
BRANCH  23  26
HETATM   26  C19 UNL     1       3.014   5.998   8.396  1.00  0.00     0.113 C 
BRANCH  26  27
HETATM   27  C20 UNL     1       2.021   6.827   7.595  1.00  0.00     0.119 C 
BRANCH  27  28
HETATM   28  C21 UNL     1       2.198   8.290   7.878  1.00  0.00     0.139 C 
HETATM   29  O2  UNL     1       3.154   8.986   7.581  1.00  0.00    -0.650 OA
BRANCH  28  30
HETATM   30  O3  UNL     1       1.144   8.813   8.533  1.00  0.00    -0.776 OA
HETATM   31  H24 UNL     1       1.376   9.756   8.658  1.00  0.00     0.167 HD
ENDBRANCH  28  30
ENDBRANCH  27  28
ENDBRANCH  26  27
ENDBRANCH  23  26
ENDBRANCH   1  22
TORSDOF 12
ENDMDL
