MODEL 1
REMARK minimizedAffinity -8.81936836
REMARK CNNscore 0.670265436
REMARK CNNaffinity 7.4344902
REMARK  13 active torsions:
REMARK  status: ('A' for Active; 'I' for Inactive)
REMARK    1  A    between atoms: O1_2  and  C2_3 
REMARK    2  A    between atoms: C12_14  and  C13_15 
REMARK    3  A    between atoms: C13_15  and  C15_17 
REMARK    4  A    between atoms: C15_17  and  C16_18 
REMARK    5  A    between atoms: C17_19  and  C18_20 
REMARK    6  A    between atoms: C18_20  and  O3_23 
REMARK    7  A    between atoms: C28_31  and  O4_32 
REMARK    8  A    between atoms: O4_32  and  C29_33 
REMARK    9  A    between atoms: C30_35  and  C31_36 
REMARK   10  A    between atoms: C31_36  and  O6_37 
REMARK   11  A    between atoms: C32_38  and  O7_39 
REMARK   12  A    between atoms: C33_40  and  O8_41 
REMARK   13  A    between atoms: C34_42  and  O9_43 
ROOT
HETATM    1  C2  UNL     1      -2.881  11.968  15.353  1.00  0.00     0.270 C 
HETATM    2  O2  UNL     1      -2.561  12.387  16.705  1.00  0.00    -0.344 OA
HETATM    3  C3  UNL     1      -1.337  11.725  17.100  1.00  0.00     0.095 C 
HETATM    4  C4  UNL     1      -1.758  10.499  17.914  1.00  0.00     0.008 C 
HETATM    5  C5  UNL     1      -2.342   9.431  17.345  1.00  0.00    -0.021 C 
HETATM    6  C6  UNL     1      -2.776   9.506  15.904  1.00  0.00     0.030 C 
HETATM    7  C7  UNL     1      -2.033  10.654  15.085  1.00  0.00     0.024 C 
HETATM    8  C8  UNL     1      -1.789  10.393  13.568  1.00  0.00     0.016 C 
HETATM    9  C9  UNL     1      -2.101   9.011  12.969  1.00  0.00     0.011 C 
HETATM   10  C10 UNL     1      -2.082   7.874  13.981  1.00  0.00    -0.032 C 
HETATM   11  C11 UNL     1      -0.656   7.692  14.553  1.00  0.00     0.016 C 
HETATM   12  C12 UNL     1      -2.632   6.518  13.449  1.00  0.00    -0.002 C 
HETATM   13  C21 UNL     1      -2.950   5.756  14.760  1.00  0.00     0.006 C 
HETATM   14  C22 UNL     1      -3.113   6.835  15.865  1.00  0.00     0.011 C 
HETATM   15  C23 UNL     1      -3.111   8.189  15.117  1.00  0.00    -0.029 C 
HETATM   16  C24 UNL     1      -4.592   8.401  14.614  1.00  0.00     0.016 C 
HETATM   17  C25 UNL     1      -0.748  11.221  15.777  1.00  0.00     0.039 C 
HETATM   18  C26 UNL     1       0.552  10.453  16.003  1.00  0.00     0.011 C 
HETATM   19  C27 UNL     1       1.578  11.369  16.696  1.00  0.00     0.033 C 
HETATM   20  C28 UNL     1       1.052  11.997  18.007  1.00  0.00     0.136 C 
HETATM   21  C35 UNL     1      -0.341  12.696  17.827  1.00  0.00     0.014 C 
HETATM   22  C36 UNL     1      -0.134  14.004  17.013  1.00  0.00     0.021 C 
HETATM   23  C37 UNL     1      -0.915  13.165  19.187  1.00  0.00     0.021 C 
ENDROOT
BRANCH  20  24
HETATM   24  O4  UNL     1       0.968  10.929  18.959  1.00  0.00    -0.352 OA
BRANCH  24  25
HETATM   25  C29 UNL     1       2.155  10.750  19.744  1.00  0.00     0.292 C 
HETATM   26  O5  UNL     1       2.001   9.607  20.581  1.00  0.00    -0.348 OA
HETATM   27  C30 UNL     1       3.157   9.308  21.380  1.00  0.00     0.179 C 
HETATM   28  C32 UNL     1       4.119  10.501  21.593  1.00  0.00     0.180 C 
HETATM   29  C33 UNL     1       3.362  11.831  21.725  1.00  0.00     0.183 C 
HETATM   30  C34 UNL     1       2.317  12.019  20.612  1.00  0.00     0.204 C 
BRANCH  27  31
HETATM   31  C31 UNL     1       2.646   8.736  22.710  1.00  0.00     0.198 C 
BRANCH  31  32
HETATM   32  O6  UNL     1       1.591   7.801  22.506  1.00  0.00    -0.398 OA
HETATM   33  H48 UNL     1       0.767   8.313  22.424  1.00  0.00     0.209 HD
ENDBRANCH  31  32
ENDBRANCH  27  31
BRANCH  28  34
HETATM   34  O7  UNL     1       5.012  10.568  20.465  1.00  0.00    -0.390 OA
HETATM   35  H50 UNL     1       5.546  11.380  20.542  1.00  0.00     0.210 HD
ENDBRANCH  28  34
BRANCH  29  36
HETATM   36  O8  UNL     1       2.720  11.940  23.000  1.00  0.00    -0.390 OA
HETATM   37  H52 UNL     1       3.398  11.843  23.695  1.00  0.00     0.210 HD
ENDBRANCH  29  36
BRANCH  30  38
HETATM   38  O9  UNL     1       2.705  13.138  19.790  1.00  0.00    -0.388 OA
HETATM   39  H54 UNL     1       2.234  13.916  20.142  1.00  0.00     0.210 HD
ENDBRANCH  30  38
ENDBRANCH  24  25
ENDBRANCH  20  24
BRANCH   1  40
HETATM   40  O1  UNL     1      -2.544  13.009  14.430  1.00  0.00    -0.365 OA
HETATM   41  C1  UNL     1      -3.270  14.203  14.694  1.00  0.00     0.204 C 
ENDBRANCH   1  40
BRANCH  12  42
HETATM   42  C13 UNL     1      -1.959   5.713  12.297  1.00  0.00    -0.010 C 
HETATM   43  C14 UNL     1      -2.342   4.224  12.455  1.00  0.00     0.010 C 
BRANCH  42  44
HETATM   44  C15 UNL     1      -0.433   5.859  12.118  1.00  0.00     0.031 C 
BRANCH  44  45
HETATM   45  C16 UNL     1       0.085   6.475  10.834  1.00  0.00    -0.027 C 
HETATM   46  C17 UNL     1       1.372   6.679  10.491  1.00  0.00     0.006 C 
BRANCH  46  47
HETATM   47  C18 UNL     1       1.905   7.287   9.211  1.00  0.00     0.068 C 
HETATM   48  C19 UNL     1       0.819   8.156   8.566  1.00  0.00     0.050 C 
HETATM   49  C20 UNL     1       2.452   6.294   8.182  1.00  0.00     0.050 C 
BRANCH  47  50
HETATM   50  O3  UNL     1       2.998   8.140   9.570  1.00  0.00    -0.387 OA
HETATM   51  H30 UNL     1       2.686   8.756  10.254  1.00  0.00     0.211 HD
ENDBRANCH  47  50
ENDBRANCH  46  47
ENDBRANCH  44  45
ENDBRANCH  42  44
ENDBRANCH  12  42
TORSDOF 13
ENDMDL
