MODEL 1
REMARK minimizedAffinity -10.3187494
REMARK  7 active torsions:
REMARK  status: ('A' for Active; 'I' for Inactive)
REMARK    1  A    between atoms: C4_4  and  C5_5 
REMARK    2  A    between atoms: C5_5  and  C6_6 
REMARK    3  A    between atoms: C6_6  and  C7_7 
REMARK    4  A    between atoms: C7_7  and  C9_9 
REMARK    5  A    between atoms: C22_22  and  O1_23 
REMARK    6  A    between atoms: C23_24  and  O2_25 
REMARK    7  A    between atoms: C24_26  and  O3_27 
ROOT
HETATM    1  C9  UNL     1      -0.770  49.987 -19.050  1.00  0.00    -0.002 C 
HETATM    2  C10 UNL     1      -1.760  48.841 -18.700  1.00  0.00     0.007 C 
HETATM    3  C11 UNL     1      -2.513  48.453 -19.985  1.00  0.00     0.015 C 
HETATM    4  C12 UNL     1      -1.711  49.107 -21.119  1.00  0.00    -0.013 C 
HETATM    5  C13 UNL     1      -0.520  48.153 -21.447  1.00  0.00     0.021 C 
HETATM    6  C14 UNL     1      -2.399  49.357 -22.456  1.00  0.00    -0.068 C 
HETATM    7  C15 UNL     1      -1.973  50.368 -23.256  1.00  0.00    -0.065 C 
HETATM    8  C16 UNL     1      -0.876  51.335 -22.802  1.00  0.00     0.036 C 
HETATM    9  C17 UNL     1      -0.308  51.161 -21.375  1.00  0.00     0.015 C 
HETATM   10  C18 UNL     1      -1.309  50.472 -20.438  1.00  0.00    -0.029 C 
HETATM   11  C19 UNL     1      -2.528  51.424 -20.216  1.00  0.00     0.016 C 
HETATM   12  C20 UNL     1      -2.607  50.632 -24.647  1.00  0.00     0.012 C 
HETATM   13  C21 UNL     1      -3.654  51.759 -24.423  1.00  0.00     0.023 C 
HETATM   14  C22 UNL     1      -1.573  51.116 -25.715  1.00  0.00     0.162 C 
HETATM   15  C23 UNL     1      -2.214  51.321 -27.095  1.00  0.00     0.177 C 
HETATM   16  C24 UNL     1      -2.907  50.050 -27.597  1.00  0.00     0.153 C 
HETATM   17  C25 UNL     1      -3.933  49.495 -26.589  1.00  0.00     0.018 C 
HETATM   18  C26 UNL     1      -4.523  48.183 -27.134  1.00  0.00     0.013 C 
HETATM   19  C27 UNL     1      -3.273  49.313 -25.191  1.00  0.00     0.007 C 
HETATM   20  C28 UNL     1      -4.231  48.732 -24.143  1.00  0.00     0.010 C 
HETATM   21  C29 UNL     1      -3.494  48.394 -22.849  1.00  0.00     0.036 C 
ENDROOT
BRANCH   1  22
HETATM   22  C7  UNL     1      -0.590  51.011 -17.885  1.00  0.00    -0.014 C 
HETATM   23  C8  UNL     1       0.204  52.249 -18.331  1.00  0.00     0.010 C 
BRANCH  22  24
HETATM   24  C6  UNL     1       0.159  50.413 -16.656  1.00  0.00     0.008 C 
BRANCH  24  25
HETATM   25  C5  UNL     1       0.634  51.432 -15.614  1.00  0.00     0.028 C 
BRANCH  25  26
HETATM   26  C4  UNL     1       1.953  52.038 -16.015  1.00  0.00    -0.025 C 
HETATM   27  C2  UNL     1       3.157  51.876 -15.432  1.00  0.00    -0.091 C 
HETATM   28  C1  UNL     1       3.440  51.017 -14.231  1.00  0.00     0.042 C 
HETATM   29  C3  UNL     1       4.369  52.590 -15.975  1.00  0.00     0.042 C 
ENDBRANCH  25  26
ENDBRANCH  24  25
ENDBRANCH  22  24
ENDBRANCH   1  22
BRANCH  14  30
HETATM   30  O1  UNL     1      -0.501  50.168 -25.857  1.00  0.00    -0.392 OA
HETATM   31  H35 UNL     1      -0.071  50.361 -26.712  1.00  0.00     0.210 HD
ENDBRANCH  14  30
BRANCH  15  32
HETATM   32  O2  UNL     1      -1.186  51.671 -28.047  1.00  0.00    -0.390 OA
HETATM   33  H37 UNL     1      -0.893  52.575 -27.826  1.00  0.00     0.210 HD
ENDBRANCH  15  32
BRANCH  16  34
HETATM   34  O3  UNL     1      -3.564  50.366 -28.833  1.00  0.00    -0.393 OA
HETATM   35  H39 UNL     1      -2.865  50.741 -29.401  1.00  0.00     0.210 HD
ENDBRANCH  16  34
TORSDOF 7
ENDMDL
