MODEL 1
REMARK minimizedAffinity -7.85835218
REMARK CNNscore 0.539553702
REMARK CNNaffinity 6.69885874
REMARK  11 active torsions:
REMARK  status: ('A' for Active; 'I' for Inactive)
REMARK    1  A    between atoms: C2_2  and  C4_4 
REMARK    2  A    between atoms: C5_5  and  C6_6 
REMARK    3  A    between atoms: C6_6  and  C7_7 
REMARK    4  A    between atoms: C7_7  and  C9_9 
REMARK    5  A    between atoms: C27_28  and  O2_29 
REMARK    6  A    between atoms: O2_29  and  C28_30 
REMARK    7  A    between atoms: C29_32  and  C30_33 
REMARK    8  A    between atoms: C30_33  and  O4_34 
REMARK    9  A    between atoms: C31_35  and  O5_36 
REMARK   10  A    between atoms: C32_37  and  O6_38 
REMARK   11  A    between atoms: C33_39  and  O7_40 
ROOT
HETATM    1  C9  UNL     1     -17.441  -2.725  12.646  1.00  0.00    -0.002 C 
HETATM    2  C10 UNL     1     -17.323  -3.107  11.133  1.00  0.00     0.006 C 
HETATM    3  C11 UNL     1     -16.035  -3.940  10.959  1.00  0.00     0.011 C 
HETATM    4  C12 UNL     1     -15.620  -4.304  12.396  1.00  0.00    -0.029 C 
HETATM    5  C13 UNL     1     -16.516  -5.524  12.793  1.00  0.00     0.016 C 
HETATM    6  C14 UNL     1     -14.106  -4.640  12.590  1.00  0.00     0.028 C 
HETATM    7  C15 UNL     1     -13.661  -5.857  11.803  1.00  0.00    -0.021 C 
HETATM    8  C16 UNL     1     -12.986  -6.867  12.380  1.00  0.00     0.008 C 
HETATM    9  C17 UNL     1     -12.655  -6.857  13.868  1.00  0.00     0.092 C 
HETATM   10  O1  UNL     1     -11.571  -5.905  13.980  1.00  0.00    -0.374 OA
HETATM   11  C18 UNL     1     -12.135  -4.601  14.206  1.00  0.00     0.179 C 
HETATM   12  C19 UNL     1     -13.678  -4.726  14.125  1.00  0.00    -0.004 C 
HETATM   13  C20 UNL     1     -14.312  -3.587  14.968  1.00  0.00     0.014 C 
HETATM   14  C21 UNL     1     -15.773  -3.219  14.658  1.00  0.00     0.011 C 
HETATM   15  C22 UNL     1     -15.984  -2.969  13.154  1.00  0.00    -0.032 C 
HETATM   16  C23 UNL     1     -15.113  -1.740  12.734  1.00  0.00     0.016 C 
HETATM   17  C24 UNL     1     -13.833  -6.192  14.629  1.00  0.00     0.036 C 
HETATM   18  C25 UNL     1     -13.788  -6.452  16.145  1.00  0.00     0.011 C 
HETATM   19  C26 UNL     1     -12.424  -6.853  16.669  1.00  0.00     0.033 C 
HETATM   20  C27 UNL     1     -11.894  -8.133  16.008  1.00  0.00     0.136 C 
HETATM   21  C34 UNL     1     -12.202  -8.241  14.459  1.00  0.00     0.014 C 
HETATM   22  C35 UNL     1     -10.956  -8.788  13.712  1.00  0.00     0.021 C 
HETATM   23  C36 UNL     1     -13.330  -9.292  14.269  1.00  0.00     0.021 C 
ENDROOT
BRANCH  20  24
HETATM   24  O2  UNL     1     -10.487  -8.297  16.259  1.00  0.00    -0.352 OA
BRANCH  24  25
HETATM   25  C28 UNL     1     -10.152  -9.297  17.227  1.00  0.00     0.292 C 
HETATM   26  O3  UNL     1     -11.271 -10.152  17.455  1.00  0.00    -0.348 OA
HETATM   27  C29 UNL     1     -10.997 -11.172  18.432  1.00  0.00     0.179 C 
HETATM   28  C31 UNL     1     -10.647 -10.549  19.788  1.00  0.00     0.180 C 
HETATM   29  C32 UNL     1      -9.479  -9.575  19.620  1.00  0.00     0.183 C 
HETATM   30  C33 UNL     1      -9.781  -8.556  18.525  1.00  0.00     0.204 C 
BRANCH  27  31
HETATM   31  C30 UNL     1     -12.242 -12.058  18.529  1.00  0.00     0.198 C 
BRANCH  31  32
HETATM   32  O4  UNL     1     -11.890 -13.402  18.192  1.00  0.00    -0.398 OA
HETATM   33  H44 UNL     1     -11.409 -13.334  17.345  1.00  0.00     0.209 HD
ENDBRANCH  31  32
ENDBRANCH  27  31
BRANCH  28  34
HETATM   34  O5  UNL     1     -10.291 -11.555  20.738  1.00  0.00    -0.390 OA
HETATM   35  H46 UNL     1      -9.873 -11.077  21.483  1.00  0.00     0.210 HD
ENDBRANCH  28  34
BRANCH  29  36
HETATM   36  O6  UNL     1      -9.241  -8.913  20.872  1.00  0.00    -0.390 OA
HETATM   37  H48 UNL     1      -8.618  -8.187  20.660  1.00  0.00     0.210 HD
ENDBRANCH  29  36
BRANCH  30  38
HETATM   38  O7  UNL     1      -8.629  -7.718  18.338  1.00  0.00    -0.388 OA
HETATM   39  H50 UNL     1      -8.861  -7.131  17.590  1.00  0.00     0.210 HD
ENDBRANCH  30  38
ENDBRANCH  24  25
ENDBRANCH  20  24
BRANCH   1  40
HETATM   40  C7  UNL     1     -18.127  -1.334  12.847  1.00  0.00    -0.010 C 
HETATM   41  C8  UNL     1     -17.963  -0.443  11.609  1.00  0.00     0.010 C 
BRANCH  40  42
HETATM   42  C6  UNL     1     -17.531  -0.618  14.094  1.00  0.00     0.031 C 
BRANCH  42  43
HETATM   43  C5  UNL     1     -17.531   0.892  14.156  1.00  0.00    -0.026 C 
HETATM   44  C4  UNL     1     -16.490   1.727  13.992  1.00  0.00     0.002 C 
BRANCH  44  45
HETATM   45  C2  UNL     1     -16.545   3.183  14.038  1.00  0.00    -0.072 C 
HETATM   46  C1  UNL     1     -17.543   3.829  13.412  1.00  0.00     0.018 C 
HETATM   47  C3  UNL     1     -15.495   3.947  14.801  1.00  0.00     0.047 C 
ENDBRANCH  44  45
ENDBRANCH  42  43
ENDBRANCH  40  42
ENDBRANCH   1  40
TORSDOF 11
ENDMDL
