MODEL 1
REMARK minimizedAffinity -10.0043488
REMARK CNNscore 0.822196662
REMARK CNNaffinity 7.39830828
REMARK  8 active torsions:
REMARK  status: ('A' for Active; 'I' for Inactive)
REMARK    1  A    between atoms: C2_2  and  C4_4 
REMARK    2  A    between atoms: C4_4  and  O1_6 
REMARK    3  A    between atoms: C4_4  and  C6_7 
REMARK    4  A    between atoms: C7_9  and  C8_10 
REMARK    5  A    between atoms: C8_10  and  O3_12 
REMARK    6  A    between atoms: C8_10  and  C10_13 
REMARK    7  A    between atoms: C17_20  and  O4_21 
REMARK    8  A    between atoms: C23_28  and  O6_29 
ROOT
HETATM    1  C10 UNL     1       0.713   6.068  11.932  1.00  0.00     0.034 C 
HETATM    2  C11 UNL     1       1.001   6.020  10.404  1.00  0.00     0.021 C 
HETATM    3  C12 UNL     1       2.236   6.947  10.121  1.00  0.00    -0.004 C 
HETATM    4  C13 UNL     1       3.205   6.296   9.113  1.00  0.00     0.013 C 
HETATM    5  C14 UNL     1       2.506   6.427   7.771  1.00  0.00     0.001 C 
HETATM    6  C15 UNL     1       1.779   7.759   7.835  1.00  0.00     0.001 C 
HETATM    7  C16 UNL     1       1.756   8.177   9.314  1.00  0.00     0.013 C 
HETATM    8  C17 UNL     1       2.842   7.130  11.553  1.00  0.00     0.097 C 
HETATM    9  C18 UNL     1       3.907   8.133  11.976  1.00  0.00    -0.036 C 
HETATM   10  C19 UNL     1       4.451   9.062  11.178  1.00  0.00     0.057 C 
HETATM   11  C20 UNL     1       5.322  10.135  11.706  1.00  0.00     0.154 C 
HETATM   12  O5  UNL     1       5.815  10.931  10.906  1.00  0.00    -0.293 OA
HETATM   13  C21 UNL     1       5.496  10.252  13.218  1.00  0.00     0.071 C 
HETATM   14  C22 UNL     1       6.719  11.124  13.556  1.00  0.00     0.045 C 
HETATM   15  C23 UNL     1       8.065  10.403  13.410  1.00  0.00     0.119 C 
HETATM   16  C24 UNL     1       7.970   9.012  12.790  1.00  0.00     0.032 C 
HETATM   17  C25 UNL     1       6.882   8.120  13.397  1.00  0.00     0.013 C 
HETATM   18  C26 UNL     1       5.575   8.852  13.864  1.00  0.00    -0.026 C 
HETATM   19  C27 UNL     1       5.646   8.980  15.407  1.00  0.00     0.016 C 
HETATM   20  C28 UNL     1       4.319   7.987  13.457  1.00  0.00     0.026 C 
HETATM   21  C29 UNL     1       3.065   8.139  14.347  1.00  0.00     0.011 C 
HETATM   22  C30 UNL     1       1.965   7.135  13.951  1.00  0.00     0.014 C 
HETATM   23  C31 UNL     1       1.561   7.273  12.463  1.00  0.00    -0.002 C 
HETATM   24  C32 UNL     1       0.862   8.644  12.309  1.00  0.00     0.019 C 
ENDROOT
BRANCH   1  25
HETATM   25  C8  UNL     1      -0.768   5.824  12.356  1.00  0.00     0.087 C 
HETATM   26  C9  UNL     1      -0.820   5.591  13.879  1.00  0.00     0.049 C 
BRANCH  25  27
HETATM   27  C7  UNL     1      -1.502   4.760  11.573  1.00  0.00     0.188 A 
HETATM   28  C6  UNL     1      -2.540   3.808  12.168  1.00  0.00     0.188 A 
HETATM   29  O2  UNL     1      -1.191   3.400  11.892  1.00  0.00    -0.369 OA
BRANCH  28  30
HETATM   30  C4  UNL     1      -3.599   3.053  11.382  1.00  0.00     0.086 C 
HETATM   31  C5  UNL     1      -3.527   1.532  11.600  1.00  0.00     0.049 C 
BRANCH  30  32
HETATM   32  C2  UNL     1      -5.027   3.612  11.707  1.00  0.00     0.014 C 
HETATM   33  C1  UNL     1      -5.069   4.448  12.997  1.00  0.00     0.012 C 
HETATM   34  C3  UNL     1      -6.085   2.503  11.839  1.00  0.00     0.012 C 
ENDBRANCH  30  32
BRANCH  30  35
HETATM   35  O1  UNL     1      -3.332   3.282   9.990  1.00  0.00    -0.387 OA
HETATM   36  H11 UNL     1      -2.463   2.891   9.785  1.00  0.00     0.210 HD
ENDBRANCH  30  35
ENDBRANCH  28  30
ENDBRANCH  25  27
BRANCH  25  37
HETATM   37  O3  UNL     1      -1.475   7.054  12.113  1.00  0.00    -0.387 OA
HETATM   38  H17 UNL     1      -2.313   7.021  12.602  1.00  0.00     0.210 HD
ENDBRANCH  25  37
ENDBRANCH   1  25
BRANCH   8  39
HETATM   39  O4  UNL     1       3.461   5.851  11.855  1.00  0.00    -0.384 OA
HETATM   40  H29 UNL     1       4.325   5.830  11.407  1.00  0.00     0.211 HD
ENDBRANCH   8  39
BRANCH  15  41
HETATM   41  O6  UNL     1       8.679  10.276  14.694  1.00  0.00    -0.396 OA
HETATM   42  H35 UNL     1       8.857  11.179  15.018  1.00  0.00     0.210 HD
ENDBRANCH  15  41
TORSDOF 8
ENDMDL
