MODEL 1
REMARK minimizedAffinity -8.91101933
REMARK  9 active torsions:
REMARK  status: ('A' for Active; 'I' for Inactive)
REMARK    1  A    between atoms: C12_14  and  C13_15 
REMARK    2  A    between atoms: C13_15  and  C15_17 
REMARK    3  A    between atoms: C15_17  and  C16_18 
REMARK    4  A    between atoms: C16_18  and  C17_19 
REMARK    5  A    between atoms: C18_20  and  C20_22 
REMARK    6  A    between atoms: C26_29  and  C27_30 
REMARK    7  A    between atoms: C27_30  and  C28_31 
REMARK    8  A    between atoms: C28_31  and  C29_32 
REMARK    9  A    between atoms: C29_32  and  O5_34 
ROOT
HETATM    1  C1  UNL     1       6.511   6.990  10.616  1.00  0.00     0.025 C 
HETATM    2  C2  UNL     1       5.415   7.416  11.255  1.00  0.00     0.015 C 
HETATM    3  C3  UNL     1       5.381   7.645  12.719  1.00  0.00     0.289 C 
HETATM    4  O1  UNL     1       6.194   7.251  13.533  1.00  0.00    -0.260 OA
HETATM    5  O2  UNL     1       4.267   8.381  12.991  1.00  0.00    -0.311 OA
HETATM    6  C4  UNL     1       3.714   8.850  11.757  1.00  0.00     0.142 C 
HETATM    7  C5  UNL     1       2.218   9.098  11.866  1.00  0.00     0.039 C 
HETATM    8  C6  UNL     1       1.453   7.818  12.218  1.00  0.00     0.006 C 
HETATM    9  C7  UNL     1       1.714   6.717  11.158  1.00  0.00    -0.027 A 
HETATM   10  C8  UNL     1       0.483   6.181  10.420  1.00  0.00     0.011 C 
HETATM   11  C9  UNL     1      -0.803   5.982  11.244  1.00  0.00     0.011 C 
HETATM   12  C10 UNL     1      -0.795   6.662  12.621  1.00  0.00    -0.032 C 
HETATM   13  C11 UNL     1      -0.113   5.692  13.625  1.00  0.00     0.016 C 
HETATM   14  C12 UNL     1      -2.188   7.100  13.183  1.00  0.00    -0.002 C 
HETATM   15  C21 UNL     1      -1.847   8.285  14.129  1.00  0.00     0.006 C 
HETATM   16  C22 UNL     1      -0.392   8.696  13.835  1.00  0.00     0.011 C 
HETATM   17  C23 UNL     1      -0.065   8.048  12.475  1.00  0.00    -0.032 C 
HETATM   18  C24 UNL     1      -0.668   8.994  11.385  1.00  0.00     0.016 C 
HETATM   19  C25 UNL     1       2.779   5.707  11.523  1.00  0.00     0.022 A 
HETATM   20  C26 UNL     1       3.097   6.698  10.420  1.00  0.00    -0.021 A 
HETATM   21  C30 UNL     1       4.104   7.839  10.689  1.00  0.00     0.063 C 
ENDROOT
BRANCH  14  22
HETATM   22  C13 UNL     1      -3.225   6.099  13.776  1.00  0.00    -0.014 C 
HETATM   23  C14 UNL     1      -2.961   5.584  15.197  1.00  0.00     0.010 C 
BRANCH  22  24
HETATM   24  C15 UNL     1      -3.495   4.929  12.802  1.00  0.00     0.008 C 
BRANCH  24  25
HETATM   25  C16 UNL     1      -4.981   4.580  12.665  1.00  0.00     0.028 C 
BRANCH  25  26
HETATM   26  C17 UNL     1      -5.169   3.266  11.954  1.00  0.00    -0.017 C 
HETATM   27  C18 UNL     1      -6.219   2.427  12.024  1.00  0.00    -0.028 C 
HETATM   28  C19 UNL     1      -6.297   1.162  11.223  1.00  0.00     0.051 C 
BRANCH  27  29
HETATM   29  C20 UNL     1      -7.394   2.661  12.918  1.00  0.00     0.265 C 
HETATM   30  O3  UNL     1      -8.561   2.500  12.587  1.00  0.00    -0.302 OA
ENDBRANCH  27  29
ENDBRANCH  25  26
ENDBRANCH  24  25
ENDBRANCH  22  24
ENDBRANCH  14  22
BRANCH  20  31
HETATM   31  C27 UNL     1       3.164   6.215   8.956  1.00  0.00     0.021 C 
BRANCH  31  32
HETATM   32  C28 UNL     1       2.246   6.892   7.946  1.00  0.00     0.111 C 
BRANCH  32  33
HETATM   33  C29 UNL     1       2.335   8.391   7.969  1.00  0.00     0.139 C 
HETATM   34  O4  UNL     1       3.284   9.063   7.605  1.00  0.00    -0.650 OA
BRANCH  33  35
HETATM   35  O5  UNL     1       1.205   8.982   8.403  1.00  0.00    -0.776 OA
HETATM   36  H41 UNL     1       1.411   9.939   8.326  1.00  0.00     0.167 HD
ENDBRANCH  33  35
ENDBRANCH  32  33
ENDBRANCH  31  32
ENDBRANCH  20  31
TORSDOF 9
ENDMDL
