MODEL 1
REMARK minimizedAffinity -8.75475121
REMARK CNNscore 0.578326225
REMARK CNNaffinity 6.68546438
REMARK  8 active torsions:
REMARK  status: ('A' for Active; 'I' for Inactive)
REMARK    1  A    between atoms: C4_4  and  C5_5 
REMARK    2  A    between atoms: C5_5  and  C6_6 
REMARK    3  A    between atoms: C6_6  and  C7_7 
REMARK    4  A    between atoms: C7_7  and  C9_9 
REMARK    5  A    between atoms: C25_26  and  C27_28 
REMARK    6  A    between atoms: C27_28  and  O3_30 
REMARK    7  A    between atoms: C28_31  and  O4_32 
REMARK    8  A    between atoms: C30_34  and  O5_35 
ROOT
HETATM    1  C9  UNL     1      -0.430  50.122 -20.826  1.00  0.00    -0.002 C 
HETATM    2  C10 UNL     1      -1.076  49.635 -19.496  1.00  0.00     0.007 C 
HETATM    3  C11 UNL     1      -2.441  49.018 -19.843  1.00  0.00     0.015 C 
HETATM    4  C12 UNL     1      -2.414  48.808 -21.370  1.00  0.00    -0.005 C 
HETATM    5  C13 UNL     1      -1.657  47.469 -21.627  1.00  0.00     0.021 C 
HETATM    6  C14 UNL     1      -3.716  48.676 -22.157  1.00  0.00    -0.000 C 
HETATM    7  C15 UNL     1      -3.797  49.069 -23.456  1.00  0.00    -0.058 C 
HETATM    8  C16 UNL     1      -2.594  49.739 -24.140  1.00  0.00     0.036 C 
HETATM    9  C17 UNL     1      -1.321  49.967 -23.298  1.00  0.00     0.015 C 
HETATM   10  C18 UNL     1      -1.643  50.115 -21.808  1.00  0.00    -0.028 C 
HETATM   11  C19 UNL     1      -2.480  51.418 -21.606  1.00  0.00     0.016 C 
HETATM   12  C20 UNL     1      -5.096  48.933 -24.322  1.00  0.00     0.011 C 
HETATM   13  C21 UNL     1      -5.757  50.332 -24.293  1.00  0.00     0.023 C 
HETATM   14  C22 UNL     1      -5.995  47.810 -23.705  1.00  0.00     0.029 C 
HETATM   15  C23 UNL     1      -6.215  48.013 -22.205  1.00  0.00     0.090 C 
HETATM   16  C24 UNL     1      -4.902  48.069 -21.469  1.00  0.00     0.157 C 
HETATM   17  O1  UNL     1      -4.836  47.661 -20.311  1.00  0.00    -0.293 OA
HETATM   18  C25 UNL     1      -7.315  47.449 -24.486  1.00  0.00     0.072 C 
HETATM   19  C26 UNL     1      -7.502  45.906 -24.381  1.00  0.00     0.030 C 
HETATM   20  C28 UNL     1      -7.244  47.882 -25.972  1.00  0.00     0.139 C 
HETATM   21  C29 UNL     1      -5.840  47.716 -26.545  1.00  0.00     0.065 C 
HETATM   22  C30 UNL     1      -4.752  48.492 -25.793  1.00  0.00     0.133 C 
ENDROOT
BRANCH   1  23
HETATM   23  C7  UNL     1       0.394  51.426 -20.613  1.00  0.00    -0.014 C 
HETATM   24  C8  UNL     1       0.819  52.025 -21.965  1.00  0.00     0.010 C 
BRANCH  23  25
HETATM   25  C6  UNL     1      -0.294  52.512 -19.759  1.00  0.00     0.008 C 
BRANCH  25  26
HETATM   26  C5  UNL     1       0.550  53.092 -18.619  1.00  0.00     0.028 C 
BRANCH  26  27
HETATM   27  C4  UNL     1       0.647  52.110 -17.480  1.00  0.00    -0.025 C 
HETATM   28  C2  UNL     1       1.645  51.960 -16.588  1.00  0.00    -0.091 C 
HETATM   29  C1  UNL     1       1.544  50.919 -15.499  1.00  0.00     0.042 C 
HETATM   30  C3  UNL     1       2.914  52.764 -16.550  1.00  0.00     0.042 C 
ENDBRANCH  26  27
ENDBRANCH  25  26
ENDBRANCH  23  25
ENDBRANCH   1  23
BRANCH  22  31
HETATM   31  O5  UNL     1      -4.387  49.626 -26.587  1.00  0.00    -0.394 OA
HETATM   32  H46 UNL     1      -3.955  49.293 -27.394  1.00  0.00     0.210 HD
ENDBRANCH  22  31
BRANCH  18  33
HETATM   33  C27 UNL     1      -8.572  48.075 -23.872  1.00  0.00     0.151 C 
HETATM   34  O2  UNL     1      -9.348  47.526 -23.103  1.00  0.00    -0.649 OA
BRANCH  33  35
HETATM   35  O3  UNL     1      -8.804  49.339 -24.250  1.00  0.00    -0.776 OA
HETATM   36  H40 UNL     1      -9.616  49.592 -23.760  1.00  0.00     0.167 HD
ENDBRANCH  33  35
ENDBRANCH  18  33
BRANCH  20  37
HETATM   37  O4  UNL     1      -8.121  47.108 -26.798  1.00  0.00    -0.394 OA
HETATM   38  H42 UNL     1      -9.038  47.275 -26.514  1.00  0.00     0.210 HD
ENDBRANCH  20  37
TORSDOF 8
ENDMDL
