MODEL 1
REMARK minimizedAffinity -8.22158527
REMARK CNNscore 0.655921459
REMARK CNNaffinity 7.46502447
REMARK  12 active torsions:
REMARK  status: ('A' for Active; 'I' for Inactive)
REMARK    1  A    between atoms: N1_2  and  C2_3 
REMARK    2  A    between atoms: C2_3  and  C3_4 
REMARK    3  A    between atoms: C3_4  and  C4_5 
REMARK    4  A    between atoms: C13_15  and  O2_16 
REMARK    5  A    between atoms: C18_21  and  O3_22 
REMARK    6  A    between atoms: C20_24  and  C21_25 
REMARK    7  A    between atoms: C21_25  and  C23_27 
REMARK    8  A    between atoms: C23_27  and  C24_28 
REMARK    9  A    between atoms: C24_28  and  O4_29 
REMARK   10  A    between atoms: C24_28  and  C25_30 
REMARK   11  A    between atoms: C26_31  and  C28_33 
REMARK   12  A    between atoms: C28_33  and  O6_35 
ROOT
HETATM    1  C4  UNL     1      -7.263   5.026  13.316  1.00  0.00     0.023 C 
HETATM    2  C5  UNL     1      -7.943   5.867  12.180  1.00  0.00     0.024 C 
HETATM    3  C6  UNL     1      -7.556   3.557  12.950  1.00  0.00     0.135 C 
HETATM    4  O1  UNL     1      -8.694   3.206  12.612  1.00  0.00    -0.297 OA
HETATM    5  C7  UNL     1      -6.463   2.515  12.971  1.00  0.00     0.080 C 
HETATM    6  C8  UNL     1      -5.067   3.019  13.281  1.00  0.00     0.022 C 
HETATM    7  C9  UNL     1      -4.750   4.389  12.652  1.00  0.00    -0.008 C 
HETATM    8  C10 UNL     1      -4.983   4.375  11.117  1.00  0.00     0.021 C 
HETATM    9  C11 UNL     1      -3.264   4.754  12.904  1.00  0.00     0.002 C 
HETATM   10  C12 UNL     1      -2.845   5.750  13.729  1.00  0.00    -0.029 C 
HETATM   11  C13 UNL     1      -3.817   6.537  14.572  1.00  0.00     0.149 C 
HETATM   12  C14 UNL     1      -5.199   5.897  14.661  1.00  0.00     0.043 C 
HETATM   13  C15 UNL     1      -5.732   5.443  13.299  1.00  0.00     0.017 C 
HETATM   14  C16 UNL     1      -1.360   6.112  13.821  1.00  0.00     0.017 C 
HETATM   15  C17 UNL     1      -0.747   5.147  14.886  1.00  0.00     0.023 C 
HETATM   16  C18 UNL     1      -0.970   7.574  14.162  1.00  0.00     0.132 C 
HETATM   17  C19 UNL     1       0.469   7.733  13.636  1.00  0.00     0.038 C 
HETATM   18  C20 UNL     1       0.732   6.552  12.651  1.00  0.00     0.001 C 
HETATM   19  C29 UNL     1      -0.709   6.000  12.389  1.00  0.00    -0.019 C 
HETATM   20  C30 UNL     1      -1.410   6.886  11.308  1.00  0.00     0.017 C 
HETATM   21  C31 UNL     1      -0.806   4.540  11.948  1.00  0.00     0.094 C 
HETATM   22  C32 UNL     1      -2.199   3.960  12.159  1.00  0.00     0.157 C 
HETATM   23  O7  UNL     1      -2.443   2.831  11.730  1.00  0.00    -0.293 OA
ENDROOT
BRANCH  18  24
HETATM   24  C21 UNL     1       1.635   6.971  11.449  1.00  0.00    -0.011 C 
HETATM   25  C22 UNL     1       0.799   7.553  10.301  1.00  0.00     0.010 C 
BRANCH  24  26
HETATM   26  C23 UNL     1       2.460   5.757  10.919  1.00  0.00     0.040 C 
BRANCH  26  27
HETATM   27  C24 UNL     1       3.504   6.084   9.834  1.00  0.00     0.142 C 
BRANCH  27  28
HETATM   28  O4  UNL     1       4.410   4.991   9.701  1.00  0.00    -0.392 OA
HETATM   29  H39 UNL     1       3.917   4.257   9.300  1.00  0.00     0.210 HD
ENDBRANCH  27  28
BRANCH  27  30
HETATM   30  C25 UNL     1       4.330   7.302  10.100  1.00  0.00     0.018 C 
HETATM   31  C26 UNL     1       5.529   7.353  10.716  1.00  0.00     0.010 C 
HETATM   32  C27 UNL     1       6.302   6.178  11.232  1.00  0.00     0.055 C 
BRANCH  31  33
HETATM   33  C28 UNL     1       6.139   8.699  10.866  1.00  0.00     0.171 C 
HETATM   34  O5  UNL     1       7.146   8.984  11.490  1.00  0.00    -0.646 OA
BRANCH  33  35
HETATM   35  O6  UNL     1       5.442   9.645  10.214  1.00  0.00    -0.773 OA
HETATM   36  H44 UNL     1       5.949  10.464  10.394  1.00  0.00     0.167 HD
ENDBRANCH  33  35
ENDBRANCH  31  33
ENDBRANCH  27  30
ENDBRANCH  26  27
ENDBRANCH  24  26
ENDBRANCH  18  24
BRANCH  16  37
HETATM   37  O3  UNL     1      -1.064   7.894  15.544  1.00  0.00    -0.394 OA
HETATM   38  H28 UNL     1      -0.298   7.508  16.006  1.00  0.00     0.210 HD
ENDBRANCH  16  37
BRANCH  11  39
HETATM   39  O2  UNL     1      -3.365   6.625  15.918  1.00  0.00    -0.391 OA
HETATM   40  H20 UNL     1      -2.647   7.295  15.942  1.00  0.00     0.210 HD
ENDBRANCH  11  39
BRANCH   1  41
HETATM   41  C3  UNL     1      -8.110   5.377  14.590  1.00  0.00     0.047 C 
BRANCH  41  42
HETATM   42  C2  UNL     1      -8.868   6.706  14.750  1.00  0.00     0.270 C 
BRANCH  42  43
HETATM   43  N1  UNL     1     -10.238   6.570  15.228  1.00  0.00     0.079 N 
HETATM   44  C1  UNL     1     -11.193   6.916  14.178  1.00  0.00     0.306 C 
HETATM   45  H4  UNL     1     -10.388   7.218  15.996  1.00  0.00     0.315 HD
ENDBRANCH  42  43
ENDBRANCH  41  42
ENDBRANCH   1  41
TORSDOF 12
ENDMDL
