MODEL 1
REMARK minimizedAffinity -8.91898441
REMARK CNNscore 0.700653017
REMARK CNNaffinity 6.71157312
REMARK  13 active torsions:
REMARK  status: ('A' for Active; 'I' for Inactive)
REMARK    1  A    between atoms: C19_21  and  O3_22 
REMARK    2  A    between atoms: C19_21  and  C20_23 
REMARK    3  A    between atoms: C20_23  and  C21_25 
REMARK    4  A    between atoms: C21_25  and  O5_26 
REMARK    5  A    between atoms: O5_26  and  C22_27 
REMARK    6  A    between atoms: C22_27  and  C23_29 
REMARK    7  A    between atoms: C23_29  and  C24_30 
REMARK    8  A    between atoms: C24_30  and  C25_31 
REMARK       I    between atoms: C25_31  and  N1_33 
REMARK    9  A    between atoms: N1_33  and  C26_34 
REMARK   10  A    between atoms: C26_34  and  C27_35 
REMARK   11  A    between atoms: C27_35  and  C28_36 
REMARK   12  A    between atoms: C27_35  and  C29_39 
REMARK   13  A    between atoms: C28_36  and  O9_38 
ROOT
HETATM    1  C20 UNL     1      -2.048  49.412 -15.388  1.00  0.00     0.185 C 
HETATM    2  O4  UNL     1      -2.489  48.279 -15.186  1.00  0.00    -0.292 OA
ENDROOT
BRANCH   1   3
HETATM    3  C19 UNL     1      -0.980  50.064 -14.461  1.00  0.00     0.128 C 
HETATM    4  C14 UNL     1      -1.553  50.953 -13.314  1.00  0.00     0.005 C 
HETATM    5  C13 UNL     1      -2.006  50.216 -12.048  1.00  0.00     0.091 C 
HETATM    6  C15 UNL     1      -2.714  51.844 -13.833  1.00  0.00     0.019 C 
HETATM    7  C16 UNL     1      -0.284  51.763 -12.933  1.00  0.00     0.002 C 
HETATM    8  C12 UNL     1      -2.251  51.221 -10.931  1.00  0.00     0.133 C 
HETATM    9  C11 UNL     1      -1.082  52.157 -10.574  1.00  0.00     0.072 C 
HETATM   10  O2  UNL     1      -3.327  51.216 -10.334  1.00  0.00    -0.297 OA
HETATM   11  C2  UNL     1      -1.361  53.173  -9.410  1.00  0.00    -0.009 C 
HETATM   12  C10 UNL     1      -0.541  52.837 -11.865  1.00  0.00     0.003 C 
HETATM   13  C1  UNL     1      -2.560  54.103  -9.710  1.00  0.00     0.021 C 
HETATM   14  C3  UNL     1      -1.631  52.373  -8.099  1.00  0.00     0.022 C 
HETATM   15  C7  UNL     1      -0.122  54.067  -9.218  1.00  0.00    -0.067 C 
HETATM   16  C4  UNL     1      -1.548  53.214  -6.833  1.00  0.00     0.084 C 
HETATM   17  C5  UNL     1      -0.216  53.909  -6.753  1.00  0.00     0.149 C 
HETATM   18  O1  UNL     1       0.327  54.171  -5.682  1.00  0.00    -0.293 OA
HETATM   19  C6  UNL     1       0.410  54.357  -8.016  1.00  0.00     0.053 C 
HETATM   20  C8  UNL     1       0.491  54.666 -10.463  1.00  0.00     0.035 C 
HETATM   21  C9  UNL     1       0.738  53.621 -11.543  1.00  0.00     0.010 C 
HETATM   22  C17 UNL     1       0.277  52.207 -14.277  1.00  0.00     0.009 C 
HETATM   23  C18 UNL     1      -0.087  51.068 -15.248  1.00  0.00     0.047 C 
BRANCH   3  24
HETATM   24  O3  UNL     1      -0.072  49.100 -13.914  1.00  0.00    -0.381 OA
HETATM   25  H25 UNL     1      -0.521  48.232 -13.877  1.00  0.00     0.211 HD
ENDBRANCH   3  24
ENDBRANCH   1   3
BRANCH   1  26
HETATM   26  C21 UNL     1      -2.493  50.191 -16.621  1.00  0.00     0.260 C 
BRANCH  26  27
HETATM   27  O5  UNL     1      -1.402  50.372 -17.521  1.00  0.00    -0.314 OA
BRANCH  27  28
HETATM   28  C22 UNL     1      -1.646  51.279 -18.509  1.00  0.00     0.259 C 
HETATM   29  O6  UNL     1      -2.686  51.906 -18.645  1.00  0.00    -0.265 OA
BRANCH  28  30
HETATM   30  C23 UNL     1      -0.458  51.384 -19.433  1.00  0.00     0.120 C 
BRANCH  30  31
HETATM   31  C24 UNL     1       0.178  52.764 -19.340  1.00  0.00     0.112 C 
BRANCH  31  32
HETATM   32  C25 UNL     1       0.591  53.281 -20.703  1.00  0.00     0.218 C 
HETATM   33  O7  UNL     1       1.142  54.364 -20.874  1.00  0.00    -0.274 OA
HETATM   34  N1  UNL     1       0.266  52.427 -21.733  1.00  0.00    -0.360 N 
HETATM   35  H32 UNL     1       0.042  51.459 -21.506  1.00  0.00     0.162 HD
BRANCH  34  36
HETATM   36  C26 UNL     1       0.640  52.739 -23.105  1.00  0.00     0.142 C 
BRANCH  36  37
HETATM   37  C27 UNL     1      -0.151  51.969 -24.178  1.00  0.00     0.134 C 
BRANCH  37  38
HETATM   38  C28 UNL     1      -1.558  52.540 -24.167  1.00  0.00     0.150 C 
HETATM   39  O8  UNL     1      -2.311  52.604 -23.207  1.00  0.00    -0.649 OA
BRANCH  38  40
HETATM   40  O9  UNL     1      -1.955  52.990 -25.375  1.00  0.00    -0.776 OA
HETATM   41  H36 UNL     1      -2.864  53.328 -25.224  1.00  0.00     0.167 HD
ENDBRANCH  38  40
ENDBRANCH  37  38
BRANCH  37  42
HETATM   42  C29 UNL     1       0.433  51.908 -25.586  1.00  0.00    -0.042 A 
HETATM   43  C30 UNL     1       1.809  51.798 -25.842  1.00  0.00     0.008 A 
HETATM   44  C31 UNL     1       2.290  51.724 -27.153  1.00  0.00     0.001 A 
HETATM   45  C32 UNL     1       1.407  51.745 -28.230  1.00  0.00     0.000 A 
HETATM   46  C33 UNL     1       0.040  51.828 -27.998  1.00  0.00     0.001 A 
HETATM   47  C34 UNL     1      -0.443  51.901 -26.688  1.00  0.00     0.008 A 
ENDBRANCH  37  42
ENDBRANCH  36  37
ENDBRANCH  34  36
ENDBRANCH  31  32
ENDBRANCH  30  31
ENDBRANCH  28  30
ENDBRANCH  27  28
ENDBRANCH  26  27
ENDBRANCH   1  26
TORSDOF 13
ENDMDL
