MODEL 1
REMARK minimizedAffinity -9.96264553
REMARK CNNscore 0.730862558
REMARK CNNaffinity 7.35831976
REMARK  8 active torsions:
REMARK  status: ('A' for Active; 'I' for Inactive)
REMARK    1  A    between atoms: C2_2  and  C3_3 
REMARK    2  A    between atoms: C2_2  and  C27_30 
REMARK    3  A    between atoms: C3_3  and  C4_4 
REMARK    4  A    between atoms: C4_4  and  C5_5 
REMARK    5  A    between atoms: C5_5  and  C7_7 
REMARK    6  A    between atoms: C26_28  and  O3_29 
REMARK    7  A    between atoms: C27_30  and  C29_32 
REMARK    8  A    between atoms: C29_32  and  O5_34 
ROOT
HETATM    1  C7  UNL     1      -2.089   5.666  12.276  1.00  0.00    -0.002 C 
HETATM    2  C8  UNL     1      -2.640   4.374  11.614  1.00  0.00     0.006 C 
HETATM    3  C9  UNL     1      -4.107   4.256  12.045  1.00  0.00     0.010 C 
HETATM    4  C10 UNL     1      -4.434   5.616  12.668  1.00  0.00     0.027 C 
HETATM    5  C11 UNL     1      -5.686   5.863  13.491  1.00  0.00    -0.036 C 
HETATM    6  C12 UNL     1      -5.739   6.900  14.368  1.00  0.00     0.002 C 
HETATM    7  C13 UNL     1      -4.475   7.701  14.629  1.00  0.00     0.157 C 
HETATM    8  O1  UNL     1      -4.453   8.588  15.483  1.00  0.00    -0.293 OA
HETATM    9  C14 UNL     1      -3.225   7.436  13.807  1.00  0.00     0.093 C 
HETATM   10  C15 UNL     1      -3.116   5.967  13.410  1.00  0.00    -0.026 C 
HETATM   11  C16 UNL     1      -2.902   5.099  14.671  1.00  0.00     0.016 C 
HETATM   12  C17 UNL     1      -7.023   7.312  15.123  1.00  0.00    -0.008 C 
HETATM   13  C18 UNL     1      -6.874   6.780  16.573  1.00  0.00     0.021 C 
HETATM   14  C19 UNL     1      -7.217   8.865  15.165  1.00  0.00     0.022 C 
HETATM   15  C20 UNL     1      -8.660   9.367  15.136  1.00  0.00     0.080 C 
HETATM   16  C21 UNL     1      -9.613   8.385  15.760  1.00  0.00     0.131 C 
HETATM   17  O2  UNL     1     -10.426   8.731  16.617  1.00  0.00    -0.298 OA
HETATM   18  C22 UNL     1      -9.587   6.964  15.218  1.00  0.00     0.056 C 
HETATM   19  C23 UNL     1     -10.854   6.743  14.389  1.00  0.00     0.018 C 
HETATM   20  C24 UNL     1      -8.289   6.717  14.410  1.00  0.00     0.012 C 
HETATM   21  C25 UNL     1      -8.097   5.233  14.101  1.00  0.00     0.042 C 
HETATM   22  C26 UNL     1      -6.887   4.996  13.197  1.00  0.00     0.148 C 
ENDROOT
BRANCH   1  23
HETATM   23  C5  UNL     1      -0.551   5.625  12.498  1.00  0.00    -0.014 C 
HETATM   24  C6  UNL     1      -0.083   5.630  13.961  1.00  0.00     0.010 C 
BRANCH  23  25
HETATM   25  C4  UNL     1       0.238   6.709  11.732  1.00  0.00     0.009 C 
BRANCH  25  26
HETATM   26  C3  UNL     1       0.919   6.286  10.420  1.00  0.00     0.034 C 
BRANCH  26  27
HETATM   27  C2  UNL     1       1.039   7.381   9.371  1.00  0.00    -0.075 C 
HETATM   28  C1  UNL     1       0.114   8.360   9.339  1.00  0.00     0.015 C 
BRANCH  27  29
HETATM   29  C27 UNL     1       2.200   7.278   8.382  1.00  0.00     0.107 C 
HETATM   30  C28 UNL     1       1.835   7.218   6.895  1.00  0.00     0.026 C 
BRANCH  29  31
HETATM   31  C29 UNL     1       3.103   6.104   8.742  1.00  0.00     0.147 C 
HETATM   32  O4  UNL     1       3.034   4.981   8.260  1.00  0.00    -0.650 OA
BRANCH  31  33
HETATM   33  O5  UNL     1       4.067   6.396   9.637  1.00  0.00    -0.776 OA
HETATM   34  H42 UNL     1       4.573   5.561   9.726  1.00  0.00     0.167 HD
ENDBRANCH  31  33
ENDBRANCH  29  31
ENDBRANCH  27  29
ENDBRANCH  26  27
ENDBRANCH  25  26
ENDBRANCH  23  25
ENDBRANCH   1  23
BRANCH  22  35
HETATM   35  O3  UNL     1      -6.539   3.627  13.358  1.00  0.00    -0.391 OA
HETATM   36  H37 UNL     1      -7.219   3.103  12.900  1.00  0.00     0.210 HD
ENDBRANCH  22  35
TORSDOF 8
ENDMDL
