MODEL 1
REMARK minimizedAffinity -10.0214148
REMARK  7 active torsions:
REMARK  status: ('A' for Active; 'I' for Inactive)
REMARK    1  A    between atoms: C16_17  and  O2_18 
REMARK    2  A    between atoms: O2_18  and  C17_19 
REMARK    3  A    between atoms: C17_19  and  C18_21 
REMARK    4  A    between atoms: C18_21  and  C19_22 
REMARK    5  A    between atoms: C19_22  and  C20_23 
REMARK       I    between atoms: C20_23  and  N1_25 
REMARK    6  A    between atoms: N1_25  and  C21_26 
REMARK    7  A    between atoms: C21_26  and  C22_27 
ROOT
HETATM    1  C1  UNL     1      -6.850   5.954  16.040  1.00  0.00     0.020 C 
HETATM    2  C2  UNL     1      -7.037   6.480  14.600  1.00  0.00    -0.016 C 
HETATM    3  C3  UNL     1      -7.513   7.961  14.664  1.00  0.00     0.022 C 
HETATM    4  C4  UNL     1      -8.974   8.122  15.061  1.00  0.00     0.084 C 
HETATM    5  C5  UNL     1      -9.852   7.331  14.131  1.00  0.00     0.149 C 
HETATM    6  O1  UNL     1     -10.983   7.695  13.824  1.00  0.00    -0.293 OA
HETATM    7  C6  UNL     1      -9.350   6.024  13.649  1.00  0.00     0.053 C 
HETATM    8  C7  UNL     1      -8.096   5.613  13.901  1.00  0.00    -0.068 C 
HETATM    9  C8  UNL     1      -7.668   4.225  13.489  1.00  0.00     0.035 C 
HETATM   10  C9  UNL     1      -6.383   4.243  12.673  1.00  0.00     0.010 C 
HETATM   11  C10 UNL     1      -5.256   4.972  13.418  1.00  0.00    -0.004 C 
HETATM   12  C11 UNL     1      -5.696   6.424  13.771  1.00  0.00     0.002 C 
HETATM   13  C12 UNL     1      -4.536   7.243  14.397  1.00  0.00     0.007 C 
HETATM   14  C13 UNL     1      -3.226   7.172  13.593  1.00  0.00     0.012 C 
HETATM   15  C14 UNL     1      -2.807   5.725  13.297  1.00  0.00    -0.013 C 
HETATM   16  C15 UNL     1      -2.374   5.034  14.614  1.00  0.00     0.018 C 
HETATM   17  C16 UNL     1      -1.711   5.565  12.216  1.00  0.00     0.140 C 
HETATM   18  C27 UNL     1      -1.936   4.135  11.674  1.00  0.00     0.034 C 
HETATM   19  C28 UNL     1      -3.374   3.743  12.048  1.00  0.00     0.008 C 
HETATM   20  C29 UNL     1      -3.982   5.040  12.569  1.00  0.00     0.001 C 
ENDROOT
BRANCH  17  21
HETATM   21  O2  UNL     1      -0.371   5.662  12.711  1.00  0.00    -0.315 OA
BRANCH  21  22
HETATM   22  C17 UNL     1       0.444   6.547  12.070  1.00  0.00     0.259 C 
HETATM   23  O3  UNL     1       1.666   6.506  12.061  1.00  0.00    -0.265 OA
BRANCH  22  24
HETATM   24  C18 UNL     1      -0.379   7.549  11.299  1.00  0.00     0.120 C 
BRANCH  24  25
HETATM   25  C19 UNL     1       0.485   8.526  10.512  1.00  0.00     0.112 C 
BRANCH  25  26
HETATM   26  C20 UNL     1       0.682   8.083   9.076  1.00  0.00     0.218 C 
HETATM   27  O4  UNL     1      -0.084   8.372   8.167  1.00  0.00    -0.274 OA
HETATM   28  N1  UNL     1       1.816   7.322   8.898  1.00  0.00    -0.357 N 
HETATM   29  H27 UNL     1       2.323   6.991   9.707  1.00  0.00     0.162 HD
BRANCH  28  30
HETATM   30  C21 UNL     1       2.129   6.728   7.615  1.00  0.00     0.162 C 
BRANCH  30  31
HETATM   31  C22 UNL     1       2.970   5.496   7.779  1.00  0.00    -0.025 A 
HETATM   32  C23 UNL     1       3.266   4.658   6.699  1.00  0.00     0.011 A 
HETATM   33  C24 UNL     1       4.059   3.531   6.898  1.00  0.00     0.018 A 
HETATM   34  C25 UNL     1       4.538   3.282   8.173  1.00  0.00     0.087 A 
HETATM   35  N2  UNL     1       4.283   4.071   9.238  1.00  0.00    -0.375 N 
HETATM   36  C26 UNL     1       3.505   5.157   9.020  1.00  0.00     0.096 A 
ATOM     37  H2  UNL     1       4.658   3.859  10.162  1.00  0.00     0.164 HD
ENDBRANCH  30  31
ENDBRANCH  28  30
ENDBRANCH  25  26
ENDBRANCH  24  25
ENDBRANCH  22  24
ENDBRANCH  21  22
ENDBRANCH  17  21
TORSDOF 7
ENDMDL
