MODEL 1
REMARK minimizedAffinity -9.25145245
REMARK  10 active torsions:
REMARK  status: ('A' for Active; 'I' for Inactive)
REMARK    1  A    between atoms: C2_2  and  O1_4 
REMARK    2  A    between atoms: C2_2  and  C4_5 
REMARK    3  A    between atoms: C4_5  and  O2_6 
REMARK    4  A    between atoms: C4_5  and  C5_7 
REMARK    5  A    between atoms: C5_7  and  O3_8 
REMARK    6  A    between atoms: C5_7  and  C6_9 
REMARK    7  A    between atoms: C6_9  and  C7_10 
REMARK    8  A    between atoms: C7_10  and  C8_11 
REMARK    9  A    between atoms: C7_10  and  C9_13 
REMARK   10  A    between atoms: C8_11  and  O4_12 
ROOT
HETATM    1  C9  UNL     1      -0.874  52.195 -21.302  1.00  0.00     0.001 C 
HETATM    2  C10 UNL     1      -0.109  51.231 -20.345  1.00  0.00     0.007 C 
HETATM    3  C11 UNL     1      -1.059  50.076 -19.981  1.00  0.00     0.015 C 
HETATM    4  C12 UNL     1      -2.447  50.540 -20.461  1.00  0.00    -0.013 C 
HETATM    5  C13 UNL     1      -3.026  51.449 -19.331  1.00  0.00     0.021 C 
HETATM    6  C14 UNL     1      -3.504  49.472 -20.721  1.00  0.00    -0.070 C 
HETATM    7  C15 UNL     1      -3.571  48.335 -20.002  1.00  0.00    -0.022 C 
HETATM    8  C16 UNL     1      -4.637  47.290 -20.160  1.00  0.00     0.034 C 
HETATM    9  C17 UNL     1      -5.548  47.502 -21.390  1.00  0.00     0.013 C 
HETATM   10  C18 UNL     1      -6.715  46.457 -21.498  1.00  0.00     0.018 C 
HETATM   11  C19 UNL     1      -6.117  45.064 -21.819  1.00  0.00     0.023 C 
HETATM   12  C20 UNL     1      -7.584  46.292 -20.243  1.00  0.00     0.023 C 
HETATM   13  C21 UNL     1      -7.644  46.844 -22.660  1.00  0.00     0.135 C 
HETATM   14  O5  UNL     1      -8.125  46.008 -23.427  1.00  0.00    -0.297 OA
HETATM   15  C22 UNL     1      -8.049  48.294 -22.775  1.00  0.00     0.080 C 
HETATM   16  C23 UNL     1      -6.819  49.184 -22.810  1.00  0.00     0.017 C 
HETATM   17  C24 UNL     1      -5.911  49.027 -21.565  1.00  0.00    -0.031 C 
HETATM   18  C25 UNL     1      -6.628  49.640 -20.339  1.00  0.00     0.016 C 
HETATM   19  C26 UNL     1      -4.535  49.774 -21.816  1.00  0.00     0.024 C 
HETATM   20  C27 UNL     1      -4.649  51.285 -22.133  1.00  0.00     0.010 C 
HETATM   21  C28 UNL     1      -3.310  52.040 -22.310  1.00  0.00     0.011 C 
HETATM   22  C29 UNL     1      -2.068  51.294 -21.785  1.00  0.00    -0.029 C 
HETATM   23  C30 UNL     1      -1.538  50.343 -22.906  1.00  0.00     0.016 C 
ENDROOT
BRANCH   1  24
HETATM   24  C7  UNL     1       0.054  52.853 -22.373  1.00  0.00     0.016 C 
BRANCH  24  25
HETATM   25  C6  UNL     1       0.244  51.940 -23.619  1.00  0.00     0.041 C 
BRANCH  25  26
HETATM   26  C5  UNL     1       0.805  52.703 -24.843  1.00  0.00     0.150 C 
BRANCH  26  27
HETATM   27  C4  UNL     1      -0.294  53.457 -25.650  1.00  0.00     0.180 C 
BRANCH  27  28
HETATM   28  C2  UNL     1      -0.782  52.698 -26.922  1.00  0.00     0.079 C 
HETATM   29  C1  UNL     1      -1.159  51.251 -26.567  1.00  0.00     0.048 C 
HETATM   30  C3  UNL     1       0.226  52.688 -28.071  1.00  0.00     0.048 C 
BRANCH  28  31
HETATM   31  O1  UNL     1      -1.979  53.335 -27.395  1.00  0.00    -0.388 OA
HETATM   32  H7  UNL     1      -2.528  53.470 -26.595  1.00  0.00     0.210 HD
ENDBRANCH  28  31
ENDBRANCH  27  28
BRANCH  27  33
HETATM   33  O2  UNL     1       0.195  54.738 -26.095  1.00  0.00    -0.390 OA
HETATM   34  H9  UNL     1       0.159  55.346 -25.337  1.00  0.00     0.210 HD
ENDBRANCH  27  33
ENDBRANCH  26  27
BRANCH  26  35
HETATM   35  O3  UNL     1       1.510  51.788 -25.689  1.00  0.00    -0.393 OA
HETATM   36  H11 UNL     1       0.860  51.247 -26.170  1.00  0.00     0.210 HD
ENDBRANCH  26  35
ENDBRANCH  25  26
ENDBRANCH  24  25
BRANCH  24  37
HETATM   37  C8  UNL     1       1.435  53.211 -21.788  1.00  0.00     0.169 C 
BRANCH  37  38
HETATM   38  O4  UNL     1       1.404  54.513 -21.218  1.00  0.00    -0.400 OA
HETATM   39  H17 UNL     1       1.194  55.126 -21.950  1.00  0.00     0.209 HD
ENDBRANCH  37  38
ENDBRANCH  24  37
ENDBRANCH   1  24
TORSDOF 10
ENDMDL
