MODEL 1
REMARK minimizedAffinity -9.83091545
REMARK  8 active torsions:
REMARK  status: ('A' for Active; 'I' for Inactive)
REMARK    1  A    between atoms: C2_2  and  C3_3 
REMARK    2  A    between atoms: C2_2  and  C29_30 
REMARK    3  A    between atoms: C3_3  and  C4_4 
REMARK    4  A    between atoms: C4_4  and  C5_5 
REMARK    5  A    between atoms: C5_5  and  C7_7 
REMARK    6  A    between atoms: C29_30  and  C31_32 
REMARK    7  A    between atoms: C31_32  and  O2_33 
REMARK    8  A    between atoms: O2_33  and  C32_34 
ROOT
HETATM    1  C7  UNL     1       0.272   7.654  11.665  1.00  0.00    -0.002 C 
HETATM    2  C8  UNL     1      -0.096   6.383  10.890  1.00  0.00     0.006 C 
HETATM    3  C9  UNL     1      -0.557   5.378  11.927  1.00  0.00     0.011 C 
HETATM    4  C10 UNL     1      -1.254   6.179  13.064  1.00  0.00    -0.032 C 
HETATM    5  C11 UNL     1      -0.757   5.587  14.403  1.00  0.00     0.016 C 
HETATM    6  C12 UNL     1      -2.821   6.014  12.929  1.00  0.00     0.004 C 
HETATM    7  C13 UNL     1      -3.363   4.618  13.277  1.00  0.00     0.007 C 
HETATM    8  C14 UNL     1      -4.867   4.573  13.036  1.00  0.00     0.007 C 
HETATM    9  C15 UNL     1      -5.656   5.465  14.020  1.00  0.00     0.010 C 
HETATM   10  C16 UNL     1      -7.189   5.498  13.683  1.00  0.00     0.018 C 
HETATM   11  C17 UNL     1      -7.812   4.107  13.950  1.00  0.00     0.023 C 
HETATM   12  C18 UNL     1      -7.489   5.878  12.221  1.00  0.00     0.023 C 
HETATM   13  C19 UNL     1      -7.927   6.498  14.586  1.00  0.00     0.135 C 
HETATM   14  O1  UNL     1      -9.131   6.386  14.836  1.00  0.00    -0.297 OA
HETATM   15  C20 UNL     1      -7.153   7.646  15.179  1.00  0.00     0.080 C 
HETATM   16  C21 UNL     1      -5.994   8.017  14.279  1.00  0.00     0.018 C 
HETATM   17  C22 UNL     1      -5.012   6.865  14.178  1.00  0.00    -0.026 A 
HETATM   18  C23 UNL     1      -3.851   6.954  15.151  1.00  0.00     0.021 A 
HETATM   19  C24 UNL     1      -3.570   7.120  13.675  1.00  0.00    -0.027 A 
HETATM   20  C25 UNL     1      -3.227   8.515  13.179  1.00  0.00     0.011 C 
HETATM   21  C26 UNL     1      -1.995   8.532  12.280  1.00  0.00     0.011 C 
HETATM   22  C27 UNL     1      -0.792   7.695  12.830  1.00  0.00    -0.032 C 
HETATM   23  C28 UNL     1      -0.318   8.406  14.111  1.00  0.00     0.016 C 
ENDROOT
BRANCH   1  24
HETATM   24  C5  UNL     1       1.810   7.782  11.919  1.00  0.00    -0.014 C 
HETATM   25  C6  UNL     1       2.380   9.195  12.018  1.00  0.00     0.010 C 
BRANCH  24  26
HETATM   26  C4  UNL     1       2.621   6.790  11.036  1.00  0.00     0.009 C 
BRANCH  26  27
HETATM   27  C3  UNL     1       3.665   7.396  10.089  1.00  0.00     0.034 C 
BRANCH  27  28
HETATM   28  C2  UNL     1       3.098   7.689   8.708  1.00  0.00    -0.083 C 
HETATM   29  C1  UNL     1       3.296   8.899   8.153  1.00  0.00     0.015 C 
BRANCH  28  30
HETATM   30  C29 UNL     1       2.328   6.556   8.020  1.00  0.00     0.034 C 
HETATM   31  C30 UNL     1       1.929   6.879   6.573  1.00  0.00     0.017 C 
BRANCH  30  32
HETATM   32  C31 UNL     1       3.114   5.228   8.049  1.00  0.00     0.187 C 
BRANCH  32  33
HETATM   33  O2  UNL     1       3.066   4.541   6.785  1.00  0.00    -0.321 OA
BRANCH  33  34
HETATM   34  C32 UNL     1       3.957   3.525   6.633  1.00  0.00     0.254 C 
HETATM   35  C33 UNL     1       3.488   2.589   5.562  1.00  0.00     0.126 C 
HETATM   36  O3  UNL     1       4.991   3.382   7.271  1.00  0.00    -0.266 OA
ENDBRANCH  33  34
ENDBRANCH  32  33
ENDBRANCH  30  32
ENDBRANCH  28  30
ENDBRANCH  27  28
ENDBRANCH  26  27
ENDBRANCH  24  26
ENDBRANCH   1  24
TORSDOF 8
ENDMDL
