MODEL 1
REMARK minimizedAffinity -9.09605026
REMARK CNNscore 0.353927851
REMARK CNNaffinity 6.6862545
REMARK  6 active torsions:
REMARK  status: ('A' for Active; 'I' for Inactive)
REMARK    1  A    between atoms: C4_4  and  C5_5 
REMARK    2  A    between atoms: C5_5  and  C6_6 
REMARK    3  A    between atoms: C6_6  and  C7_7 
REMARK    4  A    between atoms: C7_7  and  C9_9 
REMARK    5  A    between atoms: C12_12  and  C13_13 
REMARK    6  A    between atoms: C13_13  and  O2_15 
ROOT
HETATM    1  C9  UNL     1      -2.937   8.016  15.141  1.00  0.00    -0.001 C 
HETATM    2  C10 UNL     1      -3.240   6.507  15.315  1.00  0.00     0.007 C 
HETATM    3  C11 UNL     1      -2.250   5.756  14.396  1.00  0.00     0.026 C 
HETATM    4  C12 UNL     1      -1.200   6.819  13.992  1.00  0.00     0.076 C 
HETATM    5  C14 UNL     1      -0.350   6.617  12.746  1.00  0.00    -0.057 C 
HETATM    6  C15 UNL     1       0.124   7.676  12.045  1.00  0.00    -0.067 C 
HETATM    7  C16 UNL     1      -0.208   9.115  12.498  1.00  0.00     0.036 C 
HETATM    8  C17 UNL     1      -1.278   9.321  13.596  1.00  0.00     0.015 C 
HETATM    9  C18 UNL     1      -2.132   8.070  13.811  1.00  0.00    -0.018 C 
HETATM   10  C19 UNL     1      -3.081   7.961  12.576  1.00  0.00     0.017 C 
HETATM   11  C20 UNL     1       0.949   7.506  10.727  1.00  0.00    -0.015 C 
HETATM   12  C21 UNL     1       0.015   7.977   9.576  1.00  0.00     0.020 C 
HETATM   13  C22 UNL     1       2.203   8.428  10.736  1.00  0.00     0.021 C 
HETATM   14  C23 UNL     1       3.428   7.744  11.313  1.00  0.00     0.080 C 
HETATM   15  C24 UNL     1       3.850   6.600  10.422  1.00  0.00     0.135 C 
HETATM   16  O3  UNL     1       5.043   6.308  10.314  1.00  0.00    -0.297 OA
HETATM   17  C25 UNL     1       2.754   5.828   9.673  1.00  0.00     0.018 C 
HETATM   18  C26 UNL     1       2.708   6.341   8.219  1.00  0.00     0.023 C 
HETATM   19  C27 UNL     1       3.185   4.343   9.589  1.00  0.00     0.023 C 
HETATM   20  C28 UNL     1       1.368   5.996  10.411  1.00  0.00     0.013 C 
HETATM   21  C29 UNL     1       1.301   5.101  11.667  1.00  0.00     0.011 C 
HETATM   22  C30 UNL     1      -0.035   5.203  12.374  1.00  0.00     0.036 C 
ENDROOT
BRANCH   1  23
HETATM   23  C7  UNL     1      -4.131   8.995  15.343  1.00  0.00    -0.014 C 
HETATM   24  C8  UNL     1      -3.832   9.865  16.578  1.00  0.00     0.010 C 
BRANCH  23  25
HETATM   25  C6  UNL     1      -5.519   8.328  15.499  1.00  0.00     0.008 C 
BRANCH  25  26
HETATM   26  C5  UNL     1      -5.585   6.865  15.026  1.00  0.00     0.028 C 
BRANCH  26  27
HETATM   27  C4  UNL     1      -6.768   6.554  14.153  1.00  0.00    -0.025 C 
HETATM   28  C2  UNL     1      -6.910   5.553  13.261  1.00  0.00    -0.091 C 
HETATM   29  C1  UNL     1      -5.872   4.513  12.939  1.00  0.00     0.042 C 
HETATM   30  C3  UNL     1      -8.190   5.408  12.476  1.00  0.00     0.042 C 
ENDBRANCH  26  27
ENDBRANCH  25  26
ENDBRANCH  23  25
ENDBRANCH   1  23
BRANCH   4  31
HETATM   31  C13 UNL     1      -0.149   6.930  15.139  1.00  0.00     0.153 C 
HETATM   32  O1  UNL     1      -0.229   7.572  16.176  1.00  0.00    -0.649 OA
BRANCH  31  33
HETATM   33  O2  UNL     1       1.009   6.280  14.886  1.00  0.00    -0.776 OA
HETATM   34  H21 UNL     1       1.564   6.499  15.664  1.00  0.00     0.167 HD
ENDBRANCH  31  33
ENDBRANCH   4  31
TORSDOF 6
ENDMDL
