MODEL 1
REMARK minimizedAffinity -8.43213844
REMARK CNNscore 0.861280441
REMARK CNNaffinity 7.66191339
REMARK  12 active torsions:
REMARK  status: ('A' for Active; 'I' for Inactive)
REMARK    1  A    between atoms: C5_5  and  C6_6 
REMARK    2  A    between atoms: C6_6  and  C8_8 
REMARK    3  A    between atoms: C8_8  and  O1_9 
REMARK    4  A    between atoms: C13_15  and  O3_17 
REMARK    5  A    between atoms: C18_21  and  O4_23 
REMARK    6  A    between atoms: O4_23  and  C20_24 
REMARK    7  A    between atoms: C20_24  and  C21_26 
REMARK    8  A    between atoms: C21_26  and  C22_27 
REMARK    9  A    between atoms: C21_26  and  O6_29 
REMARK   10  A    between atoms: O6_29  and  C24_30 
REMARK   11  A    between atoms: C24_30  and  C25_32 
REMARK   12  A    between atoms: C25_32  and  C26_33 
ROOT
HETATM    1  C1  UNL     1      -6.997   1.443  12.661  1.00  0.00     0.015 C 
HETATM    2  C2  UNL     1      -6.562   2.602  12.136  1.00  0.00    -0.077 C 
HETATM    3  C3  UNL     1      -6.104   2.684  10.699  1.00  0.00     0.034 C 
HETATM    4  C4  UNL     1      -5.013   3.740  10.494  1.00  0.00     0.010 C 
HETATM    5  C5  UNL     1      -4.133   3.947  11.746  1.00  0.00    -0.001 C 
HETATM    6  C9  UNL     1      -5.034   4.552  12.886  1.00  0.00     0.037 C 
HETATM    7  C10 UNL     1      -6.451   3.878  12.958  1.00  0.00     0.090 C 
HETATM    8  C11 UNL     1      -7.649   4.776  12.595  1.00  0.00     0.138 C 
HETATM    9  O2  UNL     1      -7.958   5.011  11.421  1.00  0.00    -0.297 OA
HETATM   10  C12 UNL     1      -8.518   5.340  13.724  1.00  0.00     0.119 C 
HETATM   11  C13 UNL     1      -7.799   5.815  15.008  1.00  0.00     0.087 C 
HETATM   12  C14 UNL     1      -8.770   6.686  15.829  1.00  0.00     0.049 C 
HETATM   13  C15 UNL     1      -6.482   6.632  14.749  1.00  0.00     0.156 C 
HETATM   14  C16 UNL     1      -5.274   6.191  15.587  1.00  0.00     0.038 C 
HETATM   15  C17 UNL     1      -3.920   6.681  15.068  1.00  0.00     0.043 C 
HETATM   16  C18 UNL     1      -3.844   6.874  13.535  1.00  0.00     0.093 C 
HETATM   17  C19 UNL     1      -3.971   8.380  13.181  1.00  0.00     0.049 C 
HETATM   18  C28 UNL     1      -5.036   6.127  12.842  1.00  0.00     0.162 C 
HETATM   19  O8  UNL     1      -6.243   6.696  13.345  1.00  0.00    -0.374 OA
ENDROOT
BRANCH  16  20
HETATM   20  O4  UNL     1      -2.588   6.394  12.981  1.00  0.00    -0.306 OA
BRANCH  20  21
HETATM   21  C20 UNL     1      -1.505   7.227  12.943  1.00  0.00     0.289 C 
HETATM   22  O5  UNL     1      -1.475   8.359  13.413  1.00  0.00    -0.262 OA
BRANCH  21  23
HETATM   23  C21 UNL     1      -0.314   6.598  12.200  1.00  0.00     0.231 C 
BRANCH  23  24
HETATM   24  C22 UNL     1      -0.179   5.106  12.537  1.00  0.00     0.038 C 
HETATM   25  C23 UNL     1       0.804   4.354  11.653  1.00  0.00     0.008 C 
ENDBRANCH  23  24
BRANCH  23  26
HETATM   26  O6  UNL     1      -0.309   6.749  10.777  1.00  0.00    -0.306 OA
BRANCH  26  27
HETATM   27  C24 UNL     1       0.681   7.554  10.295  1.00  0.00     0.259 C 
HETATM   28  O7  UNL     1       1.740   7.775  10.865  1.00  0.00    -0.265 OA
BRANCH  27  29
HETATM   29  C25 UNL     1       0.268   8.148   8.971  1.00  0.00     0.111 C 
BRANCH  29  30
HETATM   30  C26 UNL     1       1.472   8.384   8.063  1.00  0.00     0.005 C 
HETATM   31  C27 UNL     1       1.849   7.121   7.303  1.00  0.00     0.005 C 
ENDBRANCH  29  30
ENDBRANCH  27  29
ENDBRANCH  26  27
ENDBRANCH  23  26
ENDBRANCH  21  23
ENDBRANCH  20  21
ENDBRANCH  16  20
BRANCH   5  32
HETATM   32  C6  UNL     1      -3.332   2.645  12.126  1.00  0.00     0.010 C 
HETATM   33  C7  UNL     1      -4.049   1.391  11.590  1.00  0.00     0.012 C 
BRANCH  32  34
HETATM   34  C8  UNL     1      -1.873   2.662  11.634  1.00  0.00     0.168 C 
BRANCH  34  35
HETATM   35  O1  UNL     1      -1.607   1.606  10.720  1.00  0.00    -0.400 OA
HETATM   36  H14 UNL     1      -1.802   0.769  11.175  1.00  0.00     0.209 HD
ENDBRANCH  34  35
ENDBRANCH  32  34
ENDBRANCH   5  32
BRANCH  11  37
HETATM   37  O3  UNL     1      -7.540   4.661  15.827  1.00  0.00    -0.387 OA
HETATM   38  H22 UNL     1      -8.392   4.291  16.121  1.00  0.00     0.210 HD
ENDBRANCH  11  37
TORSDOF 12
ENDMDL
