MODEL 1
REMARK minimizedAffinity -10.1596794
REMARK  2 active torsions:
REMARK  status: ('A' for Active; 'I' for Inactive)
REMARK    1  A    between atoms: C14_15  and  C15_16 
REMARK    2  A    between atoms: C19_21  and  O3_22 
ROOT
HETATM    1  C1  UNL     1       0.502  51.008 -27.059  1.00  0.00     0.023 C 
HETATM    2  C2  UNL     1      -0.545  51.822 -26.268  1.00  0.00     0.017 C 
HETATM    3  C3  UNL     1      -1.573  52.360 -27.282  1.00  0.00     0.023 C 
HETATM    4  C4  UNL     1       0.207  53.003 -25.641  1.00  0.00     0.135 C 
HETATM    5  O1  UNL     1       0.421  54.051 -26.251  1.00  0.00    -0.297 OA
HETATM    6  C5  UNL     1       0.766  52.793 -24.258  1.00  0.00     0.080 C 
HETATM    7  C6  UNL     1      -0.307  52.402 -23.248  1.00  0.00     0.017 C 
HETATM    8  C7  UNL     1      -1.588  51.710 -23.835  1.00  0.00    -0.035 C 
HETATM    9  C8  UNL     1      -2.606  52.835 -24.126  1.00  0.00     0.016 C 
HETATM   10  C9  UNL     1      -2.127  50.669 -22.762  1.00  0.00     0.003 C 
HETATM   11  C10 UNL     1      -2.460  51.294 -21.381  1.00  0.00     0.006 C 
HETATM   12  C11 UNL     1      -2.811  50.263 -20.296  1.00  0.00     0.006 C 
HETATM   13  C12 UNL     1      -3.916  49.340 -20.790  1.00  0.00    -0.000 C 
HETATM   14  C13 UNL     1      -4.540  48.359 -19.800  1.00  0.00     0.008 C 
HETATM   15  C14 UNL     1      -4.732  48.666 -18.310  1.00  0.00     0.030 C 
HETATM   16  C18 UNL     1      -5.836  47.647 -17.886  1.00  0.00     0.040 C 
HETATM   17  C19 UNL     1      -6.372  47.006 -19.189  1.00  0.00     0.127 C 
HETATM   18  C20 UNL     1      -5.975  48.010 -20.288  1.00  0.00    -0.013 C 
HETATM   19  C21 UNL     1      -6.999  49.184 -20.230  1.00  0.00     0.018 C 
HETATM   20  C22 UNL     1      -5.951  47.502 -21.748  1.00  0.00     0.013 C 
HETATM   21  C23 UNL     1      -4.572  47.447 -22.436  1.00  0.00     0.011 C 
HETATM   22  C24 UNL     1      -3.494  48.553 -22.090  1.00  0.00    -0.032 C 
HETATM   23  C25 UNL     1      -2.185  47.724 -21.827  1.00  0.00     0.016 C 
HETATM   24  C26 UNL     1      -3.238  49.647 -23.258  1.00  0.00    -0.032 C 
HETATM   25  C27 UNL     1      -4.584  50.354 -23.586  1.00  0.00     0.016 C 
HETATM   26  C28 UNL     1      -2.723  48.989 -24.568  1.00  0.00     0.011 C 
HETATM   27  C29 UNL     1      -2.267  49.984 -25.639  1.00  0.00     0.007 C 
HETATM   28  C30 UNL     1      -1.163  50.929 -25.131  1.00  0.00     0.009 C 
ENDROOT
BRANCH  15  29
HETATM   29  C15 UNL     1      -3.491  48.536 -17.450  1.00  0.00     0.083 A 
HETATM   30  C16 UNL     1      -2.950  49.745 -16.745  1.00  0.00     0.049 C 
HETATM   31  C17 UNL     1      -3.076  47.165 -16.945  1.00  0.00     0.207 A 
HETATM   32  O2  UNL     1      -2.459  47.759 -18.089  1.00  0.00    -0.375 OA
ENDBRANCH  15  29
BRANCH  17  33
HETATM   33  O3  UNL     1      -5.727  45.752 -19.398  1.00  0.00    -0.395 OA
HETATM   34  H30 UNL     1      -5.977  45.172 -18.658  1.00  0.00     0.210 HD
ENDBRANCH  17  33
TORSDOF 2
ENDMDL
