MODEL 1
REMARK minimizedAffinity -7.30639315
REMARK CNNscore 0.382717252
REMARK CNNaffinity 6.77678633
REMARK  12 active torsions:
REMARK  status: ('A' for Active; 'I' for Inactive)
REMARK    1  A    between atoms: C2_2  and  C3_3 
REMARK    2  A    between atoms: C4_5  and  C5_6 
REMARK    3  A    between atoms: C5_6  and  C6_7 
REMARK    4  A    between atoms: C6_7  and  C7_8 
REMARK    5  A    between atoms: C7_8  and  C9_10 
REMARK    6  A    between atoms: C21_22  and  O2_23 
REMARK    7  A    between atoms: O2_23  and  C22_24 
REMARK    8  A    between atoms: C23_26  and  C24_27 
REMARK    9  A    between atoms: C24_27  and  O4_28 
REMARK   10  A    between atoms: C25_29  and  O5_30 
REMARK   11  A    between atoms: C26_31  and  O6_32 
REMARK   12  A    between atoms: C27_33  and  O7_34 
ROOT
HETATM    1  C9  UNL     1      -0.879   7.066  12.617  1.00  0.00    -0.002 C 
HETATM    2  C10 UNL     1      -1.077   5.818  13.571  1.00  0.00     0.006 C 
HETATM    3  C11 UNL     1      -1.855   6.319  14.839  1.00  0.00     0.011 C 
HETATM    4  C12 UNL     1      -2.358   7.703  14.402  1.00  0.00    -0.031 C 
HETATM    5  C13 UNL     1      -3.545   7.306  13.405  1.00  0.00     0.016 C 
HETATM    6  C14 UNL     1      -2.984   8.756  15.464  1.00  0.00     0.014 C 
HETATM    7  C15 UNL     1      -4.289   9.434  14.906  1.00  0.00     0.034 C 
HETATM    8  C16 UNL     1      -4.700  10.786  15.372  1.00  0.00    -0.022 C 
HETATM    9  C17 UNL     1      -3.978  11.575  16.172  1.00  0.00    -0.068 C 
HETATM   10  C18 UNL     1      -2.682  11.064  16.739  1.00  0.00     0.031 C 
HETATM   11  C19 UNL     1      -2.962  10.823  18.247  1.00  0.00     0.013 C 
HETATM   12  C20 UNL     1      -3.820  11.917  18.905  1.00  0.00     0.034 C 
HETATM   13  C21 UNL     1      -3.824  13.226  18.102  1.00  0.00     0.136 C 
HETATM   14  C28 UNL     1      -4.423  12.971  16.667  1.00  0.00     0.002 C 
HETATM   15  C29 UNL     1      -3.884  14.029  15.682  1.00  0.00     0.022 C 
HETATM   16  C30 UNL     1      -5.966  13.104  16.699  1.00  0.00     0.022 C 
HETATM   17  C31 UNL     1      -2.003   9.866  15.935  1.00  0.00     0.029 C 
HETATM   18  C32 UNL     1      -0.963   9.250  16.900  1.00  0.00     0.025 C 
HETATM   19  C33 UNL     1      -1.332  10.489  14.649  1.00  0.00     0.137 C 
HETATM   20  O8  UNL     1      -0.793  11.602  14.679  1.00  0.00    -0.297 OA
HETATM   21  C34 UNL     1      -1.290   9.677  13.326  1.00  0.00     0.089 C 
HETATM   22  C35 UNL     1      -1.016   8.218  13.661  1.00  0.00    -0.026 C 
HETATM   23  C36 UNL     1       0.392   8.226  14.374  1.00  0.00     0.016 C 
ENDROOT
BRANCH  13  24
HETATM   24  O2  UNL     1      -4.589  14.180  18.852  1.00  0.00    -0.352 OA
BRANCH  24  25
HETATM   25  C22 UNL     1      -3.803  15.100  19.606  1.00  0.00     0.292 C 
HETATM   26  O3  UNL     1      -3.893  14.806  21.000  1.00  0.00    -0.348 OA
HETATM   27  C23 UNL     1      -5.196  14.980  21.568  1.00  0.00     0.179 C 
HETATM   28  C25 UNL     1      -6.236  15.698  20.679  1.00  0.00     0.180 C 
HETATM   29  C26 UNL     1      -5.592  16.895  19.976  1.00  0.00     0.183 C 
HETATM   30  C27 UNL     1      -4.233  16.556  19.339  1.00  0.00     0.204 C 
BRANCH  27  31
HETATM   31  C24 UNL     1      -5.713  13.612  22.036  1.00  0.00     0.198 C 
BRANCH  31  32
HETATM   32  O4  UNL     1      -7.040  13.376  21.571  1.00  0.00    -0.398 OA
HETATM   33  H36 UNL     1      -7.312  12.510  21.930  1.00  0.00     0.209 HD
ENDBRANCH  31  32
ENDBRANCH  27  31
BRANCH  28  34
HETATM   34  O5  UNL     1      -7.334  16.159  21.486  1.00  0.00    -0.390 OA
HETATM   35  H38 UNL     1      -7.580  15.410  22.074  1.00  0.00     0.210 HD
ENDBRANCH  28  34
BRANCH  29  36
HETATM   36  O6  UNL     1      -6.473  17.398  18.950  1.00  0.00    -0.390 OA
HETATM   37  H40 UNL     1      -6.257  18.339  18.830  1.00  0.00     0.210 HD
ENDBRANCH  29  36
BRANCH  30  38
HETATM   38  O7  UNL     1      -3.238  17.463  19.863  1.00  0.00    -0.388 OA
HETATM   39  H42 UNL     1      -3.153  17.288  20.818  1.00  0.00     0.210 HD
ENDBRANCH  30  38
ENDBRANCH  24  25
ENDBRANCH  13  24
BRANCH   1  40
HETATM   40  C7  UNL     1       0.361   6.912  11.694  1.00  0.00    -0.014 C 
HETATM   41  C8  UNL     1       1.581   6.378  12.453  1.00  0.00     0.010 C 
BRANCH  40  42
HETATM   42  C6  UNL     1       0.733   8.230  10.963  1.00  0.00     0.008 C 
BRANCH  42  43
HETATM   43  C5  UNL     1       0.851   8.138   9.437  1.00  0.00     0.028 C 
BRANCH  43  44
HETATM   44  C4  UNL     1       1.701   6.963   9.039  1.00  0.00    -0.017 C 
HETATM   45  C2  UNL     1       2.114   6.627   7.803  1.00  0.00    -0.028 C 
HETATM   46  C1  UNL     1       1.802   7.327   6.516  1.00  0.00     0.051 C 
BRANCH  45  47
HETATM   47  C3  UNL     1       2.977   5.410   7.671  1.00  0.00     0.265 C 
HETATM   48  O1  UNL     1       3.504   4.832   8.615  1.00  0.00    -0.302 OA
ENDBRANCH  45  47
ENDBRANCH  43  44
ENDBRANCH  42  43
ENDBRANCH  40  42
ENDBRANCH   1  40
TORSDOF 12
ENDMDL
