MODEL 1
REMARK minimizedAffinity -9.66733074
REMARK CNNscore 0.292251796
REMARK CNNaffinity 7.37021208
REMARK  13 active torsions:
REMARK  status: ('A' for Active; 'I' for Inactive)
REMARK    1  A    between atoms: O1_2  and  C2_3 
REMARK    2  A    between atoms: C2_3  and  C3_5 
REMARK    3  A    between atoms: C3_5  and  C4_6 
REMARK    4  A    between atoms: C3_5  and  N2_16 
REMARK    5  A    between atoms: C4_6  and  C5_7 
REMARK       I    between atoms: N2_16  and  C13_17 
REMARK    6  A    between atoms: C13_17  and  C14_19 
REMARK    7  A    between atoms: C14_19  and  C15_20 
REMARK    8  A    between atoms: C15_20  and  C16_21 
REMARK    9  A    between atoms: C16_21  and  O5_23 
REMARK   10  A    between atoms: O5_23  and  C17_24 
REMARK   11  A    between atoms: C17_24  and  C18_25 
REMARK   12  A    between atoms: C18_25  and  C19_27 
REMARK   13  A    between atoms: C19_27  and  O7_28 
ROOT
HETATM    1  O5  UNL     1      -1.796  10.252  15.628  1.00  0.00    -0.314 OA
ENDROOT
BRANCH   1   2
HETATM    2  C16 UNL     1      -3.091  10.678  15.655  1.00  0.00     0.259 C 
HETATM    3  O4  UNL     1      -3.475  11.769  15.267  1.00  0.00    -0.265 OA
BRANCH   2   4
HETATM    4  C15 UNL     1      -3.979   9.624  16.263  1.00  0.00     0.120 C 
BRANCH   4   5
HETATM    5  C14 UNL     1      -5.360   9.625  15.623  1.00  0.00     0.112 C 
BRANCH   5   6
HETATM    6  C13 UNL     1      -5.581   8.343  14.847  1.00  0.00     0.218 C 
HETATM    7  N2  UNL     1      -6.051   7.297  15.606  1.00  0.00    -0.347 N 
HETATM    8  H13 UNL     1      -5.867   7.328  16.601  1.00  0.00     0.163 HD
HETATM    9  O3  UNL     1      -5.363   8.261  13.643  1.00  0.00    -0.274 OA
BRANCH   7  10
HETATM   10  C3  UNL     1      -6.136   5.956  15.012  1.00  0.00     0.188 C 
BRANCH  10  11
HETATM   11  C2  UNL     1      -7.577   5.467  15.161  1.00  0.00     0.281 C 
HETATM   12  O2  UNL     1      -8.233   5.561  16.195  1.00  0.00    -0.263 OA
BRANCH  11  13
HETATM   13  O1  UNL     1      -8.040   4.969  13.981  1.00  0.00    -0.325 OA
HETATM   14  C1  UNL     1      -8.432   5.965  13.037  1.00  0.00     0.213 C 
ENDBRANCH  11  13
ENDBRANCH  10  11
BRANCH  10  15
HETATM   15  C4  UNL     1      -5.798   5.958  13.516  1.00  0.00     0.076 C 
BRANCH  15  16
HETATM   16  C5  UNL     1      -4.824   4.891  13.119  1.00  0.00    -0.028 A 
HETATM   17  C6  UNL     1      -3.455   4.918  13.321  1.00  0.00     0.096 A 
HETATM   18  N1  UNL     1      -2.924   3.764  12.812  1.00  0.00    -0.365 N 
HETATM   19  C7  UNL     1      -3.916   2.977  12.275  1.00  0.00     0.042 A 
HETATM   20  H8  UNL     1      -1.944   3.520  12.821  1.00  0.00     0.165 HD
HETATM   21  C8  UNL     1      -3.834   1.724  11.656  1.00  0.00     0.030 A 
HETATM   22  C12 UNL     1      -5.121   3.659  12.448  1.00  0.00    -0.002 A 
HETATM   23  C9  UNL     1      -5.023   1.148  11.200  1.00  0.00     0.002 A 
HETATM   24  C10 UNL     1      -6.241   1.804  11.354  1.00  0.00     0.001 A 
HETATM   25  C11 UNL     1      -6.305   3.059  11.972  1.00  0.00     0.014 A 
ENDBRANCH  15  16
ENDBRANCH  10  15
ENDBRANCH   7  10
ENDBRANCH   5   6
ENDBRANCH   4   5
ENDBRANCH   2   4
ENDBRANCH   1   2
BRANCH   1  26
HETATM   26  C17 UNL     1      -1.574   9.057  16.377  1.00  0.00     0.260 C 
BRANCH  26  27
HETATM   27  C18 UNL     1      -0.403   8.311  15.758  1.00  0.00     0.185 C 
HETATM   28  O6  UNL     1       0.630   8.115  16.406  1.00  0.00    -0.292 OA
BRANCH  27  29
HETATM   29  C19 UNL     1      -0.569   7.810  14.302  1.00  0.00     0.128 C 
HETATM   30  C20 UNL     1      -1.682   8.579  13.531  1.00  0.00     0.047 C 
HETATM   31  C21 UNL     1      -1.191   8.734  12.079  1.00  0.00     0.009 C 
HETATM   32  C22 UNL     1       0.058   7.865  12.005  1.00  0.00     0.002 C 
HETATM   33  C23 UNL     1       1.048   8.104  10.857  1.00  0.00    -0.004 C 
HETATM   34  C36 UNL     1       0.694   8.029  13.409  1.00  0.00    -0.002 C 
HETATM   35  C24 UNL     1       0.354   8.017   9.483  1.00  0.00     0.010 C 
HETATM   36  C33 UNL     1       2.219   7.066  10.981  1.00  0.00     0.002 C 
HETATM   37  C25 UNL     1       1.341   8.092   8.316  1.00  0.00     0.035 C 
HETATM   38  C26 UNL     1       2.420   7.057   8.518  1.00  0.00    -0.068 C 
HETATM   39  C27 UNL     1       2.509   6.008   7.683  1.00  0.00     0.053 C 
HETATM   40  C31 UNL     1       3.246   7.210   9.802  1.00  0.00    -0.016 C 
HETATM   41  C28 UNL     1       3.347   4.830   8.014  1.00  0.00     0.149 C 
HETATM   42  O8  UNL     1       3.453   3.913   7.202  1.00  0.00    -0.293 OA
HETATM   43  C29 UNL     1       3.943   4.762   9.396  1.00  0.00     0.084 C 
HETATM   44  C30 UNL     1       4.384   6.148   9.831  1.00  0.00     0.022 C 
HETATM   45  C32 UNL     1       3.968   8.581   9.827  1.00  0.00     0.020 C 
HETATM   46  C34 UNL     1       2.851   7.098  12.393  1.00  0.00     0.007 C 
HETATM   47  C35 UNL     1       1.814   6.980  13.527  1.00  0.00     0.013 C 
HETATM   48  C37 UNL     1       1.290   9.442  13.651  1.00  0.00     0.019 C 
BRANCH  29  49
HETATM   49  O7  UNL     1      -0.927   6.425  14.296  1.00  0.00    -0.381 OA
HETATM   50  H20 UNL     1      -1.807   6.342  14.710  1.00  0.00     0.211 HD
ENDBRANCH  29  49
ENDBRANCH  27  29
ENDBRANCH  26  27
ENDBRANCH   1  26
TORSDOF 13
ENDMDL
