MODEL 1
REMARK minimizedAffinity -9.19098473
REMARK  4 active torsions:
REMARK  status: ('A' for Active; 'I' for Inactive)
REMARK    1  A    between atoms: C4_4  and  C5_5 
REMARK    2  A    between atoms: C5_5  and  C6_7 
REMARK    3  A    between atoms: C6_7  and  C7_8 
REMARK    4  A    between atoms: C7_8  and  C9_10 
ROOT
HETATM    1  C9  UNL     1       1.085   6.523  11.693  1.00  0.00    -0.001 C 
HETATM    2  C10 UNL     1       1.362   4.990  11.652  1.00  0.00     0.007 C 
HETATM    3  C11 UNL     1       0.069   4.273  12.098  1.00  0.00     0.015 C 
HETATM    4  C12 UNL     1      -1.007   5.373  12.084  1.00  0.00    -0.013 C 
HETATM    5  C13 UNL     1      -1.477   5.495  10.589  1.00  0.00     0.021 C 
HETATM    6  C14 UNL     1      -2.290   5.158  12.890  1.00  0.00    -0.070 C 
HETATM    7  C15 UNL     1      -2.922   3.970  12.871  1.00  0.00    -0.022 C 
HETATM    8  C16 UNL     1      -4.343   3.781  13.300  1.00  0.00     0.034 C 
HETATM    9  C17 UNL     1      -5.127   5.108  13.190  1.00  0.00     0.013 C 
HETATM   10  C18 UNL     1      -6.680   4.935  13.358  1.00  0.00     0.018 C 
HETATM   11  C19 UNL     1      -7.236   4.168  12.129  1.00  0.00     0.023 C 
HETATM   12  C20 UNL     1      -7.133   4.163  14.608  1.00  0.00     0.023 C 
HETATM   13  C21 UNL     1      -7.345   6.320  13.393  1.00  0.00     0.135 C 
HETATM   14  O2  UNL     1      -8.406   6.559  12.811  1.00  0.00    -0.297 OA
HETATM   15  C22 UNL     1      -6.707   7.380  14.257  1.00  0.00     0.080 C 
HETATM   16  C23 UNL     1      -5.237   7.534  13.902  1.00  0.00     0.017 C 
HETATM   17  C24 UNL     1      -4.423   6.225  14.040  1.00  0.00    -0.031 C 
HETATM   18  C25 UNL     1      -4.340   5.860  15.550  1.00  0.00     0.016 C 
HETATM   19  C26 UNL     1      -2.906   6.402  13.554  1.00  0.00     0.024 C 
HETATM   20  C27 UNL     1      -2.569   7.675  12.743  1.00  0.00     0.010 C 
HETATM   21  C28 UNL     1      -1.056   7.876  12.444  1.00  0.00     0.011 C 
HETATM   22  C29 UNL     1      -0.186   6.606  12.604  1.00  0.00    -0.029 C 
HETATM   23  C30 UNL     1       0.290   6.475  14.086  1.00  0.00     0.016 C 
ENDROOT
BRANCH   1  24
HETATM   24  C7  UNL     1       2.356   7.345  12.051  1.00  0.00    -0.007 C 
HETATM   25  C8  UNL     1       2.051   8.552  12.944  1.00  0.00     0.011 C 
BRANCH  24  26
HETATM   26  C6  UNL     1       3.150   7.805  10.804  1.00  0.00     0.087 C 
BRANCH  26  27
HETATM   27  C5  UNL     1       3.646   6.671   9.922  1.00  0.00     0.149 C 
HETATM   28  O1  UNL     1       4.628   5.995  10.222  1.00  0.00    -0.293 OA
BRANCH  27  29
HETATM   29  C4  UNL     1       2.894   6.422   8.654  1.00  0.00     0.052 C 
HETATM   30  C2  UNL     1       2.585   7.363   7.743  1.00  0.00    -0.084 C 
HETATM   31  C1  UNL     1       2.997   8.807   7.820  1.00  0.00     0.043 C 
HETATM   32  C3  UNL     1       1.766   7.008   6.529  1.00  0.00     0.043 C 
ENDBRANCH  27  29
ENDBRANCH  26  27
ENDBRANCH  24  26
ENDBRANCH   1  24
TORSDOF 4
ENDMDL
