MODEL 1
REMARK minimizedAffinity -7.05770063
REMARK CNNscore 0.847563207
REMARK CNNaffinity 5.40163279
REMARK  12 active torsions:
REMARK  status: ('A' for Active; 'I' for Inactive)
REMARK    1  A    between atoms: C2_2  and  O1_3 
REMARK    2  A    between atoms: C2_2  and  C3_4 
REMARK    3  A    between atoms: C4_5  and  C5_6 
REMARK    4  A    between atoms: C5_6  and  O2_7 
REMARK    5  A    between atoms: C8_10  and  O3_11 
REMARK    6  A    between atoms: O3_11  and  C9_12 
REMARK    7  A    between atoms: C10_14  and  C11_15 
REMARK    8  A    between atoms: C11_15  and  O5_16 
REMARK    9  A    between atoms: C12_17  and  O6_18 
REMARK   10  A    between atoms: C13_19  and  O7_20 
REMARK   11  A    between atoms: C14_21  and  O8_22 
REMARK   12  A    between atoms: C15_23  and  O9_24 
ROOT
HETATM    1  C5  UNL     1      -3.498  50.169 -24.122  1.00  0.00     0.088 C 
HETATM    2  C6  UNL     1      -4.293  49.296 -25.145  1.00  0.00     0.052 C 
HETATM    3  C7  UNL     1      -3.445  48.372 -26.037  1.00  0.00     0.016 C 
HETATM    4  C8  UNL     1      -5.431  48.459 -24.496  1.00  0.00     0.160 C 
HETATM    5  C15 UNL     1      -5.918  49.063 -23.164  1.00  0.00     0.148 C 
HETATM    6  C16 UNL     1      -4.791  49.227 -22.130  1.00  0.00     0.046 C 
HETATM    7  C17 UNL     1      -3.369  49.496 -22.709  1.00  0.00    -0.010 C 
HETATM    8  C18 UNL     1      -2.627  50.414 -21.703  1.00  0.00     0.018 C 
HETATM    9  C19 UNL     1      -2.586  48.163 -22.739  1.00  0.00     0.018 C 
ENDROOT
BRANCH   4  10
HETATM   10  O3  UNL     1      -6.477  48.403 -25.489  1.00  0.00    -0.350 OA
BRANCH  10  11
HETATM   11  C9  UNL     1      -7.521  47.471 -25.213  1.00  0.00     0.292 C 
HETATM   12  O4  UNL     1      -7.492  46.436 -26.196  1.00  0.00    -0.348 OA
HETATM   13  C10 UNL     1      -7.819  46.843 -27.529  1.00  0.00     0.179 C 
HETATM   14  C12 UNL     1      -8.839  47.996 -27.631  1.00  0.00     0.180 C 
HETATM   15  C13 UNL     1      -9.738  47.971 -26.396  1.00  0.00     0.183 C 
HETATM   16  C14 UNL     1      -8.880  48.209 -25.151  1.00  0.00     0.204 C 
BRANCH  13  17
HETATM   17  C11 UNL     1      -6.554  47.148 -28.345  1.00  0.00     0.198 C 
BRANCH  17  18
HETATM   18  O5  UNL     1      -6.442  48.552 -28.588  1.00  0.00    -0.398 OA
HETATM   19  H18 UNL     1      -6.651  48.696 -29.528  1.00  0.00     0.209 HD
ENDBRANCH  17  18
ENDBRANCH  13  17
BRANCH  14  20
HETATM   20  O6  UNL     1      -9.598  47.846 -28.839  1.00  0.00    -0.390 OA
HETATM   21  H20 UNL     1      -8.949  47.922 -29.566  1.00  0.00     0.210 HD
ENDBRANCH  14  20
BRANCH  15  22
HETATM   22  O7  UNL     1     -10.733  49.007 -26.454  1.00  0.00    -0.390 OA
HETATM   23  H22 UNL     1     -11.287  48.875 -25.659  1.00  0.00     0.210 HD
ENDBRANCH  15  22
BRANCH  16  24
HETATM   24  O8  UNL     1      -9.642  47.823 -23.990  1.00  0.00    -0.388 OA
HETATM   25  H24 UNL     1      -9.051  48.017 -23.232  1.00  0.00     0.210 HD
ENDBRANCH  16  24
ENDBRANCH  10  11
ENDBRANCH   4  10
BRANCH   5  26
HETATM   26  O9  UNL     1      -6.934  48.242 -22.555  1.00  0.00    -0.393 OA
HETATM   27  H26 UNL     1      -7.167  48.683 -21.715  1.00  0.00     0.210 HD
ENDBRANCH   5  26
BRANCH   1  28
HETATM   28  C4  UNL     1      -2.188  50.675 -24.709  1.00  0.00     0.010 C 
HETATM   29  C3  UNL     1      -2.047  51.823 -25.399  1.00  0.00     0.003 C 
BRANCH  29  30
HETATM   30  C2  UNL     1      -0.758  52.317 -25.983  1.00  0.00     0.136 C 
HETATM   31  C1  UNL     1      -0.794  52.315 -27.503  1.00  0.00     0.043 C 
BRANCH  30  32
HETATM   32  O1  UNL     1      -0.560  53.648 -25.517  1.00  0.00    -0.392 OA
HETATM   33  H5  UNL     1      -1.238  54.210 -25.928  1.00  0.00     0.210 HD
ENDBRANCH  30  32
ENDBRANCH  29  30
ENDBRANCH   1  28
BRANCH   1  34
HETATM   34  O2  UNL     1      -4.320  51.343 -23.915  1.00  0.00    -0.385 OA
HETATM   35  H8  UNL     1      -3.746  52.045 -23.562  1.00  0.00     0.211 HD
ENDBRANCH   1  34
TORSDOF 12
ENDMDL
