MODEL 1
REMARK minimizedAffinity -8.15970135
REMARK CNNscore 0.587107182
REMARK CNNaffinity 7.40999556
REMARK  10 active torsions:
REMARK  status: ('A' for Active; 'I' for Inactive)
REMARK    1  A    between atoms: O1_2  and  C2_3 
REMARK    2  A    between atoms: C4_5  and  O2_6 
REMARK    3  A    between atoms: O2_6  and  C5_7 
REMARK    4  A    between atoms: C8_10  and  C9_11 
REMARK    5  A    between atoms: N1_12  and  C10_14 
REMARK    6  A    between atoms: C10_14  and  C11_15 
REMARK    7  A    between atoms: C21_27  and  C22_28 
REMARK    8  A    between atoms: C28_36  and  O5_37 
REMARK    9  A    between atoms: C32_41  and  O6_42 
REMARK   10  A    between atoms: C36_47  and  O8_48 
ROOT
HETATM    1  C5  UNL     1      -0.439  50.252 -14.445  1.00  0.00     0.127 C 
HETATM    2  C6  UNL     1      -1.330  51.354 -13.875  1.00  0.00     0.033 C 
HETATM    3  C7  UNL     1      -0.565  52.377 -13.028  1.00  0.00     0.021 C 
HETATM    4  C8  UNL     1       0.326  51.762 -11.900  1.00  0.00     0.026 C 
HETATM    5  C16 UNL     1       1.165  52.956 -11.263  1.00  0.00     0.009 C 
HETATM    6  C17 UNL     1       0.528  53.536  -9.980  1.00  0.00     0.007 C 
HETATM    7  C18 UNL     1       1.312  54.709  -9.402  1.00  0.00     0.013 C 
HETATM    8  C19 UNL     1       2.792  54.360  -9.109  1.00  0.00    -0.005 C 
HETATM    9  C20 UNL     1       2.876  53.403  -7.901  1.00  0.00     0.019 C 
HETATM   10  C21 UNL     1       3.651  55.640  -8.876  1.00  0.00     0.028 C 
HETATM   11  C26 UNL     1       3.856  56.200 -10.298  1.00  0.00     0.013 C 
HETATM   12  C27 UNL     1       3.722  55.011 -11.262  1.00  0.00     0.040 C 
HETATM   13  C28 UNL     1       3.469  53.769 -10.380  1.00  0.00     0.070 C 
HETATM   14  C29 UNL     1       2.658  52.619 -11.042  1.00  0.00     0.026 C 
HETATM   15  C30 UNL     1       3.317  52.122 -12.350  1.00  0.00     0.011 C 
HETATM   16  C31 UNL     1       2.410  51.276 -13.255  1.00  0.00     0.039 C 
HETATM   17  C32 UNL     1       1.233  50.639 -12.497  1.00  0.00     0.073 C 
HETATM   18  C33 UNL     1       0.430  49.633 -13.352  1.00  0.00     0.071 C 
ENDROOT
BRANCH   1  19
HETATM   19  O2  UNL     1       0.383  50.803 -15.477  1.00  0.00    -0.356 OA
BRANCH  19  20
HETATM   20  C4  UNL     1      -0.353  51.159 -16.655  1.00  0.00     0.263 C 
HETATM   21  C3  UNL     1       0.604  51.916 -17.560  1.00  0.00     0.095 C 
HETATM   22  C2  UNL     1      -0.120  52.440 -18.800  1.00  0.00     0.156 C 
HETATM   23  C36 UNL     1      -1.258  51.494 -19.236  1.00  0.00     0.175 C 
HETATM   24  C34 UNL     1      -0.995  50.070 -18.717  1.00  0.00     0.151 C 
HETATM   25  O7  UNL     1      -0.886  50.000 -17.287  1.00  0.00    -0.354 OA
HETATM   26  C35 UNL     1      -2.097  49.091 -19.122  1.00  0.00     0.042 C 
BRANCH  22  27
HETATM   27  O1  UNL     1       0.795  52.566 -19.898  1.00  0.00    -0.388 OA
HETATM   28  C1  UNL     1       1.023  53.915 -20.290  1.00  0.00     0.202 C 
ENDBRANCH  22  27
BRANCH  23  29
HETATM   29  O8  UNL     1      -2.506  51.979 -18.718  1.00  0.00    -0.390 OA
HETATM   30  H50 UNL     1      -2.750  52.760 -19.246  1.00  0.00     0.210 HD
ENDBRANCH  23  29
ENDBRANCH  19  20
ENDBRANCH   1  19
BRANCH  17  31
HETATM   31  O6  UNL     1       1.810  49.851 -11.437  1.00  0.00    -0.389 OA
HETATM   32  H42 UNL     1       2.382  49.177 -11.848  1.00  0.00     0.210 HD
ENDBRANCH  17  31
BRANCH   4  33
HETATM   33  C9  UNL     1      -0.543  51.111 -10.812  1.00  0.00     0.069 C 
HETATM   34  N1  UNL     1      -1.775  51.455 -10.625  1.00  0.00    -0.397 N 
ATOM     35  H1  UNL     1      -2.255  52.146 -11.202  1.00  0.00     0.159 HD
BRANCH  34  36
HETATM   36  C10 UNL     1      -2.415  50.761  -9.507  1.00  0.00     0.158 C 
BRANCH  36  37
HETATM   37  C11 UNL     1      -1.906  51.291  -8.198  1.00  0.00    -0.025 A 
HETATM   38  C12 UNL     1      -1.850  52.662  -7.937  1.00  0.00     0.011 A 
HETATM   39  C13 UNL     1      -1.389  53.107  -6.701  1.00  0.00     0.018 A 
HETATM   40  C14 UNL     1      -1.007  52.162  -5.764  1.00  0.00     0.087 A 
HETATM   41  N2  UNL     1      -1.057  50.830  -5.974  1.00  0.00    -0.375 N 
HETATM   42  C15 UNL     1      -1.516  50.424  -7.180  1.00  0.00     0.096 A 
ATOM     43  H2  UNL     1      -0.764  50.163  -5.260  1.00  0.00     0.164 HD
ENDBRANCH  36  37
ENDBRANCH  34  36
ENDBRANCH   4  33
BRANCH  13  44
HETATM   44  O5  UNL     1       4.754  53.246 -10.004  1.00  0.00    -0.389 OA
HETATM   45  H36 UNL     1       5.252  53.046 -10.816  1.00  0.00     0.210 HD
ENDBRANCH  13  44
BRANCH  10  46
HETATM   46  C22 UNL     1       3.148  56.619  -7.849  1.00  0.00    -0.045 A 
HETATM   47  C23 UNL     1       3.831  57.441  -7.052  1.00  0.00     0.087 A 
HETATM   48  C24 UNL     1       2.857  58.142  -6.215  1.00  0.00     0.283 A 
HETATM   49  O3  UNL     1       3.135  58.983  -5.378  1.00  0.00    -0.260 OA
HETATM   50  O4  UNL     1       1.610  57.702  -6.518  1.00  0.00    -0.314 OA
HETATM   51  C25 UNL     1       1.698  56.723  -7.554  1.00  0.00     0.213 A 
ENDBRANCH  10  46
TORSDOF 10
ENDMDL
