MODEL 1
REMARK minimizedAffinity -10.1170483
REMARK  9 active torsions:
REMARK  status: ('A' for Active; 'I' for Inactive)
REMARK    1  A    between atoms: C3_3  and  O1_4 
REMARK    2  A    between atoms: N1_14  and  O2_16 
REMARK    3  A    between atoms: O2_16  and  C13_17 
REMARK    4  A    between atoms: C13_17  and  C14_18 
REMARK       I    between atoms: C14_18  and  N2_20 
REMARK    5  A    between atoms: N2_20  and  C15_21 
REMARK    6  A    between atoms: C15_21  and  C16_22 
REMARK    7  A    between atoms: C15_21  and  C17_25 
REMARK    8  A    between atoms: C16_22  and  O5_24 
REMARK    9  A    between atoms: C17_25  and  C19_27 
ROOT
HETATM    1  C1  UNL     1      -2.361  50.868 -27.545  1.00  0.00     0.015 C 
HETATM    2  C2  UNL     1      -1.569  51.179 -26.697  1.00  0.00    -0.078 C 
HETATM    3  C3  UNL     1      -0.589  51.554 -25.667  1.00  0.00     0.128 C 
HETATM    4  C4  UNL     1      -0.005  52.971 -25.896  1.00  0.00     0.052 C 
HETATM    5  C5  UNL     1       0.259  53.564 -24.496  1.00  0.00     0.010 C 
HETATM    6  C6  UNL     1      -0.012  52.411 -23.532  1.00  0.00     0.002 C 
HETATM    7  C7  UNL     1      -0.296  52.733 -22.061  1.00  0.00    -0.004 C 
HETATM    8  C8  UNL     1       0.855  53.529 -21.431  1.00  0.00     0.010 C 
HETATM    9  C9  UNL     1       0.581  53.822 -19.961  1.00  0.00     0.035 C 
HETATM   10  C10 UNL     1       0.298  52.564 -19.173  1.00  0.00    -0.069 C 
HETATM   11  C11 UNL     1       0.956  52.344 -18.021  1.00  0.00     0.030 C 
HETATM   12  C12 UNL     1       0.631  51.199 -17.135  1.00  0.00     0.032 C 
HETATM   13  N1  UNL     1       1.337  51.051 -16.049  1.00  0.00    -0.271 N 
ATOM     14  H1  UNL     1       2.125  51.646 -15.794  1.00  0.00     0.194 HD
HETATM   15  C21 UNL     1      -0.544  50.325 -17.518  1.00  0.00     0.060 C 
HETATM   16  C22 UNL     1      -0.678  50.236 -19.031  1.00  0.00     0.020 C 
HETATM   17  C23 UNL     1      -0.767  51.618 -19.742  1.00  0.00    -0.016 C 
HETATM   18  C24 UNL     1      -2.156  52.236 -19.470  1.00  0.00     0.020 C 
HETATM   19  C25 UNL     1      -0.509  51.397 -21.283  1.00  0.00     0.002 C 
HETATM   20  C26 UNL     1      -1.561  50.489 -21.975  1.00  0.00     0.007 C 
HETATM   21  C27 UNL     1      -1.302  50.288 -23.479  1.00  0.00     0.014 C 
HETATM   22  C28 UNL     1      -1.156  51.627 -24.220  1.00  0.00     0.003 C 
HETATM   23  C29 UNL     1      -2.515  52.384 -24.196  1.00  0.00     0.020 C 
ENDROOT
BRANCH   3  24
HETATM   24  O1  UNL     1       0.493  50.622 -25.724  1.00  0.00    -0.377 OA
HETATM   25  H2  UNL     1       0.776  50.572 -26.653  1.00  0.00     0.211 HD
ENDBRANCH   3  24
BRANCH  13  26
HETATM   26  O2  UNL     1       0.882  49.975 -15.277  1.00  0.00    -0.271 OA
BRANCH  26  27
HETATM   27  C13 UNL     1       0.920  50.347 -13.902  1.00  0.00     0.303 C 
BRANCH  27  28
HETATM   28  C14 UNL     1      -0.069  51.474 -13.628  1.00  0.00     0.244 C 
HETATM   29  O3  UNL     1       0.174  52.646 -13.904  1.00  0.00    -0.271 OA
HETATM   30  N2  UNL     1      -1.268  51.070 -13.089  1.00  0.00    -0.344 N 
HETATM   31  H16 UNL     1      -1.392  50.081 -12.879  1.00  0.00     0.163 HD
BRANCH  30  32
HETATM   32  C15 UNL     1      -2.337  51.999 -12.727  1.00  0.00     0.186 C 
BRANCH  32  33
HETATM   33  C16 UNL     1      -3.260  52.143 -13.938  1.00  0.00     0.163 C 
HETATM   34  O4  UNL     1      -3.381  51.338 -14.852  1.00  0.00    -0.648 OA
BRANCH  33  35
HETATM   35  O5  UNL     1      -3.981  53.281 -13.936  1.00  0.00    -0.775 OA
HETATM   36  H18 UNL     1      -4.505  53.236 -14.763  1.00  0.00     0.167 HD
ENDBRANCH  33  35
ENDBRANCH  32  33
BRANCH  32  37
HETATM   37  C17 UNL     1      -3.074  51.569 -11.435  1.00  0.00     0.014 C 
HETATM   38  C18 UNL     1      -2.068  51.317 -10.302  1.00  0.00     0.012 C 
BRANCH  37  39
HETATM   39  C19 UNL     1      -4.167  52.537 -10.930  1.00  0.00     0.002 C 
HETATM   40  C20 UNL     1      -3.661  53.907 -10.509  1.00  0.00     0.005 C 
ENDBRANCH  37  39
ENDBRANCH  32  37
ENDBRANCH  30  32
ENDBRANCH  27  28
ENDBRANCH  26  27
ENDBRANCH  13  26
TORSDOF 9
ENDMDL
