MODEL 1
REMARK minimizedAffinity -7.53293705
REMARK CNNscore 0.832752645
REMARK CNNaffinity 6.23974037
REMARK  8 active torsions:
REMARK  status: ('A' for Active; 'I' for Inactive)
REMARK    1  A    between atoms: C4_4  and  C5_5 
REMARK    2  A    between atoms: C5_5  and  C6_6 
REMARK    3  A    between atoms: C6_6  and  C7_7 
REMARK    4  A    between atoms: C7_7  and  C9_9 
REMARK    5  A    between atoms: C22_22  and  O1_23 
REMARK    6  A    between atoms: C24_25  and  O2_26 
REMARK    7  A    between atoms: C25_27  and  C27_29 
REMARK    8  A    between atoms: C27_29  and  O4_31 
ROOT
HETATM    1  C9  UNL     1     -11.569  44.573 -28.149  1.00  0.00    -0.002 C 
HETATM    2  C10 UNL     1     -11.059  45.914 -27.569  1.00  0.00     0.007 C 
HETATM    3  C11 UNL     1     -12.139  46.405 -26.577  1.00  0.00     0.015 C 
HETATM    4  C12 UNL     1     -13.077  45.195 -26.354  1.00  0.00    -0.005 C 
HETATM    5  C13 UNL     1     -12.412  44.310 -25.254  1.00  0.00     0.021 C 
HETATM    6  C14 UNL     1     -14.512  45.380 -25.876  1.00  0.00    -0.000 C 
HETATM    7  C15 UNL     1     -15.484  44.484 -26.201  1.00  0.00    -0.058 C 
HETATM    8  C16 UNL     1     -15.164  43.296 -27.128  1.00  0.00     0.036 C 
HETATM    9  C17 UNL     1     -13.750  43.212 -27.742  1.00  0.00     0.015 C 
HETATM   10  C18 UNL     1     -13.086  44.588 -27.807  1.00  0.00    -0.028 C 
HETATM   11  C19 UNL     1     -13.875  45.455 -28.833  1.00  0.00     0.016 C 
HETATM   12  C20 UNL     1     -16.970  44.612 -25.721  1.00  0.00     0.011 C 
HETATM   13  C21 UNL     1     -17.744  45.265 -26.892  1.00  0.00     0.023 C 
HETATM   14  C22 UNL     1     -17.610  43.216 -25.376  1.00  0.00     0.133 C 
HETATM   15  C23 UNL     1     -18.957  43.316 -24.663  1.00  0.00     0.065 C 
HETATM   16  C24 UNL     1     -18.882  44.171 -23.410  1.00  0.00     0.139 C 
HETATM   17  C25 UNL     1     -18.374  45.612 -23.678  1.00  0.00     0.072 C 
HETATM   18  C26 UNL     1     -18.229  46.321 -22.310  1.00  0.00     0.030 C 
HETATM   19  C28 UNL     1     -16.986  45.486 -24.406  1.00  0.00     0.029 C 
HETATM   20  C29 UNL     1     -16.252  46.813 -24.625  1.00  0.00     0.090 C 
HETATM   21  C30 UNL     1     -14.816  46.552 -24.997  1.00  0.00     0.157 C 
HETATM   22  O5  UNL     1     -13.928  47.300 -24.596  1.00  0.00    -0.293 OA
ENDROOT
BRANCH   1  23
HETATM   23  C7  UNL     1     -11.123  44.226 -29.601  1.00  0.00    -0.014 C 
HETATM   24  C8  UNL     1     -10.519  42.808 -29.585  1.00  0.00     0.010 C 
BRANCH  23  25
HETATM   25  C6  UNL     1     -10.120  45.212 -30.248  1.00  0.00     0.008 C 
BRANCH  25  26
HETATM   26  C5  UNL     1     -10.776  46.361 -31.033  1.00  0.00     0.028 C 
BRANCH  26  27
HETATM   27  C4  UNL     1     -10.216  47.721 -30.722  1.00  0.00    -0.025 C 
HETATM   28  C2  UNL     1      -9.148  48.330 -31.275  1.00  0.00    -0.091 C 
HETATM   29  C1  UNL     1      -8.749  49.715 -30.835  1.00  0.00     0.042 C 
HETATM   30  C3  UNL     1      -8.254  47.738 -32.329  1.00  0.00     0.042 C 
ENDBRANCH  26  27
ENDBRANCH  25  26
ENDBRANCH  23  25
ENDBRANCH   1  23
BRANCH  14  31
HETATM   31  O1  UNL     1     -17.839  42.441 -26.556  1.00  0.00    -0.394 OA
HETATM   32  H35 UNL     1     -18.136  41.556 -26.278  1.00  0.00     0.210 HD
ENDBRANCH  14  31
BRANCH  17  33
HETATM   33  C27 UNL     1     -19.359  46.480 -24.461  1.00  0.00     0.151 C 
HETATM   34  O3  UNL     1     -19.203  47.651 -24.763  1.00  0.00    -0.649 OA
BRANCH  33  35
HETATM   35  O4  UNL     1     -20.518  45.873 -24.786  1.00  0.00    -0.776 OA
HETATM   36  H43 UNL     1     -21.026  46.585 -25.238  1.00  0.00     0.167 HD
ENDBRANCH  33  35
ENDBRANCH  17  33
BRANCH  16  37
HETATM   37  O2  UNL     1     -20.140  44.134 -22.737  1.00  0.00    -0.394 OA
HETATM   38  H39 UNL     1     -20.779  44.612 -23.304  1.00  0.00     0.210 HD
ENDBRANCH  16  37
TORSDOF 8
ENDMDL
