MODEL 1
REMARK minimizedAffinity -7.44520187
REMARK CNNscore 0.304574877
REMARK CNNaffinity 6.62957621
REMARK  8 active torsions:
REMARK  status: ('A' for Active; 'I' for Inactive)
REMARK    1  A    between atoms: C10_11  and  C11_12 
REMARK    2  A    between atoms: C29_32  and  C30_33 
REMARK    3  A    between atoms: C29_32  and  C31_35 
REMARK    4  A    between atoms: C30_33  and  O1_34 
REMARK    5  A    between atoms: C31_35  and  O3_37 
REMARK    6  A    between atoms: C38_45  and  O4_46 
REMARK    7  A    between atoms: C41_49  and  C42_50 
REMARK    8  A    between atoms: C42_50  and  O6_52 
ROOT
HETATM    1  C11 UNL     1     -14.209  44.745 -26.935  1.00  0.00     0.070 C 
HETATM    2  C12 UNL     1     -15.362  45.742 -26.656  1.00  0.00     0.026 C 
HETATM    3  C13 UNL     1     -16.830  45.217 -26.552  1.00  0.00     0.039 C 
HETATM    4  C14 UNL     1     -17.093  43.959 -27.380  1.00  0.00    -0.051 C 
HETATM    5  C15 UNL     1     -17.347  44.062 -28.702  1.00  0.00    -0.026 C 
HETATM    6  C16 UNL     1     -17.692  42.955 -29.649  1.00  0.00     0.036 C 
HETATM    7  C17 UNL     1     -17.110  42.646 -26.617  1.00  0.00     0.306 C 
HETATM    8  N2  UNL     1     -16.395  42.692 -25.352  1.00  0.00     0.094 N 
HETATM    9  C18 UNL     1     -16.427  41.412 -24.655  1.00  0.00     0.310 C 
HETATM   10  C19 UNL     1     -16.632  43.844 -24.445  1.00  0.00     0.248 C 
HETATM   11  C20 UNL     1     -15.293  44.271 -23.756  1.00  0.00     0.079 C 
HETATM   12  C21 UNL     1     -13.994  43.884 -24.406  1.00  0.00    -0.020 A 
HETATM   13  C22 UNL     1     -13.565  44.119 -25.708  1.00  0.00     0.025 A 
HETATM   14  N3  UNL     1     -12.300  43.570 -25.809  1.00  0.00    -0.358 N 
HETATM   15  C23 UNL     1     -11.889  43.017 -24.625  1.00  0.00     0.043 A 
HETATM   16  C24 UNL     1     -10.683  42.385 -24.298  1.00  0.00     0.030 A 
HETATM   17  C25 UNL     1     -10.541  41.896 -22.997  1.00  0.00     0.002 A 
HETATM   18  C26 UNL     1     -11.564  42.045 -22.065  1.00  0.00     0.001 A 
HETATM   19  C27 UNL     1     -12.757  42.692 -22.410  1.00  0.00     0.014 A 
HETATM   20  C28 UNL     1     -12.930  43.189 -23.722  1.00  0.00    -0.001 A 
HETATM   21  C29 UNL     1     -17.392  45.031 -25.111  1.00  0.00     0.107 C 
HETATM   22  H28 UNL     1     -11.734  43.590 -26.646  1.00  0.00     0.166 HD
ENDROOT
BRANCH   1  23
HETATM   23  C10 UNL     1     -13.140  45.431 -27.805  1.00  0.00    -0.048 A 
HETATM   24  C9  UNL     1     -12.317  44.685 -28.664  1.00  0.00     0.018 A 
HETATM   25  C8  UNL     1     -11.425  45.352 -29.494  1.00  0.00    -0.017 A 
HETATM   26  C7  UNL     1     -10.358  44.768 -30.392  1.00  0.00     0.061 C 
HETATM   27  C35 UNL     1     -11.344  46.744 -29.507  1.00  0.00     0.039 A 
HETATM   28  C6  UNL     1      -9.133  44.382 -29.517  1.00  0.00     0.050 C 
HETATM   29  C37 UNL     1      -9.856  46.061 -31.189  1.00  0.00     0.273 C 
HETATM   30  C41 UNL     1     -10.828  43.670 -31.371  1.00  0.00     0.111 C 
HETATM   31  C5  UNL     1      -8.072  45.419 -29.824  1.00  0.00     0.277 C 
HETATM   32  N1  UNL     1      -8.381  45.916 -31.167  1.00  0.00     0.125 N 
HETATM   33  C4  UNL     1      -7.811  45.058 -32.211  1.00  0.00     0.310 C 
HETATM   34  C3  UNL     1      -8.455  43.693 -32.418  1.00  0.00    -0.051 C 
HETATM   35  C2  UNL     1      -7.781  42.523 -32.437  1.00  0.00    -0.026 C 
HETATM   36  C40 UNL     1      -9.969  43.677 -32.666  1.00  0.00     0.033 C 
HETATM   37  C1  UNL     1      -6.320  42.279 -32.226  1.00  0.00     0.036 C 
HETATM   38  C39 UNL     1     -10.388  44.886 -33.509  1.00  0.00     0.046 C 
HETATM   39  C38 UNL     1     -10.451  46.166 -32.672  1.00  0.00     0.179 C 
HETATM   40  N4  UNL     1     -10.480  47.227 -30.483  1.00  0.00    -0.347 N 
HETATM   41  C36 UNL     1      -9.746  48.458 -30.290  1.00  0.00     0.152 C 
HETATM   42  C34 UNL     1     -12.135  47.491 -28.651  1.00  0.00     0.030 A 
HETATM   43  C33 UNL     1     -13.030  46.836 -27.800  1.00  0.00     0.010 A 
BRANCH  39  44
HETATM   44  O4  UNL     1     -11.835  46.576 -32.654  1.00  0.00    -0.391 OA
HETATM   45  H45 UNL     1     -11.890  47.172 -31.876  1.00  0.00     0.210 HD
ENDBRANCH  39  44
BRANCH  30  46
HETATM   46  C42 UNL     1     -10.950  42.271 -30.780  1.00  0.00     0.264 C 
HETATM   47  O5  UNL     1     -11.059  41.999 -29.592  1.00  0.00    -0.265 OA
BRANCH  46  48
HETATM   48  O6  UNL     1     -10.982  41.339 -31.778  1.00  0.00    -0.326 OA
HETATM   49  C43 UNL     1     -11.010  39.988 -31.313  1.00  0.00     0.213 C 
ENDBRANCH  46  48
ENDBRANCH  30  46
ENDBRANCH   1  23
BRANCH  21  50
HETATM   50  C30 UNL     1     -18.940  44.798 -25.187  1.00  0.00     0.186 C 
BRANCH  50  51
HETATM   51  O1  UNL     1     -19.624  45.880 -25.813  1.00  0.00    -0.399 OA
HETATM   52  H35 UNL     1     -20.570  45.647 -25.833  1.00  0.00     0.209 HD
ENDBRANCH  50  51
ENDBRANCH  21  50
BRANCH  21  53
HETATM   53  C31 UNL     1     -17.331  46.359 -24.344  1.00  0.00     0.272 C 
HETATM   54  O2  UNL     1     -16.546  47.261 -24.607  1.00  0.00    -0.264 OA
BRANCH  53  55
HETATM   55  O3  UNL     1     -18.306  46.459 -23.395  1.00  0.00    -0.326 OA
HETATM   56  C32 UNL     1     -17.836  46.326 -22.053  1.00  0.00     0.213 C 
ENDBRANCH  53  55
ENDBRANCH  21  53
TORSDOF 8
ENDMDL
