MODEL 1
REMARK minimizedAffinity -6.08820915
REMARK CNNscore 0.7986058
REMARK CNNaffinity 7.15239334
REMARK  3 active torsions:
REMARK  status: ('A' for Active; 'I' for Inactive)
REMARK    1  A    between atoms: C4_4  and  C5_5 
REMARK    2  A    between atoms: C5_5  and  C7_7 
REMARK    3  A    between atoms: C7_7  and  O1_10 
ROOT
HETATM    1  C1  UNL     1     -15.237 -13.616  25.821  1.00  0.00     0.010 C 
HETATM    2  C2  UNL     1     -13.907 -13.466  26.554  1.00  0.00    -0.009 C 
HETATM    3  C3  UNL     1     -13.311 -14.837  26.899  1.00  0.00     0.037 C 
HETATM    4  C4  UNL     1     -11.875 -14.692  27.428  1.00  0.00     0.129 C 
HETATM    5  O2  UNL     1     -11.735 -13.452  28.151  1.00  0.00    -0.380 OA
HETATM    6  C10 UNL     1     -12.887 -13.013  28.853  1.00  0.00     0.128 C 
HETATM    7  C11 UNL     1     -12.553 -11.696  29.581  1.00  0.00     0.042 C 
HETATM    8  C12 UNL     1     -13.786 -10.796  29.361  1.00  0.00    -0.030 C 
HETATM    9  C13 UNL     1     -14.858 -11.237  30.407  1.00  0.00     0.016 C 
HETATM   10  C14 UNL     1     -13.501  -9.277  29.478  1.00  0.00     0.004 C 
HETATM   11  C15 UNL     1     -13.196  -8.814  30.908  1.00  0.00     0.007 C 
HETATM   12  C16 UNL     1     -12.855  -7.330  30.927  1.00  0.00     0.007 C 
HETATM   13  C17 UNL     1     -14.100  -6.504  30.603  1.00  0.00     0.010 C 
HETATM   14  C18 UNL     1     -13.855  -4.961  30.553  1.00  0.00     0.018 C 
HETATM   15  C19 UNL     1     -12.599  -4.553  29.771  1.00  0.00     0.023 C 
HETATM   16  C20 UNL     1     -13.764  -4.400  31.986  1.00  0.00     0.023 C 
HETATM   17  C21 UNL     1     -15.064  -4.280  29.892  1.00  0.00     0.135 C 
HETATM   18  O3  UNL     1     -14.981  -3.133  29.431  1.00  0.00    -0.297 OA
HETATM   19  C22 UNL     1     -16.376  -5.019  29.912  1.00  0.00     0.080 C 
HETATM   20  C23 UNL     1     -16.259  -6.404  29.285  1.00  0.00     0.018 C 
HETATM   21  C24 UNL     1     -14.853  -6.987  29.360  1.00  0.00    -0.026 A 
HETATM   22  C25 UNL     1     -14.112  -7.187  28.062  1.00  0.00     0.021 A 
HETATM   23  C26 UNL     1     -14.601  -8.419  28.807  1.00  0.00    -0.027 A 
HETATM   24  C27 UNL     1     -15.788  -9.163  28.179  1.00  0.00     0.011 C 
HETATM   25  C28 UNL     1     -15.524 -10.550  27.562  1.00  0.00     0.011 C 
HETATM   26  C29 UNL     1     -14.143 -11.140  27.872  1.00  0.00    -0.030 C 
HETATM   27  C30 UNL     1     -13.140 -10.571  26.822  1.00  0.00     0.016 C 
HETATM   28  C31 UNL     1     -14.060 -12.696  27.883  1.00  0.00     0.027 C 
ENDROOT
BRANCH   4  29
HETATM   29  C5  UNL     1     -10.716 -14.691  26.369  1.00  0.00     0.044 C 
HETATM   30  C6  UNL     1     -10.495 -13.219  25.937  1.00  0.00     0.015 C 
BRANCH  29  31
HETATM   31  C7  UNL     1      -9.365 -15.381  26.784  1.00  0.00     0.056 C 
HETATM   32  C8  UNL     1      -8.248 -14.359  27.069  1.00  0.00     0.045 C 
HETATM   33  C9  UNL     1      -9.490 -16.244  28.060  1.00  0.00     0.045 C 
BRANCH  31  34
HETATM   34  O1  UNL     1      -8.942 -16.286  25.763  1.00  0.00    -0.390 OA
HETATM   35  H18 UNL     1      -8.447 -15.798  25.082  1.00  0.00     0.210 HD
ENDBRANCH  31  34
ENDBRANCH  29  31
ENDBRANCH   4  29
TORSDOF 3
ENDMDL
