MODEL 1
REMARK minimizedAffinity -7.22890997
REMARK CNNscore 0.690452874
REMARK CNNaffinity 6.16207838
REMARK  4 active torsions:
REMARK  status: ('A' for Active; 'I' for Inactive)
REMARK    1  A    between atoms: C2_2  and  C3_3 
REMARK    2  A    between atoms: C2_2  and  C9_9 
REMARK    3  A    between atoms: C3_3  and  C4_4 
REMARK    4  A    between atoms: C4_4  and  C5_5 
ROOT
HETATM    1  C9  UNL     1     -10.318  46.222 -28.311  1.00  0.00     0.018 C 
HETATM    2  C10 UNL     1     -10.658  45.347 -29.548  1.00  0.00     0.010 C 
HETATM    3  C11 UNL     1     -11.906  44.539 -29.151  1.00  0.00     0.011 C 
HETATM    4  C12 UNL     1     -12.716  45.511 -28.263  1.00  0.00    -0.032 C 
HETATM    5  C13 UNL     1     -13.326  46.585 -29.219  1.00  0.00     0.016 C 
HETATM    6  C14 UNL     1     -11.565  46.087 -27.390  1.00  0.00     0.002 C 
HETATM    7  C15 UNL     1     -12.048  47.234 -26.515  1.00  0.00     0.006 C 
HETATM    8  C16 UNL     1     -13.187  46.756 -25.593  1.00  0.00     0.006 C 
HETATM    9  C17 UNL     1     -14.352  46.044 -26.338  1.00  0.00     0.003 C 
HETATM   10  C18 UNL     1     -15.620  45.688 -25.442  1.00  0.00    -0.035 C 
HETATM   11  C19 UNL     1     -15.266  44.696 -24.311  1.00  0.00     0.016 C 
HETATM   12  C20 UNL     1     -16.153  46.997 -24.781  1.00  0.00     0.017 C 
HETATM   13  C21 UNL     1     -17.511  46.858 -24.104  1.00  0.00     0.080 C 
HETATM   14  C22 UNL     1     -18.545  46.269 -25.033  1.00  0.00     0.135 C 
HETATM   15  O1  UNL     1     -19.669  46.770 -25.090  1.00  0.00    -0.297 OA
HETATM   16  C23 UNL     1     -18.174  44.984 -25.792  1.00  0.00     0.017 C 
HETATM   17  C24 UNL     1     -19.221  44.786 -26.919  1.00  0.00     0.023 C 
HETATM   18  C25 UNL     1     -18.314  43.793 -24.834  1.00  0.00     0.023 C 
HETATM   19  C26 UNL     1     -16.748  45.173 -26.418  1.00  0.00     0.009 C 
HETATM   20  C27 UNL     1     -16.265  43.978 -27.268  1.00  0.00     0.007 C 
HETATM   21  C28 UNL     1     -15.038  44.342 -28.114  1.00  0.00     0.011 C 
HETATM   22  C29 UNL     1     -13.837  44.887 -27.300  1.00  0.00    -0.032 C 
HETATM   23  C30 UNL     1     -13.255  43.686 -26.499  1.00  0.00     0.016 C 
ENDROOT
BRANCH   1  24
HETATM   24  C2  UNL     1      -9.732  47.614 -28.534  1.00  0.00    -0.084 C 
HETATM   25  C1  UNL     1      -9.028  48.287 -27.607  1.00  0.00     0.014 C 
BRANCH  24  26
HETATM   26  C3  UNL     1     -10.082  48.216 -29.896  1.00  0.00     0.037 C 
BRANCH  26  27
HETATM   27  C4  UNL     1      -9.059  49.160 -30.545  1.00  0.00     0.031 C 
BRANCH  27  28
HETATM   28  C5  UNL     1      -8.191  48.431 -31.538  1.00  0.00    -0.024 C 
HETATM   29  C6  UNL     1      -6.980  47.882 -31.324  1.00  0.00    -0.091 C 
HETATM   30  C7  UNL     1      -6.224  47.937 -30.025  1.00  0.00     0.042 C 
HETATM   31  C8  UNL     1      -6.262  47.151 -32.429  1.00  0.00     0.042 C 
ENDBRANCH  27  28
ENDBRANCH  26  27
ENDBRANCH  24  26
ENDBRANCH   1  24
TORSDOF 4
ENDMDL
