MODEL 1
REMARK minimizedAffinity -9.38892078
REMARK  9 active torsions:
REMARK  status: ('A' for Active; 'I' for Inactive)
REMARK    1  A    between atoms: C2_2  and  C30_33 
REMARK    2  A    between atoms: C3_3  and  C4_4 
REMARK    3  A    between atoms: C4_4  and  C5_5 
REMARK    4  A    between atoms: C5_5  and  C6_6 
REMARK    5  A    between atoms: C6_6  and  C8_8 
REMARK    6  A    between atoms: C10_10  and  O1_11 
REMARK    7  A    between atoms: C23_24  and  O2_25 
REMARK    8  A    between atoms: C29_31  and  O3_32 
REMARK    9  A    between atoms: C30_33  and  O4_34 
ROOT
HETATM    1  C8  UNL     1      -2.765   8.318  15.213  1.00  0.00     0.001 C 
HETATM    2  C9  UNL     1      -1.770   8.175  16.396  1.00  0.00     0.038 C 
HETATM    3  C10 UNL     1      -0.368   7.992  15.770  1.00  0.00     0.132 C 
HETATM    4  C11 UNL     1      -0.524   8.468  14.303  1.00  0.00     0.016 C 
HETATM    5  C12 UNL     1      -0.469  10.032  14.271  1.00  0.00     0.023 C 
HETATM    6  C13 UNL     1       0.486   7.999  13.257  1.00  0.00    -0.037 C 
HETATM    7  C14 UNL     1       0.102   7.924  11.954  1.00  0.00    -0.065 C 
HETATM    8  C15 UNL     1      -1.344   8.212  11.522  1.00  0.00     0.036 C 
HETATM    9  C16 UNL     1      -2.401   8.423  12.629  1.00  0.00     0.015 C 
HETATM   10  C17 UNL     1      -1.935   7.855  13.974  1.00  0.00    -0.026 C 
HETATM   11  C18 UNL     1      -1.941   6.303  13.855  1.00  0.00     0.016 C 
HETATM   12  C19 UNL     1       1.090   7.479  10.837  1.00  0.00    -0.016 C 
HETATM   13  C20 UNL     1       0.786   5.985  10.601  1.00  0.00     0.020 C 
HETATM   14  C21 UNL     1       0.871   8.319   9.559  1.00  0.00     0.016 C 
HETATM   15  C22 UNL     1       1.872   8.128   8.420  1.00  0.00     0.033 C 
HETATM   16  C23 UNL     1       3.162   7.381   8.751  1.00  0.00     0.126 C 
HETATM   17  C24 UNL     1       3.689   7.513  10.212  1.00  0.00    -0.017 C 
HETATM   18  C25 UNL     1       4.609   8.769  10.247  1.00  0.00     0.018 C 
HETATM   19  C26 UNL     1       4.597   6.301  10.536  1.00  0.00     0.018 C 
HETATM   20  C27 UNL     1       2.557   7.753  11.294  1.00  0.00     0.011 C 
HETATM   21  C28 UNL     1       2.818   7.091  12.661  1.00  0.00     0.043 C 
HETATM   22  C29 UNL     1       1.876   7.644  13.739  1.00  0.00     0.148 C 
ENDROOT
BRANCH   1  23
HETATM   23  C6  UNL     1      -4.196   7.738  15.407  1.00  0.00    -0.013 C 
HETATM   24  C7  UNL     1      -4.093   6.217  15.629  1.00  0.00     0.010 C 
BRANCH  23  25
HETATM   25  C5  UNL     1      -5.191   8.009  14.256  1.00  0.00     0.008 C 
BRANCH  25  26
HETATM   26  C4  UNL     1      -5.301   6.833  13.277  1.00  0.00     0.028 C 
BRANCH  26  27
HETATM   27  C3  UNL     1      -6.395   5.884  13.680  1.00  0.00    -0.022 C 
HETATM   28  C2  UNL     1      -6.447   4.550  13.476  1.00  0.00    -0.064 C 
HETATM   29  C1  UNL     1      -5.399   3.779  12.715  1.00  0.00     0.045 C 
BRANCH  28  30
HETATM   30  C30 UNL     1      -7.595   3.683  13.957  1.00  0.00     0.197 C 
BRANCH  30  31
HETATM   31  O4  UNL     1      -8.687   3.678  13.048  1.00  0.00    -0.397 OA
HETATM   32  H50 UNL     1      -8.964   4.603  12.953  1.00  0.00     0.209 HD
ENDBRANCH  30  31
ENDBRANCH  28  30
ENDBRANCH  26  27
ENDBRANCH  25  26
ENDBRANCH  23  25
ENDBRANCH   1  23
BRANCH   3  33
HETATM   33  O1  UNL     1       0.622   8.724  16.482  1.00  0.00    -0.394 OA
HETATM   34  H17 UNL     1       0.550   8.465  17.424  1.00  0.00     0.210 HD
ENDBRANCH   3  33
BRANCH  22  35
HETATM   35  O3  UNL     1       2.486   8.810  14.276  1.00  0.00    -0.391 OA
HETATM   36  H47 UNL     1       2.059   8.985  15.136  1.00  0.00     0.210 HD
ENDBRANCH  22  35
BRANCH  16  37
HETATM   37  O2  UNL     1       2.982   6.004   8.400  1.00  0.00    -0.395 OA
HETATM   38  H36 UNL     1       2.800   5.959   7.445  1.00  0.00     0.210 HD
ENDBRANCH  16  37
TORSDOF 9
ENDMDL
