MODEL 1
REMARK minimizedAffinity -10.0032454
REMARK  9 active torsions:
REMARK  status: ('A' for Active; 'I' for Inactive)
REMARK    1  A    between atoms: C2_2  and  C3_3 
REMARK    2  A    between atoms: C2_2  and  C9_12 
REMARK    3  A    between atoms: C3_3  and  C4_4 
REMARK    4  A    between atoms: C4_4  and  C5_5 
REMARK    5  A    between atoms: C5_5  and  O1_6 
REMARK    6  A    between atoms: C5_5  and  C6_7 
REMARK    7  A    between atoms: C6_7  and  O2_9 
REMARK    8  A    between atoms: C6_7  and  C8_10 
REMARK    9  A    between atoms: C8_10  and  O3_11 
ROOT
HETATM    1  C9  UNL     1      -0.781  50.166 -21.388  1.00  0.00    -0.002 C 
HETATM    2  C10 UNL     1      -0.919  49.657 -19.927  1.00  0.00     0.007 C 
HETATM    3  C11 UNL     1      -2.241  48.868 -19.847  1.00  0.00     0.015 C 
HETATM    4  C12 UNL     1      -2.633  48.591 -21.313  1.00  0.00    -0.005 C 
HETATM    5  C13 UNL     1      -1.810  47.347 -21.774  1.00  0.00     0.021 C 
HETATM    6  C14 UNL     1      -4.067  48.248 -21.691  1.00  0.00    -0.000 C 
HETATM    7  C15 UNL     1      -4.563  48.566 -22.917  1.00  0.00    -0.060 C 
HETATM    8  C16 UNL     1      -3.713  49.342 -23.930  1.00  0.00     0.036 C 
HETATM    9  C17 UNL     1      -2.307  49.799 -23.492  1.00  0.00     0.015 C 
HETATM   10  C18 UNL     1      -2.211  49.967 -21.972  1.00  0.00    -0.028 C 
HETATM   11  C19 UNL     1      -3.133  51.149 -21.555  1.00  0.00     0.016 C 
HETATM   12  C20 UNL     1      -6.013  48.219 -23.349  1.00  0.00    -0.014 C 
HETATM   13  C21 UNL     1      -6.864  49.457 -22.987  1.00  0.00     0.020 C 
HETATM   14  C22 UNL     1      -6.115  47.956 -24.874  1.00  0.00     0.021 C 
HETATM   15  C23 UNL     1      -7.484  47.467 -25.318  1.00  0.00     0.080 C 
HETATM   16  C24 UNL     1      -7.846  46.196 -24.594  1.00  0.00     0.135 C 
HETATM   17  O4  UNL     1      -8.262  45.226 -25.230  1.00  0.00    -0.297 OA
HETATM   18  C25 UNL     1      -7.763  46.204 -23.061  1.00  0.00     0.018 C 
HETATM   19  C26 UNL     1      -7.754  44.729 -22.584  1.00  0.00     0.023 C 
HETATM   20  C27 UNL     1      -9.047  46.844 -22.515  1.00  0.00     0.023 C 
HETATM   21  C28 UNL     1      -6.428  46.898 -22.613  1.00  0.00     0.020 C 
HETATM   22  C29 UNL     1      -6.311  47.087 -21.098  1.00  0.00     0.090 C 
HETATM   23  C30 UNL     1      -4.916  47.505 -20.701  1.00  0.00     0.157 C 
HETATM   24  O5  UNL     1      -4.505  47.253 -19.570  1.00  0.00    -0.293 OA
ENDROOT
BRANCH   1  25
HETATM   25  C2  UNL     1       0.021  51.498 -21.517  1.00  0.00    -0.014 C 
HETATM   26  C1  UNL     1       0.199  52.317 -20.236  1.00  0.00     0.010 C 
BRANCH  25  27
HETATM   27  C3  UNL     1      -0.516  52.371 -22.675  1.00  0.00     0.007 C 
BRANCH  27  28
HETATM   28  C4  UNL     1      -0.281  51.792 -24.084  1.00  0.00     0.035 C 
BRANCH  28  29
HETATM   29  C5  UNL     1       0.959  52.350 -24.797  1.00  0.00     0.154 C 
BRANCH  29  30
HETATM   30  O1  UNL     1       0.868  53.784 -24.829  1.00  0.00    -0.392 OA
HETATM   31  H10 UNL     1       1.601  54.059 -25.422  1.00  0.00     0.210 HD
ENDBRANCH  29  30
BRANCH  29  32
HETATM   32  C6  UNL     1       1.163  51.835 -26.247  1.00  0.00     0.101 C 
HETATM   33  C7  UNL     1       0.087  50.832 -26.684  1.00  0.00     0.051 C 
BRANCH  32  34
HETATM   34  O2  UNL     1       1.018  52.989 -27.113  1.00  0.00    -0.385 OA
HETATM   35  H14 UNL     1       1.514  52.765 -27.928  1.00  0.00     0.210 HD
ENDBRANCH  32  34
BRANCH  32  36
HETATM   36  C8  UNL     1       2.580  51.266 -26.454  1.00  0.00     0.204 C 
BRANCH  36  37
HETATM   37  O3  UNL     1       3.323  52.121 -27.330  1.00  0.00    -0.398 OA
HETATM   38  H17 UNL     1       3.090  51.879 -28.244  1.00  0.00     0.209 HD
ENDBRANCH  36  37
ENDBRANCH  32  36
ENDBRANCH  29  32
ENDBRANCH  28  29
ENDBRANCH  27  28
ENDBRANCH  25  27
ENDBRANCH   1  25
TORSDOF 9
ENDMDL
