MODEL 1
REMARK minimizedAffinity -7.99049091
REMARK CNNscore 0.582447946
REMARK CNNaffinity 7.29047012
REMARK  12 active torsions:
REMARK  status: ('A' for Active; 'I' for Inactive)
REMARK    1  A    between atoms: O1_2  and  C2_3 
REMARK    2  A    between atoms: C2_3  and  C5_6 
REMARK    3  A    between atoms: C6_7  and  C7_8 
REMARK    4  A    between atoms: C7_8  and  C8_9 
REMARK    5  A    between atoms: C8_9  and  C10_11 
REMARK    6  A    between atoms: C28_30  and  O3_31 
REMARK    7  A    between atoms: O3_31  and  C29_32 
REMARK    8  A    between atoms: C30_34  and  C31_35 
REMARK    9  A    between atoms: C31_35  and  O5_36 
REMARK   10  A    between atoms: C32_37  and  O6_38 
REMARK   11  A    between atoms: C33_39  and  O7_40 
REMARK   12  A    between atoms: C34_41  and  O8_42 
ROOT
HETATM    1  C10 UNL     1       3.722  56.814  -5.412  1.00  0.00    -0.002 C 
HETATM    2  C11 UNL     1       3.226  58.182  -5.996  1.00  0.00     0.006 C 
HETATM    3  C12 UNL     1       2.123  57.884  -7.037  1.00  0.00     0.011 C 
HETATM    4  C13 UNL     1       1.764  56.411  -6.783  1.00  0.00    -0.029 C 
HETATM    5  C14 UNL     1       0.815  56.429  -5.543  1.00  0.00     0.016 C 
HETATM    6  C15 UNL     1       1.116  55.655  -7.978  1.00  0.00     0.028 C 
HETATM    7  C16 UNL     1      -0.175  56.209  -8.531  1.00  0.00    -0.021 C 
HETATM    8  C17 UNL     1      -1.127  55.392  -9.015  1.00  0.00     0.008 C 
HETATM    9  C18 UNL     1      -0.994  53.867  -8.976  1.00  0.00     0.092 C 
HETATM   10  O2  UNL     1      -1.361  53.558  -7.615  1.00  0.00    -0.374 OA
HETATM   11  C19 UNL     1      -0.155  53.646  -6.817  1.00  0.00     0.179 C 
HETATM   12  C20 UNL     1       1.018  54.097  -7.742  1.00  0.00    -0.004 C 
HETATM   13  C21 UNL     1       2.357  53.513  -7.247  1.00  0.00     0.014 C 
HETATM   14  C22 UNL     1       3.044  54.325  -6.125  1.00  0.00     0.011 C 
HETATM   15  C23 UNL     1       3.209  55.814  -6.502  1.00  0.00    -0.032 C 
HETATM   16  C24 UNL     1       4.182  55.887  -7.727  1.00  0.00     0.016 C 
HETATM   17  C25 UNL     1       0.485  53.429  -9.028  1.00  0.00     0.036 C 
HETATM   18  C26 UNL     1       1.155  53.705 -10.378  1.00  0.00     0.011 C 
HETATM   19  C27 UNL     1       0.144  53.690 -11.530  1.00  0.00     0.033 C 
HETATM   20  C28 UNL     1      -0.978  52.677 -11.280  1.00  0.00     0.136 C 
HETATM   21  C35 UNL     1      -1.847  53.042 -10.015  1.00  0.00     0.014 C 
HETATM   22  C36 UNL     1      -2.315  51.696  -9.392  1.00  0.00     0.021 C 
HETATM   23  C37 UNL     1      -3.150  53.775 -10.416  1.00  0.00     0.021 C 
ENDROOT
BRANCH  20  24
HETATM   24  O3  UNL     1      -1.821  52.579 -12.432  1.00  0.00    -0.352 OA
BRANCH  24  25
HETATM   25  C29 UNL     1      -1.437  51.562 -13.365  1.00  0.00     0.292 C 
HETATM   26  O4  UNL     1      -0.428  52.062 -14.241  1.00  0.00    -0.348 OA
HETATM   27  C30 UNL     1       0.129  51.051 -15.098  1.00  0.00     0.179 C 
HETATM   28  C32 UNL     1      -0.938  50.074 -15.635  1.00  0.00     0.180 C 
HETATM   29  C33 UNL     1      -2.318  50.743 -15.608  1.00  0.00     0.183 C 
HETATM   30  C34 UNL     1      -2.694  51.180 -14.180  1.00  0.00     0.204 C 
BRANCH  27  31
HETATM   31  C31 UNL     1       0.835  51.792 -16.241  1.00  0.00     0.198 C 
BRANCH  31  32
HETATM   32  O5  UNL     1       1.291  53.077 -15.841  1.00  0.00    -0.398 OA
HETATM   33  H48 UNL     1       0.504  53.630 -15.681  1.00  0.00     0.209 HD
ENDBRANCH  31  32
ENDBRANCH  27  31
BRANCH  28  34
HETATM   34  O6  UNL     1      -0.957  48.905 -14.797  1.00  0.00    -0.390 OA
HETATM   35  H50 UNL     1      -1.847  48.511 -14.889  1.00  0.00     0.210 HD
ENDBRANCH  28  34
BRANCH  29  36
HETATM   36  O7  UNL     1      -3.321  49.827 -16.087  1.00  0.00    -0.390 OA
HETATM   37  H52 UNL     1      -3.227  49.779 -17.059  1.00  0.00     0.210 HD
ENDBRANCH  29  36
BRANCH  30  38
HETATM   38  O8  UNL     1      -3.422  50.122 -13.524  1.00  0.00    -0.388 OA
HETATM   39  H54 UNL     1      -4.000  49.755 -14.223  1.00  0.00     0.210 HD
ENDBRANCH  30  38
ENDBRANCH  24  25
ENDBRANCH  20  24
BRANCH   1  40
HETATM   40  C8  UNL     1       5.230  56.843  -5.008  1.00  0.00    -0.010 C 
HETATM   41  C9  UNL     1       5.516  56.056  -3.720  1.00  0.00     0.010 C 
BRANCH  40  42
HETATM   42  C7  UNL     1       5.769  58.284  -4.763  1.00  0.00     0.031 C 
BRANCH  42  43
HETATM   43  C6  UNL     1       7.259  58.438  -4.665  1.00  0.00    -0.027 C 
HETATM   44  C5  UNL     1       7.906  59.596  -4.881  1.00  0.00     0.006 C 
BRANCH  44  45
HETATM   45  C2  UNL     1       9.403  59.841  -4.833  1.00  0.00     0.070 C 
HETATM   46  C3  UNL     1       9.972  60.216  -3.454  1.00  0.00     0.050 C 
HETATM   47  C4  UNL     1       9.717  60.990  -5.806  1.00  0.00     0.050 C 
BRANCH  45  48
HETATM   48  O1  UNL     1      10.070  58.690  -5.381  1.00  0.00    -0.382 OA
HETATM   49  C1  UNL     1      11.039  58.073  -4.545  1.00  0.00     0.202 C 
ENDBRANCH  45  48
ENDBRANCH  44  45
ENDBRANCH  42  43
ENDBRANCH  40  42
ENDBRANCH   1  40
TORSDOF 12
ENDMDL
