MODEL 1
REMARK minimizedAffinity -9.04293442
REMARK  6 active torsions:
REMARK  status: ('A' for Active; 'I' for Inactive)
REMARK    1  A    between atoms: C2_2  and  C3_3 
REMARK    2  A    between atoms: C5_5  and  C6_6 
REMARK    3  A    between atoms: C6_6  and  C7_7 
REMARK    4  A    between atoms: C8_8  and  C9_9 
REMARK       I    between atoms: C9_9  and  N1_11 
REMARK    5  A    between atoms: N1_11  and  C10_12 
REMARK    6  A    between atoms: C10_12  and  C12_14 
ROOT
HETATM    1  C7  UNL     1      -4.109   6.444  13.157  1.00  0.00     0.036 C 
HETATM    2  C8  UNL     1      -4.653   7.756  13.703  1.00  0.00     0.011 C 
HETATM    3  C18 UNL     1      -3.975   8.898  13.501  1.00  0.00    -0.013 C 
HETATM    4  C19 UNL     1      -2.653   8.838  12.812  1.00  0.00     0.034 C 
HETATM    5  C20 UNL     1      -1.787   7.698  13.400  1.00  0.00     0.005 C 
HETATM    6  C21 UNL     1      -0.366   7.624  12.731  1.00  0.00    -0.043 C 
HETATM    7  C22 UNL     1       0.494   8.832  13.187  1.00  0.00     0.015 C 
HETATM    8  C23 UNL     1      -0.407   7.668  11.188  1.00  0.00     0.015 C 
HETATM    9  C24 UNL     1       0.351   6.351  13.210  1.00  0.00     0.009 C 
HETATM   10  C25 UNL     1      -0.378   5.063  12.868  1.00  0.00     0.002 C 
HETATM   11  C26 UNL     1      -1.892   5.192  12.723  1.00  0.00     0.010 C 
HETATM   12  C27 UNL     1      -2.568   6.302  13.562  1.00  0.00    -0.031 C 
HETATM   13  C28 UNL     1      -2.476   5.882  15.058  1.00  0.00     0.016 C 
ENDROOT
BRANCH   2  14
HETATM   14  C9  UNL     1      -5.933   7.854  14.445  1.00  0.00     0.248 C 
HETATM   15  O1  UNL     1      -6.264   8.873  15.033  1.00  0.00    -0.268 OA
HETATM   16  N1  UNL     1      -6.661   6.693  14.383  1.00  0.00    -0.349 N 
HETATM   17  H11 UNL     1      -6.206   5.875  14.001  1.00  0.00     0.163 HD
BRANCH  16  18
HETATM   18  C10 UNL     1      -7.828   6.483  15.219  1.00  0.00     0.114 C 
HETATM   19  C11 UNL     1      -7.569   7.022  16.629  1.00  0.00     0.037 C 
BRANCH  18  20
HETATM   20  C12 UNL     1      -9.045   7.110  14.562  1.00  0.00    -0.036 A 
HETATM   21  C13 UNL     1      -9.578   8.299  15.088  1.00  0.00     0.009 A 
HETATM   22  C14 UNL     1     -10.704   8.892  14.516  1.00  0.00     0.001 A 
HETATM   23  C15 UNL     1     -11.321   8.302  13.416  1.00  0.00     0.000 A 
HETATM   24  C16 UNL     1     -10.821   7.110  12.895  1.00  0.00     0.001 A 
HETATM   25  C17 UNL     1      -9.694   6.516  13.467  1.00  0.00     0.009 A 
ENDBRANCH  18  20
ENDBRANCH  16  18
ENDBRANCH   2  14
BRANCH   1  26
HETATM   26  C6  UNL     1      -5.045   5.238  13.481  1.00  0.00     0.038 C 
BRANCH  26  27
HETATM   27  C5  UNL     1      -4.985   4.085  12.512  1.00  0.00    -0.019 C 
HETATM   28  C3  UNL     1      -5.917   3.140  12.265  1.00  0.00    -0.067 C 
HETATM   29  C4  UNL     1      -7.249   3.062  12.966  1.00  0.00     0.048 C 
BRANCH  28  30
HETATM   30  C2  UNL     1      -5.623   2.124  11.256  1.00  0.00    -0.004 C 
HETATM   31  C1  UNL     1      -6.295   0.984  11.049  1.00  0.00     0.012 C 
ENDBRANCH  28  30
ENDBRANCH  26  27
ENDBRANCH   1  26
TORSDOF 6
ENDMDL
