MODEL 1
REMARK minimizedAffinity -8.73907185
REMARK  5 active torsions:
REMARK  status: ('A' for Active; 'I' for Inactive)
REMARK    1  A    between atoms: C2_5  and  C3_6 
REMARK    2  A    between atoms: C5_11  and  C6_12 
REMARK       I    between atoms: C6_12  and  N3_14 
REMARK    3  A    between atoms: N3_14  and  C7_15 
REMARK    4  A    between atoms: C10_18  and  S1_19 
REMARK    5  A    between atoms: S1_19  and  N4_22 
ROOT
HETATM    1  C7  UNL     1      -0.453  52.002 -21.585  1.00  0.00     0.035 A 
HETATM    2  C8  UNL     1      -1.823  51.789 -21.758  1.00  0.00     0.031 A 
HETATM    3  C9  UNL     1      -2.400  51.873 -23.030  1.00  0.00     0.027 A 
HETATM    4  C10 UNL     1      -1.601  52.168 -24.135  1.00  0.00     0.074 A 
HETATM    5  C16 UNL     1      -0.233  52.393 -23.981  1.00  0.00     0.027 A 
HETATM    6  C17 UNL     1       0.334  52.309 -22.707  1.00  0.00     0.031 A 
ENDROOT
BRANCH   1   7
HETATM    7  N3  UNL     1       0.210  51.942 -20.339  1.00  0.00    -0.322 N 
HETATM    8  C6  UNL     1      -0.314  52.199 -19.083  1.00  0.00     0.274 C 
HETATM    9  O1  UNL     1      -1.485  52.490 -18.869  1.00  0.00    -0.266 OA
HETATM   10  H5  UNL     1       1.175  51.652 -20.378  1.00  0.00     0.169 HD
BRANCH   8  11
HETATM   11  C5  UNL     1       0.651  52.079 -17.998  1.00  0.00     0.120 A 
HETATM   12  N1  UNL     1       0.475  51.276 -16.894  1.00  0.00    -0.291 N 
HETATM   13  C1  UNL     1      -0.650  50.412 -16.600  1.00  0.00     0.178 C 
HETATM   14  N2  UNL     1       1.497  51.318 -16.017  1.00  0.00    -0.294 N 
HETATM   15  C2  UNL     1       2.371  52.188 -16.549  1.00  0.00     0.134 A 
ATOM     16  H2  UNL     1       1.588  50.803 -15.142  1.00  0.00     0.187 HD
HETATM   17  C4  UNL     1       1.880  52.686 -17.786  1.00  0.00     0.072 A 
BRANCH  15  18
HETATM   18  C3  UNL     1       3.673  52.554 -15.885  1.00  0.00     0.434 C 
HETATM   19  F1  UNL     1       4.706  51.768 -16.287  1.00  0.00    -0.165 F 
HETATM   20  F2  UNL     1       4.035  53.836 -16.174  1.00  0.00    -0.165 F 
HETATM   21  F3  UNL     1       3.609  52.473 -14.531  1.00  0.00    -0.165 F 
ENDBRANCH  15  18
ENDBRANCH   8  11
ENDBRANCH   1   7
BRANCH   4  22
HETATM   22  S1  UNL     1      -2.352  52.274 -25.740  1.00  0.00     0.243 S 
HETATM   23  O2  UNL     1      -3.690  52.794 -25.549  1.00  0.00    -0.206 OA
HETATM   24  O3  UNL     1      -1.417  52.920 -26.640  1.00  0.00    -0.206 OA
BRANCH  22  25
HETATM   25  N4  UNL     1      -2.469  50.636 -26.216  1.00  0.00    -0.206 NA
HETATM   26  C11 UNL     1      -3.254  50.384 -27.458  1.00  0.00     0.107 C 
HETATM   27  C12 UNL     1      -3.478  48.889 -27.651  1.00  0.00     0.015 C 
HETATM   28  C13 UNL     1      -4.309  48.299 -26.514  1.00  0.00     0.002 C 
HETATM   29  C14 UNL     1      -4.148  49.083 -25.213  1.00  0.00     0.015 C 
HETATM   30  C15 UNL     1      -2.758  49.693 -25.094  1.00  0.00     0.107 C 
ENDBRANCH  22  25
ENDBRANCH   4  22
TORSDOF 5
ENDMDL
