MODEL 1
REMARK minimizedAffinity -7.4081955
REMARK CNNscore 0.68698895
REMARK CNNaffinity 6.90355682
REMARK  6 active torsions:
REMARK  status: ('A' for Active; 'I' for Inactive)
REMARK    1  A    between atoms: C4_4  and  C5_5 
REMARK    2  A    between atoms: C5_5  and  C6_6 
REMARK    3  A    between atoms: C6_6  and  C7_7 
REMARK    4  A    between atoms: C7_7  and  C9_9 
REMARK    5  A    between atoms: C17_17  and  O1_18 
REMARK    6  A    between atoms: C21_22  and  O2_23 
ROOT
HETATM    1  C9  UNL     1      -1.559   7.319  12.601  1.00  0.00    -0.002 C 
HETATM    2  C10 UNL     1      -2.651   6.480  13.319  1.00  0.00     0.006 C 
HETATM    3  C11 UNL     1      -2.795   7.065  14.746  1.00  0.00     0.011 C 
HETATM    4  C12 UNL     1      -2.040   8.412  14.705  1.00  0.00    -0.032 C 
HETATM    5  C13 UNL     1      -3.038   9.435  14.058  1.00  0.00     0.016 C 
HETATM    6  C14 UNL     1      -1.504   8.933  16.083  1.00  0.00     0.003 C 
HETATM    7  C15 UNL     1      -2.642   9.103  17.110  1.00  0.00     0.009 C 
HETATM    8  C16 UNL     1      -2.545  10.331  17.998  1.00  0.00     0.039 C 
HETATM    9  C17 UNL     1      -2.348  11.648  17.215  1.00  0.00     0.071 C 
HETATM   10  C18 UNL     1      -1.278  11.535  16.052  1.00  0.00     0.029 C 
HETATM   11  C19 UNL     1      -0.389  12.794  15.933  1.00  0.00     0.011 C 
HETATM   12  C20 UNL     1      -1.171  14.092  16.068  1.00  0.00     0.033 C 
HETATM   13  C21 UNL     1      -2.062  14.184  17.307  1.00  0.00     0.129 C 
HETATM   14  C22 UNL     1      -2.155  12.894  18.171  1.00  0.00     0.010 C 
HETATM   15  C23 UNL     1      -0.939  12.751  19.123  1.00  0.00     0.020 C 
HETATM   16  C24 UNL     1      -3.376  13.086  19.120  1.00  0.00     0.020 C 
HETATM   17  C25 UNL     1      -0.495  10.158  15.965  1.00  0.00    -0.033 C 
HETATM   18  C26 UNL     1       0.536  10.077  17.135  1.00  0.00     0.016 C 
HETATM   19  C27 UNL     1       0.419  10.061  14.666  1.00  0.00     0.011 C 
HETATM   20  C28 UNL     1      -0.104   9.337  13.414  1.00  0.00     0.011 C 
HETATM   21  C29 UNL     1      -0.830   8.038  13.776  1.00  0.00    -0.032 C 
HETATM   22  C30 UNL     1       0.204   7.071  14.424  1.00  0.00     0.016 C 
ENDROOT
BRANCH   1  23
HETATM   23  C7  UNL     1      -0.717   6.580  11.517  1.00  0.00    -0.014 C 
HETATM   24  C8  UNL     1      -0.364   5.180  12.059  1.00  0.00     0.010 C 
BRANCH  23  25
HETATM   25  C6  UNL     1       0.582   7.297  11.068  1.00  0.00     0.008 C 
BRANCH  25  26
HETATM   26  C5  UNL     1       0.390   8.321   9.936  1.00  0.00     0.028 C 
BRANCH  26  27
HETATM   27  C4  UNL     1       0.606   7.781   8.552  1.00  0.00    -0.025 C 
HETATM   28  C2  UNL     1       1.749   7.795   7.838  1.00  0.00    -0.091 C 
HETATM   29  C1  UNL     1       1.790   7.224   6.444  1.00  0.00     0.042 C 
HETATM   30  C3  UNL     1       3.064   8.336   8.327  1.00  0.00     0.042 C 
ENDBRANCH  26  27
ENDBRANCH  25  26
ENDBRANCH  23  25
ENDBRANCH   1  23
BRANCH   9  31
HETATM   31  O1  UNL     1      -3.594  11.875  16.500  1.00  0.00    -0.389 OA
HETATM   32  H29 UNL     1      -4.337  11.663  17.091  1.00  0.00     0.210 HD
ENDBRANCH   9  31
BRANCH  13  33
HETATM   33  O2  UNL     1      -1.635  15.292  18.106  1.00  0.00    -0.395 OA
HETATM   34  H36 UNL     1      -1.725  16.092  17.559  1.00  0.00     0.210 HD
ENDBRANCH  13  33
TORSDOF 6
ENDMDL
