MODEL 1
REMARK minimizedAffinity -7.48211145
REMARK CNNscore 0.828166425
REMARK CNNaffinity 7.08618307
REMARK  6 active torsions:
REMARK  status: ('A' for Active; 'I' for Inactive)
REMARK    1  A    between atoms: C2_2  and  C3_3 
REMARK    2  A    between atoms: C4_5  and  C5_6 
REMARK    3  A    between atoms: C5_6  and  C6_7 
REMARK    4  A    between atoms: C6_7  and  C7_8 
REMARK    5  A    between atoms: C7_8  and  C9_10 
REMARK    6  A    between atoms: C30_32  and  O3_33 
ROOT
HETATM    1  C9  UNL     1       2.774  12.649  20.132  1.00  0.00    -0.002 C 
HETATM    2  C10 UNL     1       3.785  11.739  19.377  1.00  0.00     0.007 C 
HETATM    3  C11 UNL     1       3.006  10.994  18.276  1.00  0.00     0.015 C 
HETATM    4  C12 UNL     1       1.663  11.737  18.165  1.00  0.00    -0.010 C 
HETATM    5  C13 UNL     1       1.903  12.988  17.260  1.00  0.00     0.021 C 
HETATM    6  C14 UNL     1       0.457  11.012  17.562  1.00  0.00    -0.039 C 
HETATM    7  C15 UNL     1      -0.800  11.386  17.929  1.00  0.00    -0.066 C 
HETATM    8  C16 UNL     1      -1.027  12.469  18.994  1.00  0.00     0.036 C 
HETATM    9  C17 UNL     1       0.204  13.037  19.731  1.00  0.00     0.015 C 
HETATM   10  C18 UNL     1       1.394  12.072  19.683  1.00  0.00    -0.029 C 
HETATM   11  C19 UNL     1       1.053  10.815  20.541  1.00  0.00     0.016 C 
HETATM   12  C20 UNL     1      -2.073  10.739  17.314  1.00  0.00    -0.015 C 
HETATM   13  C21 UNL     1      -2.675   9.807  18.393  1.00  0.00     0.020 C 
HETATM   14  C22 UNL     1      -3.101  11.836  16.937  1.00  0.00     0.021 C 
HETATM   15  C23 UNL     1      -4.252  11.397  16.037  1.00  0.00     0.080 C 
HETATM   16  C24 UNL     1      -4.260   9.933  15.667  1.00  0.00     0.135 C 
HETATM   17  O2  UNL     1      -5.336   9.333  15.580  1.00  0.00    -0.297 OA
HETATM   18  C25 UNL     1      -2.935   9.254  15.306  1.00  0.00     0.018 C 
HETATM   19  C26 UNL     1      -3.039   7.760  15.680  1.00  0.00     0.023 C 
HETATM   20  C27 UNL     1      -2.800   9.342  13.773  1.00  0.00     0.023 C 
HETATM   21  C28 UNL     1      -1.728   9.989  15.982  1.00  0.00     0.016 C 
HETATM   22  C29 UNL     1      -0.490   9.097  16.166  1.00  0.00     0.043 C 
HETATM   23  C30 UNL     1       0.735   9.922  16.554  1.00  0.00     0.148 C 
ENDROOT
BRANCH   1  24
HETATM   24  C7  UNL     1       3.103  12.767  21.649  1.00  0.00    -0.014 C 
HETATM   25  C8  UNL     1       2.649  14.100  22.252  1.00  0.00     0.010 C 
BRANCH  24  26
HETATM   26  C6  UNL     1       4.607  12.544  21.962  1.00  0.00     0.008 C 
BRANCH  26  27
HETATM   27  C5  UNL     1       4.914  11.422  22.962  1.00  0.00     0.028 C 
BRANCH  27  28
HETATM   28  C4  UNL     1       4.204  10.154  22.570  1.00  0.00    -0.017 C 
HETATM   29  C2  UNL     1       3.225   9.515  23.239  1.00  0.00    -0.028 C 
HETATM   30  C1  UNL     1       2.597   9.915  24.537  1.00  0.00     0.051 C 
BRANCH  29  31
HETATM   31  C3  UNL     1       2.670   8.264  22.633  1.00  0.00     0.265 C 
HETATM   32  O1  UNL     1       1.502   7.907  22.744  1.00  0.00    -0.302 OA
ENDBRANCH  29  31
ENDBRANCH  27  28
ENDBRANCH  26  27
ENDBRANCH  24  26
ENDBRANCH   1  24
BRANCH  23  33
HETATM   33  O3  UNL     1       1.263  10.534  15.381  1.00  0.00    -0.391 OA
HETATM   34  H46 UNL     1       1.551   9.821  14.788  1.00  0.00     0.210 HD
ENDBRANCH  23  33
TORSDOF 6
ENDMDL
