MODEL 1
REMARK minimizedAffinity -8.12241936
REMARK CNNscore 0.643205702
REMARK CNNaffinity 7.57131815
REMARK  13 active torsions:
REMARK  status: ('A' for Active; 'I' for Inactive)
REMARK    1  A    between atoms: C3_3  and  O1_4 
REMARK    2  A    between atoms: N1_14  and  O2_16 
REMARK    3  A    between atoms: O2_16  and  C13_17 
REMARK    4  A    between atoms: C13_17  and  C14_18 
REMARK       I    between atoms: C14_18  and  N2_20 
REMARK    5  A    between atoms: N2_20  and  C15_21 
REMARK    6  A    between atoms: C15_21  and  C16_22 
REMARK    7  A    between atoms: C15_21  and  C21_32 
REMARK       I    between atoms: C16_22  and  N3_24 
REMARK    8  A    between atoms: N3_24  and  C17_25 
REMARK    9  A    between atoms: C17_25  and  C18_26 
REMARK   10  A    between atoms: C17_25  and  C19_28 
REMARK   11  A    between atoms: C18_26  and  S1_27 
REMARK   12  A    between atoms: C19_28  and  C20_29 
REMARK   13  A    between atoms: C20_29  and  O6_31 
ROOT
HETATM    1  C1  UNL     1      -2.706  51.476  -9.020  1.00  0.00     0.015 C 
HETATM    2  C2  UNL     1      -1.884  51.151  -9.835  1.00  0.00    -0.078 C 
HETATM    3  C3  UNL     1      -0.868  50.763 -10.829  1.00  0.00     0.128 C 
HETATM    4  C4  UNL     1      -0.053  49.557 -10.366  1.00  0.00     0.052 C 
HETATM    5  C5  UNL     1       0.671  49.125 -11.638  1.00  0.00     0.010 C 
HETATM    6  C6  UNL     1      -0.289  49.443 -12.805  1.00  0.00     0.002 C 
HETATM    7  C7  UNL     1       0.364  49.902 -14.125  1.00  0.00    -0.004 C 
HETATM    8  C8  UNL     1       1.532  50.894 -14.024  1.00  0.00     0.010 C 
HETATM    9  C9  UNL     1       2.163  51.159 -15.393  1.00  0.00     0.035 C 
HETATM   10  C10 UNL     1       1.188  51.486 -16.499  1.00  0.00    -0.069 C 
HETATM   11  C11 UNL     1       1.537  52.376 -17.449  1.00  0.00     0.030 C 
HETATM   12  C12 UNL     1       0.710  52.610 -18.666  1.00  0.00     0.032 C 
HETATM   13  N1  UNL     1       1.207  53.359 -19.611  1.00  0.00    -0.271 N 
ATOM     14  H1  UNL     1       2.119  53.813 -19.564  1.00  0.00     0.194 HD
HETATM   15  C24 UNL     1      -0.620  51.890 -18.784  1.00  0.00     0.060 C 
HETATM   16  C25 UNL     1      -1.149  51.478 -17.418  1.00  0.00     0.020 C 
HETATM   17  C26 UNL     1      -0.122  50.701 -16.544  1.00  0.00    -0.016 C 
HETATM   18  C27 UNL     1       0.162  49.329 -17.215  1.00  0.00     0.020 C 
HETATM   19  C28 UNL     1      -0.713  50.446 -15.098  1.00  0.00     0.002 C 
HETATM   20  C29 UNL     1      -1.371  51.685 -14.473  1.00  0.00     0.007 C 
HETATM   21  C30 UNL     1      -1.922  51.512 -13.058  1.00  0.00     0.014 C 
HETATM   22  C31 UNL     1      -1.442  50.313 -12.210  1.00  0.00     0.003 C 
HETATM   23  C32 UNL     1      -2.671  49.364 -12.030  1.00  0.00     0.020 C 
ENDROOT
BRANCH   3  24
HETATM   24  O1  UNL     1       0.054  51.849 -11.013  1.00  0.00    -0.377 OA
HETATM   25  H2  UNL     1      -0.078  52.469 -10.277  1.00  0.00     0.211 HD
ENDBRANCH   3  24
BRANCH  13  26
HETATM   26  O2  UNL     1       0.329  53.463 -20.701  1.00  0.00    -0.271 OA
BRANCH  26  27
HETATM   27  C13 UNL     1       1.056  53.775 -21.884  1.00  0.00     0.303 C 
BRANCH  27  28
HETATM   28  C14 UNL     1       0.543  53.006 -23.095  1.00  0.00     0.244 C 
HETATM   29  O3  UNL     1       0.346  51.795 -23.056  1.00  0.00    -0.271 OA
HETATM   30  N2  UNL     1       0.432  53.771 -24.236  1.00  0.00    -0.346 N 
HETATM   31  H16 UNL     1       0.399  54.776 -24.067  1.00  0.00     0.163 HD
BRANCH  30  32
HETATM   32  C15 UNL     1      -0.123  53.287 -25.505  1.00  0.00     0.180 C 
BRANCH  32  33
HETATM   33  C16 UNL     1      -1.384  52.416 -25.252  1.00  0.00     0.241 C 
HETATM   34  O4  UNL     1      -2.513  52.885 -25.115  1.00  0.00    -0.271 OA
HETATM   35  N3  UNL     1      -1.165  51.047 -25.279  1.00  0.00    -0.353 N 
HETATM   36  H18 UNL     1      -0.209  50.715 -25.253  1.00  0.00     0.163 HD
BRANCH  35  37
HETATM   37  C17 UNL     1      -2.241  50.074 -25.021  1.00  0.00     0.103 C 
BRANCH  37  38
HETATM   38  C18 UNL     1      -2.588  50.048 -23.521  1.00  0.00     0.096 C 
BRANCH  38  39
HETATM   39  S1  UNL     1      -3.422  48.508 -23.017  1.00  0.00    -0.180 SA
HETATM   40  H22 UNL     1      -3.032  47.771 -24.068  1.00  0.00     0.101 HD
ENDBRANCH  38  39
ENDBRANCH  37  38
BRANCH  37  41
HETATM   41  C19 UNL     1      -3.505  50.421 -25.820  1.00  0.00     0.136 C 
BRANCH  41  42
HETATM   42  C20 UNL     1      -3.434  49.957 -27.244  1.00  0.00     0.141 C 
HETATM   43  O5  UNL     1      -2.634  50.349 -28.077  1.00  0.00    -0.650 OA
BRANCH  42  44
HETATM   44  O6  UNL     1      -4.393  49.073 -27.555  1.00  0.00    -0.776 OA
HETATM   45  H25 UNL     1      -4.124  48.743 -28.442  1.00  0.00     0.167 HD
ENDBRANCH  42  44
ENDBRANCH  41  42
ENDBRANCH  37  41
ENDBRANCH  35  37
ENDBRANCH  32  33
BRANCH  32  46
HETATM   46  C21 UNL     1       0.954  52.716 -26.472  1.00  0.00     0.009 C 
HETATM   47  C22 UNL     1       0.435  52.644 -27.913  1.00  0.00     0.012 C 
HETATM   48  C23 UNL     1       1.532  51.352 -26.070  1.00  0.00     0.012 C 
ENDBRANCH  32  46
ENDBRANCH  30  32
ENDBRANCH  27  28
ENDBRANCH  26  27
ENDBRANCH  13  26
TORSDOF 13
ENDMDL
