MODEL 1
REMARK minimizedAffinity -9.27792835
REMARK CNNscore 0.516994655
REMARK CNNaffinity 7.10356951
REMARK  7 active torsions:
REMARK  status: ('A' for Active; 'I' for Inactive)
REMARK    1  A    between atoms: C4_4  and  C5_5 
REMARK    2  A    between atoms: C15_15  and  C16_16 
REMARK    3  A    between atoms: C16_16  and  C18_18 
REMARK    4  A    between atoms: C18_18  and  C19_19 
REMARK    5  A    between atoms: C23_25  and  C24_26 
REMARK    6  A    between atoms: C27_29  and  O3_30 
REMARK    7  A    between atoms: C30_33  and  O4_34 
ROOT
HETATM    1  C5  UNL     1     -10.449   6.217  13.880  1.00  0.00     0.004 C 
HETATM    2  C6  UNL     1      -9.193   6.674  14.057  1.00  0.00    -0.075 C 
HETATM    3  C7  UNL     1      -8.793   7.878  14.894  1.00  0.00     0.034 C 
HETATM    4  C8  UNL     1      -7.694   7.547  15.912  1.00  0.00     0.005 C 
HETATM    5  C9  UNL     1      -6.492   6.828  15.276  1.00  0.00     0.010 C 
HETATM    6  C10 UNL     1      -6.918   5.599  14.452  1.00  0.00    -0.033 C 
HETATM    7  C11 UNL     1      -7.482   4.532  15.443  1.00  0.00     0.016 C 
HETATM    8  C12 UNL     1      -7.976   6.034  13.407  1.00  0.00     0.023 C 
HETATM    9  C13 UNL     1      -8.110   4.799  12.516  1.00  0.00     0.010 C 
HETATM   10  C14 UNL     1      -6.686   4.240  12.419  1.00  0.00     0.006 C 
HETATM   11  C15 UNL     1      -5.847   4.879  13.568  1.00  0.00    -0.002 C 
ENDROOT
BRANCH   1  12
HETATM   12  C4  UNL     1     -11.663   6.765  14.451  1.00  0.00     0.008 C 
HETATM   13  C3  UNL     1     -12.433   7.747  13.938  1.00  0.00    -0.048 C 
HETATM   14  C2  UNL     1     -13.643   8.192  14.640  1.00  0.00    -0.032 C 
HETATM   15  C26 UNL     1     -12.185   8.525  12.659  1.00  0.00     0.071 C 
HETATM   16  C1  UNL     1     -14.628   7.326  14.942  1.00  0.00     0.022 C 
HETATM   17  C30 UNL     1     -13.681   9.690  14.911  1.00  0.00     0.157 C 
HETATM   18  C28 UNL     1     -13.509  10.488  13.605  1.00  0.00     0.044 C 
HETATM   19  C27 UNL     1     -12.224  10.048  12.881  1.00  0.00     0.129 C 
HETATM   20  C29 UNL     1     -13.516  11.997  13.870  1.00  0.00     0.015 C 
BRANCH  17  21
HETATM   21  O4  UNL     1     -14.914  10.062  15.530  1.00  0.00    -0.390 OA
HETATM   22  H44 UNL     1     -14.892   9.676  16.422  1.00  0.00     0.210 HD
ENDBRANCH  17  21
BRANCH  19  23
HETATM   23  O3  UNL     1     -11.078  10.469  13.625  1.00  0.00    -0.395 OA
HETATM   24  H38 UNL     1     -10.290  10.072  13.215  1.00  0.00     0.210 HD
ENDBRANCH  19  23
ENDBRANCH   1  12
BRANCH  11  25
HETATM   25  C16 UNL     1      -4.599   5.622  12.994  1.00  0.00    -0.011 C 
HETATM   26  C17 UNL     1      -4.530   7.121  13.318  1.00  0.00     0.010 C 
BRANCH  25  27
HETATM   27  C18 UNL     1      -3.239   4.968  13.318  1.00  0.00     0.038 C 
BRANCH  27  28
HETATM   28  C19 UNL     1      -2.185   4.912  12.198  1.00  0.00     0.141 C 
HETATM   29  O1  UNL     1      -1.904   3.510  11.993  1.00  0.00    -0.311 OA
HETATM   30  C20 UNL     1      -0.605   3.328  11.649  1.00  0.00     0.289 C 
HETATM   31  O2  UNL     1      -0.107   2.281  11.282  1.00  0.00    -0.260 OA
HETATM   32  C21 UNL     1       0.085   4.626  11.817  1.00  0.00     0.014 C 
HETATM   33  C22 UNL     1       1.309   4.813  11.306  1.00  0.00     0.025 C 
HETATM   34  C23 UNL     1      -0.836   5.556  12.544  1.00  0.00     0.053 C 
BRANCH  34  35
HETATM   35  C24 UNL     1      -0.736   7.036  12.142  1.00  0.00     0.007 C 
HETATM   36  C25 UNL     1      -0.959   7.983  13.316  1.00  0.00     0.006 C 
ENDBRANCH  34  35
ENDBRANCH  27  28
ENDBRANCH  25  27
ENDBRANCH  11  25
TORSDOF 7
ENDMDL
