MODEL 1
REMARK minimizedAffinity -8.05473614
REMARK CNNscore 0.446998417
REMARK CNNaffinity 6.34941864
REMARK  10 active torsions:
REMARK  status: ('A' for Active; 'I' for Inactive)
REMARK    1  A    between atoms: O1_2  and  C2_3 
REMARK    2  A    between atoms: C4_5  and  O2_6 
REMARK    3  A    between atoms: O2_6  and  C5_7 
REMARK    4  A    between atoms: C8_10  and  C9_11 
REMARK    5  A    between atoms: N1_12  and  C10_14 
REMARK    6  A    between atoms: C10_14  and  C11_15 
REMARK    7  A    between atoms: C21_27  and  C22_28 
REMARK    8  A    between atoms: C28_36  and  O5_37 
REMARK    9  A    between atoms: C32_41  and  O6_42 
REMARK   10  A    between atoms: C36_47  and  O8_48 
ROOT
HETATM    1  C5  UNL     1      -7.687  48.035 -24.202  1.00  0.00     0.127 C 
HETATM    2  C6  UNL     1      -8.590  46.819 -23.996  1.00  0.00     0.033 C 
HETATM    3  C7  UNL     1      -8.708  45.934 -25.241  1.00  0.00     0.021 C 
HETATM    4  C8  UNL     1      -9.101  46.686 -26.551  1.00  0.00     0.026 C 
HETATM    5  C16 UNL     1      -8.928  45.647 -27.745  1.00  0.00     0.009 C 
HETATM    6  C17 UNL     1     -10.224  44.868 -28.060  1.00  0.00     0.007 C 
HETATM    7  C18 UNL     1     -10.034  43.841 -29.175  1.00  0.00     0.013 C 
HETATM    8  C19 UNL     1      -9.497  44.471 -30.486  1.00  0.00    -0.005 C 
HETATM    9  C20 UNL     1     -10.592  45.339 -31.136  1.00  0.00     0.019 C 
HETATM   10  C21 UNL     1      -8.973  43.391 -31.483  1.00  0.00     0.028 C 
HETATM   11  C26 UNL     1      -7.616  42.973 -30.886  1.00  0.00     0.013 C 
HETATM   12  C27 UNL     1      -7.119  44.169 -30.060  1.00  0.00     0.040 C 
HETATM   13  C28 UNL     1      -8.191  45.271 -30.208  1.00  0.00     0.070 C 
HETATM   14  C29 UNL     1      -8.307  46.264 -29.018  1.00  0.00     0.026 C 
HETATM   15  C30 UNL     1      -6.953  46.954 -28.706  1.00  0.00     0.011 C 
HETATM   16  C31 UNL     1      -6.845  47.549 -27.298  1.00  0.00     0.039 C 
HETATM   17  C32 UNL     1      -8.212  47.963 -26.735  1.00  0.00     0.073 C 
HETATM   18  C33 UNL     1      -8.122  48.805 -25.446  1.00  0.00     0.071 C 
ENDROOT
BRANCH   1  19
HETATM   19  O2  UNL     1      -6.332  47.587 -24.318  1.00  0.00    -0.356 OA
BRANCH  19  20
HETATM   20  C4  UNL     1      -5.415  48.331 -23.500  1.00  0.00     0.263 C 
HETATM   21  C3  UNL     1      -4.117  48.466 -24.285  1.00  0.00     0.095 C 
HETATM   22  C2  UNL     1      -3.035  49.174 -23.463  1.00  0.00     0.156 C 
HETATM   23  C36 UNL     1      -3.622  49.955 -22.271  1.00  0.00     0.175 C 
HETATM   24  C34 UNL     1      -5.027  50.520 -22.564  1.00  0.00     0.151 C 
HETATM   25  O7  UNL     1      -5.924  49.628 -23.236  1.00  0.00    -0.354 OA
HETATM   26  C35 UNL     1      -4.964  51.796 -23.397  1.00  0.00     0.042 C 
BRANCH  22  27
HETATM   27  O1  UNL     1      -2.273  50.086 -24.269  1.00  0.00    -0.388 OA
HETATM   28  C1  UNL     1      -1.270  50.786 -23.541  1.00  0.00     0.202 C 
ENDBRANCH  22  27
BRANCH  23  29
HETATM   29  O8  UNL     1      -3.719  49.061 -21.147  1.00  0.00    -0.390 OA
HETATM   30  H50 UNL     1      -2.822  48.962 -20.783  1.00  0.00     0.210 HD
ENDBRANCH  23  29
ENDBRANCH  19  20
ENDBRANCH   1  19
BRANCH  17  31
HETATM   31  O6  UNL     1      -8.795  48.849 -27.716  1.00  0.00    -0.389 OA
HETATM   32  H42 UNL     1      -8.201  49.621 -27.804  1.00  0.00     0.210 HD
ENDBRANCH  17  31
BRANCH   4  33
HETATM   33  C9  UNL     1     -10.560  47.167 -26.492  1.00  0.00     0.069 C 
HETATM   34  N1  UNL     1     -11.138  47.731 -27.497  1.00  0.00    -0.397 N 
ATOM     35  H1  UNL     1     -10.677  47.882 -28.395  1.00  0.00     0.159 HD
BRANCH  34  36
HETATM   36  C10 UNL     1     -12.517  48.134 -27.229  1.00  0.00     0.158 C 
BRANCH  36  37
HETATM   37  C11 UNL     1     -13.456  46.985 -27.448  1.00  0.00    -0.025 A 
HETATM   38  C12 UNL     1     -13.504  46.303 -28.667  1.00  0.00     0.011 A 
HETATM   39  C13 UNL     1     -14.372  45.224 -28.825  1.00  0.00     0.018 A 
HETATM   40  C14 UNL     1     -15.161  44.860 -27.746  1.00  0.00     0.087 A 
HETATM   41  N2  UNL     1     -15.138  45.484 -26.549  1.00  0.00    -0.375 N 
HETATM   42  C15 UNL     1     -14.277  46.523 -26.424  1.00  0.00     0.096 A 
ATOM     43  H2  UNL     1     -15.736  45.188 -25.778  1.00  0.00     0.164 HD
ENDBRANCH  36  37
ENDBRANCH  34  36
ENDBRANCH   4  33
BRANCH  13  44
HETATM   44  O5  UNL     1      -7.855  46.026 -31.385  1.00  0.00    -0.389 OA
HETATM   45  H36 UNL     1      -6.968  46.410 -31.258  1.00  0.00     0.210 HD
ENDBRANCH  13  44
BRANCH  10  46
HETATM   46  C22 UNL     1      -9.905  42.262 -31.827  1.00  0.00    -0.045 A 
HETATM   47  C23 UNL     1     -10.214  41.170 -31.127  1.00  0.00     0.087 A 
HETATM   48  C24 UNL     1     -11.134  40.376 -31.942  1.00  0.00     0.283 A 
HETATM   49  O3  UNL     1     -11.643  39.326 -31.594  1.00  0.00    -0.260 OA
HETATM   50  O4  UNL     1     -11.331  41.004 -33.131  1.00  0.00    -0.314 OA
HETATM   51  C25 UNL     1     -10.583  42.218 -33.147  1.00  0.00     0.213 A 
ENDBRANCH  10  46
TORSDOF 10
ENDMDL
