MODEL 1
REMARK minimizedAffinity -8.47241688
REMARK CNNscore 0.702829838
REMARK CNNaffinity 6.64467812
REMARK  9 active torsions:
REMARK  status: ('A' for Active; 'I' for Inactive)
REMARK    1  A    between atoms: C2_2  and  C32_37 
REMARK    2  A    between atoms: C3_3  and  C4_4 
REMARK    3  A    between atoms: C4_4  and  O1_5 
REMARK    4  A    between atoms: C4_4  and  C5_6 
REMARK    5  A    between atoms: C5_6  and  C6_7 
REMARK    6  A    between atoms: C6_7  and  C8_9 
REMARK    7  A    between atoms: C10_11  and  O2_12 
REMARK    8  A    between atoms: C31_35  and  O5_36 
REMARK    9  A    between atoms: C32_37  and  O7_39 
ROOT
HETATM    1  C8  UNL     1      -0.597  10.374  17.643  1.00  0.00     0.001 C 
HETATM    2  C9  UNL     1      -2.038  10.605  17.107  1.00  0.00     0.038 C 
HETATM    3  C10 UNL     1      -2.105  10.013  15.688  1.00  0.00     0.132 C 
HETATM    4  C11 UNL     1      -0.833   9.126  15.559  1.00  0.00     0.017 C 
HETATM    5  C12 UNL     1      -1.114   7.741  16.221  1.00  0.00     0.023 C 
HETATM    6  C13 UNL     1      -0.255   8.805  14.168  1.00  0.00    -0.029 C 
HETATM    7  C14 UNL     1       1.073   8.554  14.005  1.00  0.00     0.002 C 
HETATM    8  C15 UNL     1       1.971   8.606  15.240  1.00  0.00     0.157 C 
HETATM    9  O3  UNL     1       3.116   8.157  15.209  1.00  0.00    -0.293 OA
HETATM   10  C16 UNL     1       1.473   9.227  16.536  1.00  0.00     0.094 C 
HETATM   11  C17 UNL     1       0.194  10.035  16.340  1.00  0.00    -0.019 C 
HETATM   12  C18 UNL     1       0.547  11.360  15.590  1.00  0.00     0.017 C 
HETATM   13  C19 UNL     1       1.766   8.306  12.639  1.00  0.00    -0.007 C 
HETATM   14  C20 UNL     1       2.829   9.435  12.463  1.00  0.00     0.021 C 
HETATM   15  C21 UNL     1       2.452   6.915  12.597  1.00  0.00     0.022 C 
HETATM   16  C22 UNL     1       3.280   6.673  11.343  1.00  0.00     0.080 C 
HETATM   17  C23 UNL     1       2.725   7.359  10.121  1.00  0.00     0.136 C 
HETATM   18  O4  UNL     1       3.459   7.577   9.155  1.00  0.00    -0.297 OA
HETATM   19  C24 UNL     1       1.227   7.670  10.089  1.00  0.00     0.025 C 
HETATM   20  C25 UNL     1       0.952   8.604   8.885  1.00  0.00     0.024 C 
HETATM   21  C26 UNL     1       0.517   6.306   9.802  1.00  0.00     0.044 C 
HETATM   22  C27 UNL     1      -0.301   5.751  10.928  1.00  0.00    -0.029 C 
HETATM   23  C28 UNL     1      -0.847   6.546  11.853  1.00  0.00    -0.023 C 
HETATM   24  C29 UNL     1      -0.679   8.042  11.756  1.00  0.00     0.047 C 
HETATM   25  C30 UNL     1       0.773   8.423  11.404  1.00  0.00     0.024 C 
HETATM   26  C31 UNL     1      -1.187   8.823  12.982  1.00  0.00     0.156 C 
ENDROOT
BRANCH   1  27
HETATM   27  C6  UNL     1      -0.128  11.543  18.566  1.00  0.00    -0.011 C 
HETATM   28  C7  UNL     1       0.958  12.397  17.901  1.00  0.00     0.010 C 
BRANCH  27  29
HETATM   29  C5  UNL     1       0.417  10.985  19.920  1.00  0.00     0.040 C 
BRANCH  29  30
HETATM   30  C4  UNL     1       1.949  10.798  19.993  1.00  0.00     0.142 C 
BRANCH  30  31
HETATM   31  C3  UNL     1       2.457  10.509  21.376  1.00  0.00     0.018 C 
HETATM   32  C2  UNL     1       3.697  10.612  21.900  1.00  0.00     0.010 C 
HETATM   33  C1  UNL     1       4.913  11.155  21.214  1.00  0.00     0.055 C 
BRANCH  32  34
HETATM   34  C32 UNL     1       3.839  10.173  23.312  1.00  0.00     0.171 C 
HETATM   35  O6  UNL     1       2.939   9.854  24.071  1.00  0.00    -0.646 OA
BRANCH  34  36
HETATM   36  O7  UNL     1       5.120  10.126  23.713  1.00  0.00    -0.773 OA
HETATM   37  H44 UNL     1       5.057   9.812  24.639  1.00  0.00     0.167 HD
ENDBRANCH  34  36
ENDBRANCH  32  34
ENDBRANCH  30  31
BRANCH  30  38
HETATM   38  O1  UNL     1       2.328   9.787  19.072  1.00  0.00    -0.392 OA
HETATM   39  H6  UNL     1       2.059  10.086  18.188  1.00  0.00     0.210 HD
ENDBRANCH  30  38
ENDBRANCH  29  30
ENDBRANCH  27  29
ENDBRANCH   1  27
BRANCH   3  40
HETATM   40  O2  UNL     1      -3.334   9.315  15.553  1.00  0.00    -0.394 OA
HETATM   41  H17 UNL     1      -3.231   8.761  14.749  1.00  0.00     0.210 HD
ENDBRANCH   3  40
BRANCH  26  42
HETATM   42  O5  UNL     1      -2.481   8.334  13.340  1.00  0.00    -0.390 OA
HETATM   43  H43 UNL     1      -2.995   8.253  12.516  1.00  0.00     0.210 HD
ENDBRANCH  26  42
TORSDOF 9
ENDMDL
