MODEL 1
REMARK minimizedAffinity -8.4319334
REMARK CNNscore 0.731396794
REMARK CNNaffinity 7.41574287
REMARK  12 active torsions:
REMARK  status: ('A' for Active; 'I' for Inactive)
REMARK    1  A    between atoms: N1_6  and  O1_8 
REMARK    2  A    between atoms: O1_8  and  C6_9 
REMARK    3  A    between atoms: C6_9  and  C7_10 
REMARK       I    between atoms: C7_10  and  N2_12 
REMARK    4  A    between atoms: N2_12  and  C8_13 
REMARK    5  A    between atoms: C8_13  and  C9_14 
REMARK    6  A    between atoms: C12_17  and  C13_18 
REMARK    7  A    between atoms: C13_18  and  O4_20 
REMARK    8  A    between atoms: C22_29  and  O5_30 
REMARK    9  A    between atoms: C29_37  and  O6_38 
REMARK   10  A    between atoms: C29_37  and  C30_39 
REMARK   11  A    between atoms: C30_39  and  C31_41 
REMARK   12  A    between atoms: C31_41  and  O8_42 
ROOT
HETATM    1  C1  UNL     1      -6.656   5.922  16.330  1.00  0.00     0.020 C 
HETATM    2  C2  UNL     1      -6.795   6.642  14.970  1.00  0.00    -0.014 C 
HETATM    3  C3  UNL     1      -7.396   8.059  15.203  1.00  0.00     0.020 C 
HETATM    4  C4  UNL     1      -8.855   8.039  15.633  1.00  0.00     0.060 C 
HETATM    5  C5  UNL     1      -9.705   7.270  14.645  1.00  0.00     0.032 C 
HETATM    6  N1  UNL     1     -10.948   7.630  14.538  1.00  0.00    -0.271 N 
ATOM      7  H1  UNL     1     -11.362   8.408  15.052  1.00  0.00     0.194 HD
HETATM    8  C16 UNL     1      -9.064   6.121  13.942  1.00  0.00     0.030 C 
HETATM    9  C17 UNL     1      -7.766   5.812  14.121  1.00  0.00    -0.069 C 
HETATM   10  C18 UNL     1      -7.214   4.544  13.517  1.00  0.00     0.035 C 
HETATM   11  C19 UNL     1      -5.930   4.798  12.742  1.00  0.00     0.010 C 
HETATM   12  C20 UNL     1      -4.870   5.474  13.622  1.00  0.00    -0.002 C 
HETATM   13  C21 UNL     1      -5.420   6.816  14.203  1.00  0.00     0.031 C 
HETATM   14  C22 UNL     1      -4.322   7.617  14.969  1.00  0.00     0.124 C 
HETATM   15  C23 UNL     1      -2.995   7.745  14.187  1.00  0.00     0.045 C 
HETATM   16  C24 UNL     1      -2.458   6.394  13.655  1.00  0.00     0.001 C 
HETATM   17  C25 UNL     1      -1.997   5.476  14.822  1.00  0.00     0.019 C 
HETATM   18  C26 UNL     1      -3.598   5.771  12.812  1.00  0.00     0.002 C 
HETATM   19  C27 UNL     1      -2.919   4.619  12.085  1.00  0.00     0.009 C 
HETATM   20  C28 UNL     1      -1.514   5.156  11.761  1.00  0.00     0.047 C 
HETATM   21  C29 UNL     1      -1.326   6.472  12.578  1.00  0.00     0.128 C 
ENDROOT
BRANCH   6  22
HETATM   22  O1  UNL     1     -11.652   6.823  13.633  1.00  0.00    -0.271 OA
BRANCH  22  23
HETATM   23  C6  UNL     1     -12.452   7.660  12.806  1.00  0.00     0.303 C 
BRANCH  23  24
HETATM   24  C7  UNL     1     -13.900   7.211  12.922  1.00  0.00     0.244 C 
HETATM   25  O2  UNL     1     -14.779   7.611  12.163  1.00  0.00    -0.271 OA
HETATM   26  N2  UNL     1     -14.131   6.307  13.938  1.00  0.00    -0.355 N 
HETATM   27  H10 UNL     1     -13.345   5.961  14.473  1.00  0.00     0.162 HD
BRANCH  26  28
HETATM   28  C8  UNL     1     -15.431   5.714  14.157  1.00  0.00     0.161 C 
BRANCH  28  29
HETATM   29  C9  UNL     1     -15.853   5.832  15.600  1.00  0.00    -0.040 A 
HETATM   30  C10 UNL     1     -15.351   6.856  16.415  1.00  0.00     0.010 A 
HETATM   31  C11 UNL     1     -15.749   6.956  17.752  1.00  0.00     0.019 A 
HETATM   32  C12 UNL     1     -16.646   6.028  18.294  1.00  0.00     0.037 A 
HETATM   33  C14 UNL     1     -17.146   5.001  17.488  1.00  0.00     0.019 A 
HETATM   34  C15 UNL     1     -16.753   4.906  16.151  1.00  0.00     0.010 A 
BRANCH  32  35
HETATM   35  C13 UNL     1     -17.034   6.172  19.718  1.00  0.00     0.176 C 
HETATM   36  O3  UNL     1     -18.122   5.900  20.191  1.00  0.00    -0.646 OA
BRANCH  35  37
HETATM   37  O4  UNL     1     -16.040   6.653  20.485  1.00  0.00    -0.773 OA
HETATM   38  H15 UNL     1     -16.432   6.700  21.384  1.00  0.00     0.167 HD
ENDBRANCH  35  37
ENDBRANCH  32  35
ENDBRANCH  28  29
ENDBRANCH  26  28
ENDBRANCH  23  24
ENDBRANCH  22  23
ENDBRANCH   6  22
BRANCH  14  39
HETATM   39  O5  UNL     1      -4.052   7.040  16.238  1.00  0.00    -0.395 OA
HETATM   40  H26 UNL     1      -3.461   7.641  16.725  1.00  0.00     0.210 HD
ENDBRANCH  14  39
BRANCH  21  41
HETATM   41  O6  UNL     1      -1.573   7.541  11.653  1.00  0.00    -0.381 OA
HETATM   42  H37 UNL     1      -1.351   8.382  12.104  1.00  0.00     0.211 HD
ENDBRANCH  21  41
BRANCH  21  43
HETATM   43  C30 UNL     1       0.116   6.586  13.144  1.00  0.00     0.184 C 
HETATM   44  O7  UNL     1       0.464   7.476  13.926  1.00  0.00    -0.292 OA
BRANCH  43  45
HETATM   45  C31 UNL     1       1.145   5.575  12.646  1.00  0.00     0.245 C 
BRANCH  45  46
HETATM   46  O8  UNL     1       1.969   6.077  11.605  1.00  0.00    -0.393 OA
HETATM   47  H40 UNL     1       1.434   6.036  10.786  1.00  0.00     0.209 HD
ENDBRANCH  45  46
ENDBRANCH  43  45
ENDBRANCH  21  43
TORSDOF 12
ENDMDL
