MODEL 1
REMARK minimizedAffinity -9.54504299
REMARK  6 active torsions:
REMARK  status: ('A' for Active; 'I' for Inactive)
REMARK    1  A    between atoms: C2_2  and  C3_3 
REMARK    2  A    between atoms: C5_5  and  C6_6 
REMARK    3  A    between atoms: C6_6  and  C7_7 
REMARK    4  A    between atoms: C8_8  and  C9_9 
REMARK       I    between atoms: C9_9  and  N1_11 
REMARK    5  A    between atoms: N1_11  and  C10_12 
REMARK    6  A    between atoms: C10_12  and  C12_14 
ROOT
HETATM    1  C7  UNL     1      -2.215  50.383 -22.611  1.00  0.00     0.036 C 
HETATM    2  C8  UNL     1      -2.697  49.208 -23.453  1.00  0.00     0.011 C 
HETATM    3  C18 UNL     1      -3.233  48.080 -22.956  1.00  0.00    -0.013 C 
HETATM    4  C19 UNL     1      -3.436  47.845 -21.496  1.00  0.00     0.034 C 
HETATM    5  C20 UNL     1      -3.367  49.140 -20.657  1.00  0.00     0.005 C 
HETATM    6  C21 UNL     1      -3.576  48.872 -19.112  1.00  0.00    -0.043 C 
HETATM    7  C22 UNL     1      -3.033  47.513 -18.618  1.00  0.00     0.015 C 
HETATM    8  C23 UNL     1      -5.103  48.854 -18.831  1.00  0.00     0.015 C 
HETATM    9  C24 UNL     1      -2.934  49.982 -18.250  1.00  0.00     0.009 C 
HETATM   10  C25 UNL     1      -2.973  51.331 -18.939  1.00  0.00     0.002 C 
HETATM   11  C26 UNL     1      -2.138  51.348 -20.218  1.00  0.00     0.010 C 
HETATM   12  C27 UNL     1      -2.124  50.024 -21.049  1.00  0.00    -0.031 C 
HETATM   13  C28 UNL     1      -0.805  49.264 -20.757  1.00  0.00     0.016 C 
ENDROOT
BRANCH   2  14
HETATM   14  C9  UNL     1      -2.718  49.363 -24.936  1.00  0.00     0.248 C 
HETATM   15  O1  UNL     1      -3.359  48.598 -25.643  1.00  0.00    -0.268 OA
HETATM   16  N1  UNL     1      -1.996  50.438 -25.386  1.00  0.00    -0.349 N 
HETATM   17  H11 UNL     1      -1.434  50.952 -24.722  1.00  0.00     0.163 HD
BRANCH  16  18
HETATM   18  C10 UNL     1      -1.723  50.643 -26.798  1.00  0.00     0.114 C 
HETATM   19  C11 UNL     1      -2.730  51.633 -27.384  1.00  0.00     0.037 C 
BRANCH  18  20
HETATM   20  C12 UNL     1      -0.266  51.047 -26.966  1.00  0.00    -0.036 A 
HETATM   21  C13 UNL     1       0.727  50.731 -26.028  1.00  0.00     0.009 A 
HETATM   22  C14 UNL     1       2.057  51.100 -26.245  1.00  0.00     0.001 A 
HETATM   23  C15 UNL     1       2.416  51.778 -27.408  1.00  0.00     0.000 A 
HETATM   24  C16 UNL     1       1.447  52.086 -28.357  1.00  0.00     0.001 A 
HETATM   25  C17 UNL     1       0.118  51.719 -28.140  1.00  0.00     0.009 A 
ENDBRANCH  18  20
ENDBRANCH  16  18
ENDBRANCH   2  14
BRANCH   1  26
HETATM   26  C6  UNL     1      -0.907  50.987 -23.227  1.00  0.00     0.038 C 
BRANCH  26  27
HETATM   27  C5  UNL     1      -0.092  51.844 -22.294  1.00  0.00    -0.019 C 
HETATM   28  C3  UNL     1       0.596  52.975 -22.561  1.00  0.00    -0.067 C 
HETATM   29  C4  UNL     1       0.659  53.630 -23.916  1.00  0.00     0.048 C 
BRANCH  28  30
HETATM   30  C2  UNL     1       1.322  53.615 -21.464  1.00  0.00    -0.004 C 
HETATM   31  C1  UNL     1       0.804  54.049 -20.308  1.00  0.00     0.012 C 
ENDBRANCH  28  30
ENDBRANCH  26  27
ENDBRANCH   1  26
TORSDOF 6
ENDMDL
