MODEL 1
REMARK minimizedAffinity -10.4125566
REMARK CNNscore 0.311470181
REMARK CNNaffinity 6.99317169
REMARK  10 active torsions:
REMARK  status: ('A' for Active; 'I' for Inactive)
REMARK    1  A    between atoms: C2_2  and  C3_3 
REMARK    2  A    between atoms: C4_4  and  C18_19 
REMARK    3  A    between atoms: C19_20  and  O1_21 
REMARK    4  A    between atoms: N2_22  and  C20_23 
REMARK    5  A    between atoms: C20_23  and  C21_24 
REMARK    6  A    between atoms: C21_24  and  O3_26 
REMARK    7  A    between atoms: O3_26  and  C22_27 
REMARK    8  A    between atoms: C36_41  and  C37_42 
REMARK    9  A    between atoms: C43_50  and  O6_51 
REMARK   10  A    between atoms: C45_53  and  O7_54 
ROOT
HETATM    1  C21 UNL     1      -9.588  43.823 -31.324  1.00  0.00     0.222 C 
HETATM    2  O2  UNL     1     -10.725  43.402 -31.129  1.00  0.00    -0.287 OA
ENDROOT
BRANCH   1   3
HETATM    3  C20 UNL     1      -9.050  45.101 -30.684  1.00  0.00     0.328 C 
BRANCH   3   4
HETATM    4  N2  UNL     1     -10.056  46.010 -29.866  1.00  0.00    -0.023 N 
HETATM    5  C6  UNL     1      -9.696  47.537 -30.063  1.00  0.00     0.214 C 
HETATM    6  C5  UNL     1     -10.938  48.341 -29.615  1.00  0.00     0.041 C 
HETATM    7  C7  UNL     1      -8.473  47.988 -29.193  1.00  0.00     0.109 C 
HETATM    8  C4  UNL     1     -11.730  47.524 -28.576  1.00  0.00     0.004 C 
HETATM    9  C3  UNL     1     -12.510  46.466 -29.394  1.00  0.00     0.047 C 
HETATM   10  C45 UNL     1     -11.503  45.757 -30.348  1.00  0.00     0.329 C 
HETATM   11  N1  UNL     1      -7.122  47.708 -29.763  1.00  0.00    -0.279 NA
HETATM   12  C15 UNL     1      -8.443  47.330 -27.784  1.00  0.00     0.035 C 
HETATM   13  C8  UNL     1      -6.680  48.538 -30.887  1.00  0.00     0.117 C 
HETATM   14  C9  UNL     1      -6.311  47.867 -28.581  1.00  0.00     0.018 A 
HETATM   15  C10 UNL     1      -4.955  48.137 -28.506  1.00  0.00     0.024 A 
HETATM   16  C14 UNL     1      -7.056  47.694 -27.396  1.00  0.00    -0.024 A 
HETATM   17  C11 UNL     1      -4.367  48.270 -27.243  1.00  0.00     0.002 A 
HETATM   18  C12 UNL     1      -5.124  48.117 -26.071  1.00  0.00     0.001 A 
HETATM   19  C13 UNL     1      -6.483  47.816 -26.142  1.00  0.00     0.010 A 
HETATM   20  C16 UNL     1      -8.578  45.810 -27.849  1.00  0.00     0.053 C 
HETATM   21  C19 UNL     1      -9.665  47.681 -26.942  1.00  0.00     0.139 C 
HETATM   22  C17 UNL     1      -9.996  45.685 -28.356  1.00  0.00     0.202 C 
HETATM   23  C18 UNL     1     -10.776  46.804 -27.596  1.00  0.00     0.051 C 
BRANCH   9  24
HETATM   24  C2  UNL     1     -13.323  45.454 -28.561  1.00  0.00     0.005 C 
HETATM   25  C1  UNL     1     -14.443  46.095 -27.753  1.00  0.00     0.005 C 
ENDBRANCH   9  24
BRANCH  10  26
HETATM   26  O7  UNL     1     -11.720  46.286 -31.639  1.00  0.00    -0.369 OA
HETATM   27  H61 UNL     1     -11.783  45.521 -32.253  1.00  0.00     0.212 HD
ENDBRANCH  10  26
BRANCH  21  28
HETATM   28  O1  UNL     1      -9.990  49.052 -26.940  1.00  0.00    -0.394 OA
HETATM   29  H24 UNL     1      -9.338  49.519 -26.380  1.00  0.00     0.210 HD
ENDBRANCH  21  28
ENDBRANCH   3   4
ENDBRANCH   1   3
BRANCH   1  30
HETATM   30  O3  UNL     1      -8.649  43.218 -32.097  1.00  0.00     0.000 OA
HETATM   31 BR1  UNL     1      -7.433  43.291 -31.882  1.00  0.00    -0.148 Br
BRANCH  30  32
HETATM   32  C22 UNL     1      -7.921  42.126 -31.484  1.00  0.00    -0.010 C 
HETATM   33  C23 UNL     1      -8.445  40.821 -32.087  1.00  0.00     0.006 C 
HETATM   34  C24 UNL     1      -7.341  39.773 -32.238  1.00  0.00     0.010 C 
HETATM   35  C25 UNL     1      -6.219  40.222 -33.222  1.00  0.00    -0.035 C 
HETATM   36  C26 UNL     1      -6.751  40.006 -34.665  1.00  0.00     0.016 C 
HETATM   37  C27 UNL     1      -5.899  41.750 -33.025  1.00  0.00     0.138 C 
HETATM   38  C31 UNL     1      -4.913  39.385 -32.982  1.00  0.00     0.001 C 
HETATM   39  C28 UNL     1      -4.395  42.089 -33.118  1.00  0.00     0.007 C 
HETATM   40  C44 UNL     1      -6.409  42.294 -31.674  1.00  0.00     0.011 C 
HETATM   41  C29 UNL     1      -3.655  41.291 -34.174  1.00  0.00     0.008 C 
HETATM   42  C30 UNL     1      -3.785  39.767 -33.976  1.00  0.00     0.025 C 
HETATM   43  C43 UNL     1      -2.435  39.074 -33.644  1.00  0.00     0.070 C 
HETATM   44  C34 UNL     1      -2.550  37.529 -33.465  1.00  0.00    -0.005 C 
HETATM   45  C42 UNL     1      -1.768  39.567 -32.345  1.00  0.00     0.040 C 
HETATM   46  C33 UNL     1      -3.782  37.166 -32.579  1.00  0.00     0.013 C 
HETATM   47  C35 UNL     1      -2.684  36.770 -34.799  1.00  0.00     0.019 C 
HETATM   48  C36 UNL     1      -1.237  37.168 -32.682  1.00  0.00     0.028 C 
HETATM   49  C32 UNL     1      -5.083  37.857 -33.000  1.00  0.00     0.007 C 
HETATM   50  C41 UNL     1      -1.058  38.360 -31.718  1.00  0.00     0.013 C 
BRANCH  43  51
HETATM   51  O6  UNL     1      -1.517  39.383 -34.702  1.00  0.00    -0.389 OA
HETATM   52  H57 UNL     1      -1.940  39.182 -35.556  1.00  0.00     0.210 HD
ENDBRANCH  43  51
BRANCH  48  53
HETATM   53  C37 UNL     1       0.004  36.892 -33.496  1.00  0.00    -0.045 A 
HETATM   54  C38 UNL     1       0.236  35.917 -34.379  1.00  0.00     0.087 A 
HETATM   55  C39 UNL     1       1.593  36.101 -34.885  1.00  0.00     0.283 A 
HETATM   56  O4  UNL     1       2.155  35.354 -35.663  1.00  0.00    -0.260 OA
HETATM   57  O5  UNL     1       2.125  37.225 -34.335  1.00  0.00    -0.314 OA
HETATM   58  C40 UNL     1       1.173  37.802 -33.443  1.00  0.00     0.213 A 
ENDBRANCH  48  53
ENDBRANCH  30  32
ENDBRANCH   1  30
TORSDOF 10
ENDMDL
