MODEL 1
REMARK minimizedAffinity -10.6286726
REMARK CNNscore 0.488972485
REMARK CNNaffinity 6.90007973
REMARK  9 active torsions:
REMARK  status: ('A' for Active; 'I' for Inactive)
REMARK    1  A    between atoms: C7_8  and  O1_9 
REMARK    2  A    between atoms: O1_9  and  C8_10 
REMARK    3  A    between atoms: C8_10  and  C9_11 
REMARK       I    between atoms: C9_11  and  N1_13 
REMARK    4  A    between atoms: N1_13  and  N2_14 
REMARK    5  A    between atoms: C10_16  and  C11_17 
REMARK    6  A    between atoms: C14_20  and  O3_21 
REMARK    7  A    between atoms: C16_23  and  O4_24 
REMARK    8  A    between atoms: C25_33  and  C26_34 
REMARK    9  A    between atoms: C32_42  and  O7_43 
ROOT
HETATM    1  C11 UNL     1      -3.400   7.673  13.857  1.00  0.00     0.028 C 
HETATM    2  C12 UNL     1      -4.625   8.423  13.257  1.00  0.00     0.021 C 
HETATM    3  C13 UNL     1      -5.861   8.389  14.165  1.00  0.00     0.033 C 
HETATM    4  C14 UNL     1      -6.240   6.982  14.620  1.00  0.00     0.121 C 
HETATM    5  C15 UNL     1      -5.047   6.202  15.177  1.00  0.00     0.070 C 
HETATM    6  C16 UNL     1      -3.826   6.214  14.236  1.00  0.00     0.073 C 
HETATM    7  C17 UNL     1      -2.648   5.411  14.821  1.00  0.00     0.039 C 
HETATM    8  C18 UNL     1      -1.458   5.357  13.842  1.00  0.00     0.011 C 
HETATM    9  C19 UNL     1      -1.008   6.757  13.375  1.00  0.00     0.026 C 
HETATM   10  C20 UNL     1      -2.209   7.610  12.839  1.00  0.00     0.009 C 
HETATM   11  C21 UNL     1      -1.740   9.005  12.354  1.00  0.00     0.007 C 
HETATM   12  C22 UNL     1      -0.573   8.940  11.354  1.00  0.00     0.013 C 
HETATM   13  C23 UNL     1       0.603   8.124  11.916  1.00  0.00    -0.005 C 
HETATM   14  C24 UNL     1       1.217   8.919  13.114  1.00  0.00     0.019 C 
HETATM   15  C25 UNL     1       1.799   7.809  10.955  1.00  0.00     0.028 C 
HETATM   16  C30 UNL     1       2.408   6.511  11.579  1.00  0.00     0.013 C 
HETATM   17  C31 UNL     1       1.389   5.962  12.605  1.00  0.00     0.040 C 
HETATM   18  C32 UNL     1       0.097   6.705  12.290  1.00  0.00     0.070 C 
ENDROOT
BRANCH   1  19
HETATM   19  C10 UNL     1      -2.917   8.425  15.115  1.00  0.00     0.093 C 
HETATM   20  N2  UNL     1      -3.653   8.520  16.184  1.00  0.00    -0.312 N 
ATOM     21  H2  UNL     1      -4.580   8.098  16.238  1.00  0.00     0.185 HD
BRANCH  20  22
HETATM   22  N1  UNL     1      -3.118   9.213  17.225  1.00  0.00    -0.269 N 
HETATM   23  C9  UNL     1      -3.427  10.566  17.372  1.00  0.00     0.260 C 
HETATM   24  O2  UNL     1      -4.122  11.210  16.587  1.00  0.00    -0.269 OA
HETATM   25  H9  UNL     1      -2.458   8.758  17.854  1.00  0.00     0.190 HD
BRANCH  23  26
HETATM   26  C8  UNL     1      -2.778  11.175  18.626  1.00  0.00     0.280 C 
BRANCH  26  27
HETATM   27  O1  UNL     1      -1.734  12.106  18.417  1.00  0.00    -0.342 OA
BRANCH  27  28
HETATM   28  C7  UNL     1      -0.621  12.009  19.212  1.00  0.00     0.075 A 
HETATM   29  C2  UNL     1      -0.064  13.235  19.628  1.00  0.00    -0.027 A 
HETATM   30  C1  UNL     1      -0.714  14.539  19.253  1.00  0.00     0.051 C 
HETATM   31  C3  UNL     1       1.085  13.240  20.437  1.00  0.00     0.033 A 
HETATM   32  C4  UNL     1       1.673  12.035  20.816  1.00  0.00     0.034 A 
HETATM   33 CL1  UNL     1       3.080  12.043  21.812  1.00  0.00    -0.084 Cl
HETATM   34  C5  UNL     1       1.134  10.822  20.395  1.00  0.00     0.026 A 
HETATM   35  C6  UNL     1      -0.012  10.809  19.593  1.00  0.00     0.039 A 
ENDBRANCH  27  28
ENDBRANCH  26  27
ENDBRANCH  23  26
ENDBRANCH  20  22
ENDBRANCH   1  19
BRANCH   6  36
HETATM   36  O4  UNL     1      -4.186   5.437  13.081  1.00  0.00    -0.389 OA
HETATM   37  H19 UNL     1      -4.696   5.984  12.446  1.00  0.00     0.210 HD
ENDBRANCH   6  36
BRANCH   4  38
HETATM   38  O3  UNL     1      -6.805   6.269  13.514  1.00  0.00    -0.395 OA
HETATM   39  H16 UNL     1      -7.595   6.758  13.231  1.00  0.00     0.210 HD
ENDBRANCH   4  38
BRANCH  18  40
HETATM   40  O7  UNL     1      -0.467   6.084  11.124  1.00  0.00    -0.389 OA
HETATM   41  H41 UNL     1      -0.595   5.140  11.301  1.00  0.00     0.210 HD
ENDBRANCH  18  40
BRANCH  15  42
HETATM   42  C26 UNL     1       1.496   7.719   9.480  1.00  0.00    -0.045 A 
HETATM   43  C27 UNL     1       2.186   7.141   8.498  1.00  0.00     0.087 A 
HETATM   44  C28 UNL     1       1.460   7.385   7.249  1.00  0.00     0.283 A 
HETATM   45  O5  UNL     1       1.799   6.974   6.150  1.00  0.00    -0.260 OA
HETATM   46  O6  UNL     1       0.347   8.126   7.514  1.00  0.00    -0.314 OA
HETATM   47  C29 UNL     1       0.293   8.396   8.914  1.00  0.00     0.213 A 
ENDBRANCH  15  42
TORSDOF 9
ENDMDL
