MODEL 1
REMARK minimizedAffinity -9.12113094
REMARK  4 active torsions:
REMARK  status: ('A' for Active; 'I' for Inactive)
REMARK    1  A    between atoms: C2_2  and  C3_3 
REMARK    2  A    between atoms: C2_2  and  C9_9 
REMARK    3  A    between atoms: C3_3  and  C4_4 
REMARK    4  A    between atoms: C4_4  and  C5_5 
ROOT
HETATM    1  C9  UNL     1      -6.417   6.488  13.979  1.00  0.00     0.018 C 
HETATM    2  C10 UNL     1      -6.456   7.629  15.028  1.00  0.00     0.010 C 
HETATM    3  C11 UNL     1      -4.987   8.019  15.308  1.00  0.00     0.011 C 
HETATM    4  C12 UNL     1      -4.199   7.532  14.070  1.00  0.00    -0.032 C 
HETATM    5  C13 UNL     1      -4.497   8.561  12.929  1.00  0.00     0.016 C 
HETATM    6  C14 UNL     1      -4.915   6.174  13.845  1.00  0.00     0.002 C 
HETATM    7  C15 UNL     1      -4.450   5.475  12.576  1.00  0.00     0.006 C 
HETATM    8  C16 UNL     1      -2.931   5.241  12.626  1.00  0.00     0.006 C 
HETATM    9  C17 UNL     1      -2.120   6.533  12.925  1.00  0.00     0.003 C 
HETATM   10  C18 UNL     1      -0.548   6.387  12.741  1.00  0.00    -0.035 C 
HETATM   11  C19 UNL     1       0.049   5.264  13.618  1.00  0.00     0.016 C 
HETATM   12  C20 UNL     1      -0.268   5.982  11.250  1.00  0.00     0.017 C 
HETATM   13  C21 UNL     1       1.012   6.541  10.637  1.00  0.00     0.080 C 
HETATM   14  C22 UNL     1       2.066   6.834  11.674  1.00  0.00     0.135 C 
HETATM   15  O1  UNL     1       3.197   6.357  11.570  1.00  0.00    -0.297 OA
HETATM   16  C23 UNL     1       1.683   7.814  12.789  1.00  0.00     0.017 C 
HETATM   17  C24 UNL     1       2.120   9.215  12.308  1.00  0.00     0.023 C 
HETATM   18  C25 UNL     1       2.501   7.488  14.054  1.00  0.00     0.023 C 
HETATM   19  C26 UNL     1       0.126   7.786  12.999  1.00  0.00     0.009 C 
HETATM   20  C27 UNL     1      -0.321   8.425  14.328  1.00  0.00     0.007 C 
HETATM   21  C28 UNL     1      -1.841   8.592  14.402  1.00  0.00     0.011 C 
HETATM   22  C29 UNL     1      -2.626   7.265  14.238  1.00  0.00    -0.032 C 
HETATM   23  C30 UNL     1      -2.354   6.416  15.515  1.00  0.00     0.016 C 
ENDROOT
BRANCH   1  24
HETATM   24  C2  UNL     1      -7.315   5.290  14.289  1.00  0.00    -0.084 C 
HETATM   25  C1  UNL     1      -7.403   4.855  15.561  1.00  0.00     0.014 C 
BRANCH  24  26
HETATM   26  C3  UNL     1      -8.058   4.641  13.125  1.00  0.00     0.037 C 
BRANCH  26  27
HETATM   27  C4  UNL     1      -7.701   3.196  12.715  1.00  0.00     0.031 C 
BRANCH  27  28
HETATM   28  C5  UNL     1      -6.224   2.979  12.502  1.00  0.00    -0.024 C 
HETATM   29  C6  UNL     1      -5.636   2.038  11.738  1.00  0.00    -0.091 C 
HETATM   30  C7  UNL     1      -4.134   1.971  11.626  1.00  0.00     0.042 C 
HETATM   31  C8  UNL     1      -6.359   0.981  10.950  1.00  0.00     0.042 C 
ENDBRANCH  27  28
ENDBRANCH  26  27
ENDBRANCH  24  26
ENDBRANCH   1  24
TORSDOF 4
ENDMDL
