MODEL 1
REMARK minimizedAffinity -6.57755709
REMARK CNNscore 0.38734597
REMARK CNNaffinity 5.84213877
REMARK  8 active torsions:
REMARK  status: ('A' for Active; 'I' for Inactive)
REMARK    1  A    between atoms: C12_14  and  C13_15 
REMARK    2  A    between atoms: C13_15  and  C15_17 
REMARK    3  A    between atoms: C15_17  and  C16_18 
REMARK    4  A    between atoms: C16_18  and  C17_20 
REMARK    5  A    between atoms: C26_29  and  C27_30 
REMARK    6  A    between atoms: C27_30  and  C28_31 
REMARK    7  A    between atoms: C28_31  and  C29_32 
REMARK    8  A    between atoms: C29_32  and  O5_34 
ROOT
HETATM    1  C1  UNL     1     -17.986  -1.045  17.071  1.00  0.00     0.025 C 
HETATM    2  C2  UNL     1     -17.133  -2.069  16.934  1.00  0.00     0.015 C 
HETATM    3  C3  UNL     1     -16.524  -2.720  18.110  1.00  0.00     0.289 C 
HETATM    4  O1  UNL     1     -16.414  -2.249  19.226  1.00  0.00    -0.260 OA
HETATM    5  O2  UNL     1     -16.128  -3.958  17.720  1.00  0.00    -0.311 OA
HETATM    6  C4  UNL     1     -16.559  -4.214  16.365  1.00  0.00     0.142 C 
HETATM    7  C5  UNL     1     -15.567  -5.191  15.741  1.00  0.00     0.039 C 
HETATM    8  C6  UNL     1     -15.001  -4.855  14.358  1.00  0.00     0.006 C 
HETATM    9  C7  UNL     1     -14.734  -3.353  14.138  1.00  0.00    -0.027 A 
HETATM   10  C8  UNL     1     -14.082  -3.047  12.781  1.00  0.00     0.011 C 
HETATM   11  C9  UNL     1     -14.757  -3.743  11.583  1.00  0.00     0.011 C 
HETATM   12  C10 UNL     1     -14.916  -5.257  11.821  1.00  0.00    -0.032 C 
HETATM   13  C11 UNL     1     -13.490  -5.894  11.884  1.00  0.00     0.016 C 
HETATM   14  C12 UNL     1     -15.764  -6.069  10.791  1.00  0.00    -0.002 C 
HETATM   15  C21 UNL     1     -16.199  -7.311  11.637  1.00  0.00     0.006 C 
HETATM   16  C22 UNL     1     -15.985  -6.966  13.127  1.00  0.00     0.011 C 
HETATM   17  C23 UNL     1     -15.775  -5.446  13.140  1.00  0.00    -0.032 C 
HETATM   18  C24 UNL     1     -17.199  -4.813  13.072  1.00  0.00     0.016 C 
HETATM   19  C25 UNL     1     -14.173  -2.565  15.301  1.00  0.00     0.022 A 
HETATM   20  C26 UNL     1     -15.608  -2.305  14.873  1.00  0.00    -0.021 A 
HETATM   21  C31 UNL     1     -16.773  -2.850  15.714  1.00  0.00     0.063 C 
ENDROOT
BRANCH  14  22
HETATM   22  C13 UNL     1     -15.152  -6.486   9.421  1.00  0.00    -0.007 C 
HETATM   23  C14 UNL     1     -13.876  -7.323   9.584  1.00  0.00     0.011 C 
BRANCH  22  24
HETATM   24  C15 UNL     1     -14.821  -5.233   8.575  1.00  0.00     0.087 C 
BRANCH  24  25
HETATM   25  C16 UNL     1     -15.225  -5.365   7.112  1.00  0.00     0.149 C 
HETATM   26  O3  UNL     1     -16.200  -6.017   6.753  1.00  0.00    -0.293 OA
BRANCH  25  27
HETATM   27  C17 UNL     1     -14.395  -4.590   6.138  1.00  0.00     0.052 C 
HETATM   28  C18 UNL     1     -13.311  -5.048   5.481  1.00  0.00    -0.084 C 
HETATM   29  C19 UNL     1     -12.708  -6.415   5.653  1.00  0.00     0.043 C 
HETATM   30  C20 UNL     1     -12.595  -4.172   4.488  1.00  0.00     0.043 C 
ENDBRANCH  25  27
ENDBRANCH  24  25
ENDBRANCH  22  24
ENDBRANCH  14  22
BRANCH  20  31
HETATM   31  C27 UNL     1     -15.979  -1.013  14.120  1.00  0.00     0.021 C 
BRANCH  31  32
HETATM   32  C28 UNL     1     -16.386   0.192  14.963  1.00  0.00     0.112 C 
BRANCH  32  33
HETATM   33  C29 UNL     1     -15.345   1.280  15.017  1.00  0.00     0.258 C 
HETATM   34  O4  UNL     1     -14.290   1.181  15.629  1.00  0.00    -0.265 OA
BRANCH  33  35
HETATM   35  O5  UNL     1     -15.717   2.349  14.261  1.00  0.00    -0.326 OA
HETATM   36  C30 UNL     1     -15.433   3.610  14.871  1.00  0.00     0.213 C 
ENDBRANCH  33  35
ENDBRANCH  32  33
ENDBRANCH  31  32
ENDBRANCH  20  31
TORSDOF 8
ENDMDL
