MODEL 1
REMARK minimizedAffinity -8.88291264
REMARK CNNscore 0.394496202
REMARK CNNaffinity 7.51998091
REMARK  13 active torsions:
REMARK  status: ('A' for Active; 'I' for Inactive)
REMARK    1  A    between atoms: C5_6  and  C6_7 
REMARK    2  A    between atoms: C5_6  and  C31_35 
REMARK    3  A    between atoms: C23_24  and  O2_25 
REMARK    4  A    between atoms: C30_33  and  O4_34 
REMARK    5  A    between atoms: C32_37  and  C33_38 
REMARK    6  A    between atoms: C33_38  and  O6_40 
REMARK    7  A    between atoms: C33_38  and  C35_41 
REMARK    8  A    between atoms: C35_41  and  C37_43 
REMARK    9  A    between atoms: C35_41  and  C38_45 
REMARK   10  A    between atoms: C37_43  and  O7_44 
REMARK   11  A    between atoms: C38_45  and  C39_46 
REMARK   12  A    between atoms: C39_46  and  C40_47 
REMARK   13  A    between atoms: C43_51  and  N2_52 
ROOT
HETATM    1  C1  UNL     1      -3.404  11.784  18.821  1.00  0.00     0.010 C 
HETATM    2  C2  UNL     1      -2.408  11.102  17.880  1.00  0.00    -0.014 C 
HETATM    3  C3  UNL     1      -0.976  11.396  18.301  1.00  0.00     0.030 C 
HETATM    4  C4  UNL     1       0.031  10.844  17.302  1.00  0.00     0.169 C 
HETATM    5  O1  UNL     1      -0.573  10.223  16.178  1.00  0.00    -0.377 OA
HETATM    6  C5  UNL     1      -1.554  11.006  15.439  1.00  0.00     0.094 C 
HETATM    7  C45 UNL     1      -2.626  11.551  16.428  1.00  0.00     0.045 C 
ENDROOT
BRANCH   6   8
HETATM    8  C6  UNL     1      -2.107   9.947  14.404  1.00  0.00     0.035 C 
HETATM    9  C7  UNL     1      -0.991   9.034  13.777  1.00  0.00     0.016 C 
HETATM   10  C8  UNL     1      -1.706   7.831  13.115  1.00  0.00     0.026 C 
HETATM   11  C9  UNL     1      -1.204   6.448  13.536  1.00  0.00     0.013 C 
HETATM   12  C30 UNL     1      -3.186   8.038  13.463  1.00  0.00     0.094 C 
HETATM   13  C10 UNL     1      -2.131   5.337  13.006  1.00  0.00     0.043 C 
HETATM   14  C11 UNL     1      -3.591   5.602  13.284  1.00  0.00    -0.006 C 
HETATM   15  C12 UNL     1      -4.055   6.823  13.585  1.00  0.00    -0.030 C 
HETATM   16  C26 UNL     1      -4.558   4.480  13.077  1.00  0.00     0.161 C 
HETATM   17  C13 UNL     1      -5.491   7.141  13.897  1.00  0.00     0.032 C 
HETATM   18  C14 UNL     1      -5.703   8.280  14.953  1.00  0.00    -0.004 C 
HETATM   19  C20 UNL     1      -6.369   5.904  14.275  1.00  0.00    -0.018 C 
HETATM   20  C15 UNL     1      -7.182   8.715  14.915  1.00  0.00     0.010 C 
HETATM   21  C27 UNL     1      -4.693   9.457  14.849  1.00  0.00     0.018 C 
HETATM   22  C16 UNL     1      -8.162   7.504  15.064  1.00  0.00    -0.009 C 
HETATM   23  C17 UNL     1      -8.145   6.965  16.497  1.00  0.00     0.005 C 
HETATM   24  C25 UNL     1      -7.815   6.431  14.015  1.00  0.00     0.002 C 
HETATM   25  C18 UNL     1      -7.324   5.702  16.720  1.00  0.00     0.001 C 
HETATM   26  C19 UNL     1      -6.157   5.463  15.767  1.00  0.00     0.011 C 
HETATM   27  C24 UNL     1      -8.797   5.284  13.801  1.00  0.00     0.037 C 
HETATM   28  C23 UNL     1      -8.409   4.481  12.538  1.00  0.00     0.119 C 
HETATM   29  C22 UNL     1      -6.926   4.609  12.138  1.00  0.00     0.045 C 
HETATM   30  C21 UNL     1      -6.045   4.667  13.389  1.00  0.00     0.072 C 
HETATM   31  C28 UNL     1      -3.230   8.916  14.750  1.00  0.00    -0.002 C 
HETATM   32  C29 UNL     1      -2.886   8.134  16.042  1.00  0.00     0.019 C 
HETATM   33  O3  UNL     1      -4.147   3.416  12.613  1.00  0.00    -0.292 OA
BRANCH  28  34
HETATM   34  O2  UNL     1      -8.729   3.112  12.790  1.00  0.00    -0.396 OA
HETATM   35  H32 UNL     1      -8.476   2.599  12.006  1.00  0.00     0.210 HD
ENDBRANCH  28  34
BRANCH  12  36
HETATM   36  O4  UNL     1      -3.763   8.767  12.356  1.00  0.00    -0.384 OA
HETATM   37  H41 UNL     1      -3.084   9.329  11.946  1.00  0.00     0.211 HD
ENDBRANCH  12  36
ENDBRANCH   6   8
BRANCH   6  38
HETATM   38  C31 UNL     1      -0.768  12.083  14.687  1.00  0.00     0.189 A 
HETATM   39  O5  UNL     1      -1.533  12.923  13.828  1.00  0.00    -0.369 OA
HETATM   40  C32 UNL     1      -0.927  13.584  14.961  1.00  0.00     0.189 A 
BRANCH  40  41
HETATM   41  C33 UNL     1      -0.097  14.795  14.525  1.00  0.00     0.092 C 
HETATM   42  C34 UNL     1      -0.965  16.042  14.812  1.00  0.00     0.049 C 
BRANCH  41  43
HETATM   43  O6  UNL     1      -0.027  14.767  13.086  1.00  0.00    -0.387 OA
HETATM   44  H47 UNL     1       0.193  13.848  12.849  1.00  0.00     0.210 HD
ENDBRANCH  41  43
BRANCH  41  45
HETATM   45  C35 UNL     1       1.380  14.932  15.099  1.00  0.00     0.011 C 
HETATM   46  C36 UNL     1       2.346  13.948  14.369  1.00  0.00     0.020 C 
BRANCH  45  47
HETATM   47  C37 UNL     1       1.430  14.644  16.618  1.00  0.00     0.176 C 
BRANCH  47  48
HETATM   48  O7  UNL     1       2.737  14.232  17.012  1.00  0.00    -0.400 OA
HETATM   49  H53 UNL     1       2.650  13.390  17.498  1.00  0.00     0.209 HD
ENDBRANCH  47  48
ENDBRANCH  45  47
BRANCH  45  50
HETATM   50  C38 UNL     1       1.996  16.354  14.776  1.00  0.00     0.019 C 
BRANCH  50  51
HETATM   51  C39 UNL     1       3.075  16.446  13.680  1.00  0.00     0.039 C 
BRANCH  51  52
HETATM   52  C40 UNL     1       2.473  16.843  12.346  1.00  0.00    -0.053 A 
HETATM   53  C41 UNL     1       2.763  16.127  11.186  1.00  0.00     0.024 A 
HETATM   54  C42 UNL     1       2.188  16.522   9.987  1.00  0.00     0.090 A 
HETATM   55  N1  UNL     1       1.350  17.566   9.957  1.00  0.00    -0.353 N 
HETATM   56  C43 UNL     1       1.005  18.263  11.046  1.00  0.00     0.098 A 
HETATM   57  H60 UNL     1       0.956  17.856   9.067  1.00  0.00     0.166 HD
HETATM   58  C44 UNL     1       1.599  17.932  12.262  1.00  0.00     0.055 A 
BRANCH  56  59
HETATM   59  N2  UNL     1       0.162  19.352  10.923  1.00  0.00    -0.385 N 
HETATM   60  H61 UNL     1      -0.428  19.535  11.736  1.00  0.00     0.157 HD
HETATM   61  H62 UNL     1      -0.320  19.544  10.054  1.00  0.00     0.157 HD
ENDBRANCH  56  59
ENDBRANCH  51  52
ENDBRANCH  50  51
ENDBRANCH  45  50
ENDBRANCH  41  45
ENDBRANCH  40  41
ENDBRANCH   6  38
TORSDOF 13
ENDMDL
