MODEL 1
REMARK minimizedAffinity -5.69023132
REMARK CNNscore 0.529942214
REMARK CNNaffinity 4.27249432
REMARK  5 active torsions:
REMARK  status: ('A' for Active; 'I' for Inactive)
REMARK    1  A    between atoms: C2_2  and  C11_13 
REMARK    2  A    between atoms: C3_3  and  C4_4 
REMARK    3  A    between atoms: C7_7  and  C8_8 
REMARK    4  A    between atoms: C8_8  and  O2_10 
REMARK    5  A    between atoms: C14_16  and  C15_17 
ROOT
HETATM    1  C1  UNL     1     -11.647 -10.999  21.480  1.00  0.00     0.049 C 
HETATM    2  C2  UNL     1     -10.138 -10.869  21.597  1.00  0.00    -0.044 C 
HETATM    3  C3  UNL     1      -9.383 -10.408  20.574  1.00  0.00     0.019 C 
ENDROOT
BRANCH   3   4
HETATM    4  C4  UNL     1      -9.889  -9.954  19.276  1.00  0.00    -0.036 A 
HETATM    5  C5  UNL     1     -10.670 -10.812  18.495  1.00  0.00     0.012 A 
HETATM    6  C6  UNL     1     -11.156 -10.389  17.254  1.00  0.00     0.019 A 
HETATM    7  C7  UNL     1     -10.860  -9.103  16.785  1.00  0.00     0.037 A 
HETATM    8  C9  UNL     1     -10.076  -8.245  17.566  1.00  0.00     0.019 A 
HETATM    9  C10 UNL     1      -9.591  -8.670  18.807  1.00  0.00     0.012 A 
BRANCH   7  10
HETATM   10  C8  UNL     1     -11.353  -8.609  15.477  1.00  0.00     0.176 C 
HETATM   11  O1  UNL     1     -11.350  -7.450  15.105  1.00  0.00    -0.646 OA
BRANCH  10  12
HETATM   12  O2  UNL     1     -11.828  -9.592  14.692  1.00  0.00    -0.773 OA
HETATM   13  H7  UNL     1     -12.111  -9.125  13.878  1.00  0.00     0.167 HD
ENDBRANCH  10  12
ENDBRANCH   7  10
ENDBRANCH   3   4
BRANCH   2  14
HETATM   14  C11 UNL     1      -9.426 -11.241  22.797  1.00  0.00     0.011 A 
HETATM   15  C12 UNL     1      -8.159 -10.883  23.228  1.00  0.00     0.020 A 
HETATM   16  C13 UNL     1      -7.806 -11.461  24.482  1.00  0.00     0.016 A 
HETATM   17  C14 UNL     1      -8.807 -12.261  24.992  1.00  0.00    -0.013 A 
HETATM   18  S1  UNL     1     -10.159 -12.302  23.942  1.00  0.00    -0.094 SA
BRANCH  17  19
HETATM   19  C15 UNL     1      -8.830 -13.047  26.282  1.00  0.00     0.017 C 
HETATM   20  C16 UNL     1      -8.198 -14.427  26.093  1.00  0.00     0.015 C 
HETATM   21  C17 UNL     1     -10.257 -13.174  26.819  1.00  0.00     0.015 C 
ENDBRANCH  17  19
ENDBRANCH   2  14
TORSDOF 5
ENDMDL
