MODEL 1
REMARK minimizedAffinity -7.20285702
REMARK CNNscore 0.381189346
REMARK CNNaffinity 5.88147879
REMARK  6 active torsions:
REMARK  status: ('A' for Active; 'I' for Inactive)
REMARK    1  A    between atoms: C3_3  and  C4_4 
REMARK    2  A    between atoms: C4_4  and  O2_6 
REMARK    3  A    between atoms: O2_6  and  C5_7 
REMARK    4  A    between atoms: C5_7  and  C6_8 
REMARK    5  A    between atoms: C6_8  and  C7_9 
REMARK    6  A    between atoms: C13_15  and  C14_16 
ROOT
HETATM    1  C1  UNL     1      -2.215   7.792  16.447  1.00  0.00     0.069 C 
HETATM    2  C2  UNL     1      -1.882   9.205  16.853  1.00  0.00     0.018 C 
HETATM    3  C3  UNL     1      -0.774   9.876  16.461  1.00  0.00     0.052 C 
HETATM    4  C13 UNL     1      -0.484  11.303  16.916  1.00  0.00     0.104 C 
HETATM    5  C23 UNL     1      -1.683  11.920  17.640  1.00  0.00     0.024 C 
HETATM    6  C24 UNL     1      -2.764  11.186  17.981  1.00  0.00     0.020 C 
HETATM    7  C25 UNL     1      -3.969  11.768  18.680  1.00  0.00     0.058 C 
HETATM    8  C26 UNL     1      -4.076  13.276  18.487  1.00  0.00     0.014 C 
HETATM    9  C27 UNL     1      -2.756  13.961  18.796  1.00  0.00     0.084 C 
HETATM   10  C28 UNL     1      -1.631  13.371  17.974  1.00  0.00     0.158 C 
HETATM   11  O5  UNL     1      -0.663  14.053  17.643  1.00  0.00    -0.293 OA
HETATM   12  N1  UNL     1      -2.815   9.842  17.659  1.00  0.00    -0.362 N 
HETATM   13  H24 UNL     1      -3.677   9.338  17.857  1.00  0.00     0.165 HD
ENDROOT
BRANCH   4  14
HETATM   14  C14 UNL     1       0.770  11.333  17.779  1.00  0.00     0.029 A 
HETATM   15  C15 UNL     1       1.963  11.821  17.405  1.00  0.00     0.154 A 
HETATM   16  O3  UNL     1       3.119  11.840  18.148  1.00  0.00    -0.321 OA
HETATM   17  C16 UNL     1       3.084  11.255  19.388  1.00  0.00     0.089 A 
HETATM   18  C17 UNL     1       4.275  11.225  20.114  1.00  0.00     0.040 A 
HETATM   19  C21 UNL     1       1.921  10.713  19.933  1.00  0.00     0.050 A 
HETATM   20  C18 UNL     1       4.296  10.649  21.387  1.00  0.00     0.026 A 
HETATM   21  C19 UNL     1       3.126  10.107  21.928  1.00  0.00     0.035 A 
HETATM   22 CL1  UNL     1       3.159   9.403  23.498  1.00  0.00    -0.084 Cl
HETATM   23  C20 UNL     1       1.934  10.136  21.207  1.00  0.00     0.042 A 
HETATM   24  C22 UNL     1       0.675  10.773  19.151  1.00  0.00     0.194 A 
HETATM   25  O4  UNL     1      -0.384  10.403  19.637  1.00  0.00    -0.287 OA
ENDBRANCH   4  14
BRANCH   3  26
HETATM   26  C4  UNL     1       0.227   9.247  15.581  1.00  0.00     0.292 C 
HETATM   27  O1  UNL     1       1.112   8.505  15.974  1.00  0.00    -0.259 OA
BRANCH  26  28
HETATM   28  O2  UNL     1      -0.010   9.635  14.306  1.00  0.00    -0.317 OA
BRANCH  28  29
HETATM   29  C5  UNL     1       0.926   9.132  13.343  1.00  0.00     0.183 C 
BRANCH  29  30
HETATM   30  C6  UNL     1       0.239   8.030  12.540  1.00  0.00     0.065 C 
BRANCH  30  31
HETATM   31  C7  UNL     1       0.622   8.065  11.083  1.00  0.00    -0.056 A 
HETATM   32  C8  UNL     1       1.912   7.690  10.679  1.00  0.00     0.007 A 
HETATM   33  C9  UNL     1       2.262   7.702   9.329  1.00  0.00     0.001 A 
HETATM   34  C10 UNL     1       1.327   8.088   8.369  1.00  0.00     0.000 A 
HETATM   35  C11 UNL     1       0.043   8.464   8.760  1.00  0.00     0.001 A 
HETATM   36  C12 UNL     1      -0.310   8.451  10.111  1.00  0.00     0.007 A 
ENDBRANCH  30  31
ENDBRANCH  29  30
ENDBRANCH  28  29
ENDBRANCH  26  28
ENDBRANCH   3  26
TORSDOF 6
ENDMDL
