MODEL 1
REMARK minimizedAffinity -8.04368782
REMARK  12 active torsions:
REMARK  status: ('A' for Active; 'I' for Inactive)
REMARK    1  A    between atoms: C2_2  and  C3_3 
REMARK    2  A    between atoms: C3_3  and  O1_4 
REMARK    3  A    between atoms: C3_3  and  C5_6 
REMARK    4  A    between atoms: C5_6  and  C7_8 
REMARK    5  A    between atoms: C8_10  and  C10_12 
REMARK    6  A    between atoms: C10_12  and  C11_13 
REMARK    7  A    between atoms: C11_13  and  C13_15 
REMARK    8  A    between atoms: C14_16  and  C15_17 
REMARK    9  A    between atoms: C16_18  and  C18_20 
REMARK   10  A    between atoms: C19_22  and  C20_23 
REMARK   11  A    between atoms: C20_23  and  C21_24 
REMARK   12  A    between atoms: C21_24  and  O5_26 
ROOT
HETATM    1  C13 UNL     1      -4.692  48.904 -25.348  1.00  0.00    -0.022 C 
HETATM    2  C14 UNL     1      -3.948  48.459 -26.373  1.00  0.00    -0.003 C 
ENDROOT
BRANCH   2   3
HETATM    3  C15 UNL     1      -4.461  48.336 -27.721  1.00  0.00     0.005 C 
HETATM    4  C16 UNL     1      -5.672  47.872 -28.097  1.00  0.00    -0.055 C 
HETATM    5  C17 UNL     1      -6.746  47.413 -27.136  1.00  0.00     0.046 C 
BRANCH   4   6
HETATM    6  C18 UNL     1      -6.126  47.780 -29.556  1.00  0.00     0.154 C 
HETATM    7  O3  UNL     1      -4.980  47.272 -30.265  1.00  0.00    -0.375 OA
HETATM    8  C19 UNL     1      -5.252  46.985 -31.636  1.00  0.00     0.132 C 
HETATM    9  C22 UNL     1      -6.161  45.752 -31.712  1.00  0.00     0.033 C 
HETATM   10  C23 UNL     1      -7.062  45.608 -30.486  1.00  0.00     0.009 C 
HETATM   11  C24 UNL     1      -7.414  46.956 -29.853  1.00  0.00     0.015 C 
HETATM   12  C25 UNL     1      -8.386  47.742 -30.749  1.00  0.00     0.012 C 
BRANCH   8  13
HETATM   13  C20 UNL     1      -3.928  46.731 -32.356  1.00  0.00     0.141 C 
BRANCH  13  14
HETATM   14  C21 UNL     1      -3.767  47.648 -33.535  1.00  0.00     0.141 C 
HETATM   15  O4  UNL     1      -4.610  47.951 -34.364  1.00  0.00    -0.650 OA
BRANCH  14  16
HETATM   16  O5  UNL     1      -2.500  48.092 -33.662  1.00  0.00    -0.776 OA
HETATM   17  H34 UNL     1      -2.528  48.662 -34.458  1.00  0.00     0.167 HD
ENDBRANCH  14  16
ENDBRANCH  13  14
ENDBRANCH   8  13
ENDBRANCH   4   6
ENDBRANCH   2   3
BRANCH   1  18
HETATM   18  C11 UNL     1      -4.213  49.050 -23.918  1.00  0.00     0.007 C 
HETATM   19  C12 UNL     1      -4.609  47.824 -23.081  1.00  0.00     0.014 C 
BRANCH  18  20
HETATM   20  C10 UNL     1      -2.693  49.305 -23.810  1.00  0.00     0.048 C 
BRANCH  20  21
HETATM   21  C8  UNL     1      -2.286  50.744 -24.058  1.00  0.00     0.085 A 
HETATM   22  C7  UNL     1      -1.354  51.014 -25.247  1.00  0.00     0.163 A 
HETATM   23  O2  UNL     1      -0.882  50.984 -23.893  1.00  0.00    -0.369 OA
HETATM   24  C9  UNL     1      -3.149  51.819 -23.470  1.00  0.00     0.049 C 
BRANCH  22  25
HETATM   25  C5  UNL     1      -1.201  52.349 -25.936  1.00  0.00     0.042 C 
HETATM   26  C6  UNL     1      -2.139  52.428 -27.144  1.00  0.00     0.015 C 
BRANCH  25  27
HETATM   27  C3  UNL     1       0.277  52.651 -26.334  1.00  0.00     0.126 C 
BRANCH  27  28
HETATM   28  C2  UNL     1       1.276  51.544 -25.943  1.00  0.00     0.028 C 
HETATM   29  C1  UNL     1       2.532  51.568 -26.810  1.00  0.00     0.007 C 
ENDBRANCH  27  28
BRANCH  27  30
HETATM   30  O1  UNL     1       0.749  53.875 -25.751  1.00  0.00    -0.390 OA
HETATM   31  C4  UNL     1       0.777  53.866 -24.330  1.00  0.00     0.202 C 
ENDBRANCH  27  30
ENDBRANCH  25  27
ENDBRANCH  22  25
ENDBRANCH  20  21
ENDBRANCH  18  20
ENDBRANCH   1  18
TORSDOF 12
ENDMDL
