MODEL 1
REMARK minimizedAffinity -8.77538776
REMARK CNNscore 0.563638687
REMARK CNNaffinity 6.88622665
REMARK  7 active torsions:
REMARK  status: ('A' for Active; 'I' for Inactive)
REMARK    1  A    between atoms: C4_4  and  C5_5 
REMARK    2  A    between atoms: C5_5  and  C6_6 
REMARK    3  A    between atoms: C6_6  and  C7_7 
REMARK    4  A    between atoms: C7_7  and  C9_9 
REMARK    5  A    between atoms: C23_23  and  O1_24 
REMARK    6  A    between atoms: C24_25  and  C26_27 
REMARK    7  A    between atoms: C26_27  and  O2_28 
ROOT
HETATM    1  C9  UNL     1       1.501   8.276  10.827  1.00  0.00    -0.002 C 
HETATM    2  C10 UNL     1       0.284   7.959   9.941  1.00  0.00     0.006 C 
HETATM    3  C11 UNL     1      -0.196   6.601  10.411  1.00  0.00     0.010 C 
HETATM    4  C12 UNL     1       0.087   6.560  11.922  1.00  0.00     0.023 C 
HETATM    5  C13 UNL     1      -1.203   6.427  12.706  1.00  0.00    -0.072 C 
HETATM    6  C14 UNL     1      -1.904   7.507  13.115  1.00  0.00    -0.068 C 
HETATM    7  C15 UNL     1      -1.356   8.885  12.837  1.00  0.00     0.036 C 
HETATM    8  C16 UNL     1       0.164   8.957  12.932  1.00  0.00     0.014 C 
HETATM    9  C17 UNL     1       0.969   7.810  12.244  1.00  0.00    -0.032 C 
HETATM   10  C18 UNL     1       2.055   7.399  13.258  1.00  0.00     0.016 C 
HETATM   11  C19 UNL     1      -3.262   7.383  13.848  1.00  0.00    -0.016 C 
HETATM   12  C20 UNL     1      -2.919   7.510  15.351  1.00  0.00     0.020 C 
HETATM   13  C21 UNL     1      -4.236   8.521  13.447  1.00  0.00     0.016 C 
HETATM   14  C22 UNL     1      -5.645   8.337  13.996  1.00  0.00     0.034 C 
HETATM   15  C23 UNL     1      -6.262   7.016  13.551  1.00  0.00     0.128 C 
HETATM   16  C24 UNL     1      -5.408   5.766  13.918  1.00  0.00     0.008 C 
HETATM   17  C25 UNL     1      -5.535   5.436  15.422  1.00  0.00     0.020 C 
HETATM   18  C27 UNL     1      -3.927   6.013  13.441  1.00  0.00     0.011 C 
HETATM   19  C28 UNL     1      -2.957   4.852  13.725  1.00  0.00     0.011 C 
HETATM   20  C29 UNL     1      -1.669   5.007  12.916  1.00  0.00     0.035 C 
ENDROOT
BRANCH   1  21
HETATM   21  C7  UNL     1       2.836   7.618  10.325  1.00  0.00    -0.014 C 
HETATM   22  C8  UNL     1       4.075   8.383  10.835  1.00  0.00     0.010 C 
BRANCH  21  23
HETATM   23  C6  UNL     1       2.961   7.433   8.788  1.00  0.00     0.008 C 
BRANCH  23  24
HETATM   24  C5  UNL     1       2.600   6.066   8.188  1.00  0.00     0.028 C 
BRANCH  24  25
HETATM   25  C4  UNL     1       3.504   4.925   8.552  1.00  0.00    -0.025 C 
HETATM   26  C2  UNL     1       3.977   3.966   7.730  1.00  0.00    -0.091 C 
HETATM   27  C1  UNL     1       4.930   2.921   8.247  1.00  0.00     0.042 C 
HETATM   28  C3  UNL     1       3.634   3.841   6.271  1.00  0.00     0.042 C 
ENDBRANCH  24  25
ENDBRANCH  23  24
ENDBRANCH  21  23
ENDBRANCH   1  21
BRANCH  16  29
HETATM   29  C26 UNL     1      -5.990   4.541  13.138  1.00  0.00     0.176 C 
BRANCH  29  30
HETATM   30  O2  UNL     1      -7.189   4.054  13.742  1.00  0.00    -0.400 OA
HETATM   31  H43 UNL     1      -7.445   3.251  13.253  1.00  0.00     0.209 HD
ENDBRANCH  29  30
ENDBRANCH  16  29
BRANCH  15  32
HETATM   32  O1  UNL     1      -7.567   6.953  14.119  1.00  0.00    -0.395 OA
HETATM   33  H37 UNL     1      -7.931   6.073  13.877  1.00  0.00     0.210 HD
ENDBRANCH  15  32
TORSDOF 7
ENDMDL
