MODEL 1
REMARK minimizedAffinity -8.94766903
REMARK  6 active torsions:
REMARK  status: ('A' for Active; 'I' for Inactive)
REMARK    1  A    between atoms: C2_2  and  C30_31 
REMARK    2  A    between atoms: C3_3  and  C4_4 
REMARK    3  A    between atoms: C4_4  and  C5_5 
REMARK    4  A    between atoms: C5_5  and  C6_6 
REMARK    5  A    between atoms: C6_6  and  C8_8 
REMARK    6  A    between atoms: C30_31  and  O2_32 
ROOT
HETATM    1  C8  UNL     1      -6.326   7.279  14.432  1.00  0.00    -0.002 C 
HETATM    2  C9  UNL     1      -6.135   8.704  15.052  1.00  0.00     0.007 C 
HETATM    3  C10 UNL     1      -4.641   9.076  14.916  1.00  0.00     0.015 C 
HETATM    4  C11 UNL     1      -4.087   8.048  13.919  1.00  0.00    -0.013 C 
HETATM    5  C12 UNL     1      -4.498   8.557  12.488  1.00  0.00     0.021 C 
HETATM    6  C13 UNL     1      -2.571   7.818  13.848  1.00  0.00    -0.070 C 
HETATM    7  C14 UNL     1      -1.727   8.861  13.690  1.00  0.00    -0.022 C 
HETATM    8  C15 UNL     1      -0.332   8.734  13.139  1.00  0.00     0.034 C 
HETATM    9  C16 UNL     1      -0.173   7.385  12.408  1.00  0.00     0.013 C 
HETATM   10  C17 UNL     1       1.147   7.191  11.595  1.00  0.00     0.018 C 
HETATM   11  C18 UNL     1       2.428   7.188  12.436  1.00  0.00     0.023 C 
HETATM   12  C19 UNL     1       1.273   8.296  10.525  1.00  0.00     0.023 C 
HETATM   13  C20 UNL     1       1.066   5.843  10.853  1.00  0.00     0.135 C 
HETATM   14  O1  UNL     1       1.853   5.548   9.950  1.00  0.00    -0.297 OA
HETATM   15  C21 UNL     1      -0.031   4.877  11.255  1.00  0.00     0.080 C 
HETATM   16  C22 UNL     1      -0.149   4.847  12.771  1.00  0.00     0.017 C 
HETATM   17  C23 UNL     1      -0.559   6.216  13.375  1.00  0.00    -0.031 C 
HETATM   18  C24 UNL     1       0.164   6.308  14.759  1.00  0.00     0.016 C 
HETATM   19  C25 UNL     1      -2.107   6.349  13.696  1.00  0.00     0.024 C 
HETATM   20  C26 UNL     1      -3.105   5.605  12.788  1.00  0.00     0.010 C 
HETATM   21  C27 UNL     1      -4.563   5.632  13.335  1.00  0.00     0.011 C 
HETATM   22  C28 UNL     1      -4.853   6.751  14.371  1.00  0.00    -0.029 C 
HETATM   23  C29 UNL     1      -4.474   6.272  15.813  1.00  0.00     0.016 C 
ENDROOT
BRANCH   1  24
HETATM   24  C6  UNL     1      -7.430   6.457  15.167  1.00  0.00    -0.014 C 
HETATM   25  C7  UNL     1      -7.363   6.636  16.686  1.00  0.00     0.010 C 
BRANCH  24  26
HETATM   26  C5  UNL     1      -7.298   4.953  14.795  1.00  0.00     0.008 C 
BRANCH  26  27
HETATM   27  C4  UNL     1      -7.972   4.509  13.490  1.00  0.00     0.028 C 
BRANCH  27  28
HETATM   28  C3  UNL     1      -6.997   4.095  12.422  1.00  0.00    -0.022 C 
HETATM   29  C2  UNL     1      -6.691   2.840  12.033  1.00  0.00    -0.064 C 
HETATM   30  C1  UNL     1      -7.270   1.592  12.644  1.00  0.00     0.045 C 
BRANCH  29  31
HETATM   31  C30 UNL     1      -5.713   2.597  10.914  1.00  0.00     0.197 C 
BRANCH  31  32
HETATM   32  O2  UNL     1      -4.920   1.465  11.235  1.00  0.00    -0.397 OA
HETATM   33  H48 UNL     1      -4.281   1.358  10.511  1.00  0.00     0.209 HD
ENDBRANCH  31  32
ENDBRANCH  29  31
ENDBRANCH  27  28
ENDBRANCH  26  27
ENDBRANCH  24  26
ENDBRANCH   1  24
TORSDOF 6
ENDMDL
