MODEL 1
REMARK minimizedAffinity -10.1955357
REMARK  9 active torsions:
REMARK  status: ('A' for Active; 'I' for Inactive)
REMARK    1  A    between atoms: C4_4  and  C5_5 
REMARK    2  A    between atoms: C5_5  and  C6_6 
REMARK    3  A    between atoms: C6_6  and  C7_7 
REMARK    4  A    between atoms: C13_14  and  O2_15 
REMARK    5  A    between atoms: C14_16  and  C15_17 
REMARK    6  A    between atoms: C15_17  and  C16_18 
REMARK    7  A    between atoms: C22_25  and  C23_26 
REMARK    8  A    between atoms: C25_28  and  O4_29 
REMARK    9  A    between atoms: C27_31  and  O5_32 
ROOT
HETATM    1  C7  UNL     1      -0.097  52.973 -26.011  1.00  0.00     0.082 A 
HETATM    2  C8  UNL     1      -0.036  54.380 -26.624  1.00  0.00     0.051 C 
HETATM    3  C9  UNL     1       0.956  52.891 -24.918  1.00  0.00     0.012 A 
HETATM    4  C10 UNL     1       0.681  52.598 -23.644  1.00  0.00     0.016 A 
HETATM    5  C11 UNL     1      -0.705  52.352 -23.319  1.00  0.00     0.035 A 
HETATM    6  C12 UNL     1      -1.709  52.452 -24.274  1.00  0.00     0.117 A 
HETATM    7  O1  UNL     1      -1.466  52.787 -25.581  1.00  0.00    -0.333 OA
HETATM    8  C13 UNL     1      -3.045  52.220 -23.926  1.00  0.00     0.107 A 
HETATM    9  C14 UNL     1      -3.448  51.878 -22.618  1.00  0.00    -0.006 A 
HETATM   10  C20 UNL     1      -2.415  51.764 -21.652  1.00  0.00     0.011 A 
HETATM   11  C21 UNL     1      -1.095  52.003 -22.025  1.00  0.00     0.100 A 
HETATM   12  O3  UNL     1      -0.267  51.845 -20.951  1.00  0.00    -0.308 OA
HETATM   13  C22 UNL     1      -1.037  51.496 -19.878  1.00  0.00     0.087 A 
HETATM   14  C29 UNL     1      -2.361  51.435 -20.268  1.00  0.00     0.053 A 
ENDROOT
BRANCH  13  15
HETATM   15  C23 UNL     1      -0.331  51.274 -18.618  1.00  0.00     0.003 A 
HETATM   16  C24 UNL     1      -0.352  50.013 -18.003  1.00  0.00     0.051 A 
HETATM   17  C25 UNL     1       0.322  49.801 -16.801  1.00  0.00     0.069 A 
HETATM   18  C26 UNL     1       1.027  50.826 -16.186  1.00  0.00     0.073 A 
HETATM   19  C27 UNL     1       1.052  52.075 -16.790  1.00  0.00     0.069 A 
HETATM   20  C28 UNL     1       0.384  52.309 -17.993  1.00  0.00     0.051 A 
BRANCH  17  21
HETATM   21  O4  UNL     1       0.263  48.552 -16.255  1.00  0.00    -0.361 OA
HETATM   22  H28 UNL     1       0.779  48.551 -15.431  1.00  0.00     0.217 HD
ENDBRANCH  17  21
BRANCH  19  23
HETATM   23  O5  UNL     1       1.754  53.066 -16.165  1.00  0.00    -0.361 OA
HETATM   24  H30 UNL     1       1.684  53.878 -16.696  1.00  0.00     0.217 HD
ENDBRANCH  19  23
ENDBRANCH  13  15
BRANCH   9  25
HETATM   25  C15 UNL     1      -4.901  51.618 -22.293  1.00  0.00     0.070 C 
BRANCH  25  26
HETATM   26  C16 UNL     1      -5.060  50.601 -21.194  1.00  0.00    -0.020 C 
HETATM   27  C17 UNL     1      -6.077  49.742 -20.979  1.00  0.00    -0.091 C 
HETATM   28  C18 UNL     1      -7.311  49.616 -21.827  1.00  0.00     0.042 C 
HETATM   29  C19 UNL     1      -6.040  48.800 -19.803  1.00  0.00     0.042 C 
ENDBRANCH  25  26
ENDBRANCH   9  25
BRANCH   8  30
HETATM   30  O2  UNL     1      -4.003  52.329 -24.907  1.00  0.00    -0.357 OA
HETATM   31  H17 UNL     1      -3.516  52.572 -25.719  1.00  0.00     0.217 HD
ENDBRANCH   8  30
BRANCH   1  32
HETATM   32  C6  UNL     1       0.216  51.880 -27.062  1.00  0.00     0.046 C 
BRANCH  32  33
HETATM   33  C5  UNL     1      -1.018  51.155 -27.613  1.00  0.00     0.030 C 
BRANCH  33  34
HETATM   34  C4  UNL     1      -1.521  50.131 -26.632  1.00  0.00    -0.025 C 
HETATM   35  C2  UNL     1      -2.678  49.442 -26.682  1.00  0.00    -0.091 C 
HETATM   36  C1  UNL     1      -3.697  49.539 -27.784  1.00  0.00     0.042 C 
HETATM   37  C3  UNL     1      -3.040  48.471 -25.587  1.00  0.00     0.042 C 
ENDBRANCH  33  34
ENDBRANCH  32  33
ENDBRANCH   1  32
TORSDOF 9
ENDMDL
