MODEL 1
REMARK minimizedAffinity -7.89378452
REMARK CNNscore 0.699447751
REMARK CNNaffinity 6.82845163
REMARK  20 active torsions:
REMARK  status: ('A' for Active; 'I' for Inactive)
REMARK    1  A    between atoms: C2_2  and  C18_24 
REMARK    2  A    between atoms: C3_3  and  C4_4 
REMARK    3  A    between atoms: C4_4  and  O2_6 
REMARK    4  A    between atoms: O2_6  and  C5_7 
REMARK    5  A    between atoms: C5_7  and  C6_8 
REMARK    6  A    between atoms: C6_8  and  C7_9 
REMARK    7  A    between atoms: C7_9  and  C8_10 
REMARK    8  A    between atoms: C8_10  and  C9_11 
REMARK    9  A    between atoms: C9_11  and  C10_12 
REMARK   10  A    between atoms: C10_12  and  C11_13 
REMARK   11  A    between atoms: C11_13  and  C12_14 
REMARK       I    between atoms: C12_14  and  N1_16 
REMARK   12  A    between atoms: N1_16  and  C13_17 
REMARK   13  A    between atoms: C18_24  and  C19_25 
REMARK   14  A    between atoms: C21_28  and  C22_29 
REMARK   15  A    between atoms: C22_29  and  C23_30 
REMARK   16  A    between atoms: C24_31  and  C25_32 
REMARK   17  A    between atoms: C25_32  and  C27_34 
REMARK   18  A    between atoms: C27_34  and  O6_36 
REMARK   19  A    between atoms: C29_37  and  O7_38 
REMARK   20  A    between atoms: C30_39  and  O8_40 
ROOT
HETATM    1  C1  UNL     1      -4.890  48.461 -25.379  1.00  0.00     0.043 C 
HETATM    2  C2  UNL     1      -3.888  48.537 -26.503  1.00  0.00    -0.075 C 
HETATM    3  C3  UNL     1      -4.179  48.346 -27.806  1.00  0.00     0.084 C 
ENDROOT
BRANCH   3   4
HETATM    4  C4  UNL     1      -5.462  47.901 -28.397  1.00  0.00     0.283 C 
HETATM    5  O1  UNL     1      -6.307  47.296 -27.753  1.00  0.00    -0.260 OA
BRANCH   4   6
HETATM    6  O2  UNL     1      -5.597  48.361 -29.662  1.00  0.00    -0.318 OA
BRANCH   6   7
HETATM    7  C5  UNL     1      -6.884  48.136 -30.251  1.00  0.00     0.179 C 
BRANCH   7   8
HETATM    8  C6  UNL     1      -6.734  46.988 -31.243  1.00  0.00     0.027 C 
BRANCH   8   9
HETATM    9  C7  UNL     1      -8.025  46.207 -31.482  1.00  0.00     0.002 C 
BRANCH   9  10
HETATM   10  C8  UNL     1      -8.913  46.851 -32.551  1.00  0.00     0.000 C 
BRANCH  10  11
HETATM   11  C9  UNL     1      -8.169  47.854 -33.435  1.00  0.00     0.000 C 
BRANCH  11  12
HETATM   12  C10 UNL     1      -8.073  47.502 -34.923  1.00  0.00     0.009 C 
BRANCH  12  13
HETATM   13  C11 UNL     1      -8.843  46.259 -35.366  1.00  0.00     0.103 C 
BRANCH  13  14
HETATM   14  C12 UNL     1      -9.680  46.457 -36.618  1.00  0.00     0.218 C 
HETATM   15  O3  UNL     1     -10.883  46.683 -36.612  1.00  0.00    -0.274 OA
HETATM   16  N1  UNL     1      -8.945  46.323 -37.779  1.00  0.00    -0.348 N 
HETATM   17  H19 UNL     1      -7.939  46.419 -37.701  1.00  0.00     0.163 HD
BRANCH  16  18
HETATM   18  C13 UNL     1      -9.539  46.650 -39.072  1.00  0.00     0.176 C 
HETATM   19  C14 UNL     1      -8.947  45.850 -40.236  1.00  0.00     0.036 C 
HETATM   20  C15 UNL     1      -7.497  46.221 -40.563  1.00  0.00     0.022 C 
HETATM   21  C16 UNL     1      -7.091  47.605 -40.070  1.00  0.00     0.122 C 
HETATM   22  N2  UNL     1      -8.208  48.513 -39.990  1.00  0.00    -0.359 N 
HETATM   23  C17 UNL     1      -9.362  48.153 -39.335  1.00  0.00     0.240 C 
HETATM   24  H27 UNL     1      -8.047  49.514 -40.020  1.00  0.00     0.162 HD
HETATM   25  O4  UNL     1     -10.125  49.009 -38.894  1.00  0.00    -0.271 OA
ENDBRANCH  16  18
ENDBRANCH  13  14
ENDBRANCH  12  13
ENDBRANCH  11  12
ENDBRANCH  10  11
ENDBRANCH   9  10
ENDBRANCH   8   9
ENDBRANCH   7   8
ENDBRANCH   6   7
ENDBRANCH   4   6
ENDBRANCH   3   4
BRANCH   2  26
HETATM   26  C18 UNL     1      -2.463  48.878 -26.087  1.00  0.00     0.068 C 
BRANCH  26  27
HETATM   27  C19 UNL     1      -1.935  50.148 -26.784  1.00  0.00     0.156 C 
HETATM   28  O5  UNL     1      -0.500  50.186 -26.611  1.00  0.00    -0.382 OA
HETATM   29  C20 UNL     1       0.046  51.449 -26.995  1.00  0.00     0.175 C 
HETATM   30  C21 UNL     1      -0.314  52.508 -25.942  1.00  0.00     0.044 C 
HETATM   31  C29 UNL     1      -1.633  52.130 -25.236  1.00  0.00     0.155 C 
HETATM   32  C30 UNL     1      -2.592  51.418 -26.200  1.00  0.00     0.176 C 
BRANCH  30  33
HETATM   33  C22 UNL     1       0.812  52.677 -24.899  1.00  0.00     0.036 C 
BRANCH  33  34
HETATM   34  C23 UNL     1       0.432  52.132 -23.546  1.00  0.00    -0.030 C 
HETATM   35  C24 UNL     1       0.508  52.834 -22.405  1.00  0.00    -0.024 C 
BRANCH  35  36
HETATM   36  C25 UNL     1       0.141  52.363 -21.007  1.00  0.00     0.032 C 
HETATM   37  C26 UNL     1      -0.066  50.849 -20.859  1.00  0.00     0.017 C 
BRANCH  36  38
HETATM   38  C27 UNL     1       1.129  52.925 -19.951  1.00  0.00     0.121 C 
HETATM   39  C28 UNL     1       0.653  52.797 -18.509  1.00  0.00     0.040 C 
BRANCH  38  40
HETATM   40  O6  UNL     1       1.393  54.310 -20.200  1.00  0.00    -0.395 OA
HETATM   41  H46 UNL     1       1.740  54.381 -21.105  1.00  0.00     0.210 HD
ENDBRANCH  38  40
ENDBRANCH  36  38
ENDBRANCH  35  36
ENDBRANCH  33  34
ENDBRANCH  30  33
BRANCH  31  42
HETATM   42  O7  UNL     1      -2.285  53.323 -24.770  1.00  0.00    -0.392 OA
HETATM   43  H48 UNL     1      -1.747  53.686 -24.044  1.00  0.00     0.210 HD
ENDBRANCH  31  42
BRANCH  32  44
HETATM   44  O8  UNL     1      -2.903  52.328 -27.273  1.00  0.00    -0.390 OA
HETATM   45  H50 UNL     1      -3.156  53.163 -26.828  1.00  0.00     0.210 HD
ENDBRANCH  32  44
ENDBRANCH  26  27
ENDBRANCH   2  26
TORSDOF 20
ENDMDL
