MODEL 1
REMARK minimizedAffinity -7.56760979
REMARK CNNscore 0.648307383
REMARK CNNaffinity 5.56740046
REMARK  13 active torsions:
REMARK  status: ('A' for Active; 'I' for Inactive)
REMARK    1  A    between atoms: C3_3  and  O1_4 
REMARK    2  A    between atoms: N1_14  and  O2_16 
REMARK    3  A    between atoms: O2_16  and  C13_17 
REMARK    4  A    between atoms: C13_17  and  C14_18 
REMARK       I    between atoms: C14_18  and  N2_20 
REMARK    5  A    between atoms: N2_20  and  C15_21 
REMARK    6  A    between atoms: C15_21  and  C16_22 
REMARK    7  A    between atoms: C15_21  and  C21_33 
REMARK       I    between atoms: C16_22  and  N3_24 
REMARK    8  A    between atoms: N3_24  and  C17_25 
REMARK    9  A    between atoms: C17_25  and  C18_26 
REMARK   10  A    between atoms: C17_25  and  C20_30 
REMARK   11  A    between atoms: C18_26  and  C19_27 
REMARK   12  A    between atoms: C19_27  and  O6_29 
REMARK   13  A    between atoms: C20_30  and  O8_32 
ROOT
HETATM    1  C1  UNL     1       3.467   7.379   9.301  1.00  0.00     0.015 C 
HETATM    2  C2  UNL     1       4.376   7.791   9.973  1.00  0.00    -0.078 C 
HETATM    3  C3  UNL     1       5.494   8.269  10.802  1.00  0.00     0.128 C 
HETATM    4  C4  UNL     1       6.042   9.609  10.283  1.00  0.00     0.052 C 
HETATM    5  C5  UNL     1       6.846  10.130  11.466  1.00  0.00     0.010 C 
HETATM    6  C6  UNL     1       5.900   9.893  12.646  1.00  0.00     0.002 C 
HETATM    7  C7  UNL     1       6.530   9.954  14.053  1.00  0.00    -0.004 C 
HETATM    8  C8  UNL     1       7.190  11.308  14.354  1.00  0.00     0.010 C 
HETATM    9  C9  UNL     1       8.111  11.226  15.561  1.00  0.00     0.035 C 
HETATM   10  C10 UNL     1       9.252  10.332  15.176  1.00  0.00    -0.069 C 
HETATM   11  C11 UNL     1      10.500  10.827  15.067  1.00  0.00     0.030 C 
HETATM   12  C12 UNL     1      11.631   9.989  14.567  1.00  0.00     0.032 C 
HETATM   13  N1  UNL     1      12.889  10.306  14.624  1.00  0.00    -0.271 N 
ATOM     14  H1  UNL     1      13.642   9.719  14.265  1.00  0.00     0.194 HD
HETATM   15  C24 UNL     1      11.301   8.644  13.948  1.00  0.00     0.060 C 
HETATM   16  C25 UNL     1       9.814   8.455  13.656  1.00  0.00     0.020 C 
HETATM   17  C26 UNL     1       8.894   8.888  14.828  1.00  0.00    -0.016 C 
HETATM   18  C27 UNL     1       9.216   8.005  16.071  1.00  0.00     0.020 C 
HETATM   19  C28 UNL     1       7.350   8.707  14.502  1.00  0.00     0.002 C 
HETATM   20  C29 UNL     1       7.011   7.450  13.676  1.00  0.00     0.007 C 
HETATM   21  C30 UNL     1       5.537   7.414  13.281  1.00  0.00     0.014 C 
HETATM   22  C31 UNL     1       5.136   8.561  12.317  1.00  0.00     0.003 C 
HETATM   23  C32 UNL     1       3.625   8.830  12.520  1.00  0.00     0.020 C 
ENDROOT
BRANCH   3  24
HETATM   24  O1  UNL     1       6.528   7.286  10.701  1.00  0.00    -0.377 OA
HETATM   25  H2  UNL     1       7.044   7.474   9.900  1.00  0.00     0.211 HD
ENDBRANCH   3  24
BRANCH  13  26
HETATM   26  O2  UNL     1      13.090  11.551  15.238  1.00  0.00    -0.271 OA
BRANCH  26  27
HETATM   27  C13 UNL     1      13.765  11.352  16.478  1.00  0.00     0.303 C 
BRANCH  27  28
HETATM   28  C14 UNL     1      15.050  12.164  16.448  1.00  0.00     0.244 C 
HETATM   29  O3  UNL     1      15.062  13.394  16.446  1.00  0.00    -0.271 OA
HETATM   30  N2  UNL     1      16.211  11.411  16.402  1.00  0.00    -0.346 N 
HETATM   31  H16 UNL     1      16.154  10.506  16.866  1.00  0.00     0.163 HD
BRANCH  30  32
HETATM   32  C15 UNL     1      17.506  12.082  16.534  1.00  0.00     0.180 C 
BRANCH  32  33
HETATM   33  C16 UNL     1      17.867  12.074  18.036  1.00  0.00     0.241 C 
HETATM   34  O4  UNL     1      18.617  11.229  18.531  1.00  0.00    -0.271 OA
HETATM   35  N3  UNL     1      17.310  13.084  18.780  1.00  0.00    -0.344 N 
HETATM   36  H18 UNL     1      16.603  13.686  18.366  1.00  0.00     0.163 HD
BRANCH  35  37
HETATM   37  C17 UNL     1      17.409  13.111  20.244  1.00  0.00     0.192 C 
BRANCH  37  38
HETATM   38  C18 UNL     1      18.074  14.379  20.774  1.00  0.00     0.146 C 
BRANCH  38  39
HETATM   39  C19 UNL     1      19.420  14.654  20.172  1.00  0.00     0.141 C 
HETATM   40  O5  UNL     1      19.629  15.251  19.127  1.00  0.00    -0.650 OA
BRANCH  39  41
HETATM   41  O6  UNL     1      20.452  14.228  20.925  1.00  0.00    -0.776 OA
HETATM   42  H22 UNL     1      21.245  14.512  20.422  1.00  0.00     0.167 HD
ENDBRANCH  39  41
ENDBRANCH  38  39
ENDBRANCH  37  38
BRANCH  37  43
HETATM   43  C20 UNL     1      16.015  12.898  20.834  1.00  0.00     0.164 C 
HETATM   44  O7  UNL     1      15.051  12.414  20.258  1.00  0.00    -0.648 OA
BRANCH  43  45
HETATM   45  O8  UNL     1      15.922  13.281  22.121  1.00  0.00    -0.775 OA
HETATM   46  H23 UNL     1      15.004  13.049  22.384  1.00  0.00     0.167 HD
ENDBRANCH  43  45
ENDBRANCH  37  43
ENDBRANCH  35  37
ENDBRANCH  32  33
BRANCH  32  47
HETATM   47  C21 UNL     1      18.563  11.422  15.629  1.00  0.00     0.009 C 
HETATM   48  C22 UNL     1      17.957  10.329  14.747  1.00  0.00     0.012 C 
HETATM   49  C23 UNL     1      19.344  12.413  14.765  1.00  0.00     0.012 C 
ENDBRANCH  32  47
ENDBRANCH  30  32
ENDBRANCH  27  28
ENDBRANCH  26  27
ENDBRANCH  13  26
TORSDOF 13
ENDMDL
