MODEL 1
REMARK minimizedAffinity -9.05347252
REMARK  10 active torsions:
REMARK  status: ('A' for Active; 'I' for Inactive)
REMARK    1  A    between atoms: C3_3  and  C5_5 
REMARK    2  A    between atoms: C6_6  and  C7_7 
REMARK    3  A    between atoms: C8_8  and  C9_9 
REMARK    4  A    between atoms: C10_10  and  C12_12 
REMARK    5  A    between atoms: C12_12  and  O1_13 
REMARK    6  A    between atoms: C12_12  and  C13_14 
REMARK    7  A    between atoms: C13_14  and  C15_16 
REMARK    8  A    between atoms: C15_16  and  O2_17 
REMARK    9  A    between atoms: C18_20  and  O3_21 
REMARK   10  A    between atoms: C19_22  and  O4_24 
ROOT
HETATM    1  C5  UNL     1      -3.972  48.444 -23.560  1.00  0.00     0.058 C 
HETATM    2  C6  UNL     1      -3.196  48.745 -24.898  1.00  0.00     0.024 C 
HETATM    3  C16 UNL     1      -2.638  50.197 -24.931  1.00  0.00     0.003 C 
HETATM    4  C17 UNL     1      -2.033  50.601 -26.294  1.00  0.00     0.040 C 
HETATM    5  C18 UNL     1      -1.477  52.034 -26.290  1.00  0.00     0.152 C 
HETATM    6  C19 UNL     1      -0.487  52.286 -25.125  1.00  0.00     0.080 C 
HETATM    7  C20 UNL     1      -0.074  53.759 -25.040  1.00  0.00     0.048 C 
HETATM    8  C21 UNL     1      -1.080  51.830 -23.779  1.00  0.00     0.047 C 
HETATM    9  C22 UNL     1      -1.565  50.370 -23.833  1.00  0.00     0.025 C 
HETATM   10  C23 UNL     1      -2.056  49.903 -22.488  1.00  0.00     0.162 A 
HETATM   11  O5  UNL     1      -1.828  48.491 -22.303  1.00  0.00    -0.368 OA
HETATM   12  C24 UNL     1      -3.198  48.915 -22.330  1.00  0.00     0.092 A 
HETATM   13  C25 UNL     1      -3.849  48.743 -20.986  1.00  0.00     0.049 C 
ENDROOT
BRANCH   2  14
HETATM   14  C7  UNL     1      -4.029  48.399 -26.120  1.00  0.00    -0.021 C 
HETATM   15  C8  UNL     1      -3.692  48.747 -27.373  1.00  0.00    -0.003 C 
BRANCH  15  16
HETATM   16  C9  UNL     1      -4.501  48.402 -28.521  1.00  0.00     0.005 C 
HETATM   17  C10 UNL     1      -5.754  47.903 -28.486  1.00  0.00    -0.055 C 
HETATM   18  C11 UNL     1      -6.482  47.616 -27.196  1.00  0.00     0.046 C 
BRANCH  17  19
HETATM   19  C12 UNL     1      -6.474  47.576 -29.786  1.00  0.00     0.152 C 
BRANCH  19  20
HETATM   20  O1  UNL     1      -7.003  48.766 -30.357  1.00  0.00    -0.391 OA
HETATM   21  H17 UNL     1      -7.442  49.257 -29.643  1.00  0.00     0.210 HD
ENDBRANCH  19  20
BRANCH  19  22
HETATM   22  C13 UNL     1      -5.655  46.738 -30.803  1.00  0.00     0.038 C 
HETATM   23  C14 UNL     1      -6.327  45.377 -31.032  1.00  0.00     0.015 C 
BRANCH  22  24
HETATM   24  C15 UNL     1      -5.361  47.409 -32.152  1.00  0.00     0.171 C 
BRANCH  24  25
HETATM   25  O2  UNL     1      -4.556  48.569 -32.021  1.00  0.00    -0.400 OA
HETATM   26  H24 UNL     1      -4.414  48.928 -32.912  1.00  0.00     0.209 HD
ENDBRANCH  24  25
ENDBRANCH  22  24
ENDBRANCH  19  22
ENDBRANCH  17  19
ENDBRANCH  15  16
ENDBRANCH   2  14
BRANCH   1  27
HETATM   27  C3  UNL     1      -5.453  48.895 -23.555  1.00  0.00    -0.080 C 
HETATM   28  C2  UNL     1      -6.432  47.965 -23.519  1.00  0.00    -0.028 C 
HETATM   29  C1  UNL     1      -7.913  48.185 -23.542  1.00  0.00     0.036 C 
HETATM   30  C4  UNL     1      -5.735  50.374 -23.560  1.00  0.00     0.043 C 
ENDBRANCH   1  27
BRANCH   5  31
HETATM   31  O3  UNL     1      -2.561  52.967 -26.276  1.00  0.00    -0.393 OA
HETATM   32  H29 UNL     1      -3.071  52.847 -25.460  1.00  0.00     0.210 HD
ENDBRANCH   5  31
BRANCH   6  33
HETATM   33  O4  UNL     1       0.703  51.515 -25.347  1.00  0.00    -0.388 OA
HETATM   34  H33 UNL     1       1.140  51.860 -26.146  1.00  0.00     0.210 HD
ENDBRANCH   6  33
TORSDOF 10
ENDMDL
