MODEL 1
REMARK minimizedAffinity -10.6344147
REMARK  9 active torsions:
REMARK  status: ('A' for Active; 'I' for Inactive)
REMARK    1  A    between atoms: C2_2  and  C3_3 
REMARK    2  A    between atoms: C2_2  and  C27_31 
REMARK    3  A    between atoms: C3_3  and  C4_4 
REMARK    4  A    between atoms: C4_4  and  C5_5 
REMARK    5  A    between atoms: C5_5  and  C7_7 
REMARK    6  A    between atoms: C22_24  and  O3_26 
REMARK    7  A    between atoms: C26_29  and  O4_30 
REMARK    8  A    between atoms: C27_31  and  C29_33 
REMARK    9  A    between atoms: C29_33  and  O6_35 
ROOT
HETATM    1  C7  UNL     1      -1.221  50.371 -22.806  1.00  0.00    -0.002 C 
HETATM    2  C8  UNL     1      -0.657  51.782 -23.141  1.00  0.00     0.006 C 
HETATM    3  C9  UNL     1      -0.148  52.389 -21.828  1.00  0.00     0.010 C 
HETATM    4  C10 UNL     1      -0.120  51.207 -20.861  1.00  0.00     0.027 C 
HETATM    5  C11 UNL     1       0.058  51.386 -19.365  1.00  0.00    -0.036 C 
HETATM    6  C12 UNL     1      -0.346  50.423 -18.494  1.00  0.00     0.002 C 
HETATM    7  C13 UNL     1      -1.166  49.268 -19.039  1.00  0.00     0.157 C 
HETATM    8  O1  UNL     1      -1.736  48.480 -18.286  1.00  0.00    -0.293 OA
HETATM    9  C14 UNL     1      -1.293  49.077 -20.541  1.00  0.00     0.093 C 
HETATM   10  C15 UNL     1      -1.393  50.423 -21.255  1.00  0.00    -0.026 C 
HETATM   11  C16 UNL     1      -2.703  51.147 -20.853  1.00  0.00     0.016 C 
HETATM   12  C17 UNL     1      -0.031  50.471 -16.975  1.00  0.00    -0.006 C 
HETATM   13  C18 UNL     1      -1.305  51.016 -16.289  1.00  0.00     0.021 C 
HETATM   14  C19 UNL     1       0.329  49.076 -16.382  1.00  0.00     0.022 C 
HETATM   15  C20 UNL     1       0.754  49.106 -14.920  1.00  0.00     0.083 C 
HETATM   16  C21 UNL     1       1.901  50.055 -14.704  1.00  0.00     0.161 C 
HETATM   17  O2  UNL     1       2.867  49.723 -14.013  1.00  0.00    -0.295 OA
HETATM   18  C22 UNL     1       1.746  51.473 -15.285  1.00  0.00     0.119 C 
HETATM   19  C23 UNL     1       3.093  52.209 -15.181  1.00  0.00     0.055 C 
HETATM   20  C24 UNL     1       1.255  51.369 -16.756  1.00  0.00     0.043 C 
HETATM   21  C25 UNL     1       1.044  52.738 -17.408  1.00  0.00     0.045 C 
HETATM   22  C26 UNL     1       0.824  52.608 -18.915  1.00  0.00     0.148 C 
ENDROOT
BRANCH   1  23
HETATM   23  C5  UNL     1      -2.444  50.002 -23.698  1.00  0.00    -0.014 C 
HETATM   24  C6  UNL     1      -3.222  48.811 -23.126  1.00  0.00     0.010 C 
BRANCH  23  25
HETATM   25  C4  UNL     1      -1.997  49.671 -25.150  1.00  0.00     0.009 C 
BRANCH  25  26
HETATM   26  C3  UNL     1      -1.104  50.740 -25.809  1.00  0.00     0.034 C 
BRANCH  26  27
HETATM   27  C2  UNL     1      -1.490  51.206 -27.199  1.00  0.00    -0.075 C 
HETATM   28  C1  UNL     1      -2.713  50.931 -27.693  1.00  0.00     0.015 C 
BRANCH  27  29
HETATM   29  C27 UNL     1      -0.513  52.076 -27.988  1.00  0.00     0.107 C 
HETATM   30  C28 UNL     1       0.950  51.704 -27.747  1.00  0.00     0.026 C 
BRANCH  29  31
HETATM   31  C29 UNL     1      -0.750  53.564 -27.720  1.00  0.00     0.147 C 
HETATM   32  O5  UNL     1      -0.118  54.306 -26.984  1.00  0.00    -0.650 OA
BRANCH  31  33
HETATM   33  O6  UNL     1      -1.832  54.045 -28.370  1.00  0.00    -0.776 OA
HETATM   34  H42 UNL     1      -1.876  54.981 -28.082  1.00  0.00     0.167 HD
ENDBRANCH  31  33
ENDBRANCH  29  31
ENDBRANCH  27  29
ENDBRANCH  26  27
ENDBRANCH  25  26
ENDBRANCH  23  25
ENDBRANCH   1  23
BRANCH  22  35
HETATM   35  O4  UNL     1       0.144  53.785 -19.335  1.00  0.00    -0.391 OA
HETATM   36  H37 UNL     1      -0.752  53.752 -18.956  1.00  0.00     0.210 HD
ENDBRANCH  22  35
BRANCH  18  37
HETATM   37  O3  UNL     1       0.807  52.202 -14.500  1.00  0.00    -0.382 OA
HETATM   38  H32 UNL     1       1.186  52.302 -13.606  1.00  0.00     0.211 HD
ENDBRANCH  18  37
TORSDOF 9
ENDMDL
