MODEL 1
REMARK minimizedAffinity -7.82278013
REMARK CNNscore 0.517177045
REMARK CNNaffinity 6.64543152
REMARK  13 active torsions:
REMARK  status: ('A' for Active; 'I' for Inactive)
REMARK    1  A    between atoms: C2_2  and  C3_3 
REMARK    2  A    between atoms: C2_2  and  C9_9 
REMARK    3  A    between atoms: C3_3  and  C4_4 
REMARK    4  A    between atoms: C4_4  and  C5_5 
REMARK    5  A    between atoms: C18_18  and  O1_19 
REMARK    6  A    between atoms: C19_20  and  C21_22 
REMARK    7  A    between atoms: C21_22  and  O3_24 
REMARK    8  A    between atoms: C30_33  and  O4_34 
REMARK    9  A    between atoms: O4_34  and  C31_35 
REMARK   10  A    between atoms: C32_37  and  C33_38 
REMARK   11  A    between atoms: C33_38  and  O6_39 
REMARK   12  A    between atoms: C34_40  and  O7_41 
REMARK   13  A    between atoms: C35_42  and  O8_43 
ROOT
HETATM    1  C9  UNL     1      -5.950  47.524 -26.557  1.00  0.00     0.047 C 
HETATM    2  C10 UNL     1      -6.439  47.691 -28.011  1.00  0.00     0.005 C 
HETATM    3  C11 UNL     1      -5.560  47.138 -29.121  1.00  0.00     0.006 C 
HETATM    4  C12 UNL     1      -6.215  47.344 -30.500  1.00  0.00     0.006 C 
HETATM    5  C13 UNL     1      -7.682  46.832 -30.579  1.00  0.00     0.003 C 
HETATM    6  C14 UNL     1      -8.298  46.819 -32.038  1.00  0.00    -0.035 C 
HETATM    7  C15 UNL     1      -8.244  48.216 -32.715  1.00  0.00     0.016 C 
HETATM    8  C16 UNL     1      -7.410  45.897 -32.937  1.00  0.00     0.012 C 
HETATM    9  C17 UNL     1      -8.173  45.293 -34.100  1.00  0.00     0.034 C 
HETATM   10  C18 UNL     1      -9.277  44.341 -33.645  1.00  0.00     0.137 C 
HETATM   11  C19 UNL     1     -10.015  44.773 -32.323  1.00  0.00     0.072 C 
HETATM   12  C20 UNL     1     -11.528  44.446 -32.479  1.00  0.00     0.030 C 
HETATM   13  C22 UNL     1      -9.801  46.316 -32.048  1.00  0.00     0.015 C 
HETATM   14  C23 UNL     1     -10.626  46.908 -30.879  1.00  0.00     0.007 C 
HETATM   15  C24 UNL     1      -9.984  46.804 -29.497  1.00  0.00     0.011 C 
HETATM   16  C25 UNL     1      -8.573  47.427 -29.412  1.00  0.00    -0.032 C 
HETATM   17  C26 UNL     1      -8.745  48.969 -29.544  1.00  0.00     0.016 C 
HETATM   18  C27 UNL     1      -7.855  47.057 -28.022  1.00  0.00    -0.030 C 
HETATM   19  C28 UNL     1      -7.820  45.509 -27.779  1.00  0.00     0.016 C 
HETATM   20  C29 UNL     1      -8.425  47.690 -26.727  1.00  0.00     0.043 C 
HETATM   21  C30 UNL     1      -7.256  47.686 -25.711  1.00  0.00     0.134 C 
ENDROOT
BRANCH  21  22
HETATM   22  O4  UNL     1      -7.418  46.559 -24.848  1.00  0.00    -0.353 OA
BRANCH  22  23
HETATM   23  C31 UNL     1      -8.176  46.839 -23.682  1.00  0.00     0.292 C 
HETATM   24  O5  UNL     1      -8.212  45.675 -22.840  1.00  0.00    -0.348 OA
HETATM   25  C32 UNL     1      -6.904  45.585 -22.206  1.00  0.00     0.179 C 
HETATM   26  C34 UNL     1      -6.326  47.010 -22.212  1.00  0.00     0.182 C 
HETATM   27  C35 UNL     1      -7.448  47.853 -22.811  1.00  0.00     0.204 C 
BRANCH  25  28
HETATM   28  C33 UNL     1      -7.016  44.942 -20.823  1.00  0.00     0.198 C 
BRANCH  28  29
HETATM   29  O6  UNL     1      -8.036  43.939 -20.829  1.00  0.00    -0.398 OA
HETATM   30  H52 UNL     1      -8.093  43.587 -19.922  1.00  0.00     0.209 HD
ENDBRANCH  28  29
ENDBRANCH  25  28
BRANCH  26  31
HETATM   31  O7  UNL     1      -5.942  47.504 -20.929  1.00  0.00    -0.390 OA
HETATM   32  H54 UNL     1      -6.622  48.164 -20.680  1.00  0.00     0.210 HD
ENDBRANCH  26  31
BRANCH  27  33
HETATM   33  O8  UNL     1      -8.283  48.333 -21.739  1.00  0.00    -0.388 OA
HETATM   34  H56 UNL     1      -8.846  47.581 -21.460  1.00  0.00     0.210 HD
ENDBRANCH  27  33
ENDBRANCH  22  23
ENDBRANCH  21  22
BRANCH   1  35
HETATM   35  C2  UNL     1      -4.827  48.467 -26.144  1.00  0.00    -0.082 C 
HETATM   36  C1  UNL     1      -4.833  49.143 -24.980  1.00  0.00     0.015 C 
BRANCH  35  37
HETATM   37  C3  UNL     1      -3.650  48.584 -27.095  1.00  0.00     0.037 C 
BRANCH  37  38
HETATM   38  C4  UNL     1      -2.406  49.202 -26.447  1.00  0.00     0.031 C 
BRANCH  38  39
HETATM   39  C5  UNL     1      -2.090  50.546 -27.056  1.00  0.00    -0.024 C 
HETATM   40  C6  UNL     1      -0.919  51.210 -27.034  1.00  0.00    -0.091 C 
HETATM   41  C7  UNL     1       0.355  50.710 -26.407  1.00  0.00     0.042 C 
HETATM   42  C8  UNL     1      -0.796  52.565 -27.680  1.00  0.00     0.042 C 
ENDBRANCH  38  39
ENDBRANCH  37  38
ENDBRANCH  35  37
ENDBRANCH   1  35
BRANCH  11  43
HETATM   43  C21 UNL     1      -9.458  43.892 -31.199  1.00  0.00     0.151 C 
HETATM   44  O2  UNL     1      -9.948  43.717 -30.093  1.00  0.00    -0.649 OA
BRANCH  43  45
HETATM   45  O3  UNL     1      -8.304  43.262 -31.494  1.00  0.00    -0.776 OA
HETATM   46  H33 UNL     1      -8.088  42.761 -30.681  1.00  0.00     0.167 HD
ENDBRANCH  43  45
ENDBRANCH  11  43
BRANCH  10  47
HETATM   47  O1  UNL     1     -10.185  44.219 -34.749  1.00  0.00    -0.394 OA
HETATM   48  H29 UNL     1      -9.684  43.856 -35.501  1.00  0.00     0.210 HD
ENDBRANCH  10  47
TORSDOF 13
ENDMDL
