MODEL 1
REMARK minimizedAffinity -9.00798416
REMARK CNNscore 0.413073629
REMARK CNNaffinity 6.75506258
REMARK  11 active torsions:
REMARK  status: ('A' for Active; 'I' for Inactive)
REMARK    1  A    between atoms: C2_2  and  O2_4 
REMARK    2  A    between atoms: O2_4  and  C3_5 
REMARK    3  A    between atoms: C4_6  and  O3_7 
REMARK    4  A    between atoms: O3_7  and  C5_8 
REMARK    5  A    between atoms: C15_18  and  C16_19 
REMARK    6  A    between atoms: C20_23  and  C21_24 
REMARK    7  A    between atoms: C21_24  and  O4_27 
REMARK    8  A    between atoms: C24_29  and  O6_30 
REMARK    9  A    between atoms: C30_36  and  O7_37 
REMARK   10  A    between atoms: C36_44  and  O9_45 
REMARK   11  A    between atoms: C37_46  and  O10_47 
ROOT
HETATM    1  C5  UNL     1     -10.863  46.535 -19.525  1.00  0.00     0.133 C 
HETATM    2  C6  UNL     1     -10.404  45.668 -20.711  1.00  0.00     0.034 C 
HETATM    3  C7  UNL     1      -8.920  45.819 -21.066  1.00  0.00     0.013 C 
HETATM    4  C8  UNL     1      -8.365  47.145 -20.582  1.00  0.00    -0.025 A 
HETATM    5  C9  UNL     1      -8.709  48.334 -21.432  1.00  0.00     0.021 A 
HETATM    6  C10 UNL     1      -7.247  47.900 -21.359  1.00  0.00    -0.027 A 
HETATM    7  C11 UNL     1      -6.712  47.251 -22.646  1.00  0.00     0.011 C 
HETATM    8  C12 UNL     1      -5.360  47.689 -23.211  1.00  0.00     0.011 C 
HETATM    9  C13 UNL     1      -4.958  49.105 -22.810  1.00  0.00    -0.028 C 
HETATM   10  C14 UNL     1      -5.965  50.093 -23.450  1.00  0.00     0.016 C 
HETATM   11  C15 UNL     1      -3.469  49.539 -23.125  1.00  0.00     0.057 C 
HETATM   12  C24 UNL     1      -3.212  50.623 -22.022  1.00  0.00     0.126 C 
HETATM   13  C25 UNL     1      -4.310  50.475 -20.963  1.00  0.00     0.042 C 
HETATM   14  C26 UNL     1      -4.950  49.105 -21.232  1.00  0.00    -0.029 C 
HETATM   15  C27 UNL     1      -4.033  48.008 -20.598  1.00  0.00     0.016 C 
HETATM   16  C28 UNL     1      -6.388  48.968 -20.645  1.00  0.00     0.006 C 
HETATM   17  C29 UNL     1      -6.399  48.776 -19.116  1.00  0.00     0.038 C 
HETATM   18  C30 UNL     1      -7.785  48.544 -18.513  1.00  0.00     0.124 C 
HETATM   19  C31 UNL     1      -8.381  47.219 -19.040  1.00  0.00     0.034 C 
HETATM   20  C32 UNL     1      -9.772  46.742 -18.427  1.00  0.00    -0.015 C 
HETATM   21  C33 UNL     1     -10.339  47.691 -17.353  1.00  0.00     0.018 C 
HETATM   22  C34 UNL     1      -9.557  45.381 -17.706  1.00  0.00     0.018 C 
ENDROOT
BRANCH   1  23
HETATM   23  O3  UNL     1     -11.268  47.815 -20.047  1.00  0.00    -0.352 OA
BRANCH  23  24
HETATM   24  C4  UNL     1     -12.677  48.050 -19.959  1.00  0.00     0.292 C 
HETATM   25  C3  UNL     1     -13.399  47.073 -20.914  1.00  0.00     0.218 C 
HETATM   26  C37 UNL     1     -14.901  47.084 -20.612  1.00  0.00     0.183 C 
HETATM   27  C36 UNL     1     -15.184  46.836 -19.115  1.00  0.00     0.173 C 
HETATM   28  C35 UNL     1     -13.893  46.826 -18.290  1.00  0.00     0.205 C 
HETATM   29  O8  UNL     1     -13.102  47.971 -18.596  1.00  0.00    -0.356 OA
BRANCH  25  30
HETATM   30  O2  UNL     1     -13.205  47.529 -22.277  1.00  0.00    -0.309 OA
BRANCH  30  31
HETATM   31  C2  UNL     1     -13.094  46.571 -23.234  1.00  0.00     0.255 C 
HETATM   32  C1  UNL     1     -13.960  46.918 -24.404  1.00  0.00     0.126 C 
HETATM   33  O1  UNL     1     -12.390  45.572 -23.179  1.00  0.00    -0.266 OA
ENDBRANCH  30  31
ENDBRANCH  25  30
BRANCH  26  34
HETATM   34  O10 UNL     1     -15.554  46.061 -21.387  1.00  0.00    -0.390 OA
HETATM   35  H60 UNL     1     -16.505  46.208 -21.290  1.00  0.00     0.210 HD
ENDBRANCH  26  34
BRANCH  27  36
HETATM   36  O9  UNL     1     -16.074  47.880 -18.674  1.00  0.00    -0.391 OA
HETATM   37  H58 UNL     1     -15.935  48.005 -17.711  1.00  0.00     0.210 HD
ENDBRANCH  27  36
ENDBRANCH  23  24
ENDBRANCH   1  23
BRANCH  18  38
HETATM   38  O7  UNL     1      -7.600  48.492 -17.094  1.00  0.00    -0.395 OA
HETATM   39  H47 UNL     1      -6.976  47.777 -16.893  1.00  0.00     0.210 HD
ENDBRANCH  18  38
BRANCH  11  40
HETATM   40  C16 UNL     1      -2.965  49.899 -24.555  1.00  0.00     0.065 C 
HETATM   41  C17 UNL     1      -3.120  48.678 -25.506  1.00  0.00     0.046 C 
HETATM   42  C18 UNL     1      -3.728  51.074 -25.176  1.00  0.00     0.041 C 
HETATM   43  C19 UNL     1      -2.764  51.624 -26.204  1.00  0.00     0.038 C 
HETATM   44  C20 UNL     1      -1.381  51.175 -25.719  1.00  0.00     0.156 C 
HETATM   45  O5  UNL     1      -1.597  50.328 -24.564  1.00  0.00    -0.372 OA
BRANCH  44  46
HETATM   46  C21 UNL     1      -0.372  52.319 -25.401  1.00  0.00     0.076 C 
HETATM   47  C22 UNL     1       0.942  52.137 -26.168  1.00  0.00     0.048 C 
HETATM   48  C23 UNL     1      -0.083  52.367 -23.890  1.00  0.00     0.048 C 
BRANCH  46  49
HETATM   49  O4  UNL     1      -0.882  53.617 -25.749  1.00  0.00    -0.388 OA
HETATM   50  H35 UNL     1      -1.416  53.533 -26.554  1.00  0.00     0.210 HD
ENDBRANCH  46  49
ENDBRANCH  44  46
ENDBRANCH  11  40
BRANCH  12  51
HETATM   51  O6  UNL     1      -3.206  51.964 -22.482  1.00  0.00    -0.395 OA
HETATM   52  H37 UNL     1      -3.815  52.034 -23.243  1.00  0.00     0.210 HD
ENDBRANCH  12  51
TORSDOF 11
ENDMDL
