MODEL 1
REMARK minimizedAffinity -7.69723749
REMARK CNNscore 0.822674096
REMARK CNNaffinity 7.06393051
REMARK  15 active torsions:
REMARK  status: ('A' for Active; 'I' for Inactive)
REMARK    1  A    between atoms: O1_2  and  C2_3 
REMARK    2  A    between atoms: C3_4  and  O2_5 
REMARK    3  A    between atoms: C5_7  and  O3_8 
REMARK    4  A    between atoms: O3_8  and  C6_9 
REMARK    5  A    between atoms: C12_15  and  O4_16 
REMARK    6  A    between atoms: C13_17  and  O5_18 
REMARK    7  A    between atoms: C15_20  and  O6_21 
REMARK    8  A    between atoms: C21_27  and  C22_28 
REMARK    9  A    between atoms: C22_28  and  C24_30 
REMARK   10  A    between atoms: C25_31  and  C26_32 
REMARK   11  A    between atoms: C26_32  and  C28_34 
REMARK   12  A    between atoms: C28_34  and  C30_36 
REMARK   13  A    between atoms: C30_36  and  O7_37 
REMARK   14  A    between atoms: C32_39  and  O8_40 
REMARK   15  A    between atoms: C35_44  and  O10_45 
ROOT
HETATM    1  C6  UNL     1      -4.226  44.531 -18.981  1.00  0.00     0.154 C 
HETATM    2  C7  UNL     1      -4.388  44.997 -20.431  1.00  0.00     0.035 C 
HETATM    3  C8  UNL     1      -3.470  46.171 -20.797  1.00  0.00     0.012 C 
HETATM    4  C9  UNL     1      -3.591  47.381 -19.828  1.00  0.00    -0.029 C 
HETATM    5  C10 UNL     1      -5.004  47.986 -20.014  1.00  0.00     0.016 C 
HETATM    6  C11 UNL     1      -3.305  46.829 -18.391  1.00  0.00     0.054 C 
HETATM    7  C12 UNL     1      -4.251  45.699 -17.968  1.00  0.00     0.154 C 
HETATM    8  C13 UNL     1      -3.035  47.921 -17.323  1.00  0.00     0.128 C 
HETATM    9  C14 UNL     1      -3.138  49.382 -17.766  1.00  0.00     0.071 C 
HETATM   10  C15 UNL     1      -2.652  49.727 -19.192  1.00  0.00     0.071 C 
HETATM   11  C16 UNL     1      -2.466  48.443 -20.071  1.00  0.00     0.029 C 
HETATM   12  C17 UNL     1      -2.159  48.809 -21.536  1.00  0.00     0.009 C 
HETATM   13  C18 UNL     1      -0.881  49.674 -21.638  1.00  0.00     0.010 C 
HETATM   14  C19 UNL     1      -0.937  50.942 -20.759  1.00  0.00    -0.031 C 
HETATM   15  C20 UNL     1      -1.896  51.966 -21.423  1.00  0.00     0.016 C 
HETATM   16  C21 UNL     1       0.432  51.632 -20.449  1.00  0.00     0.004 C 
HETATM   17  C31 UNL     1       0.111  52.450 -19.161  1.00  0.00     0.038 C 
HETATM   18  C32 UNL     1      -1.096  51.777 -18.488  1.00  0.00     0.126 C 
HETATM   19  C33 UNL     1      -1.317  50.503 -19.298  1.00  0.00     0.058 C 
ENDROOT
BRANCH   1  20
HETATM   20  O3  UNL     1      -5.293  43.640 -18.599  1.00  0.00    -0.351 OA
BRANCH  20  21
HETATM   21  C5  UNL     1      -5.224  42.350 -19.216  1.00  0.00     0.291 C 
HETATM   22  C3  UNL     1      -4.152  41.496 -18.491  1.00  0.00     0.207 C 
HETATM   23  C2  UNL     1      -4.748  40.695 -17.305  1.00  0.00     0.185 C 
HETATM   24  C35 UNL     1      -6.037  41.350 -16.785  1.00  0.00     0.176 C 
HETATM   25  C34 UNL     1      -7.042  41.467 -17.938  1.00  0.00     0.205 C 
HETATM   26  O9  UNL     1      -6.487  41.698 -19.229  1.00  0.00    -0.356 OA
BRANCH  22  27
HETATM   27  O2  UNL     1      -3.557  40.527 -19.389  1.00  0.00    -0.383 OA
HETATM   28  C4  UNL     1      -4.344  39.354 -19.552  1.00  0.00     0.202 C 
ENDBRANCH  22  27
BRANCH  23  29
HETATM   29  O1  UNL     1      -3.783  40.637 -16.227  1.00  0.00    -0.385 OA
HETATM   30  C1  UNL     1      -2.604  39.922 -16.572  1.00  0.00     0.202 C 
ENDBRANCH  23  29
BRANCH  24  31
HETATM   31  O10 UNL     1      -6.683  40.566 -15.768  1.00  0.00    -0.386 OA
HETATM   32  C36 UNL     1      -5.782  39.846 -14.939  1.00  0.00     0.202 C 
ENDBRANCH  24  31
ENDBRANCH  20  21
ENDBRANCH   1  20
BRANCH   7  33
HETATM   33  O4  UNL     1      -5.579  46.198 -17.782  1.00  0.00    -0.393 OA
HETATM   34  H20 UNL     1      -6.159  45.413 -17.855  1.00  0.00     0.210 HD
ENDBRANCH   7  33
BRANCH   8  35
HETATM   35  O5  UNL     1      -3.855  47.749 -16.167  1.00  0.00    -0.395 OA
HETATM   36  H22 UNL     1      -4.773  47.615 -16.489  1.00  0.00     0.210 HD
ENDBRANCH   8  35
BRANCH  10  37
HETATM   37  O6  UNL     1      -3.684  50.545 -19.764  1.00  0.00    -0.389 OA
HETATM   38  H25 UNL     1      -3.906  51.249 -19.129  1.00  0.00     0.210 HD
ENDBRANCH  10  37
BRANCH  18  39
HETATM   39  O8  UNL     1      -0.782  51.473 -17.138  1.00  0.00    -0.395 OA
HETATM   40  H55 UNL     1      -0.541  52.304 -16.694  1.00  0.00     0.210 HD
ENDBRANCH  18  39
BRANCH  16  41
HETATM   41  C22 UNL     1       1.133  52.498 -21.534  1.00  0.00     0.009 C 
HETATM   42  C23 UNL     1       1.050  54.000 -21.244  1.00  0.00     0.014 C 
BRANCH  41  43
HETATM   43  C24 UNL     1       0.608  52.132 -22.917  1.00  0.00    -0.026 C 
HETATM   44  C25 UNL     1       0.690  52.855 -24.049  1.00  0.00    -0.026 C 
BRANCH  44  45
HETATM   45  C26 UNL     1       0.169  52.465 -25.427  1.00  0.00     0.009 C 
HETATM   46  C27 UNL     1       1.267  51.885 -26.334  1.00  0.00     0.014 C 
BRANCH  45  47
HETATM   47  C28 UNL     1      -1.080  51.533 -25.325  1.00  0.00     0.012 C 
HETATM   48  C29 UNL     1      -1.179  50.556 -26.508  1.00  0.00     0.012 C 
BRANCH  47  49
HETATM   49  C30 UNL     1      -2.382  52.354 -25.206  1.00  0.00     0.168 C 
BRANCH  49  50
HETATM   50  O7  UNL     1      -2.838  52.807 -26.477  1.00  0.00    -0.400 OA
HETATM   51  H51 UNL     1      -2.331  53.604 -26.706  1.00  0.00     0.209 HD
ENDBRANCH  49  50
ENDBRANCH  47  49
ENDBRANCH  45  47
ENDBRANCH  44  45
ENDBRANCH  41  43
ENDBRANCH  16  41
TORSDOF 15
ENDMDL
