MODEL 1
REMARK minimizedAffinity -7.42480946
REMARK CNNscore 0.573877454
REMARK CNNaffinity 6.17543459
REMARK  6 active torsions:
REMARK  status: ('A' for Active; 'I' for Inactive)
REMARK    1  A    between atoms: C3_3  and  O1_4 
REMARK    2  A    between atoms: N1_14  and  O2_16 
REMARK    3  A    between atoms: O2_16  and  C13_17 
REMARK    4  A    between atoms: C13_17  and  C14_18 
REMARK       I    between atoms: C14_18  and  N2_20 
REMARK    5  A    between atoms: N2_20  and  C15_21 
REMARK    6  A    between atoms: C15_21  and  C17_23 
ROOT
HETATM    1  C1  UNL     1      -4.449  11.394  16.244  1.00  0.00     0.015 C 
HETATM    2  C2  UNL     1      -4.464  12.551  16.564  1.00  0.00    -0.078 C 
HETATM    3  C3  UNL     1      -4.495  13.977  16.958  1.00  0.00     0.128 C 
HETATM    4  C4  UNL     1      -3.249  14.323  17.817  1.00  0.00     0.052 C 
HETATM    5  C5  UNL     1      -3.712  14.320  19.289  1.00  0.00     0.010 C 
HETATM    6  C6  UNL     1      -5.150  13.807  19.244  1.00  0.00     0.002 C 
HETATM    7  C7  UNL     1      -6.080  14.109  20.426  1.00  0.00    -0.004 C 
HETATM    8  C8  UNL     1      -5.497  13.582  21.742  1.00  0.00     0.010 C 
HETATM    9  C9  UNL     1      -6.431  13.888  22.907  1.00  0.00     0.035 C 
HETATM   10  C10 UNL     1      -7.817  13.333  22.688  1.00  0.00    -0.069 C 
HETATM   11  C11 UNL     1      -8.412  12.643  23.678  1.00  0.00     0.030 C 
HETATM   12  C12 UNL     1      -9.828  12.206  23.597  1.00  0.00     0.032 C 
HETATM   13  N1  UNL     1     -10.341  11.633  24.651  1.00  0.00    -0.271 N 
ATOM     14  H1  UNL     1      -9.820  11.443  25.508  1.00  0.00     0.194 HD
HETATM   15  C23 UNL     1     -10.604  12.528  22.339  1.00  0.00     0.060 C 
HETATM   16  C24 UNL     1      -9.682  12.667  21.133  1.00  0.00     0.020 C 
HETATM   17  C25 UNL     1      -8.492  13.647  21.348  1.00  0.00    -0.016 C 
HETATM   18  C26 UNL     1      -9.024  15.096  21.410  1.00  0.00     0.020 C 
HETATM   19  C27 UNL     1      -7.471  13.451  20.158  1.00  0.00     0.002 C 
HETATM   20  C28 UNL     1      -8.035  13.869  18.773  1.00  0.00     0.007 C 
HETATM   21  C29 UNL     1      -7.040  13.672  17.615  1.00  0.00     0.014 C 
HETATM   22  C30 UNL     1      -5.684  14.347  17.898  1.00  0.00     0.003 C 
HETATM   23  C31 UNL     1      -5.890  15.891  17.886  1.00  0.00     0.020 C 
ENDROOT
BRANCH   3  24
HETATM   24  O1  UNL     1      -4.501  14.760  15.771  1.00  0.00    -0.377 OA
HETATM   25  H2  UNL     1      -3.802  14.403  15.198  1.00  0.00     0.211 HD
ENDBRANCH   3  24
BRANCH  13  26
HETATM   26  O2  UNL     1     -11.694  11.308  24.467  1.00  0.00    -0.271 OA
BRANCH  26  27
HETATM   27  C13 UNL     1     -11.893   9.937  24.803  1.00  0.00     0.303 C 
BRANCH  27  28
HETATM   28  C14 UNL     1     -11.779   9.067  23.563  1.00  0.00     0.244 C 
HETATM   29  O3  UNL     1     -10.717   8.886  22.975  1.00  0.00    -0.271 OA
HETATM   30  N2  UNL     1     -12.986   8.563  23.123  1.00  0.00    -0.351 N 
HETATM   31  H16 UNL     1     -13.762   8.591  23.779  1.00  0.00     0.163 HD
BRANCH  30  32
HETATM   32  C15 UNL     1     -13.082   7.672  21.979  1.00  0.00     0.113 C 
HETATM   33  C16 UNL     1     -14.029   8.222  20.907  1.00  0.00     0.037 C 
BRANCH  32  34
HETATM   34  C17 UNL     1     -13.521   6.286  22.425  1.00  0.00    -0.036 A 
HETATM   35  C18 UNL     1     -14.067   5.361  21.519  1.00  0.00     0.009 A 
HETATM   36  C19 UNL     1     -14.445   4.084  21.942  1.00  0.00     0.001 A 
HETATM   37  C20 UNL     1     -14.277   3.712  23.275  1.00  0.00     0.000 A 
HETATM   38  C21 UNL     1     -13.744   4.621  24.187  1.00  0.00     0.001 A 
HETATM   39  C22 UNL     1     -13.374   5.900  23.767  1.00  0.00     0.009 A 
ENDBRANCH  32  34
ENDBRANCH  30  32
ENDBRANCH  27  28
ENDBRANCH  26  27
ENDBRANCH  13  26
TORSDOF 6
ENDMDL
