MODEL 1
REMARK minimizedAffinity -8.19198704
REMARK CNNscore 0.46485427
REMARK CNNaffinity 6.91261625
REMARK  15 active torsions:
REMARK  status: ('A' for Active; 'I' for Inactive)
REMARK    1  A    between atoms: O1_2  and  C2_3 
REMARK    2  A    between atoms: C3_4  and  O2_5 
REMARK    3  A    between atoms: C5_7  and  O3_8 
REMARK    4  A    between atoms: O3_8  and  C6_9 
REMARK    5  A    between atoms: C12_15  and  O4_16 
REMARK    6  A    between atoms: C13_17  and  O5_18 
REMARK    7  A    between atoms: C15_20  and  O6_21 
REMARK    8  A    between atoms: C21_27  and  C22_28 
REMARK    9  A    between atoms: C22_28  and  C24_30 
REMARK   10  A    between atoms: C25_31  and  C26_32 
REMARK   11  A    between atoms: C26_32  and  C28_34 
REMARK   12  A    between atoms: C28_34  and  C30_36 
REMARK   13  A    between atoms: C30_36  and  O7_37 
REMARK   14  A    between atoms: C32_39  and  O8_40 
REMARK   15  A    between atoms: C35_44  and  O10_45 
ROOT
HETATM    1  C6  UNL     1     -12.674  11.045  14.010  1.00  0.00     0.154 C 
HETATM    2  C7  UNL     1     -11.583  11.553  14.954  1.00  0.00     0.035 C 
HETATM    3  C8  UNL     1     -10.263  10.784  14.793  1.00  0.00     0.012 C 
HETATM    4  C9  UNL     1     -10.419   9.236  14.960  1.00  0.00    -0.029 C 
HETATM    5  C10 UNL     1     -10.770   9.009  16.451  1.00  0.00     0.016 C 
HETATM    6  C11 UNL     1     -11.508   8.791  13.923  1.00  0.00     0.054 C 
HETATM    7  C12 UNL     1     -12.862   9.510  14.093  1.00  0.00     0.154 C 
HETATM    8  C13 UNL     1     -11.680   7.267  13.784  1.00  0.00     0.128 C 
HETATM    9  C14 UNL     1     -10.360   6.590  13.413  1.00  0.00     0.071 C 
HETATM   10  C15 UNL     1      -9.210   6.943  14.377  1.00  0.00     0.071 C 
HETATM   11  C16 UNL     1      -9.081   8.500  14.546  1.00  0.00     0.029 C 
HETATM   12  C17 UNL     1      -7.848   8.877  15.402  1.00  0.00     0.009 C 
HETATM   13  C18 UNL     1      -6.540   8.256  14.874  1.00  0.00     0.010 C 
HETATM   14  C19 UNL     1      -6.625   6.727  14.740  1.00  0.00    -0.031 C 
HETATM   15  C20 UNL     1      -6.652   6.089  16.149  1.00  0.00     0.016 C 
HETATM   16  C21 UNL     1      -5.523   6.051  13.862  1.00  0.00     0.004 C 
HETATM   17  C31 UNL     1      -6.196   4.716  13.436  1.00  0.00     0.038 C 
HETATM   18  C32 UNL     1      -7.715   4.930  13.544  1.00  0.00     0.126 C 
HETATM   19  C33 UNL     1      -7.859   6.419  13.844  1.00  0.00     0.058 C 
ENDROOT
BRANCH   1  20
HETATM   20  O3  UNL     1     -13.876  11.759  14.316  1.00  0.00    -0.351 OA
BRANCH  20  21
HETATM   21  C5  UNL     1     -13.829  12.488  15.542  1.00  0.00     0.291 C 
HETATM   22  C3  UNL     1     -14.414  13.917  15.414  1.00  0.00     0.207 C 
HETATM   23  C2  UNL     1     -15.962  13.912  15.375  1.00  0.00     0.185 C 
HETATM   24  C35 UNL     1     -16.571  12.970  16.426  1.00  0.00     0.176 C 
HETATM   25  C34 UNL     1     -15.878  11.604  16.364  1.00  0.00     0.205 C 
HETATM   26  O9  UNL     1     -14.468  11.718  16.569  1.00  0.00    -0.356 OA
BRANCH  22  27
HETATM   27  O2  UNL     1     -13.891  14.702  16.508  1.00  0.00    -0.383 OA
HETATM   28  C4  UNL     1     -12.473  14.675  16.599  1.00  0.00     0.202 C 
ENDBRANCH  22  27
BRANCH  23  29
HETATM   29  O1  UNL     1     -16.460  13.506  14.082  1.00  0.00    -0.385 OA
HETATM   30  C1  UNL     1     -17.865  13.687  13.949  1.00  0.00     0.202 C 
ENDBRANCH  23  29
BRANCH  24  31
HETATM   31  O10 UNL     1     -16.439  13.583  17.718  1.00  0.00    -0.386 OA
HETATM   32  C36 UNL     1     -17.217  12.961  18.734  1.00  0.00     0.202 C 
ENDBRANCH  24  31
ENDBRANCH  20  21
ENDBRANCH   1  20
BRANCH   7  33
HETATM   33  O4  UNL     1     -13.518   9.125  15.302  1.00  0.00    -0.393 OA
HETATM   34  H20 UNL     1     -13.295   8.183  15.466  1.00  0.00     0.210 HD
ENDBRANCH   7  33
BRANCH   8  35
HETATM   35  O5  UNL     1     -12.206   6.705  14.987  1.00  0.00    -0.395 OA
HETATM   36  H22 UNL     1     -12.380   5.757  14.799  1.00  0.00     0.210 HD
ENDBRANCH   8  35
BRANCH  10  37
HETATM   37  O6  UNL     1      -9.485   6.291  15.613  1.00  0.00    -0.389 OA
HETATM   38  H25 UNL     1     -10.428   6.429  15.817  1.00  0.00     0.210 HD
ENDBRANCH  10  37
BRANCH  18  39
HETATM   39  O8  UNL     1      -8.346   4.598  12.312  1.00  0.00    -0.395 OA
HETATM   40  H55 UNL     1      -8.158   3.657  12.150  1.00  0.00     0.210 HD
ENDBRANCH  18  39
BRANCH  16  41
HETATM   41  C22 UNL     1      -4.103   5.830  14.447  1.00  0.00     0.009 C 
HETATM   42  C23 UNL     1      -3.684   6.913  15.448  1.00  0.00     0.014 C 
BRANCH  41  43
HETATM   43  C24 UNL     1      -3.086   5.663  13.324  1.00  0.00    -0.026 C 
HETATM   44  C25 UNL     1      -2.700   4.514  12.742  1.00  0.00    -0.026 C 
BRANCH  44  45
HETATM   45  C26 UNL     1      -1.670   4.355  11.631  1.00  0.00     0.009 C 
HETATM   46  C27 UNL     1      -0.243   4.117  12.139  1.00  0.00     0.014 C 
BRANCH  45  47
HETATM   47  C28 UNL     1      -2.167   3.310  10.586  1.00  0.00     0.012 C 
HETATM   48  C29 UNL     1      -3.621   3.526  10.147  1.00  0.00     0.012 C 
BRANCH  47  49
HETATM   49  C30 UNL     1      -1.940   1.854  11.035  1.00  0.00     0.168 C 
BRANCH  49  50
HETATM   50  O7  UNL     1      -3.135   1.213  11.452  1.00  0.00    -0.400 OA
HETATM   51  H51 UNL     1      -3.697   1.076  10.665  1.00  0.00     0.209 HD
ENDBRANCH  49  50
ENDBRANCH  47  49
ENDBRANCH  45  47
ENDBRANCH  44  45
ENDBRANCH  41  43
ENDBRANCH  16  41
TORSDOF 15
ENDMDL
