MODEL 1
REMARK minimizedAffinity -7.74812841
REMARK CNNscore 0.401461393
REMARK CNNaffinity 5.50629807
REMARK  10 active torsions:
REMARK  status: ('A' for Active; 'I' for Inactive)
REMARK    1  A    between atoms: C3_3  and  O1_4 
REMARK    2  A    between atoms: N1_14  and  O2_16 
REMARK    3  A    between atoms: O2_16  and  C13_17 
REMARK    4  A    between atoms: C13_17  and  C14_18 
REMARK       I    between atoms: C14_18  and  N2_20 
REMARK    5  A    between atoms: N2_20  and  C15_21 
REMARK    6  A    between atoms: C15_21  and  C16_22 
REMARK    7  A    between atoms: C15_21  and  C19_29 
REMARK       I    between atoms: C16_22  and  N3_24 
REMARK    8  A    between atoms: N3_24  and  C17_25 
REMARK    9  A    between atoms: C17_25  and  C18_26 
REMARK   10  A    between atoms: C18_26  and  O6_28 
ROOT
HETATM    1  C1  UNL     1      -6.147  48.059 -24.796  1.00  0.00     0.015 C 
HETATM    2  C2  UNL     1      -6.855  47.747 -25.716  1.00  0.00    -0.078 C 
HETATM    3  C3  UNL     1      -7.728  47.418 -26.856  1.00  0.00     0.128 C 
HETATM    4  C4  UNL     1      -6.933  46.862 -28.042  1.00  0.00     0.052 C 
HETATM    5  C5  UNL     1      -8.030  46.275 -28.927  1.00  0.00     0.010 C 
HETATM    6  C6  UNL     1      -8.925  45.532 -27.931  1.00  0.00     0.002 C 
HETATM    7  C7  UNL     1     -10.355  45.184 -28.418  1.00  0.00    -0.004 C 
HETATM    8  C8  UNL     1     -11.074  46.247 -29.266  1.00  0.00     0.010 C 
HETATM    9  C9  UNL     1     -12.455  45.778 -29.725  1.00  0.00     0.035 C 
HETATM   10  C10 UNL     1     -13.318  45.215 -28.615  1.00  0.00    -0.069 C 
HETATM   11  C11 UNL     1     -14.613  45.568 -28.529  1.00  0.00     0.030 C 
HETATM   12  C12 UNL     1     -15.539  44.932 -27.554  1.00  0.00     0.032 C 
HETATM   13  N1  UNL     1     -16.763  45.373 -27.494  1.00  0.00    -0.271 N 
ATOM     14  H1  UNL     1     -17.140  46.120 -28.077  1.00  0.00     0.194 HD
HETATM   15  C22 UNL     1     -15.015  43.750 -26.757  1.00  0.00     0.060 C 
HETATM   16  C23 UNL     1     -13.544  43.945 -26.421  1.00  0.00     0.020 C 
HETATM   17  C24 UNL     1     -12.653  44.218 -27.670  1.00  0.00    -0.016 C 
HETATM   18  C25 UNL     1     -12.484  42.875 -28.427  1.00  0.00     0.020 C 
HETATM   19  C26 UNL     1     -11.240  44.756 -27.222  1.00  0.00     0.002 C 
HETATM   20  C27 UNL     1     -11.319  45.886 -26.161  1.00  0.00     0.007 C 
HETATM   21  C28 UNL     1     -10.162  46.889 -26.147  1.00  0.00     0.014 C 
HETATM   22  C29 UNL     1      -8.807  46.305 -26.574  1.00  0.00     0.003 C 
HETATM   23  C30 UNL     1      -8.329  45.305 -25.485  1.00  0.00     0.020 C 
ENDROOT
BRANCH   3  24
HETATM   24  O1  UNL     1      -8.351  48.625 -27.309  1.00  0.00    -0.377 OA
HETATM   25  H2  UNL     1      -7.747  49.354 -27.094  1.00  0.00     0.211 HD
ENDBRANCH   3  24
BRANCH  13  26
HETATM   26  O2  UNL     1     -17.491  44.680 -26.517  1.00  0.00    -0.271 OA
BRANCH  26  27
HETATM   27  C13 UNL     1     -18.814  45.199 -26.452  1.00  0.00     0.303 C 
BRANCH  27  28
HETATM   28  C14 UNL     1     -18.964  45.876 -25.095  1.00  0.00     0.244 C 
HETATM   29  O3  UNL     1     -19.357  47.031 -24.958  1.00  0.00    -0.271 OA
HETATM   30  N2  UNL     1     -18.669  45.079 -24.006  1.00  0.00    -0.346 N 
HETATM   31  H16 UNL     1     -18.695  44.076 -24.139  1.00  0.00     0.163 HD
BRANCH  30  32
HETATM   32  C15 UNL     1     -18.847  45.569 -22.629  1.00  0.00     0.180 C 
BRANCH  32  33
HETATM   33  C16 UNL     1     -19.508  44.437 -21.788  1.00  0.00     0.241 C 
HETATM   34  O4  UNL     1     -19.998  44.611 -20.675  1.00  0.00    -0.271 OA
HETATM   35  N3  UNL     1     -19.546  43.218 -22.433  1.00  0.00    -0.349 N 
HETATM   36  H18 UNL     1     -19.376  43.235 -23.441  1.00  0.00     0.163 HD
BRANCH  35  37
HETATM   37  C17 UNL     1     -20.301  42.094 -21.915  1.00  0.00     0.232 C 
BRANCH  37  38
HETATM   38  C18 UNL     1     -21.793  42.181 -22.222  1.00  0.00     0.158 C 
HETATM   39  O5  UNL     1     -22.332  41.797 -23.253  1.00  0.00    -0.649 OA
BRANCH  38  40
HETATM   40  O6  UNL     1     -22.525  42.813 -21.275  1.00  0.00    -0.775 OA
HETATM   41  H21 UNL     1     -23.433  42.817 -21.649  1.00  0.00     0.167 HD
ENDBRANCH  38  40
ENDBRANCH  37  38
ENDBRANCH  35  37
ENDBRANCH  32  33
BRANCH  32  42
HETATM   42  C19 UNL     1     -17.505  46.059 -22.031  1.00  0.00     0.009 C 
HETATM   43  C20 UNL     1     -16.508  44.901 -21.877  1.00  0.00     0.012 C 
HETATM   44  C21 UNL     1     -17.699  46.710 -20.653  1.00  0.00     0.012 C 
ENDBRANCH  32  42
ENDBRANCH  30  32
ENDBRANCH  27  28
ENDBRANCH  26  27
ENDBRANCH  13  26
TORSDOF 10
ENDMDL
