MODEL 1
REMARK minimizedAffinity -5.81304216
REMARK CNNscore 0.655754209
REMARK CNNaffinity 6.44872427
REMARK  12 active torsions:
REMARK  status: ('A' for Active; 'I' for Inactive)
REMARK    1  A    between atoms: C2_2  and  C3_3 
REMARK    2  A    between atoms: C2_2  and  C32_39 
REMARK    3  A    between atoms: C3_3  and  C4_5 
REMARK    4  A    between atoms: C4_5  and  O2_6 
REMARK    5  A    between atoms: C4_5  and  C7_10 
REMARK    6  A    between atoms: O2_6  and  C5_7 
REMARK    7  A    between atoms: C7_10  and  C9_12 
REMARK    8  A    between atoms: C10_13  and  O4_14 
REMARK    9  A    between atoms: O4_14  and  C11_15 
REMARK   10  A    between atoms: C24_30  and  O7_31 
REMARK   11  A    between atoms: C32_39  and  C34_41 
REMARK   12  A    between atoms: C34_41  and  O8_42 
ROOT
HETATM    1  C9  UNL     1     -16.333  -2.337  13.475  1.00  0.00     0.031 C 
HETATM    2  C10 UNL     1     -15.691  -2.378  12.052  1.00  0.00     0.138 C 
HETATM    3  C13 UNL     1     -16.633  -3.191  11.154  1.00  0.00     0.043 C 
HETATM    4  C14 UNL     1     -17.936  -3.416  11.950  1.00  0.00    -0.030 C 
HETATM    5  C15 UNL     1     -18.543  -4.756  11.475  1.00  0.00     0.016 C 
HETATM    6  C16 UNL     1     -18.900  -2.158  11.691  1.00  0.00     0.004 C 
HETATM    7  C17 UNL     1     -20.210  -2.515  10.867  1.00  0.00     0.007 C 
HETATM    8  C18 UNL     1     -21.409  -1.514  10.893  1.00  0.00     0.007 C 
HETATM    9  C19 UNL     1     -21.530  -0.663  12.193  1.00  0.00     0.008 C 
HETATM   10  C20 UNL     1     -22.517   0.514  12.117  1.00  0.00     0.056 C 
HETATM   11  C21 UNL     1     -23.904   0.095  11.637  1.00  0.00     0.018 C 
HETATM   12  C22 UNL     1     -21.951   1.656  11.283  1.00  0.00     0.133 C 
HETATM   13  O6  UNL     1     -22.620   2.270  10.451  1.00  0.00    -0.297 OA
HETATM   14  C23 UNL     1     -20.552   2.108  11.628  1.00  0.00     0.111 C 
HETATM   15  C24 UNL     1     -19.608   0.914  11.601  1.00  0.00     0.134 C 
HETATM   16  C25 UNL     1     -20.132  -0.210  12.527  1.00  0.00    -0.001 A 
HETATM   17  C26 UNL     1     -19.294  -0.240  13.756  1.00  0.00     0.024 A 
HETATM   18  C27 UNL     1     -19.388  -1.529  12.980  1.00  0.00    -0.025 A 
HETATM   19  C28 UNL     1     -19.839  -2.624  13.923  1.00  0.00     0.011 C 
HETATM   20  C29 UNL     1     -18.600  -3.356  14.449  1.00  0.00     0.011 C 
HETATM   21  C30 UNL     1     -17.407  -3.500  13.447  1.00  0.00    -0.030 C 
HETATM   22  C31 UNL     1     -16.697  -4.840  13.773  1.00  0.00     0.016 C 
ENDROOT
BRANCH   1  23
HETATM   23  C7  UNL     1     -15.284  -2.247  14.645  1.00  0.00     0.026 C 
HETATM   24  C8  UNL     1     -14.974  -3.631  15.237  1.00  0.00     0.013 C 
BRANCH  23  25
HETATM   25  C4  UNL     1     -15.770  -1.288  15.777  1.00  0.00     0.210 C 
BRANCH  25  26
HETATM   26  C3  UNL     1     -15.150   0.129  15.679  1.00  0.00     0.184 C 
HETATM   27  O1  UNL     1     -14.100   0.431  16.251  1.00  0.00    -0.290 OA
BRANCH  26  28
HETATM   28  C2  UNL     1     -15.843   1.164  14.840  1.00  0.00    -0.013 C 
HETATM   29  C1  UNL     1     -15.755   0.976  13.512  1.00  0.00     0.023 C 
BRANCH  28  30
HETATM   30  C32 UNL     1     -16.517   2.321  15.549  1.00  0.00     0.041 C 
HETATM   31  C33 UNL     1     -17.653   1.905  16.493  1.00  0.00     0.017 C 
BRANCH  30  32
HETATM   32  C34 UNL     1     -17.015   3.373  14.538  1.00  0.00     0.173 C 
BRANCH  32  33
HETATM   33  O8  UNL     1     -18.405   3.222  14.272  1.00  0.00    -0.400 OA
HETATM   34  H50 UNL     1     -18.503   2.450  13.683  1.00  0.00     0.209 HD
ENDBRANCH  32  33
ENDBRANCH  30  32
ENDBRANCH  28  30
ENDBRANCH  26  28
ENDBRANCH  25  26
BRANCH  25  35
HETATM   35  O2  UNL     1     -15.453  -1.874  17.052  1.00  0.00    -0.308 OA
BRANCH  35  36
HETATM   36  C5  UNL     1     -16.500  -1.918  17.925  1.00  0.00     0.255 C 
HETATM   37  C6  UNL     1     -17.761  -1.498  17.235  1.00  0.00     0.126 C 
HETATM   38  O3  UNL     1     -16.422  -2.227  19.106  1.00  0.00    -0.266 OA
ENDBRANCH  35  36
ENDBRANCH  25  35
ENDBRANCH  23  25
ENDBRANCH   1  23
BRANCH   2  39
HETATM   39  O4  UNL     1     -14.406  -3.030  12.059  1.00  0.00    -0.316 OA
BRANCH  39  40
HETATM   40  C11 UNL     1     -14.125  -3.743  10.927  1.00  0.00     0.255 C 
HETATM   41  C12 UNL     1     -13.772  -2.828   9.796  1.00  0.00     0.126 C 
HETATM   42  O5  UNL     1     -14.106  -4.963  10.846  1.00  0.00    -0.266 OA
ENDBRANCH  39  40
ENDBRANCH   2  39
BRANCH  15  43
HETATM   43  O7  UNL     1     -19.433   0.466  10.263  1.00  0.00    -0.394 OA
HETATM   44  H34 UNL     1     -19.078   1.204   9.737  1.00  0.00     0.210 HD
ENDBRANCH  15  43
TORSDOF 12
ENDMDL
