MODEL 1
REMARK minimizedAffinity -9.31791687
REMARK  9 active torsions:
REMARK  status: ('A' for Active; 'I' for Inactive)
REMARK    1  A    between atoms: C12_14  and  C13_15 
REMARK    2  A    between atoms: C13_15  and  C15_17 
REMARK    3  A    between atoms: C15_17  and  C16_18 
REMARK    4  A    between atoms: C16_18  and  C17_19 
REMARK    5  A    between atoms: C18_20  and  C20_22 
REMARK    6  A    between atoms: C26_29  and  C27_30 
REMARK    7  A    between atoms: C27_30  and  C28_31 
REMARK    8  A    between atoms: C28_31  and  C29_32 
REMARK    9  A    between atoms: C29_32  and  O5_34 
ROOT
HETATM    1  C1  UNL     1       0.767  51.726 -17.123  1.00  0.00     0.025 C 
HETATM    2  C2  UNL     1      -0.283  51.233 -17.790  1.00  0.00     0.015 C 
HETATM    3  C3  UNL     1      -0.859  49.899 -17.500  1.00  0.00     0.289 C 
HETATM    4  O1  UNL     1      -0.339  49.009 -16.854  1.00  0.00    -0.260 OA
HETATM    5  O2  UNL     1      -2.085  49.846 -18.093  1.00  0.00    -0.311 OA
HETATM    6  C4  UNL     1      -2.436  51.161 -18.539  1.00  0.00     0.142 C 
HETATM    7  C5  UNL     1      -3.398  51.121 -19.715  1.00  0.00     0.039 C 
HETATM    8  C6  UNL     1      -2.787  50.407 -20.926  1.00  0.00     0.006 C 
HETATM    9  C7  UNL     1      -1.472  51.103 -21.362  1.00  0.00    -0.027 A 
HETATM   10  C8  UNL     1      -1.437  51.648 -22.795  1.00  0.00     0.011 C 
HETATM   11  C9  UNL     1      -2.103  50.794 -23.891  1.00  0.00     0.011 C 
HETATM   12  C10 UNL     1      -3.015  49.674 -23.368  1.00  0.00    -0.032 C 
HETATM   13  C11 UNL     1      -2.123  48.435 -23.076  1.00  0.00     0.016 C 
HETATM   14  C12 UNL     1      -4.199  49.256 -24.300  1.00  0.00    -0.002 C 
HETATM   15  C21 UNL     1      -5.263  48.698 -23.314  1.00  0.00     0.006 C 
HETATM   16  C22 UNL     1      -4.826  49.106 -21.896  1.00  0.00     0.011 C 
HETATM   17  C23 UNL     1      -3.783  50.221 -22.108  1.00  0.00    -0.032 C 
HETATM   18  C24 UNL     1      -4.593  51.535 -22.356  1.00  0.00     0.016 C 
HETATM   19  C25 UNL     1      -0.201  50.466 -20.847  1.00  0.00     0.022 A 
HETATM   20  C26 UNL     1      -0.599  51.811 -20.271  1.00  0.00    -0.021 A 
HETATM   21  C30 UNL     1      -1.132  51.891 -18.822  1.00  0.00     0.063 C 
ENDROOT
BRANCH  14  22
HETATM   22  C13 UNL     1      -4.014  48.393 -25.585  1.00  0.00    -0.014 C 
HETATM   23  C14 UNL     1      -2.979  48.880 -26.607  1.00  0.00     0.010 C 
BRANCH  22  24
HETATM   24  C15 UNL     1      -5.371  48.100 -26.264  1.00  0.00     0.008 C 
BRANCH  24  25
HETATM   25  C16 UNL     1      -5.339  48.268 -27.787  1.00  0.00     0.028 C 
BRANCH  25  26
HETATM   26  C17 UNL     1      -6.214  47.247 -28.466  1.00  0.00    -0.017 C 
HETATM   27  C18 UNL     1      -6.150  46.815 -29.740  1.00  0.00    -0.028 C 
HETATM   28  C19 UNL     1      -7.062  45.755 -30.279  1.00  0.00     0.051 C 
BRANCH  27  29
HETATM   29  C20 UNL     1      -5.185  47.363 -30.741  1.00  0.00     0.265 C 
HETATM   30  O3  UNL     1      -4.398  46.686 -31.389  1.00  0.00    -0.302 OA
ENDBRANCH  27  29
ENDBRANCH  25  26
ENDBRANCH  24  25
ENDBRANCH  22  24
ENDBRANCH  14  22
BRANCH  20  31
HETATM   31  C27 UNL     1       0.206  53.072 -20.649  1.00  0.00     0.021 C 
BRANCH  31  32
HETATM   32  C28 UNL     1       1.351  52.908 -21.642  1.00  0.00     0.111 C 
BRANCH  32  33
HETATM   33  C29 UNL     1       1.473  54.052 -22.606  1.00  0.00     0.139 C 
HETATM   34  O4  UNL     1       1.182  54.033 -23.789  1.00  0.00    -0.650 OA
BRANCH  33  35
HETATM   35  O5  UNL     1       1.909  55.188 -22.027  1.00  0.00    -0.776 OA
HETATM   36  H41 UNL     1       1.899  55.832 -22.767  1.00  0.00     0.167 HD
ENDBRANCH  33  35
ENDBRANCH  32  33
ENDBRANCH  31  32
ENDBRANCH  20  31
TORSDOF 9
ENDMDL
