MODEL 1
REMARK minimizedAffinity -7.84666729
REMARK CNNscore 0.70522666
REMARK CNNaffinity 7.65164757
REMARK  13 active torsions:
REMARK  status: ('A' for Active; 'I' for Inactive)
REMARK    1  A    between atoms: C2_2  and  C3_3 
REMARK    2  A    between atoms: C2_2  and  C11_12 
REMARK    3  A    between atoms: C3_3  and  C4_4 
REMARK    4  A    between atoms: C4_4  and  C5_5 
REMARK    5  A    between atoms: C5_5  and  O1_7 
REMARK    6  A    between atoms: C5_5  and  C7_8 
REMARK    7  A    between atoms: C28_32  and  O5_33 
REMARK    8  A    between atoms: O5_33  and  C29_34 
REMARK    9  A    between atoms: C30_36  and  C31_37 
REMARK   10  A    between atoms: C31_37  and  O7_38 
REMARK   11  A    between atoms: C32_39  and  O8_40 
REMARK   12  A    between atoms: C33_41  and  O9_42 
REMARK   13  A    between atoms: C34_43  and  O10_44 
ROOT
HETATM    1  C11 UNL     1      -1.959  52.497 -10.300  1.00  0.00    -0.001 C 
HETATM    2  C12 UNL     1      -1.515  51.061  -9.899  1.00  0.00     0.007 C 
HETATM    3  C13 UNL     1      -0.058  51.141  -9.429  1.00  0.00     0.024 C 
HETATM    4  C14 UNL     1       0.285  52.619  -9.456  1.00  0.00     0.092 C 
HETATM    5  C15 UNL     1       0.007  53.323  -8.086  1.00  0.00     0.272 C 
HETATM    6  O2  UNL     1      -0.863  53.059  -7.275  1.00  0.00    -0.264 OA
HETATM    7  O3  UNL     1       0.915  54.363  -7.932  1.00  0.00    -0.305 OA
HETATM    8  C16 UNL     1       1.686  54.476  -9.145  1.00  0.00     0.113 C 
HETATM    9  C17 UNL     1       0.789  55.301 -10.144  1.00  0.00     0.043 C 
HETATM   10  C18 UNL     1      -0.626  54.743 -10.402  1.00  0.00     0.014 C 
HETATM   11  C19 UNL     1      -0.603  53.213 -10.581  1.00  0.00    -0.020 C 
HETATM   12  C20 UNL     1      -0.053  52.863 -11.990  1.00  0.00     0.017 C 
HETATM   13  C21 UNL     1       1.721  53.032  -9.599  1.00  0.00     0.137 A 
HETATM   14  O4  UNL     1       2.444  52.092  -8.739  1.00  0.00    -0.364 OA
HETATM   15  C22 UNL     1       3.035  52.362  -9.988  1.00  0.00     0.162 A 
HETATM   16  C23 UNL     1       4.350  53.061  -9.776  1.00  0.00     0.041 C 
HETATM   17  C24 UNL     1       4.245  54.098  -8.611  1.00  0.00     0.009 C 
HETATM   18  C25 UNL     1       5.637  54.634  -8.082  1.00  0.00    -0.017 C 
HETATM   19  C26 UNL     1       6.596  55.162  -9.174  1.00  0.00     0.018 C 
HETATM   20  C27 UNL     1       6.393  53.452  -7.406  1.00  0.00     0.018 C 
HETATM   21  C28 UNL     1       5.398  55.711  -6.967  1.00  0.00     0.133 C 
HETATM   22  C35 UNL     1       4.386  56.781  -7.383  1.00  0.00     0.034 C 
HETATM   23  C36 UNL     1       3.044  56.170  -7.762  1.00  0.00     0.015 C 
HETATM   24  C37 UNL     1       3.128  55.167  -8.941  1.00  0.00    -0.004 C 
HETATM   25  C38 UNL     1       3.522  55.954 -10.225  1.00  0.00     0.019 C 
ENDROOT
BRANCH  21  26
HETATM   26  O5  UNL     1       6.657  56.316  -6.618  1.00  0.00    -0.352 OA
BRANCH  26  27
HETATM   27  C29 UNL     1       6.548  57.369  -5.660  1.00  0.00     0.292 C 
HETATM   28  O6  UNL     1       7.788  58.037  -5.413  1.00  0.00    -0.348 OA
HETATM   29  C30 UNL     1       8.816  57.259  -4.774  1.00  0.00     0.179 C 
HETATM   30  C32 UNL     1       8.329  56.560  -3.486  1.00  0.00     0.180 C 
HETATM   31  C33 UNL     1       6.966  55.874  -3.667  1.00  0.00     0.183 C 
HETATM   32  C34 UNL     1       5.964  56.810  -4.348  1.00  0.00     0.204 C 
BRANCH  29  33
HETATM   33  C31 UNL     1       9.573  56.348  -5.755  1.00  0.00     0.198 C 
BRANCH  33  34
HETATM   34  O7  UNL     1      10.967  56.288  -5.454  1.00  0.00    -0.398 OA
HETATM   35  H49 UNL     1      11.036  56.163  -4.486  1.00  0.00     0.209 HD
ENDBRANCH  33  34
ENDBRANCH  29  33
BRANCH  30  36
HETATM   36  O8  UNL     1       9.294  55.610  -3.006  1.00  0.00    -0.390 OA
HETATM   37  H51 UNL     1       8.882  54.727  -3.144  1.00  0.00     0.210 HD
ENDBRANCH  30  36
BRANCH  31  38
HETATM   38  O9  UNL     1       7.173  54.635  -4.360  1.00  0.00    -0.390 OA
HETATM   39  H53 UNL     1       6.786  54.707  -5.263  1.00  0.00     0.210 HD
ENDBRANCH  31  38
BRANCH  32  40
HETATM   40  O10 UNL     1       5.613  57.879  -3.455  1.00  0.00    -0.388 OA
HETATM   41  H55 UNL     1       6.283  58.584  -3.548  1.00  0.00     0.210 HD
ENDBRANCH  32  40
ENDBRANCH  26  27
ENDBRANCH  21  26
BRANCH   1  42
HETATM   42  C2  UNL     1      -3.070  52.488 -11.396  1.00  0.00    -0.014 C 
HETATM   43  C1  UNL     1      -4.189  53.490 -11.078  1.00  0.00     0.010 C 
BRANCH  42  44
HETATM   44  C3  UNL     1      -3.666  51.062 -11.541  1.00  0.00     0.007 C 
BRANCH  44  45
HETATM   45  C4  UNL     1      -4.796  50.754 -10.538  1.00  0.00     0.038 C 
BRANCH  45  46
HETATM   46  C5  UNL     1      -4.897  49.264 -10.087  1.00  0.00     0.061 C 
HETATM   47  C6  UNL     1      -3.999  48.366 -10.961  1.00  0.00     0.046 C 
BRANCH  46  48
HETATM   48  O1  UNL     1      -4.394  49.194  -8.740  1.00  0.00    -0.389 OA
HETATM   49  H12 UNL     1      -3.427  49.296  -8.764  1.00  0.00     0.210 HD
ENDBRANCH  46  48
BRANCH  46  50
HETATM   50  C7  UNL     1      -6.401  48.748 -10.037  1.00  0.00    -0.021 C 
HETATM   51  C8  UNL     1      -6.799  48.057 -11.367  1.00  0.00     0.017 C 
HETATM   52  C9  UNL     1      -6.606  47.694  -8.922  1.00  0.00     0.017 C 
HETATM   53  C10 UNL     1      -7.402  49.896  -9.792  1.00  0.00     0.017 C 
ENDBRANCH  46  50
ENDBRANCH  45  46
ENDBRANCH  44  45
ENDBRANCH  42  44
ENDBRANCH   1  42
TORSDOF 13
ENDMDL
