MODEL 1
REMARK minimizedAffinity -9.76955414
REMARK  6 active torsions:
REMARK  status: ('A' for Active; 'I' for Inactive)
REMARK    1  A    between atoms: C2_2  and  O2_4 
REMARK    2  A    between atoms: O2_4  and  C3_5 
REMARK    3  A    between atoms: C13_15  and  C14_16 
REMARK    4  A    between atoms: C14_16  and  C16_18 
REMARK    5  A    between atoms: C16_18  and  C17_19 
REMARK    6  A    between atoms: C17_19  and  C18_20 
ROOT
HETATM    1  C3  UNL     1      -1.235  51.802 -26.659  1.00  0.00     0.136 C 
HETATM    2  C4  UNL     1       0.058  51.685 -25.839  1.00  0.00     0.034 C 
HETATM    3  C5  UNL     1      -0.139  51.939 -24.345  1.00  0.00     0.013 C 
HETATM    4  C6  UNL     1      -1.324  51.171 -23.748  1.00  0.00    -0.027 A 
HETATM    5  C7  UNL     1      -2.101  51.973 -22.727  1.00  0.00     0.021 A 
HETATM    6  C8  UNL     1      -1.367  50.735 -22.257  1.00  0.00    -0.027 A 
HETATM    7  C9  UNL     1      -0.094  50.943 -21.434  1.00  0.00     0.011 C 
HETATM    8  C10 UNL     1      -0.148  50.620 -19.928  1.00  0.00     0.011 C 
HETATM    9  C11 UNL     1      -1.404  49.866 -19.470  1.00  0.00    -0.032 C 
HETATM   10  C12 UNL     1      -2.516  50.926 -19.190  1.00  0.00     0.016 C 
HETATM   11  C13 UNL     1      -1.246  48.948 -18.209  1.00  0.00    -0.002 C 
HETATM   12  C22 UNL     1      -2.406  47.923 -18.393  1.00  0.00     0.006 C 
HETATM   13  C23 UNL     1      -2.859  47.986 -19.859  1.00  0.00     0.011 C 
HETATM   14  C24 UNL     1      -1.785  48.821 -20.580  1.00  0.00    -0.032 C 
HETATM   15  C25 UNL     1      -0.639  47.833 -20.965  1.00  0.00     0.016 C 
HETATM   16  C26 UNL     1      -2.303  49.572 -21.836  1.00  0.00     0.004 C 
HETATM   17  C27 UNL     1      -2.663  48.658 -23.015  1.00  0.00     0.006 C 
HETATM   18  C28 UNL     1      -3.200  49.479 -24.186  1.00  0.00     0.006 C 
HETATM   19  C29 UNL     1      -2.070  50.322 -24.787  1.00  0.00     0.001 C 
HETATM   20  C30 UNL     1      -2.496  51.268 -25.930  1.00  0.00     0.016 C 
HETATM   21  C31 UNL     1      -3.450  50.634 -26.944  1.00  0.00     0.013 C 
ENDROOT
BRANCH  11  22
HETATM   22  C14 UNL     1      -1.245  49.586 -16.786  1.00  0.00    -0.014 C 
HETATM   23  C15 UNL     1      -2.165  50.812 -16.717  1.00  0.00     0.010 C 
BRANCH  22  24
HETATM   24  C16 UNL     1       0.187  50.002 -16.345  1.00  0.00     0.008 C 
BRANCH  24  25
HETATM   25  C17 UNL     1       0.386  51.524 -16.251  1.00  0.00     0.028 C 
BRANCH  25  26
HETATM   26  C18 UNL     1       1.798  51.971 -16.503  1.00  0.00    -0.025 C 
HETATM   27  C19 UNL     1       2.839  51.967 -15.646  1.00  0.00    -0.091 C 
HETATM   28  C20 UNL     1       2.784  51.532 -14.209  1.00  0.00     0.042 C 
HETATM   29  C21 UNL     1       4.201  52.436 -16.095  1.00  0.00     0.042 C 
ENDBRANCH  25  26
ENDBRANCH  24  25
ENDBRANCH  22  24
ENDBRANCH  11  22
BRANCH   1  30
HETATM   30  O2  UNL     1      -1.480  53.190 -26.986  1.00  0.00    -0.316 OA
BRANCH  30  31
HETATM   31  C2  UNL     1      -0.450  53.862 -27.572  1.00  0.00     0.255 C 
HETATM   32  C1  UNL     1       0.139  53.034 -28.670  1.00  0.00     0.126 C 
HETATM   33  O1  UNL     1      -0.060  54.981 -27.268  1.00  0.00    -0.266 OA
ENDBRANCH  30  31
ENDBRANCH   1  30
TORSDOF 6
ENDMDL
