MODEL 1
REMARK minimizedAffinity -9.4128933
REMARK  5 active torsions:
REMARK  status: ('A' for Active; 'I' for Inactive)
REMARK    1  A    between atoms: C2_2  and  C4_4 
REMARK    2  A    between atoms: C7_7  and  C8_8 
REMARK    3  A    between atoms: C8_8  and  O2_10 
REMARK    4  A    between atoms: C11_13  and  C12_14 
REMARK    5  A    between atoms: C12_14  and  O4_16 
ROOT
HETATM    1  C4  UNL     1       0.477  52.874 -23.953  1.00  0.00     0.019 C 
HETATM    2  C5  UNL     1       0.090  54.110 -24.767  1.00  0.00     0.011 C 
HETATM    3  C6  UNL     1      -0.078  53.543 -26.170  1.00  0.00     0.021 C 
HETATM    4  C7  UNL     1      -0.844  52.215 -25.972  1.00  0.00     0.050 C 
HETATM    5  C9  UNL     1      -2.356  52.476 -26.084  1.00  0.00     0.022 C 
HETATM    6  C10 UNL     1      -3.227  51.371 -25.490  1.00  0.00     0.023 C 
HETATM    7  C11 UNL     1      -2.911  51.017 -24.014  1.00  0.00     0.057 C 
HETATM    8  C13 UNL     1      -1.373  50.782 -23.821  1.00  0.00     0.011 C 
HETATM    9  C14 UNL     1      -1.035  50.456 -22.361  1.00  0.00     0.007 C 
HETATM   10  C15 UNL     1      -1.826  49.264 -21.804  1.00  0.00     0.006 C 
HETATM   11  C16 UNL     1      -3.354  49.384 -22.025  1.00  0.00     0.003 C 
HETATM   12  C17 UNL     1      -4.234  48.280 -21.287  1.00  0.00    -0.035 C 
HETATM   13  C18 UNL     1      -3.858  46.848 -21.733  1.00  0.00     0.016 C 
HETATM   14  C19 UNL     1      -3.979  48.385 -19.752  1.00  0.00     0.017 C 
HETATM   15  C20 UNL     1      -4.934  47.569 -18.893  1.00  0.00     0.080 C 
HETATM   16  C21 UNL     1      -6.376  47.876 -19.210  1.00  0.00     0.135 C 
HETATM   17  O5  UNL     1      -7.181  48.030 -18.289  1.00  0.00    -0.297 OA
HETATM   18  C22 UNL     1      -6.805  47.863 -20.687  1.00  0.00     0.017 C 
HETATM   19  C23 UNL     1      -7.022  46.404 -21.114  1.00  0.00     0.023 C 
HETATM   20  C24 UNL     1      -8.180  48.574 -20.777  1.00  0.00     0.023 C 
HETATM   21  C25 UNL     1      -5.745  48.652 -21.533  1.00  0.00     0.009 C 
HETATM   22  C26 UNL     1      -6.067  48.710 -23.039  1.00  0.00     0.007 C 
HETATM   23  C27 UNL     1      -5.229  49.765 -23.767  1.00  0.00     0.011 C 
HETATM   24  C28 UNL     1      -3.691  49.648 -23.549  1.00  0.00    -0.022 C 
HETATM   25  C29 UNL     1      -3.250  48.430 -24.428  1.00  0.00     0.017 C 
HETATM   26  C30 UNL     1      -0.355  51.698 -24.572  1.00  0.00     0.018 C 
ENDROOT
BRANCH   4  27
HETATM   27  C8  UNL     1      -0.470  51.214 -27.065  1.00  0.00     0.149 C 
HETATM   28  O1  UNL     1       0.201  50.204 -26.925  1.00  0.00    -0.649 OA
BRANCH  27  29
HETATM   29  O2  UNL     1      -1.024  51.486 -28.262  1.00  0.00    -0.776 OA
HETATM   30  H11 UNL     1      -0.727  50.747 -28.834  1.00  0.00     0.167 HD
ENDBRANCH  27  29
ENDBRANCH   4  27
BRANCH   1  31
HETATM   31  C2  UNL     1       0.705  53.070 -22.466  1.00  0.00    -0.088 C 
HETATM   32  C1  UNL     1       0.556  52.033 -21.619  1.00  0.00     0.014 C 
HETATM   33  C3  UNL     1       1.212  54.382 -21.937  1.00  0.00     0.043 C 
ENDBRANCH   1  31
BRANCH   7  34
HETATM   34  C12 UNL     1      -3.394  52.220 -23.163  1.00  0.00     0.149 C 
HETATM   35  O3  UNL     1      -4.098  52.214 -22.167  1.00  0.00    -0.649 OA
BRANCH  34  36
HETATM   36  O4  UNL     1      -3.012  53.415 -23.636  1.00  0.00    -0.776 OA
HETATM   37  H16 UNL     1      -3.428  54.046 -23.010  1.00  0.00     0.167 HD
ENDBRANCH  34  36
ENDBRANCH   7  34
TORSDOF 5
ENDMDL
