MODEL 1
REMARK minimizedAffinity -8.3746233
REMARK CNNscore 0.666537404
REMARK CNNaffinity 7.08009768
REMARK  13 active torsions:
REMARK  status: ('A' for Active; 'I' for Inactive)
REMARK    1  A    between atoms: C2_2  and  C3_3 
REMARK    2  A    between atoms: C2_2  and  C4_5 
REMARK    3  A    between atoms: C3_3  and  O1_4 
REMARK    4  A    between atoms: C4_5  and  C5_6 
REMARK    5  A    between atoms: C5_6  and  C6_7 
REMARK    6  A    between atoms: C6_7  and  O2_8 
REMARK    7  A    between atoms: C6_7  and  C7_9 
REMARK    8  A    between atoms: C7_9  and  C9_11 
REMARK    9  A    between atoms: C10_12  and  O3_13 
REMARK   10  A    between atoms: O3_13  and  C11_14 
REMARK   11  A    between atoms: C13_17  and  O5_18 
REMARK   12  A    between atoms: C14_19  and  O6_20 
REMARK   13  A    between atoms: C15_21  and  O7_22 
ROOT
HETATM    1  C9  UNL     1      -6.034   6.984  14.664  1.00  0.00     0.029 C 
HETATM    2  C10 UNL     1      -6.202   6.267  13.256  1.00  0.00     0.130 C 
HETATM    3  C16 UNL     1      -7.718   6.082  13.019  1.00  0.00     0.038 C 
HETATM    4  C17 UNL     1      -8.353   6.927  14.110  1.00  0.00     0.001 C 
HETATM    5  C18 UNL     1      -9.834   6.747  14.433  1.00  0.00    -0.004 C 
HETATM    6  C19 UNL     1     -10.713   6.652  13.183  1.00  0.00     0.010 C 
HETATM    7  C20 UNL     1     -12.165   6.954  13.509  1.00  0.00     0.035 C 
HETATM    8  C21 UNL     1     -12.221   8.410  13.859  1.00  0.00    -0.068 C 
HETATM    9  C22 UNL     1     -12.863   9.268  13.045  1.00  0.00     0.053 C 
HETATM   10  C23 UNL     1     -12.819  10.732  13.264  1.00  0.00     0.149 C 
HETATM   11  O8  UNL     1     -13.537  11.462  12.584  1.00  0.00    -0.293 OA
HETATM   12  C24 UNL     1     -11.905  11.279  14.333  1.00  0.00     0.084 C 
HETATM   13  C25 UNL     1     -10.847  10.267  14.775  1.00  0.00     0.022 C 
HETATM   14  C26 UNL     1     -11.416   8.852  15.079  1.00  0.00    -0.016 C 
HETATM   15  C27 UNL     1     -12.403   8.953  16.275  1.00  0.00     0.020 C 
HETATM   16  C28 UNL     1     -10.283   7.812  15.497  1.00  0.00     0.002 C 
HETATM   17  C29 UNL     1      -9.064   8.481  16.206  1.00  0.00     0.007 C 
HETATM   18  C30 UNL     1      -7.960   7.481  16.557  1.00  0.00     0.010 C 
HETATM   19  C31 UNL     1      -7.437   6.691  15.335  1.00  0.00    -0.034 C 
HETATM   20  C32 UNL     1      -7.421   5.205  15.830  1.00  0.00     0.016 C 
ENDROOT
BRANCH   2  21
HETATM   21  O3  UNL     1      -5.605   4.972  13.299  1.00  0.00    -0.353 OA
BRANCH  21  22
HETATM   22  C11 UNL     1      -4.763   4.683  12.182  1.00  0.00     0.291 C 
HETATM   23  O4  UNL     1      -5.337   3.579  11.468  1.00  0.00    -0.356 OA
HETATM   24  C12 UNL     1      -4.547   3.159  10.355  1.00  0.00     0.205 C 
HETATM   25  C13 UNL     1      -3.199   2.643  10.849  1.00  0.00     0.173 C 
HETATM   26  C14 UNL     1      -2.480   3.754  11.615  1.00  0.00     0.182 C 
HETATM   27  C15 UNL     1      -3.361   4.334  12.727  1.00  0.00     0.204 C 
BRANCH  25  28
HETATM   28  O5  UNL     1      -3.374   1.524  11.737  1.00  0.00    -0.391 OA
HETATM   29  H24 UNL     1      -4.302   1.549  12.056  1.00  0.00     0.210 HD
ENDBRANCH  25  28
BRANCH  26  30
HETATM   30  O6  UNL     1      -1.271   3.247  12.205  1.00  0.00    -0.390 OA
HETATM   31  H26 UNL     1      -1.463   2.314  12.439  1.00  0.00     0.210 HD
ENDBRANCH  26  30
BRANCH  27  32
HETATM   32  O7  UNL     1      -2.695   5.496  13.261  1.00  0.00    -0.388 OA
HETATM   33  H28 UNL     1      -1.795   5.187  13.481  1.00  0.00     0.210 HD
ENDBRANCH  27  32
ENDBRANCH  21  22
ENDBRANCH   2  21
BRANCH   1  34
HETATM   34  C7  UNL     1      -5.553   8.473  14.451  1.00  0.00     0.017 C 
HETATM   35  C8  UNL     1      -4.542   8.549  13.276  1.00  0.00     0.013 C 
BRANCH  34  36
HETATM   36  C6  UNL     1      -4.933   9.183  15.686  1.00  0.00     0.122 C 
BRANCH  36  37
HETATM   37  C5  UNL     1      -3.445   8.875  15.925  1.00  0.00     0.032 C 
BRANCH  37  38
HETATM   38  C4  UNL     1      -2.671  10.116  16.396  1.00  0.00     0.009 C 
BRANCH  38  39
HETATM   39  C2  UNL     1      -2.363  10.093  17.908  1.00  0.00     0.005 C 
HETATM   40  C1  UNL     1      -3.438  10.827  18.716  1.00  0.00     0.012 C 
BRANCH  39  41
HETATM   41  C3  UNL     1      -0.979  10.691  18.196  1.00  0.00     0.168 C 
BRANCH  41  42
HETATM   42  O1  UNL     1       0.029  10.126  17.371  1.00  0.00    -0.400 OA
HETATM   43  H7  UNL     1       0.152   9.200  17.638  1.00  0.00     0.209 HD
ENDBRANCH  41  42
ENDBRANCH  39  41
ENDBRANCH  38  39
ENDBRANCH  37  38
ENDBRANCH  36  37
BRANCH  36  44
HETATM   44  O2  UNL     1      -5.124  10.599  15.580  1.00  0.00    -0.395 OA
HETATM   45  H13 UNL     1      -4.397  10.972  15.054  1.00  0.00     0.210 HD
ENDBRANCH  36  44
ENDBRANCH  34  36
ENDBRANCH   1  34
TORSDOF 13
ENDMDL
