MODEL 1
REMARK minimizedAffinity -8.56237888
REMARK  6 active torsions:
REMARK  status: ('A' for Active; 'I' for Inactive)
REMARK    1  A    between atoms: C2_2  and  C3_3 
REMARK    2  A    between atoms: C5_5  and  C6_6 
REMARK    3  A    between atoms: C6_6  and  C7_7 
REMARK    4  A    between atoms: C8_8  and  C9_9 
REMARK       I    between atoms: C9_9  and  N1_11 
REMARK    5  A    between atoms: N1_11  and  C10_12 
REMARK    6  A    between atoms: C10_12  and  C12_14 
ROOT
HETATM    1  C7  UNL     1      -2.194   6.021  12.757  1.00  0.00     0.036 C 
HETATM    2  C8  UNL     1      -2.768   7.253  13.447  1.00  0.00     0.011 C 
HETATM    3  C18 UNL     1      -2.047   8.324  13.822  1.00  0.00    -0.013 C 
HETATM    4  C19 UNL     1      -0.578   8.443  13.591  1.00  0.00     0.034 C 
HETATM    5  C20 UNL     1      -0.046   7.444  12.540  1.00  0.00     0.005 C 
HETATM    6  C21 UNL     1       1.514   7.578  12.313  1.00  0.00    -0.043 C 
HETATM    7  C22 UNL     1       2.312   7.992  13.569  1.00  0.00     0.015 C 
HETATM    8  C23 UNL     1       1.750   8.699  11.265  1.00  0.00     0.015 C 
HETATM    9  C24 UNL     1       2.126   6.267  11.772  1.00  0.00     0.009 C 
HETATM   10  C25 UNL     1       1.153   5.507  10.891  1.00  0.00     0.002 C 
HETATM   11  C26 UNL     1      -0.074   5.033  11.667  1.00  0.00     0.010 C 
HETATM   12  C27 UNL     1      -0.590   5.987  12.791  1.00  0.00    -0.031 C 
HETATM   13  C28 UNL     1      -0.101   5.455  14.163  1.00  0.00     0.016 C 
ENDROOT
BRANCH   2  14
HETATM   14  C9  UNL     1      -4.248   7.356  13.594  1.00  0.00     0.248 C 
HETATM   15  O1  UNL     1      -4.920   7.993  12.793  1.00  0.00    -0.268 OA
HETATM   16  N1  UNL     1      -4.745   6.653  14.661  1.00  0.00    -0.349 N 
HETATM   17  H11 UNL     1      -4.091   6.233  15.307  1.00  0.00     0.163 HD
BRANCH  16  18
HETATM   18  C10 UNL     1      -6.125   6.789  15.094  1.00  0.00     0.114 C 
HETATM   19  C11 UNL     1      -6.553   8.254  15.010  1.00  0.00     0.037 C 
BRANCH  18  20
HETATM   20  C12 UNL     1      -6.992   5.829  14.294  1.00  0.00    -0.036 A 
HETATM   21  C13 UNL     1      -7.842   6.250  13.260  1.00  0.00     0.009 A 
HETATM   22  C14 UNL     1      -8.596   5.323  12.535  1.00  0.00     0.001 A 
HETATM   23  C15 UNL     1      -8.502   3.963  12.823  1.00  0.00     0.000 A 
HETATM   24  C16 UNL     1      -7.651   3.527  13.834  1.00  0.00     0.001 A 
HETATM   25  C17 UNL     1      -6.899   4.451  14.560  1.00  0.00     0.009 A 
ENDBRANCH  18  20
ENDBRANCH  16  18
ENDBRANCH   2  14
BRANCH   1  26
HETATM   26  C6  UNL     1      -2.894   4.727  13.296  1.00  0.00     0.038 C 
BRANCH  26  27
HETATM   27  C5  UNL     1      -4.017   4.200  12.440  1.00  0.00    -0.019 C 
HETATM   28  C3  UNL     1      -4.086   3.044  11.746  1.00  0.00    -0.067 C 
HETATM   29  C4  UNL     1      -2.995   2.005  11.716  1.00  0.00     0.048 C 
BRANCH  28  30
HETATM   30  C2  UNL     1      -5.301   2.773  10.978  1.00  0.00    -0.004 C 
HETATM   31  C1  UNL     1      -6.053   1.666  11.035  1.00  0.00     0.012 C 
ENDBRANCH  28  30
ENDBRANCH  26  27
ENDBRANCH   1  26
TORSDOF 6
ENDMDL
