MODEL 1
REMARK minimizedAffinity -9.80391979
REMARK  4 active torsions:
REMARK  status: ('A' for Active; 'I' for Inactive)
REMARK    1  A    between atoms: O1_2  and  C2_3 
REMARK    2  A    between atoms: C6_9  and  C7_10 
REMARK       I    between atoms: C7_10  and  N2_12 
REMARK    3  A    between atoms: C23_29  and  O3_30 
REMARK    4  A    between atoms: C26_33  and  O4_34 
ROOT
HETATM    1  C7  UNL     1      -3.552  51.432 -22.267  1.00  0.00     0.258 C 
HETATM    2  O2  UNL     1      -3.937  52.570 -22.527  1.00  0.00    -0.267 OA
HETATM    3  N2  UNL     1      -3.431  50.426 -23.225  1.00  0.00    -0.339 N 
HETATM    4  C8  UNL     1      -3.284  48.997 -22.915  1.00  0.00     0.127 C 
HETATM    5  C9  UNL     1      -4.341  48.179 -23.641  1.00  0.00     0.024 C 
HETATM    6  C10 UNL     1      -4.188  48.284 -25.155  1.00  0.00     0.037 C 
HETATM    7  C11 UNL     1      -3.530  49.565 -25.587  1.00  0.00    -0.060 C 
HETATM    8  C12 UNL     1      -2.739  49.624 -26.712  1.00  0.00    -0.015 C 
HETATM    9  C13 UNL     1      -2.124  50.957 -27.269  1.00  0.00     0.031 C 
HETATM   10  C14 UNL     1      -2.986  52.011 -26.638  1.00  0.00     0.019 C 
HETATM   11  C15 UNL     1      -2.620  51.742 -25.169  1.00  0.00     0.031 C 
HETATM   12  C16 UNL     1      -1.571  52.755 -24.830  1.00  0.00     0.124 C 
HETATM   13  N3  UNL     1      -0.422  52.411 -25.752  1.00  0.00    -0.407 N 
HETATM   14  C17 UNL     1       0.430  53.541 -26.085  1.00  0.00     0.117 C 
HETATM   15  C18 UNL     1       0.042  54.189 -27.410  1.00  0.00     0.019 C 
HETATM   16  C19 UNL     1      -0.095  53.186 -28.557  1.00  0.00     0.004 C 
HETATM   17  C20 UNL     1       0.184  51.752 -28.116  1.00  0.00     0.026 C 
HETATM   18  C21 UNL     1      -0.614  51.365 -26.856  1.00  0.00     0.086 C 
HETATM   19  C22 UNL     1      -3.686  50.813 -24.617  1.00  0.00     0.122 C 
ENDROOT
BRANCH   1  20
HETATM   20  C6  UNL     1      -3.139  51.155 -20.887  1.00  0.00     0.081 A 
HETATM   21  C5  UNL     1      -4.094  50.698 -19.998  1.00  0.00     0.108 A 
HETATM   22  N1  UNL     1      -3.833  50.406 -18.701  1.00  0.00    -0.364 N 
HETATM   23  C4  UNL     1      -2.583  50.607 -18.242  1.00  0.00     0.048 A 
ATOM     24  H1  UNL     1      -4.564  50.045 -18.089  1.00  0.00     0.165 HD
HETATM   25  C3  UNL     1      -2.310  50.320 -16.912  1.00  0.00     0.070 A 
HETATM   26  C24 UNL     1      -1.544  51.098 -19.059  1.00  0.00     0.028 A 
HETATM   27  C2  UNL     1      -1.038  50.513 -16.358  1.00  0.00     0.103 A 
HETATM   28  C26 UNL     1      -0.000  51.010 -17.163  1.00  0.00     0.102 A 
HETATM   29  C25 UNL     1      -0.259  51.295 -18.506  1.00  0.00     0.056 A 
HETATM   30  C23 UNL     1      -1.849  51.375 -20.407  1.00  0.00     0.095 A 
BRANCH  27  31
HETATM   31  O1  UNL     1      -0.716  50.260 -15.047  1.00  0.00    -0.353 OA
HETATM   32  C1  UNL     1      -1.190  51.170 -14.064  1.00  0.00     0.210 C 
ENDBRANCH  27  31
BRANCH  28  33
HETATM   33  O4  UNL     1       1.218  51.171 -16.555  1.00  0.00    -0.353 OA
HETATM   34  C27 UNL     1       1.797  52.469 -16.575  1.00  0.00     0.210 C 
ENDBRANCH  28  33
BRANCH  30  35
HETATM   35  O3  UNL     1      -0.843  51.870 -21.205  1.00  0.00    -0.359 OA
HETATM   36  H29 UNL     1      -1.184  52.082 -22.093  1.00  0.00     0.217 HD
ENDBRANCH  30  35
ENDBRANCH   1  20
TORSDOF 4
ENDMDL
