MODEL 1
REMARK minimizedAffinity -8.34063816
REMARK CNNscore 0.814296722
REMARK CNNaffinity 7.39375877
REMARK  19 active torsions:
REMARK  status: ('A' for Active; 'I' for Inactive)
REMARK    1  A    between atoms: C19_20  and  O2_21 
REMARK    2  A    between atoms: C19_20  and  C20_22 
REMARK    3  A    between atoms: C20_22  and  C21_24 
REMARK    4  A    between atoms: C21_24  and  O4_25 
REMARK    5  A    between atoms: O4_25  and  C22_26 
REMARK    6  A    between atoms: C22_26  and  C23_28 
REMARK    7  A    between atoms: C23_28  and  C24_29 
REMARK    8  A    between atoms: C24_29  and  C25_30 
REMARK       I    between atoms: C25_30  and  N1_32 
REMARK    9  A    between atoms: N1_32  and  C26_33 
REMARK   10  A    between atoms: C26_33  and  C27_34 
REMARK   11  A    between atoms: C27_34  and  C28_35 
REMARK   12  A    between atoms: C28_35  and  C29_36 
REMARK   13  A    between atoms: C29_36  and  C30_37 
REMARK   14  A    between atoms: C30_37  and  C31_38 
REMARK       I    between atoms: C31_38  and  N2_40 
REMARK   15  A    between atoms: N2_40  and  C32_41 
REMARK   16  A    between atoms: C32_41  and  C33_42 
REMARK   17  A    between atoms: C33_42  and  C34_43 
REMARK   18  A    between atoms: C37_46  and  O8_47 
REMARK   19  A    between atoms: C38_48  and  O9_49 
ROOT
HETATM    1  C22 UNL     1      -4.852  48.068 -28.985  1.00  0.00     0.259 C 
HETATM    2  O5  UNL     1      -4.884  47.858 -30.190  1.00  0.00    -0.265 OA
ENDROOT
BRANCH   1   3
HETATM    3  O4  UNL     1      -3.825  48.672 -28.332  1.00  0.00    -0.314 OA
BRANCH   3   4
HETATM    4  C21 UNL     1      -3.815  50.093 -28.358  1.00  0.00     0.260 C 
BRANCH   4   5
HETATM    5  C20 UNL     1      -3.039  50.955 -27.348  1.00  0.00     0.185 C 
HETATM    6  O3  UNL     1      -2.374  51.915 -27.755  1.00  0.00    -0.292 OA
BRANCH   5   7
HETATM    7  C19 UNL     1      -3.226  50.675 -25.835  1.00  0.00     0.128 C 
HETATM    8  C14 UNL     1      -1.973  51.017 -24.965  1.00  0.00    -0.002 C 
HETATM    9  C13 UNL     1      -1.794  52.489 -24.546  1.00  0.00     0.013 C 
HETATM   10  C15 UNL     1      -0.678  50.536 -25.681  1.00  0.00     0.019 C 
HETATM   11  C16 UNL     1      -2.307  50.206 -23.680  1.00  0.00     0.002 C 
HETATM   12  C12 UNL     1      -0.721  52.657 -23.449  1.00  0.00     0.007 C 
HETATM   13  C11 UNL     1      -0.987  51.762 -22.217  1.00  0.00     0.002 C 
HETATM   14  C2  UNL     1       0.058  51.882 -21.056  1.00  0.00    -0.016 C 
HETATM   15  C10 UNL     1      -1.189  50.270 -22.633  1.00  0.00    -0.004 C 
HETATM   16  C1  UNL     1       1.423  51.265 -21.449  1.00  0.00     0.020 C 
HETATM   17  C3  UNL     1       0.270  53.364 -20.649  1.00  0.00     0.022 C 
HETATM   18  C7  UNL     1      -0.505  51.139 -19.841  1.00  0.00    -0.068 C 
HETATM   19  C4  UNL     1       1.133  53.530 -19.399  1.00  0.00     0.084 C 
HETATM   20  C5  UNL     1       0.739  52.593 -18.283  1.00  0.00     0.149 C 
HETATM   21  O1  UNL     1       1.174  52.731 -17.140  1.00  0.00    -0.293 OA
HETATM   22  C6  UNL     1      -0.173  51.465 -18.578  1.00  0.00     0.053 C 
HETATM   23  C8  UNL     1      -1.556  50.079 -20.087  1.00  0.00     0.035 C 
HETATM   24  C9  UNL     1      -1.405  49.345 -21.417  1.00  0.00     0.010 C 
HETATM   25  C17 UNL     1      -2.723  48.844 -24.222  1.00  0.00     0.009 C 
HETATM   26  C18 UNL     1      -3.440  49.157 -25.549  1.00  0.00     0.047 C 
BRANCH   7  27
HETATM   27  O2  UNL     1      -4.373  51.359 -25.326  1.00  0.00    -0.381 OA
HETATM   28  H27 UNL     1      -5.151  50.972 -25.776  1.00  0.00     0.211 HD
ENDBRANCH   7  27
ENDBRANCH   5   7
ENDBRANCH   4   5
ENDBRANCH   3   4
ENDBRANCH   1   3
BRANCH   1  29
HETATM   29  C23 UNL     1      -5.964  47.719 -28.031  1.00  0.00     0.120 C 
BRANCH  29  30
HETATM   30  C24 UNL     1      -7.015  46.898 -28.767  1.00  0.00     0.112 C 
BRANCH  30  31
HETATM   31  C25 UNL     1      -8.375  46.988 -28.097  1.00  0.00     0.217 C 
HETATM   32  O6  UNL     1      -8.635  46.425 -27.040  1.00  0.00    -0.274 OA
HETATM   33  N1  UNL     1      -9.256  47.819 -28.758  1.00  0.00    -0.361 N 
HETATM   34  H34 UNL     1      -9.052  48.054 -29.722  1.00  0.00     0.162 HD
BRANCH  33  35
HETATM   35  C26 UNL     1     -10.635  47.931 -28.323  1.00  0.00     0.122 C 
BRANCH  35  36
HETATM   36  C27 UNL     1     -11.623  47.544 -29.425  1.00  0.00     0.020 C 
BRANCH  36  37
HETATM   37  C28 UNL     1     -12.459  46.291 -29.126  1.00  0.00     0.002 C 
BRANCH  37  38
HETATM   38  C29 UNL     1     -13.773  46.533 -28.372  1.00  0.00     0.009 C 
BRANCH  38  39
HETATM   39  C30 UNL     1     -14.806  45.415 -28.521  1.00  0.00     0.103 C 
BRANCH  39  40
HETATM   40  C31 UNL     1     -15.310  44.882 -27.192  1.00  0.00     0.217 C 
HETATM   41  O7  UNL     1     -14.676  44.945 -26.145  1.00  0.00    -0.274 OA
HETATM   42  N2  UNL     1     -16.552  44.290 -27.288  1.00  0.00    -0.361 N 
HETATM   43  H45 UNL     1     -17.106  44.465 -28.117  1.00  0.00     0.162 HD
BRANCH  42  44
HETATM   44  C32 UNL     1     -17.244  43.792 -26.112  1.00  0.00     0.127 C 
BRANCH  44  45
HETATM   45  C33 UNL     1     -18.772  43.808 -26.252  1.00  0.00     0.058 C 
BRANCH  45  46
HETATM   46  C34 UNL     1     -19.485  43.618 -24.931  1.00  0.00    -0.054 A 
HETATM   47  C35 UNL     1     -19.326  44.571 -23.909  1.00  0.00     0.010 A 
HETATM   48  C36 UNL     1     -20.004  44.434 -22.697  1.00  0.00     0.040 A 
HETATM   49  C37 UNL     1     -20.840  43.344 -22.510  1.00  0.00     0.098 A 
HETATM   50  C38 UNL     1     -21.002  42.388 -23.510  1.00  0.00     0.099 A 
HETATM   51  C39 UNL     1     -20.331  42.517 -24.723  1.00  0.00     0.046 A 
BRANCH  49  52
HETATM   52  O8  UNL     1     -21.512  43.217 -21.328  1.00  0.00    -0.358 OA
HETATM   53  H52 UNL     1     -22.018  42.386 -21.422  1.00  0.00     0.217 HD
ENDBRANCH  49  52
BRANCH  50  54
HETATM   54  O9  UNL     1     -21.841  41.340 -23.253  1.00  0.00    -0.358 OA
HETATM   55  H53 UNL     1     -21.829  40.746 -24.023  1.00  0.00     0.217 HD
ENDBRANCH  50  54
ENDBRANCH  45  46
ENDBRANCH  44  45
ENDBRANCH  42  44
ENDBRANCH  39  40
ENDBRANCH  38  39
ENDBRANCH  37  38
ENDBRANCH  36  37
ENDBRANCH  35  36
ENDBRANCH  33  35
ENDBRANCH  30  31
ENDBRANCH  29  30
ENDBRANCH   1  29
TORSDOF 19
ENDMDL
