MODEL 1
REMARK minimizedAffinity -9.73887348
REMARK  11 active torsions:
REMARK  status: ('A' for Active; 'I' for Inactive)
REMARK    1  A    between atoms: C2_2  and  C27_32 
REMARK    2  A    between atoms: C3_3  and  C4_4 
REMARK    3  A    between atoms: C4_4  and  C5_5 
REMARK    4  A    between atoms: C5_5  and  C6_6 
REMARK    5  A    between atoms: C6_6  and  C8_8 
REMARK    6  A    between atoms: C10_10  and  O1_11 
REMARK    7  A    between atoms: C11_12  and  O2_13 
REMARK    8  A    between atoms: C21_23  and  O3_24 
REMARK    9  A    between atoms: C24_27  and  O4_28 
REMARK   10  A    between atoms: C26_30  and  O5_31 
REMARK   11  A    between atoms: C27_32  and  O6_33 
ROOT
HETATM    1  C8  UNL     1      -2.060  49.165 -21.386  1.00  0.00     0.003 C 
HETATM    2  C9  UNL     1      -2.408  48.232 -22.550  1.00  0.00     0.041 C 
HETATM    3  C10 UNL     1      -2.380  49.169 -23.748  1.00  0.00     0.156 C 
HETATM    4  C11 UNL     1      -3.201  50.386 -23.265  1.00  0.00     0.122 C 
HETATM    5  C12 UNL     1      -2.868  50.492 -21.702  1.00  0.00    -0.003 C 
HETATM    6  C13 UNL     1      -4.161  50.641 -20.882  1.00  0.00     0.019 C 
HETATM    7  C14 UNL     1      -1.963  51.715 -21.398  1.00  0.00     0.013 C 
HETATM    8  C15 UNL     1      -0.954  51.997 -22.507  1.00  0.00     0.009 C 
HETATM    9  C16 UNL     1      -1.602  52.398 -23.851  1.00  0.00     0.032 C 
HETATM   10  C17 UNL     1      -0.563  52.456 -25.060  1.00  0.00    -0.031 C 
HETATM   11  C18 UNL     1      -0.258  53.973 -25.279  1.00  0.00     0.016 C 
HETATM   12  C19 UNL     1       0.802  51.754 -24.787  1.00  0.00     0.012 C 
HETATM   13  C20 UNL     1       1.772  51.802 -25.973  1.00  0.00     0.032 C 
HETATM   14  C21 UNL     1       1.147  51.301 -27.272  1.00  0.00     0.118 C 
HETATM   15  C22 UNL     1      -0.212  51.940 -27.558  1.00  0.00     0.039 C 
HETATM   16  C23 UNL     1      -1.143  51.800 -26.343  1.00  0.00     0.025 C 
HETATM   17  C24 UNL     1      -2.576  52.266 -26.588  1.00  0.00     0.126 C 
HETATM   18  C25 UNL     1      -3.469  51.590 -25.557  1.00  0.00     0.073 C 
HETATM   19  C26 UNL     1      -2.998  51.714 -24.086  1.00  0.00     0.099 C 
ENDROOT
BRANCH   1  20
HETATM   20  C6  UNL     1      -2.066  48.417 -20.016  1.00  0.00    -0.013 C 
HETATM   21  C7  UNL     1      -3.156  47.371 -19.800  1.00  0.00     0.010 C 
BRANCH  20  22
HETATM   22  C5  UNL     1      -1.785  49.326 -18.790  1.00  0.00     0.008 C 
BRANCH  22  23
HETATM   23  C4  UNL     1      -0.429  50.023 -18.637  1.00  0.00     0.028 C 
BRANCH  23  24
HETATM   24  C3  UNL     1       0.135  50.009 -17.243  1.00  0.00    -0.022 C 
HETATM   25  C2  UNL     1       0.799  51.006 -16.621  1.00  0.00    -0.064 C 
HETATM   26  C1  UNL     1       1.282  50.832 -15.203  1.00  0.00     0.045 C 
BRANCH  25  27
HETATM   27  C27 UNL     1       1.115  52.345 -17.230  1.00  0.00     0.197 C 
BRANCH  27  28
HETATM   28  O6  UNL     1       1.495  53.243 -16.199  1.00  0.00    -0.397 OA
HETATM   29  H46 UNL     1       2.244  52.830 -15.736  1.00  0.00     0.209 HD
ENDBRANCH  27  28
ENDBRANCH  25  27
ENDBRANCH  23  24
ENDBRANCH  22  23
ENDBRANCH  20  22
ENDBRANCH   1  20
BRANCH   3  30
HETATM   30  O1  UNL     1      -2.960  48.510 -24.861  1.00  0.00    -0.392 OA
HETATM   31  H17 UNL     1      -3.926  48.547 -24.695  1.00  0.00     0.210 HD
ENDBRANCH   3  30
BRANCH   4  32
HETATM   32  O2  UNL     1      -4.594  49.997 -23.433  1.00  0.00    -0.383 OA
HETATM   33  H18 UNL     1      -5.092  50.843 -23.433  1.00  0.00     0.210 HD
ENDBRANCH   4  32
BRANCH  19  34
HETATM   34  O5  UNL     1      -4.027  52.616 -23.545  1.00  0.00    -0.386 OA
HETATM   35  H43 UNL     1      -3.672  53.117 -22.794  1.00  0.00     0.210 HD
ENDBRANCH  19  34
BRANCH  17  36
HETATM   36  O4  UNL     1      -3.007  51.875 -27.890  1.00  0.00    -0.395 OA
HETATM   37  H40 UNL     1      -3.944  52.119 -27.977  1.00  0.00     0.210 HD
ENDBRANCH  17  36
BRANCH  14  38
HETATM   38  O3  UNL     1       2.043  51.576 -28.342  1.00  0.00    -0.396 OA
HETATM   39  H35 UNL     1       1.634  51.231 -29.156  1.00  0.00     0.210 HD
ENDBRANCH  14  38
TORSDOF 11
ENDMDL
