MODEL 1
REMARK minimizedAffinity -9.50326824
REMARK CNNscore 0.67432338
REMARK CNNaffinity 7.48865843
REMARK  10 active torsions:
REMARK  status: ('A' for Active; 'I' for Inactive)
REMARK    1  A    between atoms: O1_2  and  C2_3 
REMARK    2  A    between atoms: C4_5  and  O2_6 
REMARK    3  A    between atoms: O2_6  and  C5_7 
REMARK    4  A    between atoms: C8_10  and  C9_11 
REMARK    5  A    between atoms: N1_12  and  C10_14 
REMARK    6  A    between atoms: C10_14  and  C11_15 
REMARK    7  A    between atoms: C21_27  and  C22_28 
REMARK    8  A    between atoms: C28_36  and  O5_37 
REMARK    9  A    between atoms: C32_41  and  O6_42 
REMARK   10  A    between atoms: C36_47  and  O8_48 
ROOT
HETATM    1  C5  UNL     1       0.227   8.014  12.429  1.00  0.00     0.127 C 
HETATM    2  C6  UNL     1      -0.918   8.909  11.933  1.00  0.00     0.033 C 
HETATM    3  C7  UNL     1      -1.895   9.532  12.936  1.00  0.00     0.021 C 
HETATM    4  C8  UNL     1      -1.739   9.175  14.444  1.00  0.00     0.026 C 
HETATM    5  C16 UNL     1      -2.399  10.356  15.281  1.00  0.00     0.009 C 
HETATM    6  C17 UNL     1      -3.556   9.981  16.225  1.00  0.00     0.007 C 
HETATM    7  C18 UNL     1      -4.267  11.236  16.747  1.00  0.00     0.013 C 
HETATM    8  C19 UNL     1      -3.322  12.201  17.510  1.00  0.00    -0.005 C 
HETATM    9  C20 UNL     1      -3.001  11.602  18.901  1.00  0.00     0.019 C 
HETATM   10  C21 UNL     1      -3.926  13.636  17.641  1.00  0.00     0.028 C 
HETATM   11  C26 UNL     1      -3.706  14.262  16.252  1.00  0.00     0.013 C 
HETATM   12  C27 UNL     1      -2.468  13.574  15.659  1.00  0.00     0.040 C 
HETATM   13  C28 UNL     1      -2.034  12.500  16.680  1.00  0.00     0.070 C 
HETATM   14  C29 UNL     1      -1.377  11.231  16.060  1.00  0.00     0.026 C 
HETATM   15  C30 UNL     1      -0.160  11.543  15.174  1.00  0.00     0.011 C 
HETATM   16  C31 UNL     1       0.549  10.299  14.624  1.00  0.00     0.039 C 
HETATM   17  C32 UNL     1      -0.242   8.986  14.778  1.00  0.00     0.073 C 
HETATM   18  C33 UNL     1       0.376   7.859  13.940  1.00  0.00     0.071 C 
ENDROOT
BRANCH   1  19
HETATM   19  O2  UNL     1       1.436   8.594  11.909  1.00  0.00    -0.356 OA
BRANCH  19  20
HETATM   20  C4  UNL     1       2.083   7.809  10.899  1.00  0.00     0.263 C 
HETATM   21  C3  UNL     1       2.460   6.469  11.546  1.00  0.00     0.095 C 
HETATM   22  C2  UNL     1       2.728   5.362  10.520  1.00  0.00     0.156 C 
HETATM   23  C36 UNL     1       3.056   5.993   9.155  1.00  0.00     0.175 C 
HETATM   24  C34 UNL     1       1.871   6.872   8.698  1.00  0.00     0.151 C 
HETATM   25  O7  UNL     1       1.254   7.612   9.768  1.00  0.00    -0.354 OA
HETATM   26  C35 UNL     1       2.297   7.862   7.609  1.00  0.00     0.042 C 
BRANCH  22  27
HETATM   27  O1  UNL     1       1.544   4.554  10.457  1.00  0.00    -0.388 OA
HETATM   28  C1  UNL     1       0.804   4.544  11.672  1.00  0.00     0.202 C 
ENDBRANCH  22  27
BRANCH  23  29
HETATM   29  O8  UNL     1       3.399   4.999   8.190  1.00  0.00    -0.390 OA
HETATM   30  H50 UNL     1       3.784   5.436   7.410  1.00  0.00     0.210 HD
ENDBRANCH  23  29
ENDBRANCH  19  20
ENDBRANCH   1  19
BRANCH  17  31
HETATM   31  O6  UNL     1      -0.122   8.576  16.155  1.00  0.00    -0.389 OA
HETATM   32  H42 UNL     1       0.820   8.377  16.327  1.00  0.00     0.210 HD
ENDBRANCH  17  31
BRANCH   4  33
HETATM   33  C9  UNL     1      -2.448   7.848  14.757  1.00  0.00     0.069 C 
HETATM   34  N1  UNL     1      -3.153   7.215  13.886  1.00  0.00    -0.397 N 
ATOM     35  H1  UNL     1      -3.275   7.549  12.930  1.00  0.00     0.159 HD
BRANCH  34  36
HETATM   36  C10 UNL     1      -3.770   5.973  14.376  1.00  0.00     0.158 C 
BRANCH  36  37
HETATM   37  C11 UNL     1      -4.049   5.029  13.243  1.00  0.00    -0.025 A 
HETATM   38  C12 UNL     1      -5.318   4.458  13.085  1.00  0.00     0.011 A 
HETATM   39  C13 UNL     1      -5.561   3.597  12.023  1.00  0.00     0.018 A 
HETATM   40  C14 UNL     1      -4.517   3.317  11.152  1.00  0.00     0.087 A 
HETATM   41  N2  UNL     1      -3.283   3.852  11.268  1.00  0.00    -0.375 N 
HETATM   42  C15 UNL     1      -3.083   4.702  12.301  1.00  0.00     0.096 A 
ATOM     43  H2  UNL     1      -2.539   3.626  10.609  1.00  0.00     0.164 HD
ENDBRANCH  36  37
ENDBRANCH  34  36
ENDBRANCH   4  33
BRANCH  13  44
HETATM   44  O5  UNL     1      -1.084  13.125  17.558  1.00  0.00    -0.389 OA
HETATM   45  H36 UNL     1      -0.317  13.433  17.046  1.00  0.00     0.210 HD
ENDBRANCH  13  44
BRANCH  10  46
HETATM   46  C22 UNL     1      -5.326  13.741  18.180  1.00  0.00    -0.045 A 
HETATM   47  C23 UNL     1      -5.776  13.594  19.424  1.00  0.00     0.087 A 
HETATM   48  C24 UNL     1      -7.234  13.708  19.375  1.00  0.00     0.283 A 
HETATM   49  O3  UNL     1      -7.972  13.601  20.343  1.00  0.00    -0.260 OA
HETATM   50  O4  UNL     1      -7.626  13.928  18.095  1.00  0.00    -0.314 OA
HETATM   51  C25 UNL     1      -6.468  13.986  17.256  1.00  0.00     0.213 A 
ENDBRANCH  10  46
TORSDOF 10
ENDMDL
