MODEL 1
REMARK minimizedAffinity -9.1550684
REMARK CNNscore 0.555417359
REMARK CNNaffinity 7.00422287
REMARK  6 active torsions:
REMARK  status: ('A' for Active; 'I' for Inactive)
REMARK    1  A    between atoms: C4_4  and  C5_5 
REMARK    2  A    between atoms: C5_5  and  C6_6 
REMARK    3  A    between atoms: C6_6  and  C7_7 
REMARK    4  A    between atoms: C7_7  and  C9_9 
REMARK    5  A    between atoms: C16_16  and  O1_17 
REMARK    6  A    between atoms: C19_20  and  O2_21 
ROOT
HETATM    1  C9  UNL     1      -3.401  50.181 -24.521  1.00  0.00    -0.002 C 
HETATM    2  C10 UNL     1      -4.751  49.455 -24.274  1.00  0.00     0.006 C 
HETATM    3  C11 UNL     1      -4.965  49.400 -22.745  1.00  0.00     0.011 C 
HETATM    4  C12 UNL     1      -3.539  49.336 -22.185  1.00  0.00    -0.032 C 
HETATM    5  C13 UNL     1      -3.055  47.870 -22.393  1.00  0.00     0.016 C 
HETATM    6  C14 UNL     1      -3.336  49.719 -20.693  1.00  0.00     0.006 C 
HETATM    7  C15 UNL     1      -4.177  48.924 -19.691  1.00  0.00     0.038 C 
HETATM    8  C16 UNL     1      -3.963  49.492 -18.289  1.00  0.00     0.123 C 
HETATM    9  C17 UNL     1      -2.512  49.338 -17.791  1.00  0.00     0.026 C 
HETATM   10  C18 UNL     1      -2.306  50.233 -16.556  1.00  0.00     0.039 C 
HETATM   11  C19 UNL     1      -0.917  50.054 -15.942  1.00  0.00     0.118 C 
HETATM   12  C20 UNL     1       0.191  49.897 -16.985  1.00  0.00     0.032 C 
HETATM   13  C21 UNL     1      -0.244  50.409 -18.357  1.00  0.00     0.013 C 
HETATM   14  C22 UNL     1      -1.445  49.624 -18.866  1.00  0.00    -0.025 A 
HETATM   15  C23 UNL     1      -1.159  48.467 -19.800  1.00  0.00     0.021 A 
HETATM   16  C24 UNL     1      -1.828  49.705 -20.361  1.00  0.00    -0.027 A 
HETATM   17  C25 UNL     1      -0.968  50.544 -21.324  1.00  0.00     0.011 C 
HETATM   18  C26 UNL     1      -1.308  50.346 -22.821  1.00  0.00     0.011 C 
HETATM   19  C27 UNL     1      -2.823  50.419 -23.079  1.00  0.00    -0.032 C 
HETATM   20  C28 UNL     1      -3.248  51.902 -22.752  1.00  0.00     0.016 C 
ENDROOT
BRANCH   1  21
HETATM   21  C7  UNL     1      -2.455  49.649 -25.636  1.00  0.00    -0.014 C 
HETATM   22  C8  UNL     1      -2.939  48.451 -26.451  1.00  0.00     0.010 C 
BRANCH  21  23
HETATM   23  C6  UNL     1      -1.962  50.778 -26.585  1.00  0.00     0.008 C 
BRANCH  23  24
HETATM   24  C5  UNL     1      -1.234  51.951 -25.925  1.00  0.00     0.028 C 
BRANCH  24  25
HETATM   25  C4  UNL     1       0.246  51.686 -25.837  1.00  0.00    -0.025 C 
HETATM   26  C2  UNL     1       1.145  51.712 -26.839  1.00  0.00    -0.091 C 
HETATM   27  C1  UNL     1       0.838  52.072 -28.268  1.00  0.00     0.042 C 
HETATM   28  C3  UNL     1       2.592  51.377 -26.582  1.00  0.00     0.042 C 
ENDBRANCH  24  25
ENDBRANCH  23  24
ENDBRANCH  21  23
ENDBRANCH   1  21
BRANCH   8  29
HETATM   29  O1  UNL     1      -4.854  48.826 -17.389  1.00  0.00    -0.395 OA
HETATM   30  H28 UNL     1      -4.672  47.872 -17.439  1.00  0.00     0.210 HD
ENDBRANCH   8  29
BRANCH  11  31
HETATM   31  O2  UNL     1      -0.653  51.193 -15.122  1.00  0.00    -0.396 OA
HETATM   32  H33 UNL     1       0.206  51.052 -14.689  1.00  0.00     0.210 HD
ENDBRANCH  11  31
TORSDOF 6
ENDMDL
