MODEL 1
REMARK minimizedAffinity -7.09181833
REMARK CNNscore 0.598026574
REMARK CNNaffinity 7.07165337
REMARK  8 active torsions:
REMARK  status: ('A' for Active; 'I' for Inactive)
REMARK    1  A    between atoms: C4_4  and  C5_5 
REMARK    2  A    between atoms: C5_5  and  C6_6 
REMARK    3  A    between atoms: C6_6  and  C7_7 
REMARK    4  A    between atoms: C7_7  and  C9_9 
REMARK    5  A    between atoms: C19_19  and  C21_21 
REMARK    6  A    between atoms: C21_21  and  O2_23 
REMARK    7  A    between atoms: C22_24  and  O3_25 
REMARK    8  A    between atoms: C24_27  and  O4_28 
ROOT
HETATM    1  C9  UNL     1      -9.432   8.287  14.580  1.00  0.00    -0.002 C 
HETATM    2  C10 UNL     1      -9.817   6.861  14.090  1.00  0.00     0.006 C 
HETATM    3  C11 UNL     1     -11.354   6.766  14.133  1.00  0.00     0.011 C 
HETATM    4  C12 UNL     1     -11.837   8.229  14.123  1.00  0.00    -0.028 C 
HETATM    5  C13 UNL     1     -11.618   8.741  12.633  1.00  0.00     0.016 C 
HETATM    6  C14 UNL     1     -13.369   8.506  14.511  1.00  0.00    -0.028 C 
HETATM    7  C15 UNL     1     -13.835   7.860  15.848  1.00  0.00     0.016 C 
HETATM    8  C16 UNL     1     -14.283   7.843  13.414  1.00  0.00     0.011 C 
HETATM    9  C17 UNL     1     -15.647   8.490  13.221  1.00  0.00     0.007 C 
HETATM   10  C18 UNL     1     -15.476   9.940  12.738  1.00  0.00     0.018 C 
HETATM   11  C19 UNL     1     -16.844  10.666  12.433  1.00  0.00     0.072 C 
HETATM   12  C20 UNL     1     -17.940  10.329  13.470  1.00  0.00     0.030 C 
HETATM   13  C22 UNL     1     -16.650  12.210  12.297  1.00  0.00     0.139 C 
HETATM   14  C23 UNL     1     -15.205  12.576  11.986  1.00  0.00     0.065 C 
HETATM   15  C24 UNL     1     -14.260  12.150  13.109  1.00  0.00     0.130 C 
HETATM   16  C25 UNL     1     -14.589  10.767  13.673  1.00  0.00    -0.000 A 
HETATM   17  C26 UNL     1     -14.879  10.635  15.144  1.00  0.00     0.024 A 
HETATM   18  C27 UNL     1     -13.561  10.075  14.625  1.00  0.00    -0.021 A 
HETATM   19  C28 UNL     1     -12.394  10.851  15.286  1.00  0.00     0.012 C 
HETATM   20  C29 UNL     1     -10.962  10.406  14.962  1.00  0.00     0.011 C 
HETATM   21  C30 UNL     1     -10.787   8.887  15.112  1.00  0.00    -0.032 C 
HETATM   22  C31 UNL     1     -10.929   8.523  16.607  1.00  0.00     0.016 C 
ENDROOT
BRANCH   1  23
HETATM   23  C7  UNL     1      -8.092   8.316  15.382  1.00  0.00    -0.014 C 
HETATM   24  C8  UNL     1      -8.153   7.378  16.595  1.00  0.00     0.010 C 
BRANCH  23  25
HETATM   25  C6  UNL     1      -6.789   8.098  14.573  1.00  0.00     0.008 C 
BRANCH  25  26
HETATM   26  C5  UNL     1      -6.022   6.822  14.960  1.00  0.00     0.028 C 
BRANCH  26  27
HETATM   27  C4  UNL     1      -6.279   5.659  14.044  1.00  0.00    -0.025 C 
HETATM   28  C2  UNL     1      -5.385   4.941  13.336  1.00  0.00    -0.091 C 
HETATM   29  C1  UNL     1      -3.895   5.145  13.350  1.00  0.00     0.042 C 
HETATM   30  C3  UNL     1      -5.843   3.815  12.445  1.00  0.00     0.042 C 
ENDBRANCH  26  27
ENDBRANCH  25  26
ENDBRANCH  23  25
ENDBRANCH   1  23
BRANCH  15  31
HETATM   31  O4  UNL     1     -12.940  12.137  12.567  1.00  0.00    -0.395 OA
HETATM   32  H41 UNL     1     -12.705  13.060  12.374  1.00  0.00     0.210 HD
ENDBRANCH  15  31
BRANCH  11  33
HETATM   33  C21 UNL     1     -17.344  10.179  11.067  1.00  0.00     0.151 C 
HETATM   34  O1  UNL     1     -18.165  10.715  10.342  1.00  0.00    -0.649 OA
BRANCH  33  35
HETATM   35  O2  UNL     1     -16.805   9.002  10.685  1.00  0.00    -0.776 OA
HETATM   36  H35 UNL     1     -17.209   8.835   9.805  1.00  0.00     0.167 HD
ENDBRANCH  33  35
ENDBRANCH  11  33
BRANCH  13  37
HETATM   37  O3  UNL     1     -17.025  12.924  13.481  1.00  0.00    -0.394 OA
HETATM   38  H37 UNL     1     -17.997  12.960  13.508  1.00  0.00     0.210 HD
ENDBRANCH  13  37
TORSDOF 8
ENDMDL
