MODEL 1
REMARK minimizedAffinity -7.85960436
REMARK CNNscore 0.525693655
REMARK CNNaffinity 6.24821281
REMARK  12 active torsions:
REMARK  status: ('A' for Active; 'I' for Inactive)
REMARK    1  A    between atoms: C3_3  and  O1_4 
REMARK    2  A    between atoms: N1_14  and  O2_16 
REMARK    3  A    between atoms: O2_16  and  C13_17 
REMARK    4  A    between atoms: C13_17  and  C14_18 
REMARK       I    between atoms: C14_18  and  N2_20 
REMARK    5  A    between atoms: N2_20  and  C15_21 
REMARK    6  A    between atoms: C15_21  and  C16_22 
REMARK    7  A    between atoms: C15_21  and  C23_33 
REMARK       I    between atoms: C16_22  and  N3_24 
REMARK    8  A    between atoms: N3_24  and  C17_25 
REMARK    9  A    between atoms: C17_25  and  C18_26 
REMARK   10  A    between atoms: C17_25  and  C19_29 
REMARK   11  A    between atoms: C18_26  and  O6_28 
REMARK   12  A    between atoms: C19_29  and  C21_31 
ROOT
HETATM    1  C1  UNL     1       0.270  52.573 -22.117  1.00  0.00     0.015 C 
HETATM    2  C2  UNL     1      -0.386  51.627 -21.769  1.00  0.00    -0.078 C 
HETATM    3  C3  UNL     1      -1.174  50.451 -21.352  1.00  0.00     0.128 C 
HETATM    4  C4  UNL     1      -0.287  49.451 -20.583  1.00  0.00     0.052 C 
HETATM    5  C5  UNL     1      -1.184  48.758 -19.553  1.00  0.00     0.010 C 
HETATM    6  C6  UNL     1      -2.574  49.402 -19.648  1.00  0.00     0.002 C 
HETATM    7  C7  UNL     1      -3.684  48.466 -20.196  1.00  0.00    -0.004 C 
HETATM    8  C8  UNL     1      -3.349  47.587 -21.417  1.00  0.00     0.010 C 
HETATM    9  C9  UNL     1      -4.469  46.589 -21.700  1.00  0.00     0.035 C 
HETATM   10  C10 UNL     1      -5.808  47.262 -21.880  1.00  0.00    -0.069 C 
HETATM   11  C11 UNL     1      -6.611  46.891 -22.895  1.00  0.00     0.030 C 
HETATM   12  C12 UNL     1      -7.995  47.414 -23.040  1.00  0.00     0.032 C 
HETATM   13  N1  UNL     1      -8.670  47.050 -24.095  1.00  0.00    -0.271 N 
ATOM     14  H1  UNL     1      -8.303  46.443 -24.828  1.00  0.00     0.194 HD
HETATM   15  C26 UNL     1      -8.541  48.287 -21.926  1.00  0.00     0.060 C 
HETATM   16  C27 UNL     1      -7.415  49.137 -21.347  1.00  0.00     0.020 C 
HETATM   17  C28 UNL     1      -6.201  48.310 -20.836  1.00  0.00    -0.016 C 
HETATM   18  C29 UNL     1      -6.643  47.553 -19.556  1.00  0.00     0.020 C 
HETATM   19  C30 UNL     1      -4.989  49.267 -20.458  1.00  0.00     0.002 C 
HETATM   20  C31 UNL     1      -4.678  50.381 -21.482  1.00  0.00     0.007 C 
HETATM   21  C32 UNL     1      -3.604  51.358 -20.994  1.00  0.00     0.014 C 
HETATM   22  C33 UNL     1      -2.334  50.764 -20.353  1.00  0.00     0.003 C 
HETATM   23  C34 UNL     1      -1.853  51.782 -19.269  1.00  0.00     0.020 C 
ENDROOT
BRANCH   3  24
HETATM   24  O1  UNL     1      -1.675  49.867 -22.547  1.00  0.00    -0.377 OA
HETATM   25  H2  UNL     1      -1.219  49.015 -22.690  1.00  0.00     0.211 HD
ENDBRANCH   3  24
BRANCH  13  26
HETATM   26  O2  UNL     1      -9.961  47.596 -24.097  1.00  0.00    -0.271 OA
BRANCH  26  27
HETATM   27  C13 UNL     1     -10.562  47.352 -25.367  1.00  0.00     0.303 C 
BRANCH  27  28
HETATM   28  C14 UNL     1     -11.592  46.230 -25.260  1.00  0.00     0.244 C 
HETATM   29  O3  UNL     1     -11.371  45.189 -24.642  1.00  0.00    -0.271 OA
HETATM   30  N2  UNL     1     -12.799  46.492 -25.880  1.00  0.00    -0.346 N 
HETATM   31  H16 UNL     1     -12.992  47.479 -26.038  1.00  0.00     0.163 HD
BRANCH  30  32
HETATM   32  C15 UNL     1     -13.951  45.632 -25.639  1.00  0.00     0.180 C 
BRANCH  32  33
HETATM   33  C16 UNL     1     -14.963  46.408 -24.763  1.00  0.00     0.241 C 
HETATM   34  O4  UNL     1     -14.729  47.532 -24.321  1.00  0.00    -0.271 OA
HETATM   35  N3  UNL     1     -16.161  45.755 -24.550  1.00  0.00    -0.344 N 
HETATM   36  H18 UNL     1     -16.398  45.018 -25.205  1.00  0.00     0.163 HD
BRANCH  35  37
HETATM   37  C17 UNL     1     -17.281  46.444 -23.895  1.00  0.00     0.186 C 
BRANCH  37  38
HETATM   38  C18 UNL     1     -18.406  46.561 -24.929  1.00  0.00     0.163 C 
HETATM   39  O5  UNL     1     -19.418  47.239 -24.823  1.00  0.00    -0.648 OA
BRANCH  38  40
HETATM   40  O6  UNL     1     -18.180  45.842 -26.045  1.00  0.00    -0.775 OA
HETATM   41  H20 UNL     1     -18.975  45.986 -26.599  1.00  0.00     0.167 HD
ENDBRANCH  38  40
ENDBRANCH  37  38
BRANCH  37  42
HETATM   42  C19 UNL     1     -17.704  45.710 -22.602  1.00  0.00     0.014 C 
HETATM   43  C20 UNL     1     -19.220  45.755 -22.355  1.00  0.00     0.012 C 
BRANCH  42  44
HETATM   44  C21 UNL     1     -16.982  46.210 -21.331  1.00  0.00     0.002 C 
HETATM   45  C22 UNL     1     -17.919  46.803 -20.286  1.00  0.00     0.005 C 
ENDBRANCH  42  44
ENDBRANCH  37  42
ENDBRANCH  35  37
ENDBRANCH  32  33
BRANCH  32  46
HETATM   46  C23 UNL     1     -14.606  45.125 -26.945  1.00  0.00     0.009 C 
HETATM   47  C24 UNL     1     -14.375  46.058 -28.139  1.00  0.00     0.012 C 
HETATM   48  C25 UNL     1     -14.114  43.714 -27.289  1.00  0.00     0.012 C 
ENDBRANCH  32  46
ENDBRANCH  30  32
ENDBRANCH  27  28
ENDBRANCH  26  27
ENDBRANCH  13  26
TORSDOF 12
ENDMDL
