MODEL 1
REMARK minimizedAffinity -9.34855461
REMARK CNNscore 0.466935635
REMARK CNNaffinity 6.67181921
REMARK  18 active torsions:
REMARK  status: ('A' for Active; 'I' for Inactive)
REMARK    1  A    between atoms: C2_2  and  C4_4 
REMARK    2  A    between atoms: C4_4  and  N1_5 
REMARK    3  A    between atoms: C4_4  and  C30_38 
REMARK       I    between atoms: N1_5  and  C5_6 
REMARK    4  A    between atoms: C5_6  and  C6_8 
REMARK    5  A    between atoms: C6_8  and  C7_9 
REMARK    6  A    between atoms: C7_9  and  C8_10 
REMARK    7  A    between atoms: C8_10  and  O3_12 
REMARK    8  A    between atoms: O3_12  and  C9_13 
REMARK    9  A    between atoms: C9_13  and  C10_14 
REMARK   10  A    between atoms: C10_14  and  C11_16 
REMARK   11  A    between atoms: C11_16  and  O5_17 
REMARK   12  A    between atoms: C26_33  and  O7_34 
REMARK       I    between atoms: C30_38  and  N2_40 
REMARK   13  A    between atoms: N2_40  and  C31_41 
REMARK   14  A    between atoms: C31_41  and  C32_42 
REMARK   15  A    between atoms: C32_42  and  C33_43 
REMARK   16  A    between atoms: C32_42  and  C35_47 
REMARK   17  A    between atoms: C33_43  and  C34_44 
REMARK   18  A    between atoms: C34_44  and  O10_46 
ROOT
HETATM    1  C8  UNL     1      -7.596  47.728 -25.091  1.00  0.00     0.259 C 
HETATM    2  O2  UNL     1      -8.460  48.146 -24.335  1.00  0.00    -0.265 OA
ENDROOT
BRANCH   1   3
HETATM    3  C7  UNL     1      -7.837  47.209 -26.482  1.00  0.00     0.120 C 
BRANCH   3   4
HETATM    4  C6  UNL     1      -8.843  48.076 -27.230  1.00  0.00     0.112 C 
BRANCH   4   5
HETATM    5  C5  UNL     1     -10.235  47.490 -27.180  1.00  0.00     0.218 C 
HETATM    6  N1  UNL     1     -11.189  48.343 -27.692  1.00  0.00    -0.347 N 
HETATM    7  H9  UNL     1     -10.876  49.220 -28.082  1.00  0.00     0.163 HD
HETATM    8  O1  UNL     1     -10.484  46.378 -26.743  1.00  0.00    -0.274 OA
BRANCH   6   9
HETATM    9  C4  UNL     1     -12.574  47.911 -27.946  1.00  0.00     0.179 C 
BRANCH   9  10
HETATM   10  C2  UNL     1     -12.618  47.011 -29.198  1.00  0.00     0.009 C 
HETATM   11  C1  UNL     1     -11.673  47.497 -30.307  1.00  0.00     0.012 C 
HETATM   12  C3  UNL     1     -12.241  45.567 -28.835  1.00  0.00     0.012 C 
ENDBRANCH   9  10
BRANCH   9  13
HETATM   13  C30 UNL     1     -13.137  47.183 -26.698  1.00  0.00     0.240 C 
HETATM   14  O8  UNL     1     -12.894  47.553 -25.548  1.00  0.00    -0.271 OA
HETATM   15  N2  UNL     1     -14.058  46.186 -26.975  1.00  0.00    -0.359 N 
HETATM   16  H43 UNL     1     -14.465  46.158 -27.895  1.00  0.00     0.162 HD
BRANCH  15  17
HETATM   17  C31 UNL     1     -14.840  45.570 -25.913  1.00  0.00     0.132 C 
BRANCH  17  18
HETATM   18  C32 UNL     1     -16.115  44.890 -26.451  1.00  0.00     0.046 C 
BRANCH  18  19
HETATM   19  C33 UNL     1     -16.221  44.938 -27.989  1.00  0.00     0.120 C 
BRANCH  19  20
HETATM   20  C34 UNL     1     -16.818  43.730 -28.653  1.00  0.00     0.140 C 
HETATM   21  O9  UNL     1     -17.399  43.674 -29.726  1.00  0.00    -0.650 OA
BRANCH  20  22
HETATM   22  O10 UNL     1     -16.570  42.598 -27.962  1.00  0.00    -0.776 OA
HETATM   23  H49 UNL     1     -16.953  41.885 -28.518  1.00  0.00     0.167 HD
ENDBRANCH  20  22
ENDBRANCH  19  20
ENDBRANCH  18  19
BRANCH  18  24
HETATM   24  C35 UNL     1     -17.393  45.335 -25.755  1.00  0.00    -0.052 A 
HETATM   25  C36 UNL     1     -18.568  44.574 -25.777  1.00  0.00     0.007 A 
HETATM   26  C37 UNL     1     -19.731  45.037 -25.152  1.00  0.00     0.001 A 
HETATM   27  C38 UNL     1     -19.730  46.266 -24.499  1.00  0.00     0.000 A 
HETATM   28  C39 UNL     1     -18.565  47.025 -24.455  1.00  0.00     0.001 A 
HETATM   29  C40 UNL     1     -17.405  46.560 -25.068  1.00  0.00     0.007 A 
ENDBRANCH  18  24
ENDBRANCH  17  18
ENDBRANCH  15  17
ENDBRANCH   9  13
ENDBRANCH   6   9
ENDBRANCH   4   5
ENDBRANCH   3   4
ENDBRANCH   1   3
BRANCH   1  30
HETATM   30  O3  UNL     1      -6.266  47.679 -24.802  1.00  0.00    -0.314 OA
BRANCH  30  31
HETATM   31  C9  UNL     1      -5.472  48.518 -25.642  1.00  0.00     0.260 C 
BRANCH  31  32
HETATM   32  C10 UNL     1      -4.068  48.590 -25.064  1.00  0.00     0.185 C 
HETATM   33  O4  UNL     1      -3.119  48.167 -25.727  1.00  0.00    -0.292 OA
BRANCH  32  34
HETATM   34  C11 UNL     1      -3.917  49.105 -23.611  1.00  0.00     0.128 C 
HETATM   35  C12 UNL     1      -2.600  48.527 -23.055  1.00  0.00     0.047 C 
HETATM   36  C13 UNL     1      -2.148  49.535 -22.008  1.00  0.00     0.009 C 
HETATM   37  C14 UNL     1      -2.456  50.899 -22.647  1.00  0.00     0.002 C 
HETATM   38  C15 UNL     1      -1.267  51.359 -23.537  1.00  0.00    -0.002 C 
HETATM   39  C28 UNL     1      -3.836  50.674 -23.336  1.00  0.00     0.001 C 
HETATM   40  C16 UNL     1      -0.166  51.929 -22.609  1.00  0.00     0.010 C 
HETATM   41  C25 UNL     1      -1.627  52.408 -24.614  1.00  0.00     0.031 C 
HETATM   42  C17 UNL     1       0.930  52.736 -23.307  1.00  0.00     0.035 C 
HETATM   43  C18 UNL     1       0.952  52.461 -24.777  1.00  0.00    -0.068 C 
HETATM   44  C19 UNL     1       2.058  51.955 -25.348  1.00  0.00     0.053 C 
HETATM   45  C23 UNL     1      -0.355  52.749 -25.528  1.00  0.00    -0.014 C 
HETATM   46  C20 UNL     1       2.118  51.633 -26.791  1.00  0.00     0.149 C 
HETATM   47  O6  UNL     1       3.112  51.082 -27.249  1.00  0.00    -0.293 OA
HETATM   48  C21 UNL     1       0.951  52.045 -27.652  1.00  0.00     0.084 C 
HETATM   49  C22 UNL     1      -0.347  51.935 -26.858  1.00  0.00     0.022 C 
HETATM   50  C24 UNL     1      -0.387  54.264 -25.882  1.00  0.00     0.020 C 
HETATM   51  C26 UNL     1      -2.860  51.946 -25.411  1.00  0.00     0.124 C 
HETATM   52  C27 UNL     1      -4.056  51.625 -24.526  1.00  0.00     0.045 C 
HETATM   53  C29 UNL     1      -4.935  51.081 -22.303  1.00  0.00     0.019 C 
BRANCH  34  54
HETATM   54  O5  UNL     1      -4.943  48.514 -22.801  1.00  0.00    -0.381 OA
HETATM   55  H16 UNL     1      -5.816  48.802 -23.133  1.00  0.00     0.211 HD
ENDBRANCH  34  54
BRANCH  51  56
HETATM   56  O7  UNL     1      -3.263  52.974 -26.314  1.00  0.00    -0.395 OA
HETATM   57  H37 UNL     1      -3.940  52.584 -26.907  1.00  0.00     0.210 HD
ENDBRANCH  51  56
ENDBRANCH  32  34
ENDBRANCH  31  32
ENDBRANCH  30  31
ENDBRANCH   1  30
TORSDOF 18
ENDMDL
