MODEL 1
REMARK minimizedAffinity -7.03597975
REMARK CNNscore 0.330542356
REMARK CNNaffinity 5.8103714
REMARK  9 active torsions:
REMARK  status: ('A' for Active; 'I' for Inactive)
REMARK    1  A    between atoms: C2_2  and  C4_4 
REMARK    2  A    between atoms: C4_4  and  O1_5 
REMARK    3  A    between atoms: C4_4  and  C5_7 
REMARK    4  A    between atoms: O1_5  and  O2_6 
REMARK    5  A    between atoms: C5_7  and  O3_8 
REMARK    6  A    between atoms: C5_7  and  C6_9 
REMARK    7  A    between atoms: C6_9  and  C7_10 
REMARK    8  A    between atoms: C7_10  and  C9_12 
REMARK    9  A    between atoms: C20_23  and  O4_24 
ROOT
HETATM    1  C9  UNL     1     -14.371  44.575 -25.936  1.00  0.00    -0.002 C 
HETATM    2  C10 UNL     1     -14.287  43.219 -26.702  1.00  0.00     0.006 C 
HETATM    3  C11 UNL     1     -13.336  43.410 -27.898  1.00  0.00     0.011 C 
HETATM    4  C12 UNL     1     -12.618  44.737 -27.619  1.00  0.00    -0.032 C 
HETATM    5  C13 UNL     1     -11.450  44.426 -26.616  1.00  0.00     0.016 C 
HETATM    6  C14 UNL     1     -12.028  45.473 -28.870  1.00  0.00     0.004 C 
HETATM    7  C15 UNL     1     -11.053  44.565 -29.663  1.00  0.00     0.006 C 
HETATM    8  C16 UNL     1      -9.727  45.167 -30.116  1.00  0.00     0.006 C 
HETATM    9  C17 UNL     1      -9.059  45.977 -29.001  1.00  0.00     0.001 C 
HETATM   10  C18 UNL     1      -7.723  46.634 -29.432  1.00  0.00     0.015 C 
HETATM   11  C19 UNL     1      -6.768  45.690 -30.169  1.00  0.00     0.013 C 
HETATM   12  C20 UNL     1      -7.003  47.237 -28.202  1.00  0.00     0.122 C 
HETATM   13  C21 UNL     1      -7.929  47.507 -27.014  1.00  0.00     0.033 C 
HETATM   14  C22 UNL     1      -9.310  47.999 -27.441  1.00  0.00     0.013 C 
HETATM   15  C23 UNL     1      -9.974  47.091 -28.473  1.00  0.00    -0.027 A 
HETATM   16  C24 UNL     1     -10.882  47.769 -29.478  1.00  0.00     0.021 A 
HETATM   17  C25 UNL     1     -11.497  46.861 -28.433  1.00  0.00    -0.027 A 
HETATM   18  C26 UNL     1     -12.445  47.665 -27.527  1.00  0.00     0.011 C 
HETATM   19  C27 UNL     1     -13.154  46.870 -26.424  1.00  0.00     0.011 C 
HETATM   20  C28 UNL     1     -13.787  45.584 -26.978  1.00  0.00    -0.032 C 
HETATM   21  C29 UNL     1     -14.918  45.968 -27.983  1.00  0.00     0.016 C 
ENDROOT
BRANCH   1  22
HETATM   22  C7  UNL     1     -15.788  44.809 -25.320  1.00  0.00    -0.011 C 
HETATM   23  C8  UNL     1     -15.825  44.503 -23.820  1.00  0.00     0.010 C 
BRANCH  22  24
HETATM   24  C6  UNL     1     -16.844  43.950 -26.068  1.00  0.00     0.039 C 
BRANCH  24  25
HETATM   25  C5  UNL     1     -18.266  44.539 -26.209  1.00  0.00     0.154 C 
BRANCH  25  26
HETATM   26  C4  UNL     1     -18.729  45.352 -24.961  1.00  0.00     0.216 C 
BRANCH  26  27
HETATM   27  C2  UNL     1     -19.430  44.592 -23.833  1.00  0.00    -0.059 C 
HETATM   28  C1  UNL     1     -19.550  45.021 -22.564  1.00  0.00     0.016 C 
HETATM   29  C3  UNL     1     -20.052  43.281 -24.238  1.00  0.00     0.045 C 
ENDBRANCH  26  27
BRANCH  26  30
HETATM   30  O1  UNL     1     -19.600  46.408 -25.408  1.00  0.00    -0.231 OA
BRANCH  30  31
HETATM   31  O2  UNL     1     -19.081  47.655 -24.855  1.00  0.00    -0.250 OA
HETATM   32  H7  UNL     1     -19.915  47.932 -24.431  1.00  0.00     0.253 HD
ENDBRANCH  30  31
ENDBRANCH  26  30
ENDBRANCH  25  26
BRANCH  25  33
HETATM   33  O3  UNL     1     -18.261  45.362 -27.392  1.00  0.00    -0.393 OA
HETATM   34  H9  UNL     1     -17.889  44.836 -28.118  1.00  0.00     0.210 HD
ENDBRANCH  25  33
ENDBRANCH  24  25
ENDBRANCH  22  24
ENDBRANCH   1  22
BRANCH  12  35
HETATM   35  O4  UNL     1      -6.370  48.452 -28.606  1.00  0.00    -0.395 OA
HETATM   36  H35 UNL     1      -5.869  48.791 -27.845  1.00  0.00     0.210 HD
ENDBRANCH  12  35
TORSDOF 9
ENDMDL
