MODEL 1
REMARK minimizedAffinity -7.42914248
REMARK CNNscore 0.583259881
REMARK CNNaffinity 5.75823975
REMARK  10 active torsions:
REMARK  status: ('A' for Active; 'I' for Inactive)
REMARK    1  A    between atoms: C19_21  and  O3_22 
REMARK    2  A    between atoms: C19_21  and  C20_23 
REMARK    3  A    between atoms: C20_23  and  C21_25 
REMARK    4  A    between atoms: C21_25  and  O5_26 
REMARK    5  A    between atoms: O5_26  and  C22_27 
REMARK    6  A    between atoms: C22_27  and  C23_29 
REMARK    7  A    between atoms: C23_29  and  C24_30 
REMARK    8  A    between atoms: C24_30  and  C25_31 
REMARK       I    between atoms: C25_31  and  N1_33 
REMARK    9  A    between atoms: N1_33  and  C26_34 
REMARK   10  A    between atoms: C26_34  and  C27_35 
ROOT
HETATM    1  C1  UNL     1     -10.583  14.001  22.572  1.00  0.00     0.021 C 
HETATM    2  C2  UNL     1      -9.560  12.877  22.298  1.00  0.00    -0.009 C 
HETATM    3  C3  UNL     1      -8.289  13.095  23.177  1.00  0.00     0.022 C 
HETATM    4  C4  UNL     1      -7.413  14.252  22.719  1.00  0.00     0.084 C 
HETATM    5  C5  UNL     1      -7.026  14.078  21.277  1.00  0.00     0.149 C 
HETATM    6  O1  UNL     1      -5.976  14.525  20.816  1.00  0.00    -0.293 OA
HETATM    7  C6  UNL     1      -8.003  13.432  20.366  1.00  0.00     0.053 C 
HETATM    8  C7  UNL     1      -9.174  12.944  20.809  1.00  0.00    -0.067 C 
HETATM    9  C8  UNL     1     -10.197  12.448  19.811  1.00  0.00     0.035 C 
HETATM   10  C9  UNL     1     -10.717  11.062  20.160  1.00  0.00     0.010 C 
HETATM   11  C10 UNL     1     -11.257  11.015  21.597  1.00  0.00     0.003 C 
HETATM   12  C11 UNL     1     -10.146  11.448  22.599  1.00  0.00     0.072 C 
HETATM   13  C12 UNL     1     -10.617  11.217  24.048  1.00  0.00     0.133 C 
HETATM   14  O2  UNL     1     -10.467  12.035  24.952  1.00  0.00    -0.297 OA
HETATM   15  C13 UNL     1     -11.192   9.848  24.372  1.00  0.00     0.091 C 
HETATM   16  C14 UNL     1     -12.322   9.503  23.395  1.00  0.00     0.005 C 
HETATM   17  C15 UNL     1     -13.517  10.465  23.636  1.00  0.00     0.019 C 
HETATM   18  C16 UNL     1     -11.739   9.603  21.962  1.00  0.00     0.002 C 
HETATM   19  C17 UNL     1     -12.810   8.953  21.094  1.00  0.00     0.009 C 
HETATM   20  C18 UNL     1     -13.433   7.860  21.988  1.00  0.00     0.047 C 
HETATM   21  C19 UNL     1     -12.792   8.013  23.398  1.00  0.00     0.128 C 
ENDROOT
BRANCH  21  22
HETATM   22  O3  UNL     1     -11.638   7.167  23.390  1.00  0.00    -0.381 OA
HETATM   23  H25 UNL     1     -11.789   6.421  24.006  1.00  0.00     0.211 HD
ENDBRANCH  21  22
BRANCH  21  24
HETATM   24  C20 UNL     1     -13.798   7.666  24.537  1.00  0.00     0.185 C 
HETATM   25  O4  UNL     1     -13.819   8.291  25.603  1.00  0.00    -0.292 OA
BRANCH  24  26
HETATM   26  C21 UNL     1     -14.707   6.457  24.356  1.00  0.00     0.260 C 
BRANCH  26  27
HETATM   27  O5  UNL     1     -13.940   5.274  24.160  1.00  0.00    -0.314 OA
BRANCH  27  28
HETATM   28  C22 UNL     1     -14.365   4.493  23.136  1.00  0.00     0.259 C 
HETATM   29  O6  UNL     1     -15.222   4.805  22.321  1.00  0.00    -0.265 OA
BRANCH  28  30
HETATM   30  C23 UNL     1     -13.614   3.183  23.122  1.00  0.00     0.120 C 
BRANCH  30  31
HETATM   31  C24 UNL     1     -13.987   2.356  24.344  1.00  0.00     0.112 C 
BRANCH  31  32
HETATM   32  C25 UNL     1     -12.789   2.113  25.244  1.00  0.00     0.218 C 
HETATM   33  O7  UNL     1     -11.635   2.106  24.831  1.00  0.00    -0.274 OA
HETATM   34  N1  UNL     1     -13.135   1.897  26.555  1.00  0.00    -0.355 N 
HETATM   35  H32 UNL     1     -14.103   1.968  26.839  1.00  0.00     0.162 HD
BRANCH  34  36
HETATM   36  C26 UNL     1     -12.151   1.638  27.582  1.00  0.00     0.187 C 
BRANCH  36  37
HETATM   37  C27 UNL     1     -12.476   2.451  28.779  1.00  0.00     0.070 A 
HETATM   38  C28 UNL     1     -12.030   3.672  29.245  1.00  0.00     0.036 A 
HETATM   39  C29 UNL     1     -12.757   3.929  30.435  1.00  0.00     0.027 A 
HETATM   40  C30 UNL     1     -13.589   2.851  30.623  1.00  0.00     0.142 A 
HETATM   41  O8  UNL     1     -13.426   1.948  29.621  1.00  0.00    -0.325 OA
ENDBRANCH  36  37
ENDBRANCH  34  36
ENDBRANCH  31  32
ENDBRANCH  30  31
ENDBRANCH  28  30
ENDBRANCH  27  28
ENDBRANCH  26  27
ENDBRANCH  24  26
ENDBRANCH  21  24
TORSDOF 10
ENDMDL
