MODEL 1
REMARK minimizedAffinity -7.37989044
REMARK CNNscore 0.535483479
REMARK CNNaffinity 7.23494148
REMARK  6 active torsions:
REMARK  status: ('A' for Active; 'I' for Inactive)
REMARK    1  A    between atoms: C2_2  and  C30_32 
REMARK    2  A    between atoms: C3_3  and  C4_4 
REMARK    3  A    between atoms: C4_4  and  C5_5 
REMARK    4  A    between atoms: C5_5  and  C6_6 
REMARK    5  A    between atoms: C6_6  and  C8_8 
REMARK    6  A    between atoms: C30_32  and  O4_34 
ROOT
HETATM    1  C8  UNL     1      -9.231   6.551  14.663  1.00  0.00    -0.002 C 
HETATM    2  C9  UNL     1      -9.626   6.403  13.167  1.00  0.00     0.007 C 
HETATM    3  C10 UNL     1     -10.728   7.444  12.885  1.00  0.00     0.015 C 
HETATM    4  C11 UNL     1     -11.227   7.878  14.276  1.00  0.00    -0.005 C 
HETATM    5  C12 UNL     1     -12.247   6.797  14.757  1.00  0.00     0.021 C 
HETATM    6  C13 UNL     1     -11.957   9.199  14.447  1.00  0.00    -0.000 C 
HETATM    7  C14 UNL     1     -11.921   9.907  15.604  1.00  0.00    -0.060 C 
HETATM    8  C15 UNL     1     -11.033   9.403  16.763  1.00  0.00     0.036 C 
HETATM    9  C16 UNL     1     -10.203   8.117  16.542  1.00  0.00     0.015 C 
HETATM   10  C17 UNL     1      -9.858   7.919  15.062  1.00  0.00    -0.028 C 
HETATM   11  C18 UNL     1      -8.931   9.087  14.613  1.00  0.00     0.016 C 
HETATM   12  C19 UNL     1     -12.796  11.175  15.876  1.00  0.00    -0.014 C 
HETATM   13  C20 UNL     1     -13.782  10.754  17.003  1.00  0.00     0.020 C 
HETATM   14  C21 UNL     1     -11.937  12.360  16.408  1.00  0.00     0.021 C 
HETATM   15  C22 UNL     1     -11.467  13.302  15.316  1.00  0.00     0.080 C 
HETATM   16  C23 UNL     1     -12.650  13.984  14.669  1.00  0.00     0.135 C 
HETATM   17  O1  UNL     1     -12.542  15.135  14.240  1.00  0.00    -0.297 OA
HETATM   18  C24 UNL     1     -13.963  13.196  14.562  1.00  0.00     0.018 C 
HETATM   19  C25 UNL     1     -14.900  13.670  15.690  1.00  0.00     0.023 C 
HETATM   20  C26 UNL     1     -14.656  13.591  13.235  1.00  0.00     0.023 C 
HETATM   21  C27 UNL     1     -13.667  11.644  14.625  1.00  0.00     0.020 C 
HETATM   22  C28 UNL     1     -13.069  11.160  13.294  1.00  0.00     0.090 C 
HETATM   23  C29 UNL     1     -12.794   9.689  13.328  1.00  0.00     0.157 C 
HETATM   24  O2  UNL     1     -13.196   8.940  12.443  1.00  0.00    -0.293 OA
ENDROOT
BRANCH   1  25
HETATM   25  C6  UNL     1      -7.750   6.170  14.961  1.00  0.00    -0.014 C 
HETATM   26  C7  UNL     1      -7.232   6.441  16.379  1.00  0.00     0.010 C 
BRANCH  25  27
HETATM   27  C5  UNL     1      -7.441   4.717  14.537  1.00  0.00     0.008 C 
BRANCH  27  28
HETATM   28  C4  UNL     1      -6.466   4.622  13.358  1.00  0.00     0.028 C 
BRANCH  28  29
HETATM   29  C3  UNL     1      -6.621   3.316  12.626  1.00  0.00    -0.013 C 
HETATM   30  C2  UNL     1      -5.739   2.704  11.811  1.00  0.00     0.008 C 
HETATM   31  C1  UNL     1      -6.011   1.345  11.232  1.00  0.00     0.055 C 
BRANCH  30  32
HETATM   32  C30 UNL     1      -4.428   3.264  11.415  1.00  0.00     0.171 C 
HETATM   33  O3  UNL     1      -3.510   3.515  12.177  1.00  0.00    -0.646 OA
BRANCH  32  34
HETATM   34  O4  UNL     1      -4.283   3.393  10.087  1.00  0.00    -0.773 OA
HETATM   35  H44 UNL     1      -3.367   3.727   9.987  1.00  0.00     0.167 HD
ENDBRANCH  32  34
ENDBRANCH  30  32
ENDBRANCH  28  29
ENDBRANCH  27  28
ENDBRANCH  25  27
ENDBRANCH   1  25
TORSDOF 6
ENDMDL
