MODEL 1
REMARK minimizedAffinity -8.17459106
REMARK  8 active torsions:
REMARK  status: ('A' for Active; 'I' for Inactive)
REMARK    1  A    between atoms: C4_4  and  C5_5 
REMARK    2  A    between atoms: C5_5  and  C6_6 
REMARK    3  A    between atoms: C6_6  and  C7_7 
REMARK    4  A    between atoms: C7_7  and  C9_9 
REMARK    5  A    between atoms: C21_21  and  C22_22 
REMARK    6  A    between atoms: C22_22  and  C23_23 
REMARK    7  A    between atoms: C23_23  and  C24_24 
REMARK    8  A    between atoms: C24_24  and  O1_25 
ROOT
HETATM    1  C9  UNL     1      -1.720   6.755  12.546  1.00  0.00    -0.002 C 
HETATM    2  C10 UNL     1      -1.760   5.204  12.349  1.00  0.00     0.006 C 
HETATM    3  C11 UNL     1      -0.334   4.742  11.979  1.00  0.00     0.011 C 
HETATM    4  C12 UNL     1       0.413   6.042  11.620  1.00  0.00    -0.032 C 
HETATM    5  C13 UNL     1      -0.019   6.357  10.155  1.00  0.00     0.016 C 
HETATM    6  C14 UNL     1       1.969   5.987  11.772  1.00  0.00     0.003 C 
HETATM    7  C15 UNL     1       2.692   4.926  10.910  1.00  0.00     0.010 C 
HETATM    8  C16 UNL     1       3.031   5.320   9.469  1.00  0.00     0.035 C 
HETATM    9  C17 UNL     1       3.114   6.824   9.251  1.00  0.00    -0.073 C 
HETATM   10  C18 UNL     1       2.689   7.380   8.084  1.00  0.00    -0.085 C 
HETATM   11  C19 UNL     1       2.526   8.851   7.803  1.00  0.00     0.043 C 
HETATM   12  C20 UNL     1       2.293   6.549   6.879  1.00  0.00     0.043 C 
HETATM   13  C21 UNL     1       3.706   7.492  10.504  1.00  0.00     0.023 C 
HETATM   14  C25 UNL     1       2.673   7.416  11.719  1.00  0.00    -0.032 C 
HETATM   15  C26 UNL     1       3.510   7.590  13.023  1.00  0.00     0.016 C 
HETATM   16  C27 UNL     1       1.652   8.590  11.660  1.00  0.00     0.011 C 
HETATM   17  C28 UNL     1       0.310   8.457  12.415  1.00  0.00     0.011 C 
HETATM   18  C29 UNL     1      -0.183   7.024  12.701  1.00  0.00    -0.032 C 
HETATM   19  C30 UNL     1       0.184   6.667  14.178  1.00  0.00     0.016 C 
ENDROOT
BRANCH   1  20
HETATM   20  C7  UNL     1      -2.722   7.232  13.644  1.00  0.00    -0.014 C 
HETATM   21  C8  UNL     1      -2.638   6.304  14.870  1.00  0.00     0.010 C 
BRANCH  20  22
HETATM   22  C6  UNL     1      -4.177   7.288  13.120  1.00  0.00     0.008 C 
BRANCH  22  23
HETATM   23  C5  UNL     1      -5.180   6.353  13.814  1.00  0.00     0.028 C 
BRANCH  23  24
HETATM   24  C4  UNL     1      -5.324   5.031  13.109  1.00  0.00    -0.025 C 
HETATM   25  C2  UNL     1      -6.435   4.287  12.944  1.00  0.00    -0.091 C 
HETATM   26  C1  UNL     1      -7.804   4.630  13.462  1.00  0.00     0.042 C 
HETATM   27  C3  UNL     1      -6.375   2.985  12.186  1.00  0.00     0.042 C 
ENDBRANCH  23  24
ENDBRANCH  22  23
ENDBRANCH  20  22
ENDBRANCH   1  20
BRANCH  13  28
HETATM   28  C22 UNL     1       4.425   8.860  10.331  1.00  0.00     0.012 C 
BRANCH  28  29
HETATM   29  C23 UNL     1       5.954   8.832  10.528  1.00  0.00     0.027 C 
BRANCH  29  30
HETATM   30  C24 UNL     1       6.463   7.579  11.238  1.00  0.00     0.164 C 
BRANCH  30  31
HETATM   31  O1  UNL     1       7.193   6.749  10.349  1.00  0.00    -0.401 OA
HETATM   32  H42 UNL     1       7.549   6.013  10.874  1.00  0.00     0.209 HD
ENDBRANCH  30  31
ENDBRANCH  29  30
ENDBRANCH  28  29
ENDBRANCH  13  28
TORSDOF 8
ENDMDL
