MODEL 1
REMARK minimizedAffinity -7.0764389
REMARK CNNscore 0.681839883
REMARK CNNaffinity 6.41712046
REMARK  13 active torsions:
REMARK  status: ('A' for Active; 'I' for Inactive)
REMARK    1  A    between atoms: C4_4  and  C5_5 
REMARK    2  A    between atoms: C5_5  and  C6_6 
REMARK    3  A    between atoms: C6_6  and  C7_7 
REMARK    4  A    between atoms: C9_9  and  C10_10 
REMARK    5  A    between atoms: C11_11  and  C12_12 
REMARK    6  A    between atoms: C14_14  and  C15_15 
REMARK    7  A    between atoms: C18_18  and  O1_19 
REMARK    8  A    between atoms: C19_21  and  C20_22 
REMARK    9  A    between atoms: C20_22  and  C21_23 
REMARK   10  A    between atoms: C21_23  and  C22_24 
REMARK   11  A    between atoms: C22_24  and  O3_25 
REMARK   12  A    between atoms: C24_27  and  C26_29 
REMARK   13  A    between atoms: C29_33  and  O5_35 
ROOT
HETATM    1  C15 UNL     1      -0.088   8.592  12.689  1.00  0.00     0.149 C 
HETATM    2  C16 UNL     1       1.307   9.116  12.292  1.00  0.00     0.054 C 
HETATM    3  C17 UNL     1       2.201   7.855  12.394  1.00  0.00     0.050 C 
HETATM    4  C18 UNL     1       1.524   7.253  13.637  1.00  0.00     0.270 C 
HETATM    5  O2  UNL     1       0.125   7.363  13.411  1.00  0.00    -0.351 OA
HETATM    6  C19 UNL     1       1.985   7.006  11.057  1.00  0.00     0.032 C 
HETATM    7  C23 UNL     1       2.675   7.705   9.861  1.00  0.00    -0.066 C 
HETATM    8  C24 UNL     1       2.009   8.054   8.730  1.00  0.00    -0.021 C 
HETATM    9  C25 UNL     1       0.552   7.775   8.458  1.00  0.00     0.052 C 
HETATM   10  C27 UNL     1       4.146   7.961  10.131  1.00  0.00     0.038 C 
HETATM   11  C28 UNL     1       4.340   8.810  11.385  1.00  0.00     0.042 C 
HETATM   12  C29 UNL     1       3.717   8.161  12.633  1.00  0.00     0.067 C 
HETATM   13  C30 UNL     1       4.034   9.056  13.844  1.00  0.00     0.047 C 
ENDROOT
BRANCH   4  14
HETATM   14  O1  UNL     1       1.900   5.927  13.902  1.00  0.00    -0.370 OA
HETATM   15  H26 UNL     1       1.303   5.646  14.619  1.00  0.00     0.212 HD
ENDBRANCH   4  14
BRANCH   6  16
HETATM   16  C20 UNL     1       2.388   5.506  11.061  1.00  0.00     0.012 C 
BRANCH  16  17
HETATM   17  C21 UNL     1       3.527   5.208  10.076  1.00  0.00     0.027 C 
BRANCH  17  18
HETATM   18  C22 UNL     1       3.349   3.850   9.410  1.00  0.00     0.164 C 
BRANCH  18  19
HETATM   19  O3  UNL     1       4.445   3.003   9.732  1.00  0.00    -0.401 OA
HETATM   20  H34 UNL     1       4.484   2.932  10.701  1.00  0.00     0.209 HD
ENDBRANCH  18  19
ENDBRANCH  17  18
ENDBRANCH  16  17
ENDBRANCH   6  16
BRANCH  12  21
HETATM   21  O5  UNL     1       4.444   6.947  12.874  1.00  0.00    -0.389 OA
HETATM   22  H46 UNL     1       3.922   6.389  13.482  1.00  0.00     0.210 HD
ENDBRANCH  12  21
BRANCH   1  23
HETATM   23  C14 UNL     1      -0.843   9.533  13.584  1.00  0.00     0.011 C 
HETATM   24  C12 UNL     1      -2.178   9.607  13.780  1.00  0.00    -0.063 C 
HETATM   25  C13 UNL     1      -3.177   8.680  13.135  1.00  0.00     0.048 C 
BRANCH  24  26
HETATM   26  C11 UNL     1      -2.691  10.635  14.691  1.00  0.00     0.006 C 
HETATM   27  C10 UNL     1      -2.164  10.989  15.877  1.00  0.00     0.001 C 
BRANCH  27  28
HETATM   28  C9  UNL     1      -2.746  12.023  16.710  1.00  0.00     0.002 C 
HETATM   29  C7  UNL     1      -2.441  12.303  17.993  1.00  0.00    -0.084 C 
HETATM   30  C8  UNL     1      -1.426  11.579  18.839  1.00  0.00     0.043 C 
BRANCH  29  31
HETATM   31  C6  UNL     1      -3.164  13.433  18.709  1.00  0.00     0.037 C 
BRANCH  31  32
HETATM   32  C5  UNL     1      -4.655  13.138  18.911  1.00  0.00     0.031 C 
BRANCH  32  33
HETATM   33  C4  UNL     1      -5.020  13.134  20.372  1.00  0.00    -0.024 C 
HETATM   34  C2  UNL     1      -6.229  13.355  20.923  1.00  0.00    -0.091 C 
HETATM   35  C1  UNL     1      -7.480  13.699  20.163  1.00  0.00     0.042 C 
HETATM   36  C3  UNL     1      -6.416  13.274  22.417  1.00  0.00     0.042 C 
ENDBRANCH  32  33
ENDBRANCH  31  32
ENDBRANCH  29  31
ENDBRANCH  27  28
ENDBRANCH  24  26
ENDBRANCH   1  23
BRANCH   8  37
HETATM   37  C26 UNL     1       2.677   8.763   7.589  1.00  0.00     0.265 C 
HETATM   38  O4  UNL     1       3.602   9.554   7.754  1.00  0.00    -0.302 OA
ENDBRANCH   8  37
TORSDOF 13
ENDMDL
