MODEL 1
REMARK minimizedAffinity -10.7047882
REMARK CNNscore 0.661256552
REMARK CNNaffinity 7.61224747
REMARK  10 active torsions:
REMARK  status: ('A' for Active; 'I' for Inactive)
REMARK    1  A    between atoms: C19_21  and  O3_22 
REMARK    2  A    between atoms: C19_21  and  C20_23 
REMARK    3  A    between atoms: C20_23  and  C21_25 
REMARK    4  A    between atoms: C21_25  and  O5_26 
REMARK    5  A    between atoms: O5_26  and  C22_27 
REMARK    6  A    between atoms: C22_27  and  C23_29 
REMARK    7  A    between atoms: C23_29  and  C24_30 
REMARK    8  A    between atoms: C24_30  and  C25_31 
REMARK       I    between atoms: C25_31  and  N1_33 
REMARK    9  A    between atoms: N1_33  and  C26_34 
REMARK   10  A    between atoms: C26_34  and  C27_35 
ROOT
HETATM    1  C1  UNL     1      -0.243  49.890 -21.021  1.00  0.00     0.021 C 
HETATM    2  C2  UNL     1      -0.931  51.255 -21.249  1.00  0.00    -0.009 C 
HETATM    3  C3  UNL     1      -0.167  52.048 -22.353  1.00  0.00     0.022 C 
HETATM    4  C4  UNL     1       1.176  52.602 -21.899  1.00  0.00     0.084 C 
HETATM    5  C5  UNL     1       1.002  53.455 -20.672  1.00  0.00     0.149 C 
HETATM    6  O1  UNL     1       1.721  54.420 -20.432  1.00  0.00    -0.293 OA
HETATM    7  C6  UNL     1      -0.028  53.050 -19.687  1.00  0.00     0.053 C 
HETATM    8  C7  UNL     1      -0.873  52.032 -19.920  1.00  0.00    -0.067 C 
HETATM    9  C8  UNL     1      -1.811  51.581 -18.825  1.00  0.00     0.035 C 
HETATM   10  C9  UNL     1      -3.250  51.475 -19.317  1.00  0.00     0.010 C 
HETATM   11  C10 UNL     1      -3.351  50.568 -20.550  1.00  0.00     0.003 C 
HETATM   12  C11 UNL     1      -2.435  51.109 -21.685  1.00  0.00     0.072 C 
HETATM   13  C12 UNL     1      -2.679  50.306 -22.977  1.00  0.00     0.133 C 
HETATM   14  O2  UNL     1      -1.778  49.830 -23.664  1.00  0.00    -0.297 OA
HETATM   15  C13 UNL     1      -4.127  50.167 -23.432  1.00  0.00     0.091 C 
HETATM   16  C14 UNL     1      -4.968  49.567 -22.300  1.00  0.00     0.005 C 
HETATM   17  C15 UNL     1      -4.510  48.106 -22.039  1.00  0.00     0.019 C 
HETATM   18  C16 UNL     1      -4.795  50.491 -21.064  1.00  0.00     0.002 C 
HETATM   19  C17 UNL     1      -5.872  50.010 -20.101  1.00  0.00     0.009 C 
HETATM   20  C18 UNL     1      -7.033  49.568 -21.010  1.00  0.00     0.047 C 
HETATM   21  C19 UNL     1      -6.513  49.640 -22.477  1.00  0.00     0.128 C 
ENDROOT
BRANCH  21  22
HETATM   22  O3  UNL     1      -6.864  50.936 -22.970  1.00  0.00    -0.381 OA
HETATM   23  H25 UNL     1      -7.844  50.967 -23.011  1.00  0.00     0.211 HD
ENDBRANCH  21  22
BRANCH  21  24
HETATM   24  C20 UNL     1      -7.133  48.528 -23.362  1.00  0.00     0.185 C 
HETATM   25  O4  UNL     1      -8.303  48.159 -23.212  1.00  0.00    -0.292 OA
BRANCH  24  26
HETATM   26  C21 UNL     1      -6.248  47.812 -24.394  1.00  0.00     0.260 C 
BRANCH  26  27
HETATM   27  O5  UNL     1      -5.669  48.491 -25.499  1.00  0.00    -0.314 OA
BRANCH  27  28
HETATM   28  C22 UNL     1      -5.868  47.907 -26.711  1.00  0.00     0.259 C 
HETATM   29  O6  UNL     1      -6.876  47.286 -27.024  1.00  0.00    -0.265 OA
BRANCH  28  30
HETATM   30  C23 UNL     1      -4.691  48.178 -27.617  1.00  0.00     0.120 C 
BRANCH  30  31
HETATM   31  C24 UNL     1      -3.471  48.621 -26.816  1.00  0.00     0.112 C 
BRANCH  31  32
HETATM   32  C25 UNL     1      -2.874  49.897 -27.381  1.00  0.00     0.218 C 
HETATM   33  O7  UNL     1      -3.236  50.380 -28.449  1.00  0.00    -0.274 OA
HETATM   34  N1  UNL     1      -1.885  50.436 -26.590  1.00  0.00    -0.357 N 
HETATM   35  H32 UNL     1      -1.735  50.043 -25.668  1.00  0.00     0.162 HD
BRANCH  34  36
HETATM   36  C26 UNL     1      -1.404  51.784 -26.802  1.00  0.00     0.161 C 
BRANCH  36  37
HETATM   37  C27 UNL     1       0.096  51.783 -26.942  1.00  0.00    -0.038 A 
HETATM   38  C28 UNL     1       0.708  52.028 -28.174  1.00  0.00     0.025 A 
HETATM   39  C29 UNL     1       2.092  51.972 -28.250  1.00  0.00     0.088 A 
HETATM   40  N2  UNL     1       2.894  51.683 -27.203  1.00  0.00    -0.375 N 
HETATM   41  C30 UNL     1       2.284  51.440 -26.023  1.00  0.00     0.088 A 
ATOM     42  H2  UNL     1       3.909  51.651 -27.298  1.00  0.00     0.164 HD
HETATM   43  C31 UNL     1       0.910  51.485 -25.844  1.00  0.00     0.025 A 
ENDBRANCH  36  37
ENDBRANCH  34  36
ENDBRANCH  31  32
ENDBRANCH  30  31
ENDBRANCH  28  30
ENDBRANCH  27  28
ENDBRANCH  26  27
ENDBRANCH  24  26
ENDBRANCH  21  24
TORSDOF 10
ENDMDL
