MODEL 1
REMARK minimizedAffinity -10.5952988
REMARK CNNscore 0.554555774
REMARK CNNaffinity 7.11698341
REMARK  11 active torsions:
REMARK  status: ('A' for Active; 'I' for Inactive)
REMARK    1  A    between atoms: C5_5  and  C6_6 
REMARK    2  A    between atoms: C8_8  and  C9_9 
REMARK    3  A    between atoms: C9_9  and  O1_10 
REMARK    4  A    between atoms: C11_12  and  C12_13 
REMARK    5  A    between atoms: C12_13  and  C13_14 
REMARK    6  A    between atoms: C13_14  and  O2_15 
REMARK    7  A    between atoms: C13_14  and  C14_16 
REMARK    8  A    between atoms: C14_16  and  O3_18 
REMARK    9  A    between atoms: C24_29  and  O6_30 
REMARK   10  A    between atoms: C29_35  and  C30_36 
REMARK   11  A    between atoms: C30_36  and  O7_37 
ROOT
HETATM    1  C1  UNL     1       3.639  11.992  14.485  1.00  0.00     0.036 C 
HETATM    2  C2  UNL     1       3.761  11.595  15.924  1.00  0.00    -0.018 C 
HETATM    3  C3  UNL     1       2.809  11.052  16.713  1.00  0.00     0.015 C 
HETATM    4  C4  UNL     1       3.088  10.692  18.161  1.00  0.00     0.066 C 
HETATM    5  C5  UNL     1       3.343  11.901  19.115  1.00  0.00     0.102 C 
HETATM    6  C17 UNL     1       2.153  12.779  19.215  1.00  0.00    -0.096 C 
HETATM    7  C18 UNL     1       1.107  13.371  19.196  1.00  0.00    -0.096 C 
HETATM    8  C19 UNL     1      -0.260  13.877  18.951  1.00  0.00     0.110 C 
HETATM    9  C20 UNL     1      -0.827  14.666  20.111  1.00  0.00     0.133 C 
HETATM   10  C21 UNL     1      -2.182  15.214  19.735  1.00  0.00     0.265 C 
HETATM   11  O4  UNL     1      -2.560  16.327  20.091  1.00  0.00    -0.265 OA
HETATM   12  O5  UNL     1      -3.023  14.365  19.015  1.00  0.00    -0.278 OA
HETATM   13  C22 UNL     1      -2.590  13.091  18.606  1.00  0.00     0.089 A 
HETATM   14  C23 UNL     1      -3.542  12.175  18.162  1.00  0.00     0.075 A 
HETATM   15  C24 UNL     1      -3.124  10.904  17.753  1.00  0.00     0.074 A 
HETATM   16  C25 UNL     1      -1.778  10.532  17.824  1.00  0.00    -0.022 A 
HETATM   17  C26 UNL     1      -0.866  11.470  18.307  1.00  0.00     0.021 A 
HETATM   18  C27 UNL     1      -1.240  12.774  18.635  1.00  0.00    -0.007 A 
HETATM   19  C28 UNL     1      -1.257   9.174  17.397  1.00  0.00     0.077 C 
HETATM   20  C29 UNL     1      -0.354   9.197  16.122  1.00  0.00     0.171 C 
HETATM   21  O9  UNL     1       0.994   9.586  16.525  1.00  0.00    -0.309 OA
HETATM   22  C40 UNL     1       1.435  10.824  16.174  1.00  0.00     0.289 C 
HETATM   23  O10 UNL     1       0.822  11.645  15.513  1.00  0.00    -0.260 OA
ENDROOT
BRANCH   5  24
HETATM   24  C6  UNL     1       3.768  11.404  20.492  1.00  0.00    -0.041 A 
HETATM   25  C7  UNL     1       3.142  10.296  21.088  1.00  0.00     0.017 A 
HETATM   26  C8  UNL     1       3.551   9.813  22.339  1.00  0.00    -0.034 A 
HETATM   27  C10 UNL     1       4.591  10.469  23.008  1.00  0.00     0.016 A 
HETATM   28  C11 UNL     1       5.228  11.582  22.440  1.00  0.00    -0.054 A 
HETATM   29  C16 UNL     1       4.812  12.041  21.182  1.00  0.00     0.015 A 
BRANCH  26  30
HETATM   30  C9  UNL     1       2.845   8.646  22.979  1.00  0.00     0.202 C 
BRANCH  30  31
HETATM   31  O1  UNL     1       1.960   8.036  22.047  1.00  0.00    -0.396 OA
HETATM   32  H11 UNL     1       1.558   7.278  22.503  1.00  0.00     0.209 HD
ENDBRANCH  30  31
ENDBRANCH  26  30
BRANCH  28  33
HETATM   33  C12 UNL     1       6.337  12.288  23.187  1.00  0.00     0.073 C 
BRANCH  33  34
HETATM   34  C13 UNL     1       7.713  12.059  22.541  1.00  0.00     0.150 C 
BRANCH  34  35
HETATM   35  O2  UNL     1       8.483  11.136  23.339  1.00  0.00    -0.393 OA
HETATM   36  H16 UNL     1       8.007  10.284  23.314  1.00  0.00     0.210 HD
ENDBRANCH  34  35
BRANCH  34  37
HETATM   37  C14 UNL     1       8.551  13.351  22.441  1.00  0.00     0.143 C 
HETATM   38  C15 UNL     1       9.633  13.307  21.373  1.00  0.00     0.042 C 
BRANCH  37  39
HETATM   39  O3  UNL     1       9.195  13.559  23.705  1.00  0.00    -0.393 OA
HETATM   40  H21 UNL     1       8.484  13.435  24.366  1.00  0.00     0.210 HD
ENDBRANCH  37  39
ENDBRANCH  34  37
ENDBRANCH  33  34
ENDBRANCH  28  33
ENDBRANCH   5  24
BRANCH  20  41
HETATM   41  C30 UNL     1      -0.316   7.786  15.420  1.00  0.00     0.089 C 
HETATM   42  C31 UNL     1       0.485   7.828  14.094  1.00  0.00     0.041 C 
HETATM   43  C32 UNL     1       0.148   6.712  13.099  1.00  0.00     0.004 C 
HETATM   44  C33 UNL     1      -0.361   5.434  13.747  1.00  0.00     0.005 C 
HETATM   45  C34 UNL     1      -1.520   5.637  14.749  1.00  0.00    -0.001 C 
HETATM   46  C35 UNL     1      -2.808   4.942  14.299  1.00  0.00     0.083 C 
HETATM   47  C39 UNL     1      -1.722   7.126  15.192  1.00  0.00     0.027 C 
HETATM   48  C36 UNL     1      -3.579   5.808  13.344  1.00  0.00     0.127 C 
HETATM   49  O8  UNL     1      -3.951   5.409  12.244  1.00  0.00    -0.298 OA
HETATM   50  C37 UNL     1      -3.931   7.172  13.863  1.00  0.00     0.079 C 
HETATM   51  C38 UNL     1      -2.665   7.916  14.259  1.00  0.00     0.015 C 
BRANCH  41  52
HETATM   52  O7  UNL     1       0.348   6.874  16.328  1.00  0.00    -0.387 OA
HETATM   53  H32 UNL     1       1.311   6.952  16.233  1.00  0.00     0.210 HD
ENDBRANCH  41  52
ENDBRANCH  20  41
BRANCH  15  54
HETATM   54  O6  UNL     1      -4.036   9.998  17.289  1.00  0.00    -0.360 OA
HETATM   55  H27 UNL     1      -4.921  10.405  17.303  1.00  0.00     0.217 HD
ENDBRANCH  15  54
TORSDOF 11
ENDMDL
