MODEL 1
REMARK minimizedAffinity -8.91453648
REMARK  5 active torsions:
REMARK  status: ('A' for Active; 'I' for Inactive)
REMARK    1  A    between atoms: O1_2  and  C2_3 
REMARK    2  A    between atoms: C12_15  and  C13_16 
REMARK    3  A    between atoms: C13_16  and  C15_18 
REMARK    4  A    between atoms: C15_18  and  C16_19 
REMARK    5  A    between atoms: C16_19  and  C17_21 
ROOT
HETATM    1  C2  UNL     1       1.815   6.392  13.802  1.00  0.00     0.270 C 
HETATM    2  O2  UNL     1       2.855   7.257  13.337  1.00  0.00    -0.347 OA
HETATM    3  C3  UNL     1       2.441   7.874  12.100  1.00  0.00     0.089 C 
HETATM    4  C4  UNL     1       1.982   9.295  12.467  1.00  0.00     0.118 C 
HETATM    5  C5  UNL     1       0.798   9.346  13.412  1.00  0.00     0.135 C 
HETATM    6  O3  UNL     1       0.516  10.415  13.961  1.00  0.00    -0.297 OA
HETATM    7  C6  UNL     1      -0.085   8.111  13.615  1.00  0.00     0.078 C 
HETATM    8  C7  UNL     1       0.537   6.785  13.010  1.00  0.00     0.027 C 
HETATM    9  C8  UNL     1      -0.457   5.585  13.045  1.00  0.00     0.016 C 
HETATM   10  C9  UNL     1      -1.932   5.892  12.743  1.00  0.00     0.011 C 
HETATM   11  C10 UNL     1      -2.428   7.094  13.562  1.00  0.00    -0.032 C 
HETATM   12  C11 UNL     1      -2.354   6.707  15.072  1.00  0.00     0.016 C 
HETATM   13  C12 UNL     1      -3.860   7.607  13.233  1.00  0.00    -0.002 C 
HETATM   14  C21 UNL     1      -3.837   9.060  13.782  1.00  0.00     0.006 C 
HETATM   15  C22 UNL     1      -2.345   9.459  13.924  1.00  0.00     0.011 C 
HETATM   16  C23 UNL     1      -1.564   8.354  13.177  1.00  0.00    -0.025 C 
HETATM   17  C24 UNL     1      -1.634   8.754  11.667  1.00  0.00     0.016 C 
HETATM   18  C25 UNL     1       1.187   7.088  11.642  1.00  0.00     0.036 C 
HETATM   19  C26 UNL     1       1.529   5.891  10.750  1.00  0.00     0.016 C 
HETATM   20  C27 UNL     1       2.246   6.337   9.481  1.00  0.00     0.079 C 
HETATM   21  C28 UNL     1       3.091   7.578   9.689  1.00  0.00     0.137 C 
HETATM   22  O5  UNL     1       3.329   8.323   8.738  1.00  0.00    -0.297 OA
HETATM   23  C29 UNL     1       3.650   7.830  11.092  1.00  0.00     0.045 C 
HETATM   24  C30 UNL     1       4.482   9.131  11.084  1.00  0.00     0.026 C 
HETATM   25  C31 UNL     1       4.659   6.696  11.398  1.00  0.00     0.026 C 
ENDROOT
BRANCH  13  26
HETATM   26  C13 UNL     1      -5.076   6.724  13.633  1.00  0.00    -0.007 C 
HETATM   27  C14 UNL     1      -5.294   6.826  15.156  1.00  0.00     0.011 C 
BRANCH  26  28
HETATM   28  C15 UNL     1      -4.980   5.232  13.258  1.00  0.00     0.087 C 
BRANCH  28  29
HETATM   29  C16 UNL     1      -6.332   4.660  12.856  1.00  0.00     0.149 C 
HETATM   30  O4  UNL     1      -7.331   5.364  12.740  1.00  0.00    -0.293 OA
BRANCH  29  31
HETATM   31  C17 UNL     1      -6.367   3.198  12.556  1.00  0.00     0.052 C 
HETATM   32  C18 UNL     1      -5.832   2.616  11.466  1.00  0.00    -0.084 C 
HETATM   33  C19 UNL     1      -5.899   1.123  11.290  1.00  0.00     0.043 C 
HETATM   34  C20 UNL     1      -5.146   3.342  10.339  1.00  0.00     0.043 C 
ENDBRANCH  29  31
ENDBRANCH  28  29
ENDBRANCH  26  28
ENDBRANCH  13  26
BRANCH   1  35
HETATM   35  O1  UNL     1       1.618   6.509  15.201  1.00  0.00    -0.365 OA
HETATM   36  C1  UNL     1       2.635   7.276  15.827  1.00  0.00     0.204 C 
ENDBRANCH   1  35
TORSDOF 5
ENDMDL
