MODEL 1
REMARK minimizedAffinity -8.76480293
REMARK  6 active torsions:
REMARK  status: ('A' for Active; 'I' for Inactive)
REMARK    1  A    between atoms: C10_10  and  O1_12 
REMARK    2  A    between atoms: C12_13  and  C14_15 
REMARK    3  A    between atoms: C14_15  and  O2_16 
REMARK    4  A    between atoms: C15_17  and  C16_18 
REMARK    5  A    between atoms: C16_18  and  C17_19 
REMARK    6  A    between atoms: C21_25  and  O5_26 
ROOT
HETATM    1  C1  UNL     1      -8.956   6.226  11.620  1.00  0.00     0.015 C 
HETATM    2  C2  UNL     1      -8.433   5.701  12.741  1.00  0.00    -0.084 C 
HETATM    3  C3  UNL     1      -7.551   4.469  12.688  1.00  0.00     0.034 C 
HETATM    4  C4  UNL     1      -6.274   4.631  13.536  1.00  0.00     0.010 C 
HETATM    5  C5  UNL     1      -5.969   6.124  13.793  1.00  0.00     0.008 C 
HETATM    6  C6  UNL     1      -7.118   6.765  14.676  1.00  0.00    -0.032 C 
HETATM    7  C7  UNL     1      -7.076   6.344  16.168  1.00  0.00     0.016 C 
HETATM    8  C8  UNL     1      -6.933   8.300  14.592  1.00  0.00     0.013 C 
HETATM    9  C9  UNL     1      -5.522   8.769  14.974  1.00  0.00     0.039 C 
HETATM   10  C10 UNL     1      -4.397   8.114  14.144  1.00  0.00     0.064 C 
HETATM   11  C11 UNL     1      -3.052   8.683  14.629  1.00  0.00     0.046 C 
HETATM   12  C12 UNL     1      -4.482   6.530  14.153  1.00  0.00     0.012 C 
HETATM   13  C13 UNL     1      -3.551   5.953  13.041  1.00  0.00     0.021 C 
HETATM   14  C15 UNL     1      -8.551   6.276  14.151  1.00  0.00     0.025 C 
ENDROOT
BRANCH  14  15
HETATM   15  C16 UNL     1      -9.697   7.294  14.394  1.00  0.00     0.037 C 
BRANCH  15  16
HETATM   16  C17 UNL     1     -11.061   6.646  14.484  1.00  0.00    -0.010 C 
HETATM   17  C18 UNL     1     -12.209   7.082  13.940  1.00  0.00     0.044 C 
HETATM   18  C19 UNL     1     -12.416   8.302  13.123  1.00  0.00     0.291 C 
HETATM   19  C21 UNL     1     -13.521   6.396  14.028  1.00  0.00     0.181 C 
HETATM   20  O3  UNL     1     -11.639   9.229  12.988  1.00  0.00    -0.260 OA
HETATM   21  O4  UNL     1     -13.646   8.225  12.543  1.00  0.00    -0.315 OA
HETATM   22  C20 UNL     1     -14.230   6.945  12.809  1.00  0.00     0.215 C 
BRANCH  19  23
HETATM   23  O5  UNL     1     -14.192   6.789  15.220  1.00  0.00    -0.389 OA
HETATM   24  H32 UNL     1     -13.559   6.716  15.956  1.00  0.00     0.210 HD
ENDBRANCH  19  23
ENDBRANCH  15  16
ENDBRANCH  14  15
BRANCH  12  25
HETATM   25  C14 UNL     1      -3.944   5.956  15.490  1.00  0.00     0.176 C 
BRANCH  25  26
HETATM   26  O2  UNL     1      -3.304   6.947  16.279  1.00  0.00    -0.400 OA
HETATM   27  H24 UNL     1      -2.945   6.503  17.067  1.00  0.00     0.209 HD
ENDBRANCH  25  26
ENDBRANCH  12  25
BRANCH  10  28
HETATM   28  O1  UNL     1      -4.585   8.604  12.803  1.00  0.00    -0.389 OA
HETATM   29  H18 UNL     1      -3.790   8.396  12.284  1.00  0.00     0.210 HD
ENDBRANCH  10  28
TORSDOF 6
ENDMDL
