MODEL 1
REMARK minimizedAffinity -9.51466179
REMARK  4 active torsions:
REMARK  status: ('A' for Active; 'I' for Inactive)
REMARK    1  A    between atoms: C3_8  and  C4_9 
REMARK       I    between atoms: N4_17  and  C11_18 
REMARK    2  A    between atoms: C11_18  and  C12_20 
REMARK    3  A    between atoms: C12_20  and  O3_21 
REMARK    4  A    between atoms: O3_21  and  C13_22 
ROOT
HETATM    1  C4  UNL     1      -7.646   6.449  13.803  1.00  0.00     0.011 A 
HETATM    2  C5  UNL     1      -7.137   5.151  13.601  1.00  0.00     0.018 A 
HETATM    3  C6  UNL     1      -5.810   4.945  13.210  1.00  0.00     0.039 A 
HETATM    4  C7  UNL     1      -4.984   6.043  13.027  1.00  0.00     0.090 A 
HETATM    5  O1  UNL     1      -3.662   5.842  12.714  1.00  0.00    -0.347 OA
HETATM    6  C8  UNL     1      -2.801   6.161  13.832  1.00  0.00     0.213 C 
HETATM    7  C9  UNL     1      -1.614   7.061  13.388  1.00  0.00     0.265 C 
HETATM    8  C10 UNL     1      -0.818   6.274  12.303  1.00  0.00     0.163 C 
HETATM    9  N4  UNL     1       0.370   7.016  11.889  1.00  0.00    -0.346 N 
HETATM   10  C11 UNL     1       1.567   6.754  12.561  1.00  0.00     0.244 C 
HETATM   11  O2  UNL     1       1.632   5.897  13.443  1.00  0.00    -0.271 OA
HETATM   12  C19 UNL     1       0.036   8.325  11.337  1.00  0.00     0.156 C 
HETATM   13  C20 UNL     1      -0.751   9.141  12.383  1.00  0.00     0.293 C 
HETATM   14  N5  UNL     1      -1.975   8.446  12.878  1.00  0.00     0.106 N 
HETATM   15  C21 UNL     1      -2.599   9.316  13.930  1.00  0.00     0.369 C 
HETATM   16  C22 UNL     1      -4.119   9.117  14.009  1.00  0.00     0.230 C 
HETATM   17  O4  UNL     1      -4.790   9.520  14.955  1.00  0.00    -0.278 OA
HETATM   18  N6  UNL     1      -4.611   8.415  12.917  1.00  0.00    -0.225 NA
HETATM   19  C23 UNL     1      -5.486   7.341  13.185  1.00  0.00     0.049 A 
HETATM   20  C24 UNL     1      -6.797   7.548  13.610  1.00  0.00     0.042 A 
HETATM   21  H25 UNL     1      -3.816   8.124  12.340  1.00  0.00     0.136 HD
ENDROOT
BRANCH  10  22
HETATM   22  C12 UNL     1       2.795   7.571  12.123  1.00  0.00     0.278 C 
BRANCH  22  23
HETATM   23  O3  UNL     1       3.642   6.949  11.168  1.00  0.00    -0.342 OA
BRANCH  23  24
HETATM   24  C13 UNL     1       3.241   6.955   9.860  1.00  0.00     0.069 A 
HETATM   25  C14 UNL     1       2.992   5.834   9.067  1.00  0.00     0.037 A 
HETATM   26  C15 UNL     1       2.588   5.989   7.736  1.00  0.00     0.003 A 
HETATM   27  C16 UNL     1       2.436   7.263   7.191  1.00  0.00     0.000 A 
HETATM   28  C17 UNL     1       2.692   8.385   7.974  1.00  0.00     0.003 A 
HETATM   29  C18 UNL     1       3.097   8.229   9.302  1.00  0.00     0.037 A 
ENDBRANCH  23  24
ENDBRANCH  22  23
ENDBRANCH  10  22
BRANCH   1  30
HETATM   30  C3  UNL     1      -9.036   6.599  14.240  1.00  0.00     0.133 A 
HETATM   31  N1  UNL     1      -9.477   7.047  15.465  1.00  0.00    -0.280 N 
HETATM   32  C1  UNL     1      -8.716   7.541  16.584  1.00  0.00     0.179 C 
HETATM   33  N2  UNL     1     -10.824   7.060  15.530  1.00  0.00    -0.293 N 
HETATM   34  C2  UNL     1     -11.151   6.640  14.309  1.00  0.00     0.199 A 
ATOM     35  H2  UNL     1     -11.431   7.323  16.306  1.00  0.00     0.188 HD
HETATM   36  N3  UNL     1     -10.098   6.371  13.487  1.00  0.00    -0.336 N 
ATOM     37  H3  UNL     1     -10.124   6.064  12.515  1.00  0.00     0.168 HD
ENDBRANCH   1  30
TORSDOF 4
ENDMDL
