MODEL 1
REMARK minimizedAffinity -7.20734835
REMARK  8 active torsions:
REMARK  status: ('A' for Active; 'I' for Inactive)
REMARK    1  A    between atoms: P1_2  and  O2_3 
REMARK    2  A    between atoms: P1_2  and  O3_4 
REMARK    3  A    between atoms: P1_2  and  C1_5 
REMARK    4  A    between atoms: C1_5  and  C2_6 
REMARK    5  A    between atoms: C1_5  and  P2_14 
REMARK    6  A    between atoms: C2_6  and  C3_7 
REMARK    7  A    between atoms: P2_14  and  O5_16 
REMARK    8  A    between atoms: P2_14  and  O6_17 
ROOT
HETATM    1  C1  UNL     1       6.262  63.409 -34.591  1.00  0.00     0.214 C 
ENDROOT
BRANCH   1   2
HETATM    2  P1  UNL     1       4.805  63.164 -33.576  1.00  0.00     0.252 P 
HETATM    3  O1  UNL     1       4.779  63.636 -32.165  1.00  0.00    -0.653 OA
BRANCH   2   4
HETATM    4  O2  UNL     1       4.525  61.579 -33.620  1.00  0.00    -0.328 OA
HETATM    5  H1  UNL     1       3.887  61.303 -32.934  1.00  0.00     0.220 HD
ENDBRANCH   2   4
BRANCH   2   6
HETATM    6  O3  UNL     1       3.541  63.686 -34.409  1.00  0.00    -0.328 OA
HETATM    7  H2  UNL     1       2.740  63.783 -33.862  1.00  0.00     0.220 HD
ENDBRANCH   2   6
ENDBRANCH   1   2
BRANCH   1   8
HETATM    8  C2  UNL     1       7.095  62.121 -34.651  1.00  0.00     0.085 C 
BRANCH   8   9
HETATM    9  C3  UNL     1       8.395  62.259 -33.900  1.00  0.00     0.010 A 
HETATM   10  C4  UNL     1       9.223  63.357 -34.109  1.00  0.00     0.025 A 
HETATM   11  C5  UNL     1      10.414  63.448 -33.393  1.00  0.00     0.003 A 
HETATM   12  C6  UNL     1      10.744  62.447 -32.490  1.00  0.00     0.017 A 
HETATM   13  C7  UNL     1       9.866  61.389 -32.339  1.00  0.00     0.088 A 
HETATM   14  N1  UNL     1       8.700  61.269 -33.022  1.00  0.00    -0.369 N 
ATOM     15  H1  UNL     1       8.081  60.471 -32.883  1.00  0.00     0.165 HD
ENDBRANCH   8   9
ENDBRANCH   1   8
BRANCH   1  16
HETATM   16  P2  UNL     1       5.973  64.125 -36.212  1.00  0.00     0.252 P 
HETATM   17  O4  UNL     1       5.210  65.406 -36.252  1.00  0.00    -0.653 OA
BRANCH  16  18
HETATM   18  O5  UNL     1       5.287  62.976 -37.093  1.00  0.00    -0.328 OA
HETATM   19  H10 UNL     1       5.013  63.335 -37.961  1.00  0.00     0.220 HD
ENDBRANCH  16  18
BRANCH  16  20
HETATM   20  O6  UNL     1       7.386  64.233 -36.962  1.00  0.00    -0.328 OA
HETATM   21  H11 UNL     1       8.127  63.734 -36.537  1.00  0.00     0.220 HD
ENDBRANCH  16  20
ENDBRANCH   1  16
TORSDOF 8
ENDMDL
