MODEL 1
REMARK minimizedAffinity -6.20239067
REMARK CNNscore 0.65720737
REMARK CNNaffinity 6.86727953
REMARK  16 active torsions:
REMARK  status: ('A' for Active; 'I' for Inactive)
REMARK    1  A    between atoms: C2_2  and  C3_3 
REMARK    2  A    between atoms: C3_3  and  C4_4 
REMARK    3  A    between atoms: C4_4  and  C5_5 
REMARK    4  A    between atoms: C5_5  and  C6_6 
REMARK    5  A    between atoms: C8_8  and  C9_9 
REMARK    6  A    between atoms: C20_23  and  C21_24 
REMARK    7  A    between atoms: C21_24  and  N1_25 
REMARK    8  A    between atoms: N1_25  and  C22_26 
REMARK    9  A    between atoms: C22_26  and  C23_27 
REMARK   10  A    between atoms: C23_27  and  C24_28 
REMARK   11  A    between atoms: C24_28  and  O4_29 
REMARK   12  A    between atoms: C29_34  and  O5_35 
REMARK   13  A    between atoms: C30_36  and  O6_37 
REMARK   14  A    between atoms: C34_41  and  C35_42 
REMARK   15  A    between atoms: C41_48  and  O7_49 
REMARK   16  A    between atoms: C42_50  and  O8_51 
ROOT
HETATM    1  C6  UNL     1       0.147  11.646  18.790  1.00  0.00     0.016 C 
HETATM    2  C7  UNL     1      -0.912  12.736  18.719  1.00  0.00     0.027 C 
HETATM    3  C8  UNL     1      -1.217  13.201  17.253  1.00  0.00     0.051 C 
HETATM    4  C10 UNL     1      -2.584  13.991  17.296  1.00  0.00     0.041 C 
HETATM    5  C11 UNL     1      -2.575  15.241  18.186  1.00  0.00     0.010 C 
HETATM    6  C12 UNL     1      -4.009  15.567  18.576  1.00  0.00     0.013 C 
HETATM    7  C13 UNL     1      -4.948  15.789  17.372  1.00  0.00    -0.002 C 
HETATM    8  C14 UNL     1      -5.350  17.289  17.411  1.00  0.00     0.019 C 
HETATM    9  C15 UNL     1      -6.172  14.831  17.440  1.00  0.00     0.036 C 
HETATM   10  C16 UNL     1      -7.260  14.829  18.454  1.00  0.00    -0.035 C 
HETATM   11  C17 UNL     1      -7.568  15.616  19.483  1.00  0.00     0.088 C 
HETATM   12  C18 UNL     1      -8.868  15.144  19.969  1.00  0.00     0.284 C 
HETATM   13  O2  UNL     1      -9.439  15.552  20.961  1.00  0.00    -0.260 OA
HETATM   14  O3  UNL     1      -9.340  14.169  19.141  1.00  0.00    -0.304 OA
HETATM   15  C19 UNL     1      -8.289  13.762  18.277  1.00  0.00     0.192 C 
HETATM   16  C20 UNL     1      -8.731  13.590  16.829  1.00  0.00    -0.022 C 
HETATM   17  C26 UNL     1      -8.009  14.130  15.818  1.00  0.00    -0.014 C 
HETATM   18  C27 UNL     1      -6.831  15.037  16.067  1.00  0.00     0.021 C 
HETATM   19  C28 UNL     1      -5.642  14.937  15.116  1.00  0.00     0.051 C 
HETATM   20  C29 UNL     1      -4.378  15.383  15.941  1.00  0.00     0.098 C 
HETATM   21  C30 UNL     1      -3.144  14.357  15.905  1.00  0.00     0.095 C 
HETATM   22  C31 UNL     1      -3.413  13.023  15.213  1.00  0.00     0.049 C 
HETATM   23  C32 UNL     1      -2.185  12.112  15.029  1.00  0.00     0.025 C 
HETATM   24  C33 UNL     1      -2.605  10.772  14.350  1.00  0.00     0.012 C 
HETATM   25  C34 UNL     1      -3.804  10.004  14.979  1.00  0.00    -0.011 C 
HETATM   26  C38 UNL     1      -3.548   9.402  16.380  1.00  0.00     0.005 C 
HETATM   27  C39 UNL     1      -2.841  10.296  17.407  1.00  0.00     0.010 C 
HETATM   28  C40 UNL     1      -1.396  10.582  16.980  1.00  0.00     0.051 C 
HETATM   29  C41 UNL     1      -0.353  10.365  18.106  1.00  0.00     0.129 C 
HETATM   30  C42 UNL     1      -1.224  11.953  16.260  1.00  0.00     0.082 C 
ENDROOT
BRANCH  16  31
HETATM   31  C21 UNL     1      -9.994  12.771  16.669  1.00  0.00     0.306 C 
BRANCH  31  32
HETATM   32  N1  UNL     1     -10.128  12.108  15.370  1.00  0.00     0.087 N 
HETATM   33  H29 UNL     1     -10.643  12.732  14.747  1.00  0.00     0.316 HD
BRANCH  32  34
HETATM   34  C22 UNL     1     -10.903  10.868  15.506  1.00  0.00     0.272 C 
BRANCH  34  35
HETATM   35  C23 UNL     1     -10.379   9.800  14.538  1.00  0.00     0.056 C 
BRANCH  35  36
HETATM   36  C24 UNL     1      -9.409   8.858  15.237  1.00  0.00     0.168 C 
BRANCH  36  37
HETATM   37  O4  UNL     1      -9.988   7.571  15.455  1.00  0.00    -0.396 OA
HETATM   38  C25 UNL     1     -10.597   7.028  14.288  1.00  0.00     0.201 C 
ENDBRANCH  36  37
ENDBRANCH  35  36
ENDBRANCH  34  35
ENDBRANCH  32  34
ENDBRANCH  31  32
ENDBRANCH  16  31
BRANCH  20  39
HETATM   39  O5  UNL     1      -3.911  16.586  15.274  1.00  0.00    -0.386 OA
HETATM   40  H43 UNL     1      -3.112  16.883  15.756  1.00  0.00     0.210 HD
ENDBRANCH  20  39
BRANCH  21  41
HETATM   41  O6  UNL     1      -2.100  14.996  15.149  1.00  0.00    -0.386 OA
HETATM   42  H44 UNL     1      -2.541  15.463  14.408  1.00  0.00     0.210 HD
ENDBRANCH  21  41
BRANCH   3  43
HETATM   43  C9  UNL     1      -0.106  14.187  16.839  1.00  0.00     0.244 C 
HETATM   44  O1  UNL     1       1.090  14.009  17.072  1.00  0.00    -0.306 OA
ENDBRANCH   3  43
BRANCH  30  45
HETATM   45  O8  UNL     1       0.107  11.878  15.664  1.00  0.00    -0.388 OA
HETATM   46  H65 UNL     1       0.542  11.035  15.920  1.00  0.00     0.210 HD
ENDBRANCH  30  45
BRANCH   1  47
HETATM   47  C5  UNL     1       0.576  11.318  20.243  1.00  0.00     0.007 C 
BRANCH  47  48
HETATM   48  C4  UNL     1       2.084  11.297  20.528  1.00  0.00     0.000 C 
BRANCH  48  49
HETATM   49  C3  UNL     1       2.647   9.906  20.820  1.00  0.00    -0.000 C 
BRANCH  49  50
HETATM   50  C2  UNL     1       2.708   9.638  22.328  1.00  0.00    -0.005 C 
HETATM   51  C1  UNL     1       2.179   8.255  22.663  1.00  0.00     0.005 C 
ENDBRANCH  49  50
ENDBRANCH  48  49
ENDBRANCH  47  48
ENDBRANCH   1  47
BRANCH  25  52
HETATM   52  C35 UNL     1      -4.364   8.947  13.968  1.00  0.00    -0.019 C 
HETATM   53  C36 UNL     1      -3.401   7.798  13.670  1.00  0.00     0.010 C 
HETATM   54  C37 UNL     1      -5.722   8.398  14.407  1.00  0.00     0.010 C 
ENDBRANCH  25  52
BRANCH  29  55
HETATM   55  O7  UNL     1       0.790   9.750  17.479  1.00  0.00    -0.395 OA
HETATM   56  H64 UNL     1       1.461   9.595  18.169  1.00  0.00     0.210 HD
ENDBRANCH  29  55
TORSDOF 16
ENDMDL
