MODEL 1
REMARK minimizedAffinity -9.77780628
REMARK  8 active torsions:
REMARK  status: ('A' for Active; 'I' for Inactive)
REMARK    1  A    between atoms: C4_4  and  C5_5 
REMARK    2  A    between atoms: C5_5  and  C6_6 
REMARK    3  A    between atoms: C6_6  and  C7_7 
REMARK    4  A    between atoms: C7_7  and  C9_9 
REMARK    5  A    between atoms: C21_21  and  C22_22 
REMARK    6  A    between atoms: C22_22  and  C23_23 
REMARK    7  A    between atoms: C23_23  and  C24_24 
REMARK    8  A    between atoms: C24_24  and  O1_25 
ROOT
HETATM    1  C9  UNL     1      -4.075  50.524 -24.500  1.00  0.00    -0.002 C 
HETATM    2  C10 UNL     1      -5.343  50.043 -23.747  1.00  0.00     0.006 C 
HETATM    3  C11 UNL     1      -5.088  50.280 -22.239  1.00  0.00     0.011 C 
HETATM    4  C12 UNL     1      -3.557  50.165 -22.102  1.00  0.00    -0.032 C 
HETATM    5  C13 UNL     1      -3.259  48.641 -22.137  1.00  0.00     0.016 C 
HETATM    6  C14 UNL     1      -2.910  50.807 -20.838  1.00  0.00     0.003 C 
HETATM    7  C15 UNL     1      -3.448  50.296 -19.490  1.00  0.00     0.010 C 
HETATM    8  C16 UNL     1      -2.917  51.166 -18.351  1.00  0.00     0.035 C 
HETATM    9  C17 UNL     1      -1.383  51.243 -18.322  1.00  0.00    -0.073 C 
HETATM   10  C18 UNL     1      -0.710  50.855 -17.204  1.00  0.00    -0.085 C 
HETATM   11  C19 UNL     1      -1.405  50.157 -16.046  1.00  0.00     0.043 C 
HETATM   12  C20 UNL     1       0.755  51.016 -16.905  1.00  0.00     0.043 C 
HETATM   13  C21 UNL     1      -0.872  51.827 -19.675  1.00  0.00     0.023 C 
HETATM   14  C25 UNL     1      -1.312  50.856 -20.874  1.00  0.00    -0.032 C 
HETATM   15  C26 UNL     1      -0.664  49.460 -20.652  1.00  0.00     0.016 C 
HETATM   16  C27 UNL     1      -0.828  51.393 -22.270  1.00  0.00     0.011 C 
HETATM   17  C28 UNL     1      -1.580  50.859 -23.520  1.00  0.00     0.011 C 
HETATM   18  C29 UNL     1      -3.100  50.988 -23.363  1.00  0.00    -0.032 C 
HETATM   19  C30 UNL     1      -3.392  52.541 -23.254  1.00  0.00     0.016 C 
ENDROOT
BRANCH   1  20
HETATM   20  C7  UNL     1      -3.556  49.703 -25.716  1.00  0.00    -0.014 C 
HETATM   21  C8  UNL     1      -4.261  48.337 -25.767  1.00  0.00     0.010 C 
BRANCH  20  22
HETATM   22  C6  UNL     1      -2.039  49.549 -25.955  1.00  0.00     0.008 C 
BRANCH  22  23
HETATM   23  C5  UNL     1      -1.354  50.586 -26.854  1.00  0.00     0.028 C 
BRANCH  23  24
HETATM   24  C4  UNL     1       0.082  50.785 -26.445  1.00  0.00    -0.025 C 
HETATM   25  C2  UNL     1       1.061  51.404 -27.132  1.00  0.00    -0.091 C 
HETATM   26  C1  UNL     1       2.461  51.472 -26.578  1.00  0.00     0.042 C 
HETATM   27  C3  UNL     1       0.893  52.080 -28.465  1.00  0.00     0.042 C 
ENDBRANCH  23  24
ENDBRANCH  22  23
ENDBRANCH  20  22
ENDBRANCH   1  20
BRANCH  13  28
HETATM   28  C22 UNL     1       0.537  52.476 -19.783  1.00  0.00     0.012 C 
BRANCH  28  29
HETATM   29  C23 UNL     1       0.692  53.882 -20.367  1.00  0.00     0.027 C 
BRANCH  29  30
HETATM   30  C24 UNL     1       1.800  53.924 -21.416  1.00  0.00     0.164 C 
BRANCH  30  31
HETATM   31  O1  UNL     1       1.840  55.205 -22.030  1.00  0.00    -0.401 OA
HETATM   32  H42 UNL     1       0.958  55.382 -22.398  1.00  0.00     0.209 HD
ENDBRANCH  30  31
ENDBRANCH  29  30
ENDBRANCH  28  29
ENDBRANCH  13  28
TORSDOF 8
ENDMDL
