MODEL 1
REMARK minimizedAffinity -6.01061869
REMARK CNNscore 0.705087125
REMARK CNNaffinity 6.76720095
REMARK  4 active torsions:
REMARK  status: ('A' for Active; 'I' for Inactive)
REMARK    1  A    between atoms: C4_4  and  C5_5 
REMARK    2  A    between atoms: C5_5  and  C6_6 
REMARK    3  A    between atoms: C6_6  and  C7_7 
REMARK    4  A    between atoms: C7_7  and  C9_9 
ROOT
HETATM    1  C9  UNL     1     -15.375 -10.427  29.255  1.00  0.00    -0.002 C 
HETATM    2  C10 UNL     1     -15.406 -11.458  30.423  1.00  0.00     0.007 C 
HETATM    3  C11 UNL     1     -14.377 -12.558  30.100  1.00  0.00     0.015 C 
HETATM    4  C12 UNL     1     -14.012 -12.328  28.620  1.00  0.00    -0.013 C 
HETATM    5  C13 UNL     1     -15.135 -13.027  27.787  1.00  0.00     0.021 C 
HETATM    6  C14 UNL     1     -12.691 -12.894  28.109  1.00  0.00    -0.070 C 
HETATM    7  C15 UNL     1     -12.163 -14.033  28.592  1.00  0.00    -0.022 C 
HETATM    8  C16 UNL     1     -10.936 -14.698  28.050  1.00  0.00     0.034 C 
HETATM    9  C17 UNL     1     -10.141 -13.866  27.018  1.00  0.00     0.013 C 
HETATM   10  C18 UNL     1      -9.014 -14.700  26.302  1.00  0.00     0.018 C 
HETATM   11  C19 UNL     1      -9.387 -16.164  25.997  1.00  0.00     0.023 C 
HETATM   12  C20 UNL     1      -7.752 -14.727  27.192  1.00  0.00     0.023 C 
HETATM   13  C21 UNL     1      -8.614 -14.007  24.995  1.00  0.00     0.135 C 
HETATM   14  O1  UNL     1      -8.114 -14.610  24.047  1.00  0.00    -0.297 OA
HETATM   15  C22 UNL     1      -8.784 -12.514  24.950  1.00  0.00     0.080 C 
HETATM   16  C23 UNL     1     -10.242 -12.118  25.127  1.00  0.00     0.017 C 
HETATM   17  C24 UNL     1     -11.087 -13.043  26.064  1.00  0.00    -0.031 C 
HETATM   18  C25 UNL     1     -11.943 -13.977  25.175  1.00  0.00     0.016 C 
HETATM   19  C26 UNL     1     -12.008 -12.130  26.974  1.00  0.00     0.024 C 
HETATM   20  C27 UNL     1     -12.995 -11.224  26.199  1.00  0.00     0.010 C 
HETATM   21  C28 UNL     1     -13.889 -10.315  27.077  1.00  0.00     0.011 C 
HETATM   22  C29 UNL     1     -14.016 -10.758  28.552  1.00  0.00    -0.029 C 
HETATM   23  C30 UNL     1     -12.868 -10.095  29.379  1.00  0.00     0.016 C 
ENDROOT
BRANCH   1  24
HETATM   24  C7  UNL     1     -15.671  -8.975  29.743  1.00  0.00    -0.014 C 
HETATM   25  C8  UNL     1     -16.150  -8.949  31.199  1.00  0.00     0.010 C 
BRANCH  24  26
HETATM   26  C6  UNL     1     -14.403  -8.089  29.585  1.00  0.00     0.008 C 
BRANCH  26  27
HETATM   27  C5  UNL     1     -14.574  -6.803  28.761  1.00  0.00     0.028 C 
BRANCH  27  28
HETATM   28  C4  UNL     1     -13.453  -5.821  28.973  1.00  0.00    -0.025 C 
HETATM   29  C2  UNL     1     -12.594  -5.744  30.008  1.00  0.00    -0.091 C 
HETATM   30  C1  UNL     1     -12.573  -6.660  31.201  1.00  0.00     0.042 C 
HETATM   31  C3  UNL     1     -11.535  -4.670  30.042  1.00  0.00     0.042 C 
ENDBRANCH  27  28
ENDBRANCH  26  27
ENDBRANCH  24  26
ENDBRANCH   1  24
TORSDOF 4
ENDMDL
