MODEL 1
REMARK minimizedAffinity -9.38877201
REMARK CNNscore 0.548968971
REMARK CNNaffinity 7.3118577
REMARK  10 active torsions:
REMARK  status: ('A' for Active; 'I' for Inactive)
REMARK    1  A    between atoms: O1_2  and  C2_3 
REMARK    2  A    between atoms: C2_3  and  C3_5 
REMARK    3  A    between atoms: C3_5  and  C4_6 
REMARK    4  A    between atoms: C3_5  and  N1_13 
REMARK    5  A    between atoms: C4_6  and  C5_7 
REMARK       I    between atoms: N1_13  and  C11_14 
REMARK    6  A    between atoms: C11_14  and  C12_16 
REMARK    7  A    between atoms: C12_16  and  O4_17 
REMARK    8  A    between atoms: O4_17  and  N2_18 
REMARK    9  A    between atoms: C27_34  and  O5_35 
REMARK   10  A    between atoms: C27_34  and  C28_36 
ROOT
HETATM    1  N2  UNL     1      -2.189  50.075 -15.646  1.00  0.00    -0.271 N 
ATOM      2  H2  UNL     1      -2.570  49.198 -15.290  1.00  0.00     0.194 HD
HETATM    3  C13 UNL     1      -1.835  50.269 -16.885  1.00  0.00     0.032 C 
HETATM    4  C14 UNL     1      -1.919  49.118 -17.820  1.00  0.00     0.030 C 
HETATM    5  C15 UNL     1      -1.628  49.242 -19.128  1.00  0.00    -0.069 C 
HETATM    6  C16 UNL     1      -1.602  48.012 -20.004  1.00  0.00     0.035 C 
HETATM    7  C17 UNL     1      -2.440  48.188 -21.264  1.00  0.00     0.010 C 
HETATM    8  C18 UNL     1      -2.012  49.435 -22.050  1.00  0.00    -0.004 C 
HETATM    9  C19 UNL     1      -2.125  50.699 -21.144  1.00  0.00     0.002 C 
HETATM   10  C20 UNL     1      -1.843  51.999 -21.940  1.00  0.00     0.007 C 
HETATM   11  C21 UNL     1      -2.659  52.108 -23.240  1.00  0.00     0.013 C 
HETATM   12  C22 UNL     1      -2.487  50.871 -24.141  1.00  0.00    -0.002 C 
HETATM   13  C23 UNL     1      -1.027  50.809 -24.663  1.00  0.00     0.019 C 
HETATM   14  C24 UNL     1      -2.888  49.637 -23.293  1.00  0.00     0.002 C 
HETATM   15  C25 UNL     1      -2.965  48.508 -24.312  1.00  0.00     0.009 C 
HETATM   16  C26 UNL     1      -3.488  49.183 -25.594  1.00  0.00     0.047 C 
HETATM   17  C27 UNL     1      -3.492  50.717 -25.327  1.00  0.00     0.125 C 
HETATM   18  C30 UNL     1      -1.297  50.576 -19.808  1.00  0.00    -0.016 C 
HETATM   19  C31 UNL     1       0.227  50.625 -20.063  1.00  0.00     0.020 C 
HETATM   20  C32 UNL     1      -1.691  51.759 -18.877  1.00  0.00     0.020 C 
HETATM   21  C33 UNL     1      -1.275  51.568 -17.425  1.00  0.00     0.060 C 
ENDROOT
BRANCH   1  22
HETATM   22  O4  UNL     1      -1.982  51.217 -14.864  1.00  0.00    -0.271 OA
BRANCH  22  23
HETATM   23  C12 UNL     1      -1.233  50.866 -13.703  1.00  0.00     0.303 C 
BRANCH  23  24
HETATM   24  C11 UNL     1      -0.479  52.077 -13.164  1.00  0.00     0.244 C 
HETATM   25  N1  UNL     1      -0.658  52.310 -11.814  1.00  0.00    -0.345 N 
HETATM   26  H12 UNL     1      -1.448  51.826 -11.401  1.00  0.00     0.163 HD
HETATM   27  O3  UNL     1       0.196  52.807 -13.883  1.00  0.00    -0.271 OA
BRANCH  25  28
HETATM   28  C3  UNL     1      -0.227  53.572 -11.196  1.00  0.00     0.188 C 
BRANCH  28  29
HETATM   29  C2  UNL     1      -1.416  54.327 -10.565  1.00  0.00     0.281 C 
HETATM   30  O2  UNL     1      -1.475  55.543 -10.434  1.00  0.00    -0.263 OA
BRANCH  29  31
HETATM   31  O1  UNL     1      -2.379  53.466 -10.114  1.00  0.00    -0.325 OA
HETATM   32  C1  UNL     1      -3.702  53.788 -10.545  1.00  0.00     0.213 C 
ENDBRANCH  29  31
ENDBRANCH  28  29
BRANCH  28  33
HETATM   33  C4  UNL     1       0.824  53.282 -10.112  1.00  0.00     0.074 C 
BRANCH  33  34
HETATM   34  C5  UNL     1       2.091  54.085 -10.284  1.00  0.00    -0.056 A 
HETATM   35  C6  UNL     1       3.342  53.516 -10.015  1.00  0.00     0.007 A 
HETATM   36  C7  UNL     1       4.507  54.271 -10.162  1.00  0.00     0.001 A 
HETATM   37  C8  UNL     1       4.433  55.599 -10.577  1.00  0.00     0.000 A 
HETATM   38  C9  UNL     1       3.194  56.175 -10.844  1.00  0.00     0.001 A 
HETATM   39  C10 UNL     1       2.028  55.423 -10.696  1.00  0.00     0.007 A 
ENDBRANCH  33  34
ENDBRANCH  28  33
ENDBRANCH  25  28
ENDBRANCH  23  24
ENDBRANCH  22  23
ENDBRANCH   1  22
BRANCH  17  40
HETATM   40  O5  UNL     1      -4.810  51.077 -24.897  1.00  0.00    -0.381 OA
HETATM   41  H34 UNL     1      -5.445  50.756 -25.561  1.00  0.00     0.211 HD
ENDBRANCH  17  40
BRANCH  17  42
HETATM   42  C28 UNL     1      -3.137  51.535 -26.591  1.00  0.00     0.158 C 
HETATM   43  C29 UNL     1      -2.977  50.783 -27.890  1.00  0.00     0.094 C 
HETATM   44  O6  UNL     1      -2.985  52.757 -26.568  1.00  0.00    -0.295 OA
ENDBRANCH  17  42
TORSDOF 10
ENDMDL
