MODEL 1
REMARK minimizedAffinity -7.54071474
REMARK CNNscore 0.870621085
REMARK CNNaffinity 7.5517478
REMARK  9 active torsions:
REMARK  status: ('A' for Active; 'I' for Inactive)
REMARK    1  A    between atoms: C2_2  and  C30_33 
REMARK    2  A    between atoms: C3_3  and  C4_4 
REMARK    3  A    between atoms: C4_4  and  C5_5 
REMARK    4  A    between atoms: C5_5  and  C6_6 
REMARK    5  A    between atoms: C6_6  and  C8_8 
REMARK    6  A    between atoms: C10_10  and  O1_11 
REMARK    7  A    between atoms: C23_24  and  O2_25 
REMARK    8  A    between atoms: C29_31  and  O3_32 
REMARK    9  A    between atoms: C30_33  and  O4_34 
ROOT
HETATM    1  C8  UNL     1       3.372  56.092  -7.757  1.00  0.00     0.001 C 
HETATM    2  C9  UNL     1       4.421  55.117  -8.354  1.00  0.00     0.038 C 
HETATM    3  C10 UNL     1       3.635  54.103  -9.218  1.00  0.00     0.132 C 
HETATM    4  C11 UNL     1       2.254  54.767  -9.450  1.00  0.00     0.016 C 
HETATM    5  C12 UNL     1       2.390  55.825 -10.596  1.00  0.00     0.023 C 
HETATM    6  C13 UNL     1       1.063  53.892  -9.837  1.00  0.00    -0.037 C 
HETATM    7  C14 UNL     1      -0.193  54.306  -9.518  1.00  0.00    -0.065 C 
HETATM    8  C15 UNL     1      -0.437  55.585  -8.702  1.00  0.00     0.036 C 
HETATM    9  C16 UNL     1       0.792  56.304  -8.100  1.00  0.00     0.015 C 
HETATM   10  C17 UNL     1       2.009  55.377  -8.022  1.00  0.00    -0.026 C 
HETATM   11  C18 UNL     1       1.721  54.316  -6.920  1.00  0.00     0.016 C 
HETATM   12  C19 UNL     1      -1.449  53.474  -9.906  1.00  0.00    -0.016 C 
HETATM   13  C20 UNL     1      -1.816  52.680  -8.635  1.00  0.00     0.020 C 
HETATM   14  C21 UNL     1      -2.597  54.407 -10.352  1.00  0.00     0.016 C 
HETATM   15  C22 UNL     1      -3.848  53.747 -10.928  1.00  0.00     0.033 C 
HETATM   16  C23 UNL     1      -3.739  52.272 -11.309  1.00  0.00     0.126 C 
HETATM   17  C24 UNL     1      -2.335  51.774 -11.769  1.00  0.00    -0.017 C 
HETATM   18  C25 UNL     1      -2.258  52.001 -13.307  1.00  0.00     0.018 C 
HETATM   19  C26 UNL     1      -2.244  50.243 -11.551  1.00  0.00     0.018 C 
HETATM   20  C27 UNL     1      -1.121  52.569 -11.135  1.00  0.00     0.011 C 
HETATM   21  C28 UNL     1       0.130  51.716 -10.844  1.00  0.00     0.043 C 
HETATM   22  C29 UNL     1       1.355  52.597 -10.566  1.00  0.00     0.148 C 
ENDROOT
BRANCH   1  23
HETATM   23  C6  UNL     1       3.648  56.660  -6.335  1.00  0.00    -0.013 C 
HETATM   24  C7  UNL     1       3.395  58.179  -6.345  1.00  0.00     0.010 C 
BRANCH  23  25
HETATM   25  C5  UNL     1       5.061  56.391  -5.769  1.00  0.00     0.008 C 
BRANCH  25  26
HETATM   26  C4  UNL     1       5.776  57.674  -5.325  1.00  0.00     0.028 C 
BRANCH  26  27
HETATM   27  C3  UNL     1       7.267  57.490  -5.295  1.00  0.00    -0.022 C 
HETATM   28  C2  UNL     1       8.207  58.414  -5.001  1.00  0.00    -0.064 C 
HETATM   29  C1  UNL     1       7.897  59.860  -4.713  1.00  0.00     0.045 C 
BRANCH  28  30
HETATM   30  C30 UNL     1       9.691  58.104  -4.971  1.00  0.00     0.197 C 
BRANCH  30  31
HETATM   31  O4  UNL     1      10.486  59.227  -5.328  1.00  0.00    -0.397 OA
HETATM   32  H50 UNL     1      10.201  59.489  -6.217  1.00  0.00     0.209 HD
ENDBRANCH  30  31
ENDBRANCH  28  30
ENDBRANCH  26  27
ENDBRANCH  25  26
ENDBRANCH  23  25
ENDBRANCH   1  23
BRANCH   3  33
HETATM   33  O1  UNL     1       4.317  53.812 -10.433  1.00  0.00    -0.394 OA
HETATM   34  H17 UNL     1       5.227  53.538 -10.194  1.00  0.00     0.210 HD
ENDBRANCH   3  33
BRANCH  22  35
HETATM   35  O3  UNL     1       1.950  52.902 -11.819  1.00  0.00    -0.391 OA
HETATM   36  H47 UNL     1       2.865  53.193 -11.637  1.00  0.00     0.210 HD
ENDBRANCH  22  35
BRANCH  16  37
HETATM   37  O2  UNL     1      -4.219  51.490 -10.209  1.00  0.00    -0.395 OA
HETATM   38  H36 UNL     1      -5.149  51.732 -10.053  1.00  0.00     0.210 HD
ENDBRANCH  16  37
TORSDOF 9
ENDMDL
