MODEL 1
REMARK minimizedAffinity -10.4942064
REMARK  8 active torsions:
REMARK  status: ('A' for Active; 'I' for Inactive)
REMARK    1  A    between atoms: C2_2  and  C3_3 
REMARK    2  A    between atoms: C2_2  and  C27_30 
REMARK    3  A    between atoms: C3_3  and  C4_4 
REMARK    4  A    between atoms: C4_4  and  C5_5 
REMARK    5  A    between atoms: C5_5  and  C7_7 
REMARK    6  A    between atoms: C26_28  and  O3_29 
REMARK    7  A    between atoms: C27_30  and  C29_32 
REMARK    8  A    between atoms: C29_32  and  O5_34 
ROOT
HETATM    1  C7  UNL     1      -0.527  51.147 -24.171  1.00  0.00    -0.002 C 
HETATM    2  C8  UNL     1       0.331  52.437 -24.251  1.00  0.00     0.006 C 
HETATM    3  C9  UNL     1       0.592  52.876 -22.805  1.00  0.00     0.010 C 
HETATM    4  C10 UNL     1       0.210  51.654 -21.966  1.00  0.00     0.027 C 
HETATM    5  C11 UNL     1       0.057  51.711 -20.458  1.00  0.00    -0.036 C 
HETATM    6  C12 UNL     1      -0.654  50.753 -19.807  1.00  0.00     0.002 C 
HETATM    7  C13 UNL     1      -1.435  49.738 -20.626  1.00  0.00     0.157 C 
HETATM    8  O1  UNL     1      -2.145  48.896 -20.076  1.00  0.00    -0.293 OA
HETATM    9  C14 UNL     1      -1.319  49.730 -22.140  1.00  0.00     0.093 C 
HETATM   10  C15 UNL     1      -1.047  51.124 -22.701  1.00  0.00    -0.026 C 
HETATM   11  C16 UNL     1      -2.288  52.019 -22.486  1.00  0.00     0.016 C 
HETATM   12  C17 UNL     1      -0.716  50.639 -18.266  1.00  0.00    -0.008 C 
HETATM   13  C18 UNL     1      -2.093  51.207 -17.833  1.00  0.00     0.021 C 
HETATM   14  C19 UNL     1      -0.594  49.157 -17.774  1.00  0.00     0.022 C 
HETATM   15  C20 UNL     1       0.114  48.946 -16.436  1.00  0.00     0.080 C 
HETATM   16  C21 UNL     1      -0.045  50.129 -15.521  1.00  0.00     0.131 C 
HETATM   17  O2  UNL     1      -0.429  49.998 -14.360  1.00  0.00    -0.298 OA
HETATM   18  C22 UNL     1       0.377  51.482 -16.071  1.00  0.00     0.056 C 
HETATM   19  C23 UNL     1       1.697  51.880 -15.411  1.00  0.00     0.018 C 
HETATM   20  C24 UNL     1       0.474  51.431 -17.616  1.00  0.00     0.012 C 
HETATM   21  C25 UNL     1       0.589  52.832 -18.214  1.00  0.00     0.042 C 
HETATM   22  C26 UNL     1       0.824  52.784 -19.723  1.00  0.00     0.148 C 
ENDROOT
BRANCH   1  23
HETATM   23  C5  UNL     1      -1.463  50.939 -25.398  1.00  0.00    -0.014 C 
HETATM   24  C6  UNL     1      -1.952  52.216 -26.088  1.00  0.00     0.010 C 
BRANCH  23  25
HETATM   25  C4  UNL     1      -2.634  49.984 -25.057  1.00  0.00     0.009 C 
BRANCH  25  26
HETATM   26  C3  UNL     1      -2.855  48.841 -26.068  1.00  0.00     0.034 C 
BRANCH  26  27
HETATM   27  C2  UNL     1      -4.273  48.435 -26.440  1.00  0.00    -0.075 C 
HETATM   28  C1  UNL     1      -5.267  48.324 -25.540  1.00  0.00     0.015 C 
BRANCH  27  29
HETATM   29  C27 UNL     1      -4.541  48.089 -27.905  1.00  0.00     0.107 C 
HETATM   30  C28 UNL     1      -5.977  47.639 -28.170  1.00  0.00     0.026 C 
BRANCH  29  31
HETATM   31  C29 UNL     1      -4.188  49.260 -28.813  1.00  0.00     0.147 C 
HETATM   32  O4  UNL     1      -3.442  50.192 -28.557  1.00  0.00    -0.650 OA
BRANCH  31  33
HETATM   33  O5  UNL     1      -4.801  49.195 -30.014  1.00  0.00    -0.776 OA
HETATM   34  H42 UNL     1      -4.467  49.983 -30.491  1.00  0.00     0.167 HD
ENDBRANCH  31  33
ENDBRANCH  29  31
ENDBRANCH  27  29
ENDBRANCH  26  27
ENDBRANCH  25  26
ENDBRANCH  23  25
ENDBRANCH   1  23
BRANCH  22  35
HETATM   35  O3  UNL     1       0.453  54.060 -20.229  1.00  0.00    -0.391 OA
HETATM   36  H37 UNL     1       1.040  54.719 -19.824  1.00  0.00     0.210 HD
ENDBRANCH  22  35
TORSDOF 8
ENDMDL
