MODEL 1
REMARK minimizedAffinity -8.76649761
REMARK  12 active torsions:
REMARK  status: ('A' for Active; 'I' for Inactive)
REMARK    1  A    between atoms: C2_2  and  O1_3 
REMARK    2  A    between atoms: C2_2  and  C3_4 
REMARK    3  A    between atoms: C4_5  and  C5_6 
REMARK    4  A    between atoms: C5_6  and  O2_7 
REMARK    5  A    between atoms: C8_10  and  O3_11 
REMARK    6  A    between atoms: O3_11  and  C9_12 
REMARK    7  A    between atoms: C10_14  and  C11_15 
REMARK    8  A    between atoms: C11_15  and  O5_16 
REMARK    9  A    between atoms: C12_17  and  O6_18 
REMARK   10  A    between atoms: C13_19  and  O7_20 
REMARK   11  A    between atoms: C14_21  and  O8_22 
REMARK   12  A    between atoms: C15_23  and  O9_24 
ROOT
HETATM    1  C5  UNL     1      -0.127   5.681  12.647  1.00  0.00     0.088 C 
HETATM    2  C6  UNL     1      -1.543   5.244  12.173  1.00  0.00     0.052 C 
HETATM    3  C7  UNL     1      -1.617   3.782  11.695  1.00  0.00     0.016 C 
HETATM    4  C8  UNL     1      -2.580   5.437  13.311  1.00  0.00     0.160 C 
HETATM    5  C15 UNL     1      -2.278   6.662  14.209  1.00  0.00     0.148 C 
HETATM    6  C16 UNL     1      -1.494   7.735  13.458  1.00  0.00     0.046 C 
HETATM    7  C17 UNL     1      -0.117   7.250  12.917  1.00  0.00    -0.010 C 
HETATM    8  C18 UNL     1       0.977   7.634  13.943  1.00  0.00     0.018 C 
HETATM    9  C19 UNL     1       0.159   8.078  11.635  1.00  0.00     0.018 C 
ENDROOT
BRANCH   4  10
HETATM   10  O3  UNL     1      -3.879   5.609  12.709  1.00  0.00    -0.350 OA
BRANCH  10  11
HETATM   11  C9  UNL     1      -4.779   4.547  13.057  1.00  0.00     0.292 C 
HETATM   12  O4  UNL     1      -4.959   3.710  11.915  1.00  0.00    -0.348 OA
HETATM   13  C10 UNL     1      -5.869   2.631  12.153  1.00  0.00     0.179 C 
HETATM   14  C12 UNL     1      -7.263   3.181  12.494  1.00  0.00     0.180 C 
HETATM   15  C13 UNL     1      -7.161   4.090  13.720  1.00  0.00     0.183 C 
HETATM   16  C14 UNL     1      -6.113   5.181  13.506  1.00  0.00     0.204 C 
BRANCH  13  17
HETATM   17  C11 UNL     1      -5.920   1.735  10.909  1.00  0.00     0.198 C 
BRANCH  17  18
HETATM   18  O5  UNL     1      -5.592   2.450   9.721  1.00  0.00    -0.398 OA
HETATM   19  H18 UNL     1      -4.810   3.007   9.930  1.00  0.00     0.209 HD
ENDBRANCH  17  18
ENDBRANCH  13  17
BRANCH  14  20
HETATM   20  O6  UNL     1      -8.189   2.120  12.761  1.00  0.00    -0.390 OA
HETATM   21  H20 UNL     1      -8.963   2.559  13.172  1.00  0.00     0.210 HD
ENDBRANCH  14  20
BRANCH  15  22
HETATM   22  O7  UNL     1      -8.449   4.669  13.980  1.00  0.00    -0.390 OA
HETATM   23  H22 UNL     1      -8.281   5.418  14.589  1.00  0.00     0.210 HD
ENDBRANCH  15  22
BRANCH  16  24
HETATM   24  O8  UNL     1      -5.995   5.931  14.732  1.00  0.00    -0.388 OA
HETATM   25  H24 UNL     1      -5.306   5.508  15.284  1.00  0.00     0.210 HD
ENDBRANCH  16  24
ENDBRANCH  10  11
ENDBRANCH   4  10
BRANCH   5  26
HETATM   26  O9  UNL     1      -3.503   7.243  14.687  1.00  0.00    -0.393 OA
HETATM   27  H26 UNL     1      -3.946   7.580  13.881  1.00  0.00     0.210 HD
ENDBRANCH   5  26
BRANCH   1  28
HETATM   28  C4  UNL     1       0.951   5.259  11.656  1.00  0.00     0.010 C 
HETATM   29  C3  UNL     1       1.823   6.037  10.988  1.00  0.00     0.003 C 
BRANCH  29  30
HETATM   30  C2  UNL     1       2.877   5.510  10.059  1.00  0.00     0.136 C 
HETATM   31  C1  UNL     1       4.258   6.020  10.443  1.00  0.00     0.043 C 
BRANCH  30  32
HETATM   32  O1  UNL     1       2.855   4.092  10.167  1.00  0.00    -0.392 OA
HETATM   33  H5  UNL     1       3.495   3.745   9.522  1.00  0.00     0.210 HD
ENDBRANCH  30  32
ENDBRANCH  29  30
ENDBRANCH   1  28
BRANCH   1  34
HETATM   34  O2  UNL     1       0.090   4.997  13.891  1.00  0.00    -0.385 OA
HETATM   35  H8  UNL     1       1.021   5.113  14.141  1.00  0.00     0.211 HD
ENDBRANCH   1  34
TORSDOF 12
ENDMDL
