MODEL 1
REMARK minimizedAffinity -9.29852962
REMARK  5 active torsions:
REMARK  status: ('A' for Active; 'I' for Inactive)
REMARK    1  A    between atoms: C2_2  and  C3_3 
REMARK    2  A    between atoms: C4_5  and  C5_6 
REMARK    3  A    between atoms: C5_6  and  C6_7 
REMARK    4  A    between atoms: C6_7  and  C7_8 
REMARK    5  A    between atoms: C7_8  and  C9_10 
ROOT
HETATM    1  C9  UNL     1      -0.687  49.791 -18.386  1.00  0.00    -0.002 C 
HETATM    2  C10 UNL     1      -1.566  48.576 -18.005  1.00  0.00     0.007 C 
HETATM    3  C11 UNL     1      -2.570  48.377 -19.166  1.00  0.00     0.015 C 
HETATM    4  C12 UNL     1      -2.019  49.231 -20.330  1.00  0.00    -0.005 C 
HETATM    5  C13 UNL     1      -0.925  48.380 -21.047  1.00  0.00     0.021 C 
HETATM    6  C14 UNL     1      -2.924  49.705 -21.458  1.00  0.00    -0.000 C 
HETATM    7  C15 UNL     1      -2.682  50.865 -22.123  1.00  0.00    -0.060 C 
HETATM    8  C16 UNL     1      -1.532  51.794 -21.684  1.00  0.00     0.036 C 
HETATM    9  C17 UNL     1      -0.690  51.365 -20.464  1.00  0.00     0.015 C 
HETATM   10  C18 UNL     1      -1.501  50.481 -19.515  1.00  0.00    -0.028 C 
HETATM   11  C19 UNL     1      -2.670  51.330 -18.931  1.00  0.00     0.016 C 
HETATM   12  C20 UNL     1      -3.540  51.361 -23.314  1.00  0.00    -0.014 C 
HETATM   13  C21 UNL     1      -4.430  52.523 -22.789  1.00  0.00     0.020 C 
HETATM   14  C22 UNL     1      -2.632  51.922 -24.449  1.00  0.00     0.021 C 
HETATM   15  C23 UNL     1      -3.279  51.845 -25.820  1.00  0.00     0.080 C 
HETATM   16  C24 UNL     1      -3.464  50.394 -26.199  1.00  0.00     0.135 C 
HETATM   17  O2  UNL     1      -3.282  50.032 -27.362  1.00  0.00    -0.297 OA
HETATM   18  C25 UNL     1      -3.895  49.416 -25.089  1.00  0.00     0.018 C 
HETATM   19  C26 UNL     1      -4.973  48.493 -25.702  1.00  0.00     0.023 C 
HETATM   20  C27 UNL     1      -2.679  48.550 -24.731  1.00  0.00     0.023 C 
HETATM   21  C28 UNL     1      -4.495  50.249 -23.897  1.00  0.00     0.020 C 
HETATM   22  C29 UNL     1      -5.114  49.423 -22.766  1.00  0.00     0.090 C 
HETATM   23  C30 UNL     1      -4.077  48.841 -21.849  1.00  0.00     0.157 C 
HETATM   24  O3  UNL     1      -4.205  47.702 -21.407  1.00  0.00    -0.293 OA
ENDROOT
BRANCH   1  25
HETATM   25  C7  UNL     1      -0.023  50.600 -17.239  1.00  0.00    -0.014 C 
HETATM   26  C8  UNL     1      -1.057  50.856 -16.125  1.00  0.00     0.010 C 
BRANCH  25  27
HETATM   27  C6  UNL     1       0.765  51.898 -17.517  1.00  0.00     0.008 C 
BRANCH  27  28
HETATM   28  C5  UNL     1       1.299  52.681 -16.315  1.00  0.00     0.028 C 
BRANCH  28  29
HETATM   29  C4  UNL     1       1.965  51.757 -15.332  1.00  0.00    -0.017 C 
HETATM   30  C2  UNL     1       3.285  51.541 -15.180  1.00  0.00    -0.028 C 
HETATM   31  C1  UNL     1       4.399  52.202 -15.928  1.00  0.00     0.051 C 
BRANCH  30  32
HETATM   32  C3  UNL     1       3.716  50.554 -14.142  1.00  0.00     0.265 C 
HETATM   33  O1  UNL     1       4.827  50.041 -14.103  1.00  0.00    -0.302 OA
ENDBRANCH  30  32
ENDBRANCH  28  29
ENDBRANCH  27  28
ENDBRANCH  25  27
ENDBRANCH   1  25
TORSDOF 5
ENDMDL
