MODEL 1
REMARK minimizedAffinity -7.71005583
REMARK CNNscore 0.437125921
REMARK CNNaffinity 7.37375641
REMARK  16 active torsions:
REMARK  status: ('A' for Active; 'I' for Inactive)
REMARK    1  A    between atoms: S1_2  and  C2_3 
REMARK    2  A    between atoms: C2_3  and  C3_4 
REMARK    3  A    between atoms: C3_4  and  C4_5 
REMARK    4  A    between atoms: C4_5  and  N1_6 
REMARK    5  A    between atoms: C4_5  and  C33_44 
REMARK       I    between atoms: N1_6  and  C5_7 
REMARK    6  A    between atoms: C5_7  and  C6_9 
REMARK    7  A    between atoms: C6_9  and  N2_11 
REMARK       I    between atoms: N2_11  and  C8_12 
REMARK    8  A    between atoms: C8_12  and  C9_14 
REMARK    9  A    between atoms: C9_14  and  C10_15 
REMARK   10  A    between atoms: C10_15  and  C11_16 
REMARK   11  A    between atoms: C11_16  and  O4_18 
REMARK   12  A    between atoms: O4_18  and  C12_19 
REMARK   13  A    between atoms: C12_19  and  C13_20 
REMARK   14  A    between atoms: C13_20  and  C14_22 
REMARK   15  A    between atoms: C14_22  and  O6_23 
REMARK   16  A    between atoms: C33_44  and  O10_46 
ROOT
HETATM    1  C12 UNL     1      -5.768   4.183  12.834  1.00  0.00     0.260 C 
ENDROOT
BRANCH   1   2
HETATM    2  O4  UNL     1      -4.899   4.087  11.712  1.00  0.00    -0.314 OA
BRANCH   2   3
HETATM    3  C11 UNL     1      -3.829   3.266  11.856  1.00  0.00     0.259 C 
HETATM    4  O3  UNL     1      -3.909   2.053  11.974  1.00  0.00    -0.265 OA
BRANCH   3   5
HETATM    5  C10 UNL     1      -2.543   4.048  11.963  1.00  0.00     0.120 C 
BRANCH   5   6
HETATM    6  C9  UNL     1      -2.370   4.603  13.374  1.00  0.00     0.112 C 
BRANCH   6   7
HETATM    7  C8  UNL     1      -1.376   5.746  13.392  1.00  0.00     0.218 C 
HETATM    8  N2  UNL     1      -0.120   5.392  12.943  1.00  0.00    -0.348 N 
HETATM    9  H14 UNL     1      -0.086   4.625  12.279  1.00  0.00     0.163 HD
HETATM   10  O2  UNL     1      -1.653   6.869  13.803  1.00  0.00    -0.274 OA
BRANCH   8  11
HETATM   11  C6  UNL     1       0.885   6.429  12.735  1.00  0.00     0.172 C 
HETATM   12  C7  UNL     1       1.632   6.722  14.029  1.00  0.00     0.042 C 
BRANCH  11  13
HETATM   13  C5  UNL     1       1.878   5.920  11.674  1.00  0.00     0.240 C 
HETATM   14  N1  UNL     1       2.819   6.841  11.280  1.00  0.00    -0.345 N 
HETATM   15  H9  UNL     1       2.636   7.822  11.475  1.00  0.00     0.163 HD
HETATM   16  O1  UNL     1       1.859   4.761  11.270  1.00  0.00    -0.271 OA
BRANCH  14  17
HETATM   17  C4  UNL     1       3.722   6.588  10.154  1.00  0.00     0.183 C 
BRANCH  17  18
HETATM   18  C3  UNL     1       3.163   5.586   9.131  1.00  0.00     0.046 C 
BRANCH  18  19
HETATM   19  C2  UNL     1       2.636   6.176   7.824  1.00  0.00     0.076 C 
BRANCH  19  20
HETATM   20  S1  UNL     1       1.758   7.762   7.989  1.00  0.00    -0.173 SA
HETATM   21  C1  UNL     1       3.166   8.899   7.935  1.00  0.00     0.089 C 
ENDBRANCH  19  20
ENDBRANCH  18  19
ENDBRANCH  17  18
BRANCH  17  22
HETATM   22  C33 UNL     1       5.088   6.198  10.716  1.00  0.00     0.163 C 
HETATM   23  O9  UNL     1       5.789   6.905  11.427  1.00  0.00    -0.648 OA
BRANCH  22  24
HETATM   24  O10 UNL     1       5.534   4.996  10.301  1.00  0.00    -0.775 OA
HETATM   25  H46 UNL     1       6.413   4.909  10.727  1.00  0.00     0.167 HD
ENDBRANCH  22  24
ENDBRANCH  17  22
ENDBRANCH  14  17
ENDBRANCH  11  13
ENDBRANCH   8  11
ENDBRANCH   6   7
ENDBRANCH   5   6
ENDBRANCH   3   5
ENDBRANCH   2   3
ENDBRANCH   1   2
BRANCH   1  26
HETATM   26  C13 UNL     1      -5.900   5.453  13.699  1.00  0.00     0.185 C 
HETATM   27  O5  UNL     1      -5.062   6.354  13.582  1.00  0.00    -0.292 OA
BRANCH  26  28
HETATM   28  C14 UNL     1      -7.061   5.567  14.717  1.00  0.00     0.128 C 
HETATM   29  C15 UNL     1      -6.647   5.883  16.177  1.00  0.00     0.047 C 
HETATM   30  C16 UNL     1      -7.784   6.721  16.793  1.00  0.00     0.009 C 
HETATM   31  C17 UNL     1      -8.856   6.769  15.712  1.00  0.00     0.002 C 
HETATM   32  C18 UNL     1      -9.974   7.811  15.811  1.00  0.00     0.003 C 
HETATM   33  C31 UNL     1      -8.073   6.725  14.380  1.00  0.00     0.005 C 
HETATM   34  C19 UNL     1      -9.631   9.157  16.479  1.00  0.00     0.010 C 
HETATM   35  C28 UNL     1     -10.655   8.083  14.449  1.00  0.00     0.072 C 
HETATM   36  C20 UNL     1     -10.685  10.243  16.184  1.00  0.00     0.035 C 
HETATM   37  C21 UNL     1     -12.035   9.631  15.887  1.00  0.00    -0.067 C 
HETATM   38  C22 UNL     1     -13.075   9.849  16.709  1.00  0.00     0.053 C 
HETATM   39  C26 UNL     1     -12.093   8.672  14.677  1.00  0.00    -0.009 C 
HETATM   40  C23 UNL     1     -14.380   9.176  16.510  1.00  0.00     0.149 C 
HETATM   41  O7  UNL     1     -15.329   9.494  17.224  1.00  0.00    -0.293 OA
HETATM   42  C24 UNL     1     -14.506   8.148  15.413  1.00  0.00     0.084 C 
HETATM   43  C25 UNL     1     -13.155   7.581  14.979  1.00  0.00     0.022 C 
HETATM   44  C27 UNL     1     -12.505   9.480  13.428  1.00  0.00     0.021 C 
HETATM   45  C29 UNL     1     -10.486   6.902  13.492  1.00  0.00     0.133 C 
HETATM   46  O8  UNL     1     -11.427   6.410  12.867  1.00  0.00    -0.297 OA
HETATM   47  C30 UNL     1      -9.060   6.419  13.227  1.00  0.00     0.091 C 
HETATM   48  C32 UNL     1      -7.318   8.047  14.091  1.00  0.00     0.019 C 
BRANCH  28  49
HETATM   49  O6  UNL     1      -7.793   4.336  14.737  1.00  0.00    -0.381 OA
HETATM   50  H21 UNL     1      -7.160   3.584  14.689  1.00  0.00     0.211 HD
ENDBRANCH  28  49
ENDBRANCH  26  28
ENDBRANCH   1  26
TORSDOF 16
ENDMDL
