MODEL 1
REMARK minimizedAffinity -8.79504967
REMARK  12 active torsions:
REMARK  status: ('A' for Active; 'I' for Inactive)
REMARK    1  A    between atoms: C2_2  and  C17_19 
REMARK    2  A    between atoms: C3_3  and  C4_4 
REMARK    3  A    between atoms: C4_4  and  C5_5 
REMARK    4  A    between atoms: C5_5  and  C6_6 
REMARK    5  A    between atoms: C12_12  and  O1_13 
REMARK    6  A    between atoms: C17_19  and  C18_20 
REMARK    7  A    between atoms: C19_21  and  C20_22 
REMARK    8  A    between atoms: C20_22  and  C22_24 
REMARK    9  A    between atoms: C22_24  and  C23_26 
REMARK   10  A    between atoms: C23_26  and  O4_27 
REMARK   11  A    between atoms: C23_26  and  C24_28 
REMARK   12  A    between atoms: C24_28  and  C25_29 
ROOT
HETATM    1  C1  UNL     1      -0.158   7.901  13.922  1.00  0.00     0.043 C 
HETATM    2  C2  UNL     1      -0.580   8.436  12.579  1.00  0.00    -0.084 C 
HETATM    3  C3  UNL     1      -1.856   8.749  12.262  1.00  0.00    -0.024 C 
ENDROOT
BRANCH   3   4
HETATM    4  C4  UNL     1      -3.042   8.728  13.182  1.00  0.00     0.030 C 
BRANCH   4   5
HETATM    5  C5  UNL     1      -3.924   7.478  13.117  1.00  0.00     0.042 C 
BRANCH   5   6
HETATM    6  C6  UNL     1      -3.656   6.324  14.121  1.00  0.00     0.065 C 
HETATM    7  C7  UNL     1      -3.504   6.868  15.553  1.00  0.00     0.046 C 
HETATM    8  C8  UNL     1      -2.442   5.444  13.798  1.00  0.00     0.043 C 
HETATM    9  C9  UNL     1      -2.618   4.735  12.463  1.00  0.00     0.044 C 
HETATM   10  C10 UNL     1      -3.991   4.143  12.358  1.00  0.00    -0.021 A 
HETATM   11  C11 UNL     1      -4.254   3.186  11.367  1.00  0.00     0.046 A 
HETATM   12  C16 UNL     1      -5.026   4.557  13.210  1.00  0.00     0.082 A 
HETATM   13  C12 UNL     1      -5.525   2.639  11.258  1.00  0.00     0.066 A 
HETATM   14  C13 UNL     1      -6.547   3.022  12.117  1.00  0.00     0.046 A 
HETATM   15  C14 UNL     1      -6.304   3.985  13.109  1.00  0.00    -0.025 A 
HETATM   16  C15 UNL     1      -7.411   4.406  14.032  1.00  0.00     0.051 C 
HETATM   17  O2  UNL     1      -4.858   5.514  14.180  1.00  0.00    -0.340 OA
BRANCH  13  18
HETATM   18  O1  UNL     1      -5.824   1.716  10.295  1.00  0.00    -0.361 OA
HETATM   19  H17 UNL     1      -5.032   1.570   9.746  1.00  0.00     0.217 HD
ENDBRANCH  13  18
ENDBRANCH   5   6
ENDBRANCH   4   5
ENDBRANCH   3   4
BRANCH   2  20
HETATM   20  C17 UNL     1       0.539   8.591  11.563  1.00  0.00     0.060 C 
BRANCH  20  21
HETATM   21  C18 UNL     1       0.106   8.145  10.193  1.00  0.00    -0.026 C 
HETATM   22  C19 UNL     1       0.872   7.840   9.132  1.00  0.00    -0.019 C 
BRANCH  22  23
HETATM   23  C20 UNL     1       2.379   7.877   9.042  1.00  0.00     0.076 C 
HETATM   24  C21 UNL     1       2.852   8.490   7.729  1.00  0.00     0.022 C 
BRANCH  23  25
HETATM   25  C22 UNL     1       2.964   6.475   9.259  1.00  0.00     0.162 C 
HETATM   26  O3  UNL     1       2.644   5.542   8.514  1.00  0.00    -0.294 OA
BRANCH  25  27
HETATM   27  C23 UNL     1       3.972   6.266  10.400  1.00  0.00     0.188 C 
BRANCH  27  28
HETATM   28  O4  UNL     1       3.313   5.993  11.633  1.00  0.00    -0.388 OA
HETATM   29  H31 UNL     1       2.967   6.842  11.983  1.00  0.00     0.210 HD
ENDBRANCH  27  28
BRANCH  27  30
HETATM   30  C24 UNL     1       4.989   7.410  10.560  1.00  0.00     0.043 C 
BRANCH  30  31
HETATM   31  C25 UNL     1       6.354   7.107  11.216  1.00  0.00    -0.020 C 
HETATM   32  C26 UNL     1       6.716   5.640  10.959  1.00  0.00     0.009 C 
HETATM   33  C27 UNL     1       6.399   7.369  12.722  1.00  0.00     0.009 C 
ENDBRANCH  30  31
ENDBRANCH  27  30
ENDBRANCH  25  27
ENDBRANCH  23  25
ENDBRANCH  22  23
ENDBRANCH  20  21
ENDBRANCH   2  20
TORSDOF 12
ENDMDL
