MODEL 1
REMARK minimizedAffinity -9.71245766
REMARK  9 active torsions:
REMARK  status: ('A' for Active; 'I' for Inactive)
REMARK    1  A    between atoms: C3_3  and  O1_4 
REMARK    2  A    between atoms: N1_14  and  O2_16 
REMARK    3  A    between atoms: O2_16  and  C13_17 
REMARK    4  A    between atoms: C13_17  and  C14_18 
REMARK       I    between atoms: C14_18  and  N2_20 
REMARK    5  A    between atoms: N2_20  and  C15_21 
REMARK    6  A    between atoms: C15_21  and  C16_22 
REMARK    7  A    between atoms: C15_21  and  C17_25 
REMARK    8  A    between atoms: C16_22  and  O5_24 
REMARK    9  A    between atoms: C17_25  and  C19_27 
ROOT
HETATM    1  C1  UNL     1       1.053  54.670 -24.196  1.00  0.00     0.015 C 
HETATM    2  C2  UNL     1       0.397  53.847 -24.777  1.00  0.00    -0.078 C 
HETATM    3  C3  UNL     1      -0.417  52.854 -25.494  1.00  0.00     0.128 C 
HETATM    4  C4  UNL     1       0.449  51.836 -26.274  1.00  0.00     0.052 C 
HETATM    5  C5  UNL     1      -0.336  50.501 -26.266  1.00  0.00     0.010 C 
HETATM    6  C6  UNL     1      -1.674  50.847 -25.621  1.00  0.00     0.002 C 
HETATM    7  C7  UNL     1      -2.538  49.739 -25.002  1.00  0.00    -0.004 C 
HETATM    8  C8  UNL     1      -2.766  48.518 -25.912  1.00  0.00     0.010 C 
HETATM    9  C9  UNL     1      -4.187  48.400 -26.450  1.00  0.00     0.035 C 
HETATM   10  C10 UNL     1      -5.266  48.532 -25.395  1.00  0.00    -0.069 C 
HETATM   11  C11 UNL     1      -6.491  48.046 -25.671  1.00  0.00     0.030 C 
HETATM   12  C12 UNL     1      -7.660  48.280 -24.773  1.00  0.00     0.032 C 
HETATM   13  N1  UNL     1      -8.873  47.864 -24.986  1.00  0.00    -0.271 N 
ATOM     14  H1  UNL     1      -9.655  48.033 -24.354  1.00  0.00     0.194 HD
HETATM   15  C21 UNL     1      -7.424  49.074 -23.504  1.00  0.00     0.060 C 
HETATM   16  C22 UNL     1      -6.252  50.038 -23.655  1.00  0.00     0.020 C 
HETATM   17  C23 UNL     1      -4.949  49.345 -24.134  1.00  0.00    -0.016 C 
HETATM   18  C24 UNL     1      -4.444  48.409 -23.012  1.00  0.00     0.020 C 
HETATM   19  C25 UNL     1      -3.876  50.407 -24.536  1.00  0.00     0.002 C 
HETATM   20  C26 UNL     1      -3.584  51.516 -23.497  1.00  0.00     0.007 C 
HETATM   21  C27 UNL     1      -2.606  52.576 -24.051  1.00  0.00     0.014 C 
HETATM   22  C28 UNL     1      -1.302  51.950 -24.587  1.00  0.00     0.003 C 
HETATM   23  C29 UNL     1      -0.475  51.411 -23.381  1.00  0.00     0.020 C 
ENDROOT
BRANCH   3  24
HETATM   24  O1  UNL     1      -1.224  53.547 -26.451  1.00  0.00    -0.377 OA
HETATM   25  H2  UNL     1      -1.528  54.368 -26.031  1.00  0.00     0.211 HD
ENDBRANCH   3  24
BRANCH  13  26
HETATM   26  O2  UNL     1      -8.976  47.154 -26.195  1.00  0.00    -0.271 OA
BRANCH  26  27
HETATM   27  C13 UNL     1      -9.879  47.817 -27.075  1.00  0.00     0.303 C 
BRANCH  27  28
HETATM   28  C14 UNL     1      -9.363  47.947 -28.507  1.00  0.00     0.244 C 
HETATM   29  O3  UNL     1      -9.996  47.529 -29.475  1.00  0.00    -0.271 OA
HETATM   30  N2  UNL     1      -8.127  48.545 -28.616  1.00  0.00    -0.344 N 
HETATM   31  H16 UNL     1      -7.615  48.600 -27.736  1.00  0.00     0.163 HD
BRANCH  30  32
HETATM   32  C15 UNL     1      -7.382  48.585 -29.875  1.00  0.00     0.186 C 
BRANCH  32  33
HETATM   33  C16 UNL     1      -8.326  49.197 -30.920  1.00  0.00     0.163 C 
HETATM   34  O4  UNL     1      -8.586  48.734 -32.021  1.00  0.00    -0.648 OA
BRANCH  33  35
HETATM   35  O5  UNL     1      -8.880  50.362 -30.534  1.00  0.00    -0.775 OA
HETATM   36  H18 UNL     1      -9.487  50.593 -31.269  1.00  0.00     0.167 HD
ENDBRANCH  33  35
ENDBRANCH  32  33
BRANCH  32  37
HETATM   37  C17 UNL     1      -6.875  47.164 -30.221  1.00  0.00     0.014 C 
HETATM   38  C18 UNL     1      -5.683  47.144 -31.184  1.00  0.00     0.012 C 
BRANCH  37  39
HETATM   39  C19 UNL     1      -6.622  46.279 -28.980  1.00  0.00     0.002 C 
HETATM   40  C20 UNL     1      -7.236  44.889 -29.001  1.00  0.00     0.005 C 
ENDBRANCH  37  39
ENDBRANCH  32  37
ENDBRANCH  30  32
ENDBRANCH  27  28
ENDBRANCH  26  27
ENDBRANCH  13  26
TORSDOF 9
ENDMDL
