MODEL 1
REMARK minimizedAffinity -8.73670864
REMARK  11 active torsions:
REMARK  status: ('A' for Active; 'I' for Inactive)
REMARK    1  A    between atoms: C2_2  and  O1_3 
REMARK    2  A    between atoms: O1_3  and  C3_4 
REMARK    3  A    between atoms: C3_4  and  C4_6 
REMARK    4  A    between atoms: C4_6  and  O3_7 
REMARK    5  A    between atoms: O3_7  and  C5_8 
REMARK       I    between atoms: N1_11  and  C8_12 
REMARK    6  A    between atoms: C8_12  and  C9_14 
REMARK    7  A    between atoms: C9_14  and  N2_16 
REMARK       I    between atoms: N2_16  and  C11_17 
REMARK    8  A    between atoms: C11_17  and  C12_19 
REMARK    9  A    between atoms: C15_22  and  C16_23 
REMARK   10  A    between atoms: C16_23  and  N3_24 
REMARK   11  A    between atoms: N4_25  and  O6_27 
ROOT
HETATM    1  N2  UNL     1       0.759  52.582 -24.852  1.00  0.00    -0.344 N 
HETATM    2  C11 UNL     1       0.915  53.640 -23.988  1.00  0.00     0.252 C 
HETATM    3  O5  UNL     1       1.052  54.797 -24.371  1.00  0.00    -0.268 OA
HETATM    4  H17 UNL     1       0.439  51.680 -24.514  1.00  0.00     0.163 HD
ENDROOT
BRANCH   1   5
HETATM    5  C9  UNL     1       0.650  52.770 -26.300  1.00  0.00     0.173 C 
HETATM    6  C10 UNL     1       1.362  51.642 -27.036  1.00  0.00     0.042 C 
BRANCH   5   7
HETATM    7  C8  UNL     1      -0.860  52.796 -26.636  1.00  0.00     0.242 C 
HETATM    8  N1  UNL     1      -1.728  51.963 -25.940  1.00  0.00    -0.350 N 
HETATM    9  C7  UNL     1      -1.316  50.877 -25.047  1.00  0.00     0.128 C 
HETATM   10  C19 UNL     1      -3.154  52.045 -26.262  1.00  0.00     0.128 C 
HETATM   11  C6  UNL     1      -2.246  49.679 -25.170  1.00  0.00     0.052 C 
HETATM   12  C5  UNL     1      -3.689  50.044 -24.807  1.00  0.00     0.125 C 
HETATM   13  C20 UNL     1      -4.029  51.503 -25.139  1.00  0.00     0.052 C 
HETATM   14  O4  UNL     1      -1.276  53.576 -27.506  1.00  0.00    -0.271 OA
BRANCH  12  15
HETATM   15  O3  UNL     1      -4.542  49.156 -25.543  1.00  0.00    -0.376 OA
BRANCH  15  16
HETATM   16  C4  UNL     1      -3.877  48.424 -26.566  1.00  0.00     0.279 C 
BRANCH  16  17
HETATM   17  C3  UNL     1      -4.557  48.434 -27.938  1.00  0.00     0.282 C 
HETATM   18  O2  UNL     1      -4.151  49.027 -28.929  1.00  0.00    -0.263 OA
BRANCH  17  19
HETATM   19  O1  UNL     1      -5.682  47.661 -27.892  1.00  0.00    -0.320 OA
BRANCH  19  20
HETATM   20  C2  UNL     1      -6.197  47.234 -29.162  1.00  0.00     0.174 C 
HETATM   21  C1  UNL     1      -7.048  45.990 -28.997  1.00  0.00     0.034 C 
ENDBRANCH  19  20
ENDBRANCH  17  19
ENDBRANCH  16  17
ENDBRANCH  15  16
ENDBRANCH  12  15
ENDBRANCH   5   7
ENDBRANCH   1   5
BRANCH   2  22
HETATM   22  C12 UNL     1       0.869  53.324 -22.531  1.00  0.00     0.032 A 
HETATM   23  C13 UNL     1       0.298  52.144 -22.037  1.00  0.00     0.018 A 
HETATM   24  C14 UNL     1       0.271  51.899 -20.659  1.00  0.00     0.016 A 
HETATM   25  C15 UNL     1       0.818  52.829 -19.765  1.00  0.00     0.004 A 
HETATM   26  C17 UNL     1       1.410  53.997 -20.261  1.00  0.00     0.016 A 
HETATM   27  C18 UNL     1       1.437  54.242 -21.637  1.00  0.00     0.018 A 
BRANCH  25  28
HETATM   28  C16 UNL     1       0.787  52.574 -18.291  1.00  0.00     0.108 C 
HETATM   29  N4  UNL     1       1.533  53.307 -17.512  1.00  0.00    -0.258 N 
ATOM     30  H4  UNL     1       2.161  54.043 -17.836  1.00  0.00     0.195 HD
BRANCH  28  31
HETATM   31  N3  UNL     1      -0.033  51.586 -17.792  1.00  0.00    -0.287 NA
HETATM   32  H20 UNL     1      -0.067  51.672 -16.778  1.00  0.00     0.125 HD
HETATM   33  H21 UNL     1      -0.963  51.562 -18.196  1.00  0.00     0.125 HD
ENDBRANCH  28  31
BRANCH  29  34
HETATM   34  O6  UNL     1       1.356  52.948 -16.164  1.00  0.00    -0.289 OA
HETATM   35  H22 UNL     1       2.016  53.512 -15.719  1.00  0.00     0.244 HD
ENDBRANCH  29  34
ENDBRANCH  25  28
ENDBRANCH   2  22
TORSDOF 11
ENDMDL
