MODEL 1
REMARK minimizedAffinity -9.13301849
REMARK CNNscore 0.379733294
REMARK CNNaffinity 7.37195063
REMARK  19 active torsions:
REMARK  status: ('A' for Active; 'I' for Inactive)
REMARK    1  A    between atoms: C19_20  and  O2_21 
REMARK    2  A    between atoms: C19_20  and  C20_22 
REMARK    3  A    between atoms: C20_22  and  C21_24 
REMARK    4  A    between atoms: C21_24  and  O4_25 
REMARK    5  A    between atoms: O4_25  and  C22_26 
REMARK    6  A    between atoms: C22_26  and  C23_28 
REMARK    7  A    between atoms: C23_28  and  C24_29 
REMARK    8  A    between atoms: C24_29  and  C25_30 
REMARK       I    between atoms: C25_30  and  N1_32 
REMARK    9  A    between atoms: N1_32  and  C26_33 
REMARK   10  A    between atoms: C26_33  and  C27_34 
REMARK   11  A    between atoms: C27_34  and  C28_35 
REMARK   12  A    between atoms: C28_35  and  C29_36 
REMARK   13  A    between atoms: C29_36  and  C30_37 
REMARK   14  A    between atoms: C30_37  and  C31_38 
REMARK       I    between atoms: C31_38  and  N2_40 
REMARK   15  A    between atoms: N2_40  and  C32_41 
REMARK   16  A    between atoms: C32_41  and  C33_42 
REMARK   17  A    between atoms: C33_42  and  C34_43 
REMARK   18  A    between atoms: C37_46  and  O8_47 
REMARK   19  A    between atoms: C38_48  and  O9_49 
ROOT
HETATM    1  C22 UNL     1       5.314   7.694  10.684  1.00  0.00     0.259 C 
HETATM    2  O5  UNL     1       5.254   8.901  10.487  1.00  0.00    -0.265 OA
ENDROOT
BRANCH   1   3
HETATM    3  O4  UNL     1       4.312   6.815  10.410  1.00  0.00    -0.314 OA
BRANCH   3   4
HETATM    4  C21 UNL     1       3.275   6.732  11.382  1.00  0.00     0.260 C 
BRANCH   4   5
HETATM    5  C20 UNL     1       1.916   7.435  11.204  1.00  0.00     0.185 C 
HETATM    6  O3  UNL     1       1.882   8.647  10.975  1.00  0.00    -0.292 OA
BRANCH   5   7
HETATM    7  C19 UNL     1       0.629   6.574  11.217  1.00  0.00     0.128 C 
HETATM    8  C14 UNL     1      -0.325   6.873  12.416  1.00  0.00    -0.002 C 
HETATM    9  C13 UNL     1      -1.220   8.122  12.275  1.00  0.00     0.013 C 
HETATM   10  C15 UNL     1       0.484   6.963  13.739  1.00  0.00     0.019 C 
HETATM   11  C16 UNL     1      -1.234   5.628  12.357  1.00  0.00     0.002 C 
HETATM   12  C12 UNL     1      -2.679   7.914  12.740  1.00  0.00     0.007 C 
HETATM   13  C11 UNL     1      -2.841   6.908  13.907  1.00  0.00     0.002 C 
HETATM   14  C2  UNL     1      -4.297   6.786  14.493  1.00  0.00    -0.016 C 
HETATM   15  C10 UNL     1      -2.214   5.508  13.541  1.00  0.00    -0.004 C 
HETATM   16  C1  UNL     1      -4.213   6.090  15.880  1.00  0.00     0.020 C 
HETATM   17  C3  UNL     1      -4.956   8.179  14.704  1.00  0.00     0.022 C 
HETATM   18  C7  UNL     1      -5.201   5.975  13.571  1.00  0.00    -0.068 C 
HETATM   19  C4  UNL     1      -6.390   8.088  15.222  1.00  0.00     0.084 C 
HETATM   20  C5  UNL     1      -7.225   7.141  14.393  1.00  0.00     0.149 C 
HETATM   21  O1  UNL     1      -8.453   7.153  14.430  1.00  0.00    -0.293 OA
HETATM   22  C6  UNL     1      -6.536   6.143  13.537  1.00  0.00     0.053 C 
HETATM   23  C8  UNL     1      -4.551   4.966  12.659  1.00  0.00     0.035 C 
HETATM   24  C9  UNL     1      -3.261   4.409  13.247  1.00  0.00     0.010 C 
HETATM   25  C17 UNL     1      -0.264   4.462  12.146  1.00  0.00     0.009 C 
HETATM   26  C18 UNL     1       0.933   5.061  11.385  1.00  0.00     0.047 C 
BRANCH   7  27
HETATM   27  O2  UNL     1      -0.072   6.697   9.975  1.00  0.00    -0.381 OA
HETATM   28  H27 UNL     1       0.557   6.417   9.280  1.00  0.00     0.211 HD
ENDBRANCH   7  27
ENDBRANCH   5   7
ENDBRANCH   4   5
ENDBRANCH   3   4
ENDBRANCH   1   3
BRANCH   1  29
HETATM   29  C23 UNL     1       6.492   6.985  11.297  1.00  0.00     0.120 C 
BRANCH  29  30
HETATM   30  C24 UNL     1       6.438   7.095  12.816  1.00  0.00     0.112 C 
BRANCH  30  31
HETATM   31  C25 UNL     1       7.567   7.925  13.383  1.00  0.00     0.217 C 
HETATM   32  O6  UNL     1       7.920   9.000  12.917  1.00  0.00    -0.274 OA
HETATM   33  N1  UNL     1       8.139   7.335  14.493  1.00  0.00    -0.361 N 
HETATM   34  H34 UNL     1       7.939   6.357  14.657  1.00  0.00     0.162 HD
BRANCH  33  35
HETATM   35  C26 UNL     1       9.314   7.895  15.127  1.00  0.00     0.122 C 
BRANCH  35  36
HETATM   36  C27 UNL     1       9.030   8.314  16.568  1.00  0.00     0.020 C 
BRANCH  36  37
HETATM   37  C28 UNL     1       8.348   9.682  16.712  1.00  0.00     0.002 C 
BRANCH  37  38
HETATM   38  C29 UNL     1       8.639  10.429  18.022  1.00  0.00     0.009 C 
BRANCH  38  39
HETATM   39  C30 UNL     1       7.496  11.329  18.495  1.00  0.00     0.103 C 
BRANCH  39  40
HETATM   40  C31 UNL     1       7.665  11.781  19.934  1.00  0.00     0.217 C 
HETATM   41  O7  UNL     1       8.754  11.894  20.486  1.00  0.00    -0.274 OA
HETATM   42  N2  UNL     1       6.470  12.014  20.579  1.00  0.00    -0.361 N 
HETATM   43  H45 UNL     1       5.631  12.116  20.022  1.00  0.00     0.162 HD
BRANCH  42  44
HETATM   44  C32 UNL     1       6.438  12.527  21.938  1.00  0.00     0.127 C 
BRANCH  44  45
HETATM   45  C33 UNL     1       5.016  12.707  22.485  1.00  0.00     0.058 C 
BRANCH  45  46
HETATM   46  C34 UNL     1       4.181  11.450  22.365  1.00  0.00    -0.054 A 
HETATM   47  C35 UNL     1       4.528  10.299  23.097  1.00  0.00     0.010 A 
HETATM   48  C36 UNL     1       3.754   9.141  23.009  1.00  0.00     0.040 A 
HETATM   49  C37 UNL     1       2.634   9.136  22.191  1.00  0.00     0.098 A 
HETATM   50  C38 UNL     1       2.280  10.266  21.459  1.00  0.00     0.099 A 
HETATM   51  C39 UNL     1       3.043  11.427  21.541  1.00  0.00     0.046 A 
BRANCH  49  52
HETATM   52  O8  UNL     1       1.877   8.002  22.110  1.00  0.00    -0.358 OA
HETATM   53  H52 UNL     1       1.162   8.229  21.482  1.00  0.00     0.217 HD
ENDBRANCH  49  52
BRANCH  50  54
HETATM   54  O9  UNL     1       1.165  10.187  20.669  1.00  0.00    -0.358 OA
HETATM   55  H53 UNL     1       1.071  11.029  20.192  1.00  0.00     0.217 HD
ENDBRANCH  50  54
ENDBRANCH  45  46
ENDBRANCH  44  45
ENDBRANCH  42  44
ENDBRANCH  39  40
ENDBRANCH  38  39
ENDBRANCH  37  38
ENDBRANCH  36  37
ENDBRANCH  35  36
ENDBRANCH  33  35
ENDBRANCH  30  31
ENDBRANCH  29  30
ENDBRANCH   1  29
TORSDOF 19
ENDMDL
