MODEL 1
REMARK minimizedAffinity -8.82076073
REMARK CNNscore 0.615393102
REMARK CNNaffinity 6.72841978
REMARK  12 active torsions:
REMARK  status: ('A' for Active; 'I' for Inactive)
REMARK    1  A    between atoms: C3_3  and  O1_4 
REMARK    2  A    between atoms: N1_14  and  O2_16 
REMARK    3  A    between atoms: O2_16  and  C13_17 
REMARK    4  A    between atoms: C13_17  and  C14_18 
REMARK       I    between atoms: C14_18  and  N2_20 
REMARK    5  A    between atoms: N2_20  and  C15_21 
REMARK    6  A    between atoms: C15_21  and  C16_22 
REMARK    7  A    between atoms: C15_21  and  C27_38 
REMARK       I    between atoms: C16_22  and  N3_24 
REMARK    8  A    between atoms: N3_24  and  C17_25 
REMARK    9  A    between atoms: C17_25  and  C18_26 
REMARK   10  A    between atoms: C17_25  and  C20_30 
REMARK   11  A    between atoms: C18_26  and  C19_27 
REMARK   12  A    between atoms: C19_27  and  O6_29 
ROOT
HETATM    1  C1  UNL     1      -0.007  55.272 -26.968  1.00  0.00     0.015 C 
HETATM    2  C2  UNL     1      -0.383  54.131 -26.950  1.00  0.00    -0.078 C 
HETATM    3  C3  UNL     1      -0.820  52.727 -26.959  1.00  0.00     0.128 C 
HETATM    4  C4  UNL     1       0.375  51.767 -26.973  1.00  0.00     0.052 C 
HETATM    5  C5  UNL     1      -0.273  50.429 -26.643  1.00  0.00     0.010 C 
HETATM    6  C6  UNL     1      -1.241  50.768 -25.508  1.00  0.00     0.002 C 
HETATM    7  C7  UNL     1      -2.381  49.756 -25.255  1.00  0.00    -0.004 C 
HETATM    8  C8  UNL     1      -3.080  49.170 -26.491  1.00  0.00     0.010 C 
HETATM    9  C9  UNL     1      -4.126  48.122 -26.107  1.00  0.00     0.035 C 
HETATM   10  C10 UNL     1      -5.088  48.561 -25.023  1.00  0.00    -0.069 C 
HETATM   11  C11 UNL     1      -6.383  48.199 -25.103  1.00  0.00     0.030 C 
HETATM   12  C12 UNL     1      -7.328  48.375 -23.958  1.00  0.00     0.032 C 
HETATM   13  N1  UNL     1      -8.537  47.906 -23.895  1.00  0.00    -0.271 N 
ATOM     14  H1  UNL     1      -9.134  47.982 -23.071  1.00  0.00     0.194 HD
HETATM   15  C30 UNL     1      -6.817  49.077 -22.712  1.00  0.00     0.060 C 
HETATM   16  C31 UNL     1      -5.647  50.002 -23.022  1.00  0.00     0.020 C 
HETATM   17  C32 UNL     1      -4.504  49.307 -23.825  1.00  0.00    -0.016 C 
HETATM   18  C33 UNL     1      -3.828  48.264 -22.892  1.00  0.00     0.020 C 
HETATM   19  C34 UNL     1      -3.427  50.367 -24.292  1.00  0.00     0.002 C 
HETATM   20  C35 UNL     1      -4.040  51.664 -24.883  1.00  0.00     0.007 C 
HETATM   21  C36 UNL     1      -3.174  52.418 -25.901  1.00  0.00     0.014 C 
HETATM   22  C37 UNL     1      -1.653  52.267 -25.706  1.00  0.00     0.003 C 
HETATM   23  C38 UNL     1      -1.248  53.047 -24.427  1.00  0.00     0.020 C 
ENDROOT
BRANCH   3  24
HETATM   24  O1  UNL     1      -1.553  52.502 -28.164  1.00  0.00    -0.377 OA
HETATM   25  H2  UNL     1      -1.046  52.912 -28.883  1.00  0.00     0.211 HD
ENDBRANCH   3  24
BRANCH  13  26
HETATM   26  O2  UNL     1      -8.929  47.284 -25.087  1.00  0.00    -0.271 OA
BRANCH  26  27
HETATM   27  C13 UNL     1     -10.342  47.299 -25.193  1.00  0.00     0.303 C 
BRANCH  27  28
HETATM   28  C14 UNL     1     -11.039  45.961 -25.469  1.00  0.00     0.244 C 
HETATM   29  O3  UNL     1     -10.732  44.884 -24.965  1.00  0.00    -0.271 OA
HETATM   30  N2  UNL     1     -12.098  46.083 -26.369  1.00  0.00    -0.346 N 
HETATM   31  H16 UNL     1     -12.527  47.003 -26.414  1.00  0.00     0.163 HD
BRANCH  30  32
HETATM   32  C15 UNL     1     -13.011  44.961 -26.587  1.00  0.00     0.180 C 
BRANCH  32  33
HETATM   33  C16 UNL     1     -14.436  45.444 -26.230  1.00  0.00     0.241 C 
HETATM   34  O4  UNL     1     -14.892  46.500 -26.657  1.00  0.00    -0.271 OA
HETATM   35  N3  UNL     1     -15.165  44.564 -25.458  1.00  0.00    -0.354 N 
HETATM   36  H18 UNL     1     -14.675  43.771 -25.052  1.00  0.00     0.162 HD
BRANCH  35  37
HETATM   37  C17 UNL     1     -16.531  44.863 -25.016  1.00  0.00     0.098 C 
BRANCH  37  38
HETATM   38  C18 UNL     1     -16.746  46.386 -24.914  1.00  0.00     0.135 C 
BRANCH  38  39
HETATM   39  C19 UNL     1     -18.113  46.741 -24.392  1.00  0.00     0.141 C 
HETATM   40  O5  UNL     1     -19.046  47.223 -25.004  1.00  0.00    -0.650 OA
BRANCH  39  41
HETATM   41  O6  UNL     1     -18.254  46.411 -23.091  1.00  0.00    -0.776 OA
HETATM   42  H22 UNL     1     -19.194  46.609 -22.900  1.00  0.00     0.167 HD
ENDBRANCH  39  41
ENDBRANCH  38  39
ENDBRANCH  37  38
BRANCH  37  43
HETATM   43  C20 UNL     1     -17.545  44.125 -25.938  1.00  0.00     0.014 C 
HETATM   44  C21 UNL     1     -18.689  43.412 -25.180  1.00  0.00     0.033 C 
HETATM   45  C22 UNL     1     -19.212  42.188 -25.930  1.00  0.00     0.169 C 
HETATM   46  O7  UNL     1     -19.221  42.432 -27.332  1.00  0.00    -0.381 OA
HETATM   47  C23 UNL     1     -17.911  42.569 -27.914  1.00  0.00     0.054 C 
HETATM   48  C24 UNL     1     -17.452  41.196 -28.424  1.00  0.00     0.045 C 
HETATM   49  C25 UNL     1     -18.084  43.513 -29.110  1.00  0.00     0.045 C 
HETATM   50  C26 UNL     1     -16.884  43.142 -26.911  1.00  0.00     0.044 C 
ENDBRANCH  37  43
ENDBRANCH  35  37
ENDBRANCH  32  33
BRANCH  32  51
HETATM   51  C27 UNL     1     -12.910  44.421 -28.033  1.00  0.00     0.009 C 
HETATM   52  C28 UNL     1     -11.504  44.601 -28.615  1.00  0.00     0.012 C 
HETATM   53  C29 UNL     1     -13.346  42.955 -28.188  1.00  0.00     0.012 C 
ENDBRANCH  32  51
ENDBRANCH  30  32
ENDBRANCH  27  28
ENDBRANCH  26  27
ENDBRANCH  13  26
TORSDOF 12
ENDMDL
