MODEL 1
REMARK minimizedAffinity -8.69692898
REMARK CNNscore 0.54338187
REMARK CNNaffinity 7.03689766
REMARK  7 active torsions:
REMARK  status: ('A' for Active; 'I' for Inactive)
REMARK    1  A    between atoms: C2_2  and  C30_32 
REMARK    2  A    between atoms: C3_3  and  C4_4 
REMARK    3  A    between atoms: C4_4  and  O1_5 
REMARK    4  A    between atoms: C4_4  and  C5_6 
REMARK    5  A    between atoms: C5_6  and  C6_7 
REMARK    6  A    between atoms: C6_7  and  C8_9 
REMARK    7  A    between atoms: C30_32  and  O4_34 
ROOT
HETATM    1  C8  UNL     1      -8.014   6.574  14.575  1.00  0.00    -0.002 C 
HETATM    2  C9  UNL     1      -7.831   5.818  15.910  1.00  0.00     0.006 C 
HETATM    3  C10 UNL     1      -6.314   5.776  16.194  1.00  0.00     0.011 C 
HETATM    4  C11 UNL     1      -5.683   6.786  15.212  1.00  0.00    -0.032 C 
HETATM    5  C12 UNL     1      -5.799   8.195  15.875  1.00  0.00     0.016 C 
HETATM    6  C13 UNL     1      -4.202   6.503  14.840  1.00  0.00     0.004 C 
HETATM    7  C14 UNL     1      -3.197   6.830  15.956  1.00  0.00     0.007 C 
HETATM    8  C15 UNL     1      -1.790   6.415  15.531  1.00  0.00     0.007 C 
HETATM    9  C16 UNL     1      -1.278   7.320  14.401  1.00  0.00     0.010 C 
HETATM   10  C17 UNL     1       0.125   6.927  13.833  1.00  0.00     0.018 C 
HETATM   11  C18 UNL     1       1.237   7.394  14.791  1.00  0.00     0.023 C 
HETATM   12  C19 UNL     1       0.297   5.417  13.598  1.00  0.00     0.023 C 
HETATM   13  C20 UNL     1       0.353   7.655  12.497  1.00  0.00     0.135 C 
HETATM   14  O2  UNL     1       1.203   7.287  11.685  1.00  0.00    -0.297 OA
HETATM   15  C21 UNL     1      -0.430   8.922  12.258  1.00  0.00     0.080 C 
HETATM   16  C22 UNL     1      -1.933   8.694  12.379  1.00  0.00     0.018 C 
HETATM   17  C23 UNL     1      -2.292   7.514  13.273  1.00  0.00    -0.026 A 
HETATM   18  C24 UNL     1      -2.910   6.314  12.600  1.00  0.00     0.021 A 
HETATM   19  C25 UNL     1      -3.792   7.170  13.500  1.00  0.00    -0.027 A 
HETATM   20  C26 UNL     1      -4.829   8.056  12.794  1.00  0.00     0.011 C 
HETATM   21  C27 UNL     1      -6.318   7.706  12.959  1.00  0.00     0.011 C 
HETATM   22  C28 UNL     1      -6.589   6.568  13.943  1.00  0.00    -0.032 C 
HETATM   23  C29 UNL     1      -6.316   5.228  13.211  1.00  0.00     0.016 C 
ENDROOT
BRANCH   1  24
HETATM   24  C6  UNL     1      -9.295   6.291  13.743  1.00  0.00    -0.011 C 
HETATM   25  C7  UNL     1      -8.892   5.834  12.326  1.00  0.00     0.010 C 
BRANCH  24  26
HETATM   26  C5  UNL     1     -10.471   7.296  13.660  1.00  0.00     0.040 C 
BRANCH  26  27
HETATM   27  C4  UNL     1     -11.836   6.930  14.253  1.00  0.00     0.142 C 
BRANCH  27  28
HETATM   28  C3  UNL     1     -12.935   7.347  13.312  1.00  0.00     0.018 C 
HETATM   29  C2  UNL     1     -14.210   6.906  13.264  1.00  0.00     0.010 C 
HETATM   30  C1  UNL     1     -14.826   5.870  14.159  1.00  0.00     0.055 C 
BRANCH  29  31
HETATM   31  C30 UNL     1     -15.160   7.450  12.252  1.00  0.00     0.171 C 
HETATM   32  O3  UNL     1     -15.145   8.588  11.817  1.00  0.00    -0.646 OA
BRANCH  31  33
HETATM   33  O4  UNL     1     -16.071   6.562  11.824  1.00  0.00    -0.773 OA
HETATM   34  H46 UNL     1     -16.599   7.067  11.171  1.00  0.00     0.167 HD
ENDBRANCH  31  33
ENDBRANCH  29  31
ENDBRANCH  27  28
BRANCH  27  35
HETATM   35  O1  UNL     1     -12.053   7.637  15.467  1.00  0.00    -0.392 OA
HETATM   36  H6  UNL     1     -12.981   7.506  15.721  1.00  0.00     0.210 HD
ENDBRANCH  27  35
ENDBRANCH  26  27
ENDBRANCH  24  26
ENDBRANCH   1  24
TORSDOF 7
ENDMDL
