MODEL 1
REMARK minimizedAffinity -6.63523626
REMARK CNNscore 0.610605359
REMARK CNNaffinity 6.57638597
REMARK  13 active torsions:
REMARK  status: ('A' for Active; 'I' for Inactive)
REMARK    1  A    between atoms: C2_2  and  C3_3 
REMARK    2  A    between atoms: C2_2  and  C14_14 
REMARK    3  A    between atoms: C4_4  and  C5_5 
REMARK    4  A    between atoms: C6_6  and  C8_8 
REMARK    5  A    between atoms: C8_8  and  C9_9 
REMARK    6  A    between atoms: C9_9  and  C10_10 
REMARK    7  A    between atoms: C18_18  and  O1_19 
REMARK    8  A    between atoms: C19_20  and  C20_21 
REMARK    9  A    between atoms: C20_21  and  C21_22 
REMARK   10  A    between atoms: C21_22  and  C22_23 
REMARK   11  A    between atoms: C22_23  and  O2_24 
REMARK   12  A    between atoms: C24_26  and  C26_28 
REMARK   13  A    between atoms: C29_32  and  O4_34 
ROOT
HETATM    1  C14 UNL     1      -0.425  52.716 -11.652  1.00  0.00     0.047 C 
HETATM    2  C15 UNL     1       0.303  51.655 -10.814  1.00  0.00     0.013 C 
HETATM    3  C16 UNL     1      -0.241  50.296 -11.252  1.00  0.00     0.017 C 
HETATM    4  C17 UNL     1      -0.838  50.470 -12.673  1.00  0.00     0.024 C 
HETATM    5  C18 UNL     1      -1.469  51.908 -12.470  1.00  0.00     0.138 C 
HETATM    6  C19 UNL     1       0.250  50.523 -13.843  1.00  0.00     0.029 C 
HETATM    7  C23 UNL     1      -0.275  50.327 -15.284  1.00  0.00    -0.066 C 
HETATM    8  C24 UNL     1       0.263  50.931 -16.382  1.00  0.00    -0.021 C 
HETATM    9  C25 UNL     1      -0.163  50.677 -17.809  1.00  0.00     0.052 C 
HETATM   10  C27 UNL     1      -1.501  49.439 -15.440  1.00  0.00     0.038 C 
HETATM   11  C28 UNL     1      -2.547  49.596 -14.348  1.00  0.00     0.042 C 
HETATM   12  C29 UNL     1      -1.972  49.412 -12.943  1.00  0.00     0.065 C 
HETATM   13  C30 UNL     1      -1.565  47.944 -12.742  1.00  0.00     0.047 C 
ENDROOT
BRANCH   5  14
HETATM   14  O1  UNL     1      -1.747  52.577 -13.695  1.00  0.00    -0.394 OA
HETATM   15  H26 UNL     1      -2.152  53.432 -13.464  1.00  0.00     0.210 HD
ENDBRANCH   5  14
BRANCH   6  16
HETATM   16  C20 UNL     1       1.641  49.855 -13.595  1.00  0.00     0.012 C 
BRANCH  16  17
HETATM   17  C21 UNL     1       2.886  50.686 -13.301  1.00  0.00     0.027 C 
BRANCH  17  18
HETATM   18  C22 UNL     1       3.977  49.946 -12.540  1.00  0.00     0.164 C 
BRANCH  18  19
HETATM   19  O2  UNL     1       5.007  49.564 -13.444  1.00  0.00    -0.401 OA
HETATM   20  H34 UNL     1       5.396  50.376 -13.810  1.00  0.00     0.209 HD
ENDBRANCH  18  19
ENDBRANCH  17  18
ENDBRANCH  16  17
ENDBRANCH   6  16
BRANCH  12  21
HETATM   21  O4  UNL     1      -3.074  49.620 -12.038  1.00  0.00    -0.389 OA
HETATM   22  H46 UNL     1      -2.885  49.174 -11.195  1.00  0.00     0.210 HD
ENDBRANCH  12  21
BRANCH   1  23
HETATM   23  C2  UNL     1      -0.913  53.900 -10.811  1.00  0.00    -0.061 C 
HETATM   24  C1  UNL     1      -2.211  54.162 -10.571  1.00  0.00     0.019 C 
BRANCH  23  25
HETATM   25  C3  UNL     1       0.074  54.826 -10.244  1.00  0.00     0.007 C 
HETATM   26  C4  UNL     1       0.807  54.656  -9.131  1.00  0.00     0.001 C 
BRANCH  26  27
HETATM   27  C5  UNL     1       1.760  55.644  -8.665  1.00  0.00     0.002 C 
HETATM   28  C6  UNL     1       2.885  56.044  -9.291  1.00  0.00    -0.084 C 
HETATM   29  C7  UNL     1       3.405  55.501 -10.598  1.00  0.00     0.043 C 
BRANCH  28  30
HETATM   30  C8  UNL     1       3.766  57.108  -8.654  1.00  0.00     0.037 C 
BRANCH  30  31
HETATM   31  C9  UNL     1       4.875  56.513  -7.779  1.00  0.00     0.031 C 
BRANCH  31  32
HETATM   32  C10 UNL     1       5.305  57.475  -6.703  1.00  0.00    -0.024 C 
HETATM   33  C11 UNL     1       6.422  57.423  -5.952  1.00  0.00    -0.091 C 
HETATM   34  C12 UNL     1       6.723  58.503  -4.947  1.00  0.00     0.042 C 
HETATM   35  C13 UNL     1       7.454  56.331  -6.014  1.00  0.00     0.042 C 
ENDBRANCH  31  32
ENDBRANCH  30  31
ENDBRANCH  28  30
ENDBRANCH  26  27
ENDBRANCH  23  25
ENDBRANCH   1  23
BRANCH   8  36
HETATM   36  C26 UNL     1       1.378  51.934 -16.301  1.00  0.00     0.265 C 
HETATM   37  O3  UNL     1       1.644  52.713 -17.211  1.00  0.00    -0.302 OA
ENDBRANCH   8  36
TORSDOF 13
ENDMDL
