MODEL 1
REMARK minimizedAffinity -7.89710188
REMARK CNNscore 0.423240334
REMARK CNNaffinity 6.65498972
REMARK  4 active torsions:
REMARK  status: ('A' for Active; 'I' for Inactive)
REMARK    1  A    between atoms: C7_11  and  O3_12 
REMARK    2  A    between atoms: C10_16  and  C11_17 
REMARK    3  A    between atoms: C21_28  and  C22_29 
REMARK    4  A    between atoms: C28_37  and  O8_38 
ROOT
HETATM    1  C1  UNL     1     -14.884   8.228  17.369  1.00  0.00     0.040 C 
HETATM    2  C2  UNL     1     -15.128   8.129  18.869  1.00  0.00     0.124 C 
HETATM    3  C3  UNL     1     -14.488   9.305  19.604  1.00  0.00     0.082 C 
HETATM    4  C4  UNL     1     -14.230   9.000  21.102  1.00  0.00     0.175 C 
HETATM    5  N1  UNL     1     -12.819   8.741  21.353  1.00  0.00    -0.335 N 
HETATM    6  C5  UNL     1     -12.012   9.772  21.732  1.00  0.00     0.230 C 
HETATM    7  O1  UNL     1     -10.792   9.696  21.738  1.00  0.00    -0.273 OA
HETATM    8  C6  UNL     1     -12.786  11.004  22.074  1.00  0.00     0.214 C 
HETATM    9  S1  UNL     1     -14.547  10.598  22.004  1.00  0.00     0.059 S 
HETATM   10  O2  UNL     1     -15.079  10.295  23.549  1.00  0.00    -0.255 OA
HETATM   11  C7  UNL     1     -15.139   7.844  21.620  1.00  0.00     0.252 C 
HETATM   12  O4  UNL     1     -14.910   7.553  23.003  1.00  0.00    -0.340 OA
HETATM   13  C8  UNL     1     -15.053   6.167  23.288  1.00  0.00     0.156 C 
HETATM   14  C9  UNL     1     -14.913   5.962  24.798  1.00  0.00     0.056 C 
HETATM   15  C10 UNL     1     -14.937   4.471  25.227  1.00  0.00     0.043 C 
HETATM   16  C12 UNL     1     -14.090   3.600  24.290  1.00  0.00    -0.065 C 
HETATM   17  C13 UNL     1     -13.351   2.573  24.744  1.00  0.00    -0.022 C 
HETATM   18  C14 UNL     1     -13.241   2.160  26.180  1.00  0.00     0.035 C 
HETATM   19  C15 UNL     1     -14.196   2.889  27.151  1.00  0.00     0.030 C 
HETATM   20  C16 UNL     1     -14.400   4.360  26.711  1.00  0.00     0.012 C 
HETATM   21  C17 UNL     1     -15.244   5.138  27.733  1.00  0.00     0.007 C 
HETATM   22  C18 UNL     1     -14.655   5.049  29.135  1.00  0.00     0.013 C 
HETATM   23  C19 UNL     1     -14.521   3.594  29.660  1.00  0.00    -0.005 C 
HETATM   24  C20 UNL     1     -15.931   3.040  29.943  1.00  0.00     0.019 C 
HETATM   25  C21 UNL     1     -13.585   3.636  30.930  1.00  0.00     0.028 C 
HETATM   26  C26 UNL     1     -12.198   3.159  30.439  1.00  0.00     0.013 C 
HETATM   27  C27 UNL     1     -12.277   3.103  28.918  1.00  0.00     0.040 C 
HETATM   28  C28 UNL     1     -13.738   2.718  28.633  1.00  0.00     0.070 C 
HETATM   29  C29 UNL     1     -14.104   3.920  22.806  1.00  0.00     0.069 C 
HETATM   30  C30 UNL     1     -13.949   5.416  22.550  1.00  0.00     0.158 C 
HETATM   31  O9  UNL     1     -13.900   5.687  21.145  1.00  0.00    -0.347 OA
HETATM   32  C31 UNL     1     -14.917   6.584  20.675  1.00  0.00     0.326 C 
HETATM   33  O10 UNL     1     -14.539   6.925  19.333  1.00  0.00    -0.351 OA
HETATM   34  H7  UNL     1     -12.378   7.888  21.018  1.00  0.00     0.164 HD
ENDROOT
BRANCH  11  35
HETATM   35  O3  UNL     1     -16.518   8.243  21.542  1.00  0.00    -0.359 OA
HETATM   36  H10 UNL     1     -16.642   8.748  22.382  1.00  0.00     0.213 HD
ENDBRANCH  11  35
BRANCH  15  37
HETATM   37  C11 UNL     1     -16.406   3.998  25.125  1.00  0.00     0.245 C 
HETATM   38  O5  UNL     1     -16.774   2.934  24.633  1.00  0.00    -0.306 OA
ENDBRANCH  15  37
BRANCH  28  39
HETATM   39  O8  UNL     1     -13.905   1.338  28.988  1.00  0.00    -0.389 OA
HETATM   40  H35 UNL     1     -13.199   0.821  28.557  1.00  0.00     0.210 HD
ENDBRANCH  28  39
BRANCH  25  41
HETATM   41  C22 UNL     1     -14.045   2.928  32.171  1.00  0.00    -0.045 A 
HETATM   42  C23 UNL     1     -15.280   2.588  32.546  1.00  0.00     0.087 A 
HETATM   43  C24 UNL     1     -15.164   1.885  33.822  1.00  0.00     0.283 A 
HETATM   44  O6  UNL     1     -16.092   1.413  34.447  1.00  0.00    -0.260 OA
HETATM   45  O7  UNL     1     -13.854   1.815  34.178  1.00  0.00    -0.314 OA
HETATM   46  C25 UNL     1     -13.068   2.467  33.183  1.00  0.00     0.213 A 
ENDBRANCH  25  41
TORSDOF 4
ENDMDL
