MODEL 1
REMARK minimizedAffinity -6.94855595
REMARK CNNscore 0.703483582
REMARK CNNaffinity 6.61157274
REMARK  8 active torsions:
REMARK  status: ('A' for Active; 'I' for Inactive)
REMARK    1  A    between atoms: C2_2  and  C3_3 
REMARK    2  A    between atoms: C2_2  and  C9_12 
REMARK    3  A    between atoms: C3_3  and  C4_4 
REMARK    4  A    between atoms: C4_4  and  O1_5 
REMARK    5  A    between atoms: C4_4  and  C5_6 
REMARK    6  A    between atoms: C5_6  and  O2_7 
REMARK    7  A    between atoms: C5_6  and  C6_8 
REMARK    8  A    between atoms: C6_8  and  O3_11 
ROOT
HETATM    1  C9  UNL     1       2.100  55.005  -9.786  1.00  0.00     0.097 A 
HETATM    2  C10 UNL     1       2.924  55.939 -10.621  1.00  0.00     0.042 A 
HETATM    3  C11 UNL     1       3.743  56.810  -9.644  1.00  0.00     0.016 A 
HETATM    4  C12 UNL     1       3.499  56.302  -8.181  1.00  0.00    -0.002 A 
HETATM    5  C13 UNL     1       2.917  57.495  -7.384  1.00  0.00     0.019 C 
HETATM    6  C14 UNL     1       2.420  55.229  -8.329  1.00  0.00     0.101 A 
HETATM    7  C15 UNL     1       2.141  54.300  -7.191  1.00  0.00     0.042 C 
HETATM    8  C16 UNL     1       3.410  53.778  -6.520  1.00  0.00     0.009 C 
HETATM    9  C17 UNL     1       4.394  54.919  -6.171  1.00  0.00     0.003 C 
HETATM   10  C18 UNL     1       5.535  54.511  -5.121  1.00  0.00    -0.035 C 
HETATM   11  C19 UNL     1       4.796  54.372  -3.754  1.00  0.00     0.016 C 
HETATM   12  C20 UNL     1       6.176  53.139  -5.447  1.00  0.00     0.017 C 
HETATM   13  C21 UNL     1       7.330  52.742  -4.544  1.00  0.00     0.080 C 
HETATM   14  C22 UNL     1       8.387  53.814  -4.517  1.00  0.00     0.135 C 
HETATM   15  O4  UNL     1       9.568  53.522  -4.706  1.00  0.00    -0.297 OA
HETATM   16  C23 UNL     1       7.942  55.233  -4.152  1.00  0.00     0.017 C 
HETATM   17  C24 UNL     1       9.125  56.202  -4.412  1.00  0.00     0.023 C 
HETATM   18  C25 UNL     1       7.694  55.284  -2.627  1.00  0.00     0.023 C 
HETATM   19  C26 UNL     1       6.655  55.627  -4.992  1.00  0.00     0.009 C 
HETATM   20  C27 UNL     1       7.044  56.193  -6.380  1.00  0.00     0.007 C 
HETATM   21  C28 UNL     1       5.841  56.737  -7.147  1.00  0.00     0.011 C 
HETATM   22  C29 UNL     1       4.811  55.648  -7.506  1.00  0.00    -0.029 C 
HETATM   23  C30 UNL     1       5.471  54.678  -8.531  1.00  0.00     0.016 C 
HETATM   24  O5  UNL     1       1.189  55.696  -8.930  1.00  0.00    -0.362 OA
ENDROOT
BRANCH   1  25
HETATM   25  C2  UNL     1       1.538  53.720 -10.369  1.00  0.00     0.022 C 
HETATM   26  C1  UNL     1       2.638  52.943 -11.100  1.00  0.00     0.013 C 
BRANCH  25  27
HETATM   27  C3  UNL     1       0.317  54.016 -11.273  1.00  0.00     0.041 C 
BRANCH  27  28
HETATM   28  C4  UNL     1      -1.068  53.734 -10.655  1.00  0.00     0.150 C 
BRANCH  28  29
HETATM   29  O1  UNL     1      -0.838  53.203  -9.332  1.00  0.00    -0.393 OA
HETATM   30  H8  UNL     1      -0.427  53.919  -8.809  1.00  0.00     0.210 HD
ENDBRANCH  28  29
BRANCH  28  31
HETATM   31  C5  UNL     1      -1.888  52.673 -11.433  1.00  0.00     0.180 C 
BRANCH  31  32
HETATM   32  O2  UNL     1      -1.616  51.384 -10.858  1.00  0.00    -0.390 OA
HETATM   33  H10 UNL     1      -1.463  51.571  -9.909  1.00  0.00     0.210 HD
ENDBRANCH  31  32
BRANCH  31  34
HETATM   34  C6  UNL     1      -3.421  52.955 -11.452  1.00  0.00     0.079 C 
HETATM   35  C7  UNL     1      -3.845  54.100 -10.524  1.00  0.00     0.048 C 
HETATM   36  C8  UNL     1      -4.187  51.679 -11.070  1.00  0.00     0.048 C 
BRANCH  34  37
HETATM   37  O3  UNL     1      -3.792  53.306 -12.792  1.00  0.00    -0.388 OA
HETATM   38  H17 UNL     1      -4.763  53.331 -12.833  1.00  0.00     0.210 HD
ENDBRANCH  34  37
ENDBRANCH  31  34
ENDBRANCH  28  31
ENDBRANCH  27  28
ENDBRANCH  25  27
ENDBRANCH   1  25
TORSDOF 8
ENDMDL
