MODEL 1
REMARK minimizedAffinity -7.54292488
REMARK CNNscore 0.674376249
REMARK CNNaffinity 6.93582535
REMARK  5 active torsions:
REMARK  status: ('A' for Active; 'I' for Inactive)
REMARK    1  A    between atoms: C2_2  and  C4_4 
REMARK    2  A    between atoms: C7_7  and  C8_8 
REMARK    3  A    between atoms: C8_8  and  O2_10 
REMARK    4  A    between atoms: C11_13  and  C12_14 
REMARK    5  A    between atoms: C12_14  and  O4_16 
ROOT
HETATM    1  C4  UNL     1       1.669   8.253   9.441  1.00  0.00     0.019 C 
HETATM    2  C5  UNL     1       2.644   7.118   9.094  1.00  0.00     0.011 C 
HETATM    3  C6  UNL     1       3.751   7.309  10.117  1.00  0.00     0.021 C 
HETATM    4  C7  UNL     1       2.990   7.548  11.440  1.00  0.00     0.050 C 
HETATM    5  C9  UNL     1       2.659   6.172  12.057  1.00  0.00     0.022 C 
HETATM    6  C10 UNL     1       1.501   6.180  13.053  1.00  0.00     0.023 C 
HETATM    7  C11 UNL     1       0.177   6.807  12.509  1.00  0.00     0.057 C 
HETATM    8  C13 UNL     1       0.534   8.241  11.992  1.00  0.00     0.011 C 
HETATM    9  C14 UNL     1      -0.684   9.107  11.658  1.00  0.00     0.007 C 
HETATM   10  C15 UNL     1      -1.705   9.169  12.796  1.00  0.00     0.006 C 
HETATM   11  C16 UNL     1      -2.177   7.767  13.228  1.00  0.00     0.003 C 
HETATM   12  C17 UNL     1      -3.495   7.767  14.115  1.00  0.00    -0.035 C 
HETATM   13  C18 UNL     1      -3.382   8.696  15.357  1.00  0.00     0.016 C 
HETATM   14  C19 UNL     1      -4.657   8.371  13.254  1.00  0.00     0.017 C 
HETATM   15  C20 UNL     1      -6.033   7.922  13.709  1.00  0.00     0.080 C 
HETATM   16  C21 UNL     1      -6.180   6.441  13.486  1.00  0.00     0.135 C 
HETATM   17  O5  UNL     1      -7.265   5.983  13.120  1.00  0.00    -0.297 OA
HETATM   18  C22 UNL     1      -4.955   5.544  13.747  1.00  0.00     0.017 C 
HETATM   19  C23 UNL     1      -5.489   4.312  14.521  1.00  0.00     0.023 C 
HETATM   20  C24 UNL     1      -4.454   5.055  12.383  1.00  0.00     0.023 C 
HETATM   21  C25 UNL     1      -3.893   6.321  14.619  1.00  0.00     0.009 C 
HETATM   22  C26 UNL     1      -2.660   5.489  15.040  1.00  0.00     0.007 C 
HETATM   23  C27 UNL     1      -1.495   5.479  14.051  1.00  0.00     0.011 C 
HETATM   24  C28 UNL     1      -0.956   6.890  13.696  1.00  0.00    -0.022 C 
HETATM   25  C29 UNL     1      -0.305   7.469  14.989  1.00  0.00     0.017 C 
HETATM   26  C30 UNL     1       1.737   8.389  11.007  1.00  0.00     0.018 C 
ENDROOT
BRANCH   4  27
HETATM   27  C8  UNL     1       3.825   8.334  12.451  1.00  0.00     0.149 C 
HETATM   28  O1  UNL     1       3.745   9.534  12.666  1.00  0.00    -0.649 OA
BRANCH  27  29
HETATM   29  O2  UNL     1       4.693   7.597  13.168  1.00  0.00    -0.776 OA
HETATM   30  H11 UNL     1       5.070   8.237  13.804  1.00  0.00     0.167 HD
ENDBRANCH  27  29
ENDBRANCH   4  27
BRANCH   1  31
HETATM   31  C2  UNL     1       0.386   8.279   8.637  1.00  0.00    -0.088 C 
HETATM   32  C1  UNL     1      -0.788   8.747   9.094  1.00  0.00     0.014 C 
HETATM   33  C3  UNL     1       0.426   7.563   7.308  1.00  0.00     0.043 C 
ENDBRANCH   1  31
BRANCH   7  34
HETATM   34  C12 UNL     1      -0.310   5.881  11.374  1.00  0.00     0.149 C 
HETATM   35  O3  UNL     1      -1.419   5.874  10.861  1.00  0.00    -0.649 OA
BRANCH  34  36
HETATM   36  O4  UNL     1       0.616   5.050  10.878  1.00  0.00    -0.776 OA
HETATM   37  H16 UNL     1       0.136   4.544  10.189  1.00  0.00     0.167 HD
ENDBRANCH  34  36
ENDBRANCH   7  34
TORSDOF 5
ENDMDL
