MODEL 1
REMARK minimizedAffinity -9.41968346
REMARK  7 active torsions:
REMARK  status: ('A' for Active; 'I' for Inactive)
REMARK    1  A    between atoms: C2_2  and  C30_32 
REMARK    2  A    between atoms: C3_3  and  C4_4 
REMARK    3  A    between atoms: C4_4  and  O1_5 
REMARK    4  A    between atoms: C4_4  and  C5_6 
REMARK    5  A    between atoms: C5_6  and  C6_7 
REMARK    6  A    between atoms: C6_7  and  C8_9 
REMARK    7  A    between atoms: C30_32  and  O3_33 
ROOT
HETATM    1  C8  UNL     1      -0.807  52.180 -21.162  1.00  0.00    -0.002 C 
HETATM    2  C9  UNL     1      -0.118  51.120 -20.249  1.00  0.00     0.007 C 
HETATM    3  C10 UNL     1      -1.129  49.980 -20.015  1.00  0.00     0.015 C 
HETATM    4  C11 UNL     1      -2.471  50.542 -20.518  1.00  0.00    -0.013 C 
HETATM    5  C12 UNL     1      -3.047  51.395 -19.341  1.00  0.00     0.021 C 
HETATM    6  C13 UNL     1      -3.568  49.551 -20.896  1.00  0.00    -0.070 C 
HETATM    7  C14 UNL     1      -3.715  48.371 -20.266  1.00  0.00    -0.022 C 
HETATM    8  C15 UNL     1      -4.845  47.418 -20.503  1.00  0.00     0.034 C 
HETATM    9  C16 UNL     1      -5.728  47.743 -21.730  1.00  0.00     0.013 C 
HETATM   10  C17 UNL     1      -7.020  46.848 -21.804  1.00  0.00     0.018 C 
HETATM   11  C18 UNL     1      -7.665  46.527 -20.440  1.00  0.00     0.023 C 
HETATM   12  C19 UNL     1      -6.673  45.500 -22.470  1.00  0.00     0.023 C 
HETATM   13  C20 UNL     1      -8.064  47.524 -22.698  1.00  0.00     0.135 C 
HETATM   14  O2  UNL     1      -9.271  47.304 -22.598  1.00  0.00    -0.297 OA
HETATM   15  C21 UNL     1      -7.537  48.420 -23.784  1.00  0.00     0.080 C 
HETATM   16  C22 UNL     1      -6.758  49.591 -23.203  1.00  0.00     0.017 C 
HETATM   17  C23 UNL     1      -5.964  49.293 -21.891  1.00  0.00    -0.031 C 
HETATM   18  C24 UNL     1      -6.768  49.870 -20.700  1.00  0.00     0.016 C 
HETATM   19  C25 UNL     1      -4.540  49.982 -21.995  1.00  0.00     0.024 C 
HETATM   20  C26 UNL     1      -4.576  51.520 -22.170  1.00  0.00     0.010 C 
HETATM   21  C27 UNL     1      -3.192  52.202 -22.300  1.00  0.00     0.011 C 
HETATM   22  C28 UNL     1      -2.003  51.371 -21.770  1.00  0.00    -0.029 C 
HETATM   23  C29 UNL     1      -1.447  50.487 -22.932  1.00  0.00     0.016 C 
ENDROOT
BRANCH   1  24
HETATM   24  C6  UNL     1       0.218  52.909 -22.093  1.00  0.00    -0.011 C 
HETATM   25  C7  UNL     1       1.534  53.213 -21.372  1.00  0.00     0.010 C 
BRANCH  24  26
HETATM   26  C5  UNL     1       0.452  52.053 -23.377  1.00  0.00     0.040 C 
BRANCH  26  27
HETATM   27  C4  UNL     1       0.370  52.815 -24.714  1.00  0.00     0.141 C 
BRANCH  27  28
HETATM   28  C3  UNL     1       1.235  52.176 -25.775  1.00  0.00     0.009 C 
HETATM   29  C2  UNL     1       1.107  52.316 -27.113  1.00  0.00    -0.062 C 
HETATM   30  C1  UNL     1       0.020  53.120 -27.777  1.00  0.00     0.045 C 
BRANCH  29  31
HETATM   31  C30 UNL     1       2.069  51.651 -28.061  1.00  0.00     0.198 C 
BRANCH  31  32
HETATM   32  O3  UNL     1       3.293  51.433 -27.376  1.00  0.00    -0.397 OA
HETATM   33  H48 UNL     1       3.901  51.023 -28.014  1.00  0.00     0.209 HD
ENDBRANCH  31  32
ENDBRANCH  29  31
ENDBRANCH  27  28
BRANCH  27  34
HETATM   34  O1  UNL     1       0.819  54.152 -24.511  1.00  0.00    -0.392 OA
HETATM   35  H6  UNL     1       1.754  54.192 -24.774  1.00  0.00     0.210 HD
ENDBRANCH  27  34
ENDBRANCH  26  27
ENDBRANCH  24  26
ENDBRANCH   1  24
TORSDOF 7
ENDMDL
