MODEL 1
REMARK minimizedAffinity -7.76231098
REMARK CNNscore 0.755913556
REMARK CNNaffinity 7.09236193
REMARK  11 active torsions:
REMARK  status: ('A' for Active; 'I' for Inactive)
REMARK    1  A    between atoms: C4_4  and  C5_5 
REMARK    2  A    between atoms: C5_5  and  C6_6 
REMARK    3  A    between atoms: C6_6  and  C7_7 
REMARK    4  A    between atoms: C9_9  and  C10_10 
REMARK    5  A    between atoms: C10_10  and  C11_11 
REMARK    6  A    between atoms: C11_11  and  C12_12 
REMARK    7  A    between atoms: C14_14  and  C15_15 
REMARK    8  A    between atoms: C15_15  and  C16_16 
REMARK    9  A    between atoms: C16_16  and  O1_17 
REMARK   10  A    between atoms: O1_17  and  C17_18 
REMARK   11  A    between atoms: C23_24  and  O2_25 
ROOT
HETATM    1  C16 UNL     1      -4.667   8.471  13.758  1.00  0.00     0.175 C 
ENDROOT
BRANCH   1   2
HETATM    2  C15 UNL     1      -3.915   9.346  14.778  1.00  0.00     0.054 C 
BRANCH   2   3
HETATM    3  C14 UNL     1      -2.520   9.681  14.310  1.00  0.00    -0.022 C 
HETATM    4  C12 UNL     1      -1.354   9.179  14.769  1.00  0.00    -0.087 C 
HETATM    5  C13 UNL     1      -1.247   8.093  15.807  1.00  0.00     0.043 C 
BRANCH   4   6
HETATM    6  C11 UNL     1      -0.032   9.694  14.229  1.00  0.00     0.037 C 
BRANCH   6   7
HETATM    7  C10 UNL     1       0.908   8.560  13.797  1.00  0.00     0.031 C 
BRANCH   7   8
HETATM    8  C9  UNL     1       1.102   8.541  12.300  1.00  0.00    -0.024 C 
HETATM    9  C7  UNL     1       0.421   7.809  11.396  1.00  0.00    -0.087 C 
HETATM   10  C8  UNL     1      -0.710   6.878  11.761  1.00  0.00     0.043 C 
BRANCH   9  11
HETATM   11  C6  UNL     1       0.697   7.840   9.896  1.00  0.00     0.037 C 
BRANCH  11  12
HETATM   12  C5  UNL     1       2.162   7.927   9.440  1.00  0.00     0.031 C 
BRANCH  12  13
HETATM   13  C4  UNL     1       2.605   6.660   8.755  1.00  0.00    -0.024 C 
HETATM   14  C2  UNL     1       2.448   6.336   7.456  1.00  0.00    -0.091 C 
HETATM   15  C1  UNL     1       1.711   7.177   6.450  1.00  0.00     0.042 C 
HETATM   16  C3  UNL     1       3.008   5.048   6.912  1.00  0.00     0.042 C 
ENDBRANCH  12  13
ENDBRANCH  11  12
ENDBRANCH   9  11
ENDBRANCH   7   8
ENDBRANCH   6   7
ENDBRANCH   4   6
ENDBRANCH   2   3
ENDBRANCH   1   2
BRANCH   1  17
HETATM   17  O1  UNL     1      -5.935   8.054  14.272  1.00  0.00    -0.355 OA
BRANCH  17  18
HETATM   18  C17 UNL     1      -6.211   6.639  14.193  1.00  0.00     0.166 C 
HETATM   19  C18 UNL     1      -6.011   6.135  15.631  1.00  0.00     0.079 C 
HETATM   20  C19 UNL     1      -7.660   6.513  13.712  1.00  0.00     0.073 C 
HETATM   21  C20 UNL     1      -8.083   5.059  13.622  1.00  0.00     0.047 C 
HETATM   22  C21 UNL     1      -7.009   4.238  12.973  1.00  0.00    -0.021 A 
HETATM   23  C22 UNL     1      -7.312   2.956  12.499  1.00  0.00     0.046 A 
HETATM   24  C27 UNL     1      -5.695   4.714  12.865  1.00  0.00     0.085 A 
HETATM   25  C23 UNL     1      -6.324   2.179  11.908  1.00  0.00     0.066 A 
HETATM   26  C24 UNL     1      -5.024   2.659  11.765  1.00  0.00     0.046 A 
HETATM   27  C25 UNL     1      -4.700   3.938  12.240  1.00  0.00    -0.025 A 
HETATM   28  C26 UNL     1      -3.297   4.462  12.095  1.00  0.00     0.051 C 
HETATM   29  O3  UNL     1      -5.300   5.939  13.335  1.00  0.00    -0.314 OA
BRANCH  25  30
HETATM   30  O2  UNL     1      -6.671   0.928  11.483  1.00  0.00    -0.361 OA
HETATM   31  H36 UNL     1      -5.874   0.496  11.132  1.00  0.00     0.217 HD
ENDBRANCH  25  30
ENDBRANCH  17  18
ENDBRANCH   1  17
TORSDOF 11
ENDMDL
