MODEL 1
REMARK minimizedAffinity -9.99322987
REMARK CNNscore 0.467006654
REMARK CNNaffinity 7.08148623
REMARK  11 active torsions:
REMARK  status: ('A' for Active; 'I' for Inactive)
REMARK    1  A    between atoms: C2_2  and  C4_4 
REMARK    2  A    between atoms: C4_4  and  C6_6 
REMARK    3  A    between atoms: C7_7  and  C8_8 
REMARK    4  A    between atoms: C8_8  and  C10_10 
REMARK    5  A    between atoms: C19_19  and  O1_20 
REMARK    6  A    between atoms: O1_20  and  C20_21 
REMARK    7  A    between atoms: C21_23  and  C22_24 
REMARK    8  A    between atoms: C22_24  and  O3_25 
REMARK    9  A    between atoms: C23_26  and  O4_27 
REMARK   10  A    between atoms: C24_28  and  O5_29 
REMARK   11  A    between atoms: C25_30  and  O6_31 
ROOT
HETATM    1  C10 UNL     1       0.175   7.027  14.394  1.00  0.00     0.001 C 
HETATM    2  C11 UNL     1      -0.067   7.347  15.891  1.00  0.00     0.006 C 
HETATM    3  C12 UNL     1      -1.460   7.958  16.007  1.00  0.00     0.009 C 
HETATM    4  C13 UNL     1      -2.087   7.936  14.604  1.00  0.00     0.036 C 
HETATM    5  C14 UNL     1      -3.630   7.771  14.592  1.00  0.00     0.123 C 
HETATM    6  C15 UNL     1      -4.318   8.776  15.494  1.00  0.00     0.014 C 
HETATM    7  C16 UNL     1      -5.654   8.735  15.445  1.00  0.00     0.014 C 
HETATM    8  C17 UNL     1      -6.191   7.718  14.461  1.00  0.00     0.124 C 
HETATM    9  C18 UNL     1      -7.718   7.793  14.373  1.00  0.00     0.078 C 
HETATM   10  C19 UNL     1      -8.408   7.267  15.636  1.00  0.00     0.128 C 
HETATM   11  C26 UNL     1      -7.888   5.889  16.070  1.00  0.00     0.033 C 
HETATM   12  C27 UNL     1      -6.359   5.791  16.099  1.00  0.00     0.015 C 
HETATM   13  C28 UNL     1      -5.692   6.266  14.779  1.00  0.00     0.001 C 
HETATM   14  C29 UNL     1      -6.107   5.290  13.642  1.00  0.00     0.019 C 
HETATM   15  C30 UNL     1      -4.111   6.336  14.959  1.00  0.00     0.039 C 
HETATM   16  C31 UNL     1      -3.324   5.259  14.186  1.00  0.00     0.010 C 
HETATM   17  C32 UNL     1      -1.812   5.425  14.307  1.00  0.00     0.010 C 
HETATM   18  C33 UNL     1      -1.295   6.827  13.862  1.00  0.00    -0.033 C 
HETATM   19  C34 UNL     1      -1.433   6.945  12.339  1.00  0.00     0.016 C 
HETATM   20  O7  UNL     1      -5.615   8.099  13.187  1.00  0.00    -0.223 OA
HETATM   21  O8  UNL     1      -4.112   8.027  13.240  1.00  0.00    -0.224 OA
ENDROOT
BRANCH  10  22
HETATM   22  O1  UNL     1      -9.802   7.145  15.327  1.00  0.00    -0.353 OA
BRANCH  22  23
HETATM   23  C20 UNL     1     -10.246   8.055  14.313  1.00  0.00     0.292 C 
HETATM   24  O2  UNL     1     -10.926   7.380  13.257  1.00  0.00    -0.348 OA
HETATM   25  C21 UNL     1     -12.346   7.214  13.400  1.00  0.00     0.179 C 
HETATM   26  C23 UNL     1     -13.079   8.554  13.655  1.00  0.00     0.180 C 
HETATM   27  C24 UNL     1     -12.144   9.700  14.083  1.00  0.00     0.183 C 
HETATM   28  C25 UNL     1     -11.074   9.160  15.016  1.00  0.00     0.204 C 
BRANCH  25  29
HETATM   29  C22 UNL     1     -12.701   6.135  14.441  1.00  0.00     0.198 C 
BRANCH  29  30
HETATM   30  O3  UNL     1     -13.994   5.591  14.160  1.00  0.00    -0.398 OA
HETATM   31  H33 UNL     1     -14.118   4.840  14.765  1.00  0.00     0.209 HD
ENDBRANCH  29  30
ENDBRANCH  25  29
BRANCH  26  32
HETATM   32  O4  UNL     1     -13.769   8.972  12.461  1.00  0.00    -0.390 OA
HETATM   33  H35 UNL     1     -13.088   9.439  11.930  1.00  0.00     0.210 HD
ENDBRANCH  26  32
BRANCH  27  34
HETATM   34  O5  UNL     1     -11.567  10.316  12.922  1.00  0.00    -0.390 OA
HETATM   35  H37 UNL     1     -11.204  11.178  13.199  1.00  0.00     0.210 HD
ENDBRANCH  27  34
BRANCH  28  36
HETATM   36  O6  UNL     1     -11.707   8.657  16.209  1.00  0.00    -0.388 OA
HETATM   37  H39 UNL     1     -11.044   8.050  16.599  1.00  0.00     0.210 HD
ENDBRANCH  28  36
ENDBRANCH  22  23
ENDBRANCH  10  22
BRANCH   1  38
HETATM   38  C8  UNL     1       1.094   8.113  13.728  1.00  0.00     0.008 C 
HETATM   39  C9  UNL     1       0.438   9.494  13.573  1.00  0.00     0.014 C 
BRANCH  38  40
HETATM   40  C7  UNL     1       1.584   7.746  12.329  1.00  0.00    -0.026 C 
HETATM   41  C6  UNL     1       1.065   8.203  11.175  1.00  0.00    -0.026 C 
BRANCH  41  42
HETATM   42  C4  UNL     1       1.472   7.915   9.743  1.00  0.00     0.007 C 
HETATM   43  C5  UNL     1       0.343   8.391   8.817  1.00  0.00     0.014 C 
BRANCH  42  44
HETATM   44  C2  UNL     1       1.986   6.505   9.327  1.00  0.00    -0.015 C 
HETATM   45  C1  UNL     1       3.004   5.860  10.271  1.00  0.00     0.010 C 
HETATM   46  C3  UNL     1       2.494   6.471   7.882  1.00  0.00     0.010 C 
ENDBRANCH  42  44
ENDBRANCH  41  42
ENDBRANCH  38  40
ENDBRANCH   1  38
TORSDOF 11
ENDMDL
