MODEL 1
REMARK minimizedAffinity -8.94514751
REMARK CNNscore 0.698189616
REMARK CNNaffinity 7.08037376
REMARK  13 active torsions:
REMARK  status: ('A' for Active; 'I' for Inactive)
REMARK    1  A    between atoms: C19_21  and  O3_22 
REMARK    2  A    between atoms: C19_21  and  C20_23 
REMARK    3  A    between atoms: C20_23  and  C21_25 
REMARK    4  A    between atoms: C21_25  and  O5_26 
REMARK    5  A    between atoms: O5_26  and  C22_27 
REMARK    6  A    between atoms: C22_27  and  C23_29 
REMARK    7  A    between atoms: C23_29  and  C24_30 
REMARK    8  A    between atoms: C24_30  and  C25_31 
REMARK       I    between atoms: C25_31  and  N1_33 
REMARK    9  A    between atoms: N1_33  and  C26_34 
REMARK   10  A    between atoms: C26_34  and  C27_35 
REMARK   11  A    between atoms: C26_34  and  C34_42 
REMARK   12  A    between atoms: C27_35  and  C28_36 
REMARK   13  A    between atoms: C34_42  and  O9_44 
ROOT
HETATM    1  C20 UNL     1      -3.137  50.126 -27.025  1.00  0.00     0.185 C 
HETATM    2  O4  UNL     1      -2.340  50.730 -27.750  1.00  0.00    -0.292 OA
ENDROOT
BRANCH   1   3
HETATM    3  C19 UNL     1      -3.496  50.635 -25.589  1.00  0.00     0.128 C 
HETATM    4  C14 UNL     1      -2.296  50.649 -24.574  1.00  0.00     0.005 C 
HETATM    5  C13 UNL     1      -2.475  51.748 -23.501  1.00  0.00     0.091 C 
HETATM    6  C15 UNL     1      -0.945  50.894 -25.283  1.00  0.00     0.019 C 
HETATM    7  C16 UNL     1      -2.304  49.233 -23.902  1.00  0.00     0.002 C 
HETATM    8  C12 UNL     1      -1.409  51.630 -22.438  1.00  0.00     0.133 C 
HETATM    9  C11 UNL     1      -1.219  50.267 -21.783  1.00  0.00     0.072 C 
HETATM   10  O2  UNL     1      -0.718  52.600 -22.130  1.00  0.00    -0.297 OA
HETATM   11  C2  UNL     1      -1.279  50.341 -20.208  1.00  0.00    -0.009 C 
HETATM   12  C10 UNL     1      -2.227  49.241 -22.349  1.00  0.00     0.003 C 
HETATM   13  C1  UNL     1       0.113  50.756 -19.673  1.00  0.00     0.021 C 
HETATM   14  C3  UNL     1      -2.357  51.343 -19.708  1.00  0.00     0.022 C 
HETATM   15  C7  UNL     1      -1.616  48.959 -19.636  1.00  0.00    -0.067 C 
HETATM   16  C4  UNL     1      -2.565  51.307 -18.195  1.00  0.00     0.084 C 
HETATM   17  C5  UNL     1      -2.818  49.906 -17.698  1.00  0.00     0.149 C 
HETATM   18  O1  UNL     1      -3.399  49.681 -16.640  1.00  0.00    -0.293 OA
HETATM   19  C6  UNL     1      -2.317  48.767 -18.504  1.00  0.00     0.053 C 
HETATM   20  C8  UNL     1      -1.182  47.792 -20.476  1.00  0.00     0.035 C 
HETATM   21  C9  UNL     1      -1.914  47.816 -21.820  1.00  0.00     0.010 C 
HETATM   22  C17 UNL     1      -3.598  48.539 -24.367  1.00  0.00     0.009 C 
HETATM   23  C18 UNL     1      -4.471  49.641 -24.944  1.00  0.00     0.047 C 
BRANCH   3  24
HETATM   24  O3  UNL     1      -4.178  51.882 -25.612  1.00  0.00    -0.381 OA
HETATM   25  H25 UNL     1      -3.559  52.592 -25.882  1.00  0.00     0.211 HD
ENDBRANCH   3  24
ENDBRANCH   1   3
BRANCH   1  26
HETATM   26  C21 UNL     1      -3.862  48.901 -27.573  1.00  0.00     0.260 C 
BRANCH  26  27
HETATM   27  O5  UNL     1      -4.200  49.006 -28.953  1.00  0.00    -0.314 OA
BRANCH  27  28
HETATM   28  C22 UNL     1      -5.051  48.063 -29.428  1.00  0.00     0.259 C 
HETATM   29  O6  UNL     1      -4.860  47.436 -30.466  1.00  0.00    -0.265 OA
BRANCH  28  30
HETATM   30  C23 UNL     1      -6.285  47.882 -28.575  1.00  0.00     0.120 C 
BRANCH  30  31
HETATM   31  C24 UNL     1      -7.595  48.274 -29.246  1.00  0.00     0.112 C 
BRANCH  31  32
HETATM   32  C25 UNL     1      -8.781  48.129 -28.312  1.00  0.00     0.218 C 
HETATM   33  O7  UNL     1      -9.941  48.046 -28.698  1.00  0.00    -0.274 OA
HETATM   34  N1  UNL     1      -8.416  48.098 -26.983  1.00  0.00    -0.346 N 
HETATM   35  H32 UNL     1      -7.520  48.515 -26.751  1.00  0.00     0.163 HD
BRANCH  34  36
HETATM   36  C26 UNL     1      -9.436  48.148 -25.926  1.00  0.00     0.186 C 
BRANCH  36  37
HETATM   37  C27 UNL     1     -10.057  46.759 -25.732  1.00  0.00     0.074 C 
BRANCH  37  38
HETATM   38  C28 UNL     1     -11.549  46.779 -25.509  1.00  0.00    -0.056 A 
HETATM   39  C29 UNL     1     -12.078  46.657 -24.216  1.00  0.00     0.007 A 
HETATM   40  C30 UNL     1     -13.458  46.680 -24.012  1.00  0.00     0.001 A 
HETATM   41  C31 UNL     1     -14.322  46.826 -25.096  1.00  0.00     0.000 A 
HETATM   42  C32 UNL     1     -13.807  46.949 -26.385  1.00  0.00     0.001 A 
HETATM   43  C33 UNL     1     -12.428  46.926 -26.592  1.00  0.00     0.007 A 
ENDBRANCH  37  38
ENDBRANCH  36  37
BRANCH  36  44
HETATM   44  C34 UNL     1      -8.730  48.588 -24.647  1.00  0.00     0.163 C 
HETATM   45  O8  UNL     1      -8.764  47.998 -23.575  1.00  0.00    -0.648 OA
BRANCH  44  46
HETATM   46  O9  UNL     1      -8.038  49.735 -24.776  1.00  0.00    -0.775 OA
HETATM   47  H41 UNL     1      -7.638  49.893 -23.897  1.00  0.00     0.167 HD
ENDBRANCH  44  46
ENDBRANCH  36  44
ENDBRANCH  34  36
ENDBRANCH  31  32
ENDBRANCH  30  31
ENDBRANCH  28  30
ENDBRANCH  27  28
ENDBRANCH  26  27
ENDBRANCH   1  26
TORSDOF 13
ENDMDL
