MODEL 1
REMARK minimizedAffinity -8.21544838
REMARK CNNscore 0.681102812
REMARK CNNaffinity 7.13371038
REMARK  10 active torsions:
REMARK  status: ('A' for Active; 'I' for Inactive)
REMARK    1  A    between atoms: O1_2  and  C2_3 
REMARK    2  A    between atoms: C4_5  and  O2_6 
REMARK    3  A    between atoms: O2_6  and  C5_7 
REMARK    4  A    between atoms: C6_8  and  O3_9 
REMARK    5  A    between atoms: C8_11  and  O4_12 
REMARK    6  A    between atoms: O4_12  and  C9_13 
REMARK    7  A    between atoms: C20_24  and  C21_25 
REMARK    8  A    between atoms: C21_25  and  O5_27 
REMARK    9  A    between atoms: C25_30  and  O6_31 
REMARK   10  A    between atoms: C34_42  and  O9_43 
ROOT
HETATM    1  C9  UNL     1      -2.850  11.250  17.028  1.00  0.00     0.046 C 
HETATM    2  C10 UNL     1      -3.491  12.163  16.283  1.00  0.00     0.011 C 
HETATM    3  C11 UNL     1      -4.163  13.400  16.847  1.00  0.00     0.019 C 
HETATM    4  C12 UNL     1      -5.638  13.381  16.403  1.00  0.00     0.010 C 
HETATM    5  C13 UNL     1      -6.495  14.378  17.171  1.00  0.00     0.009 C 
HETATM    6  C14 UNL     1      -6.586  14.011  18.670  1.00  0.00     0.025 C 
HETATM    7  C15 UNL     1      -5.297  13.279  19.166  1.00  0.00     0.001 C 
HETATM    8  C16 UNL     1      -5.178  13.222  20.698  1.00  0.00     0.007 C 
HETATM    9  C17 UNL     1      -6.490  13.544  21.408  1.00  0.00     0.013 C 
HETATM   10  C18 UNL     1      -6.986  14.987  21.106  1.00  0.00    -0.007 C 
HETATM   11  C19 UNL     1      -5.994  15.977  21.758  1.00  0.00     0.019 C 
HETATM   12  C20 UNL     1      -8.443  15.135  21.703  1.00  0.00     0.025 C 
HETATM   13  C23 UNL     1      -9.335  14.740  20.520  1.00  0.00     0.011 C 
HETATM   14  C24 UNL     1      -8.659  15.348  19.299  1.00  0.00     0.039 C 
HETATM   15  C25 UNL     1      -7.132  15.190  19.551  1.00  0.00     0.070 C 
HETATM   16  C26 UNL     1      -3.968  13.637  18.401  1.00  0.00    -0.033 C 
HETATM   17  C27 UNL     1      -3.569  15.118  18.621  1.00  0.00     0.016 C 
HETATM   18  C28 UNL     1      -2.754  12.805  18.929  1.00  0.00     0.016 C 
HETATM   19  C29 UNL     1      -2.796  11.338  18.523  1.00  0.00     0.065 C 
ENDROOT
BRANCH   1  20
HETATM   20  O4  UNL     1      -2.151  10.209  16.435  1.00  0.00    -0.325 OA
BRANCH  20  21
HETATM   21  C8  UNL     1      -2.898   9.658  15.322  1.00  0.00     0.269 C 
HETATM   22  C7  UNL     1      -4.080   8.869  15.890  1.00  0.00     0.095 C 
HETATM   23  C6  UNL     1      -3.870   7.362  15.822  1.00  0.00     0.154 C 
HETATM   24  C5  UNL     1      -3.550   6.908  14.382  1.00  0.00     0.182 C 
HETATM   25  C30 UNL     1      -2.734   7.975  13.605  1.00  0.00     0.152 C 
HETATM   26  O7  UNL     1      -2.057   8.868  14.484  1.00  0.00    -0.353 OA
HETATM   27  C31 UNL     1      -3.508   8.752  12.538  1.00  0.00     0.042 C 
BRANCH  23  28
HETATM   28  O3  UNL     1      -2.814   6.955  16.701  1.00  0.00    -0.393 OA
HETATM   29  H10 UNL     1      -2.911   7.453  17.535  1.00  0.00     0.210 HD
ENDBRANCH  23  28
BRANCH  24  30
HETATM   30  O2  UNL     1      -4.730   6.607  13.624  1.00  0.00    -0.351 OA
BRANCH  30  31
HETATM   31  C4  UNL     1      -5.386   5.396  13.987  1.00  0.00     0.263 C 
HETATM   32  C3  UNL     1      -5.115   4.394  12.866  1.00  0.00     0.095 C 
HETATM   33  C2  UNL     1      -6.246   3.386  12.744  1.00  0.00     0.156 C 
HETATM   34  C34 UNL     1      -7.605   4.097  12.524  1.00  0.00     0.175 C 
HETATM   35  C32 UNL     1      -7.527   5.573  12.969  1.00  0.00     0.151 C 
HETATM   36  O8  UNL     1      -6.780   5.635  14.195  1.00  0.00    -0.354 OA
HETATM   37  C33 UNL     1      -8.891   6.211  13.200  1.00  0.00     0.042 C 
BRANCH  33  38
HETATM   38  O1  UNL     1      -5.913   2.525  11.643  1.00  0.00    -0.388 OA
HETATM   39  C1  UNL     1      -5.083   3.153  10.671  1.00  0.00     0.202 C 
ENDBRANCH  33  38
BRANCH  34  40
HETATM   40  O9  UNL     1      -8.593   3.383  13.296  1.00  0.00    -0.390 OA
HETATM   41  H56 UNL     1      -8.450   3.635  14.221  1.00  0.00     0.210 HD
ENDBRANCH  34  40
ENDBRANCH  30  31
ENDBRANCH  24  30
ENDBRANCH  20  21
ENDBRANCH   1  20
BRANCH  15  42
HETATM   42  O6  UNL     1      -6.451  16.386  19.168  1.00  0.00    -0.389 OA
HETATM   43  H39 UNL     1      -7.106  17.043  18.867  1.00  0.00     0.210 HD
ENDBRANCH  15  42
BRANCH  12  44
HETATM   44  C21 UNL     1      -8.809  16.519  22.304  1.00  0.00     0.119 C 
HETATM   45  C22 UNL     1      -8.604  16.597  23.813  1.00  0.00     0.040 C 
BRANCH  44  46
HETATM   46  O5  UNL     1     -10.162  16.878  22.027  1.00  0.00    -0.396 OA
HETATM   47  H34 UNL     1     -10.224  17.840  22.117  1.00  0.00     0.210 HD
ENDBRANCH  44  46
ENDBRANCH  12  44
TORSDOF 10
ENDMDL
