MODEL 1
REMARK minimizedAffinity -7.21819448
REMARK CNNscore 0.75887531
REMARK CNNaffinity 7.364573
REMARK  6 active torsions:
REMARK  status: ('A' for Active; 'I' for Inactive)
REMARK    1  A    between atoms: C2_2  and  C3_3 
REMARK    2  A    between atoms: C2_2  and  C9_10 
REMARK    3  A    between atoms: C3_3  and  C4_4 
REMARK    4  A    between atoms: C4_4  and  C5_5 
REMARK    5  A    between atoms: C17_18  and  C18_19 
REMARK    6  A    between atoms: C18_19  and  O2_22 
ROOT
HETATM    1  C9  UNL     1       3.418  55.250  -8.084  1.00  0.00    -0.002 C 
HETATM    2  C10 UNL     1       4.241  53.980  -8.477  1.00  0.00     0.006 C 
HETATM    3  C11 UNL     1       3.242  52.947  -9.046  1.00  0.00     0.011 C 
HETATM    4  C12 UNL     1       1.862  53.473  -8.617  1.00  0.00    -0.032 C 
HETATM    5  C13 UNL     1       1.699  53.046  -7.119  1.00  0.00     0.016 C 
HETATM    6  C14 UNL     1       0.654  52.989  -9.473  1.00  0.00     0.003 C 
HETATM    7  C15 UNL     1       0.470  51.464  -9.570  1.00  0.00     0.009 C 
HETATM    8  C16 UNL     1      -0.949  51.045  -9.964  1.00  0.00     0.042 C 
HETATM    9  C17 UNL     1      -1.730  51.985 -10.938  1.00  0.00     0.095 C 
HETATM   10  O3  UNL     1      -3.083  51.496 -10.803  1.00  0.00    -0.377 OA
HETATM   11  C21 UNL     1      -4.150  52.228 -11.382  1.00  0.00     0.169 C 
HETATM   12  C22 UNL     1      -3.995  53.737 -11.336  1.00  0.00     0.027 C 
HETATM   13  C23 UNL     1      -3.020  54.161 -10.260  1.00  0.00     0.010 C 
HETATM   14  C24 UNL     1      -1.639  53.482 -10.423  1.00  0.00     0.032 C 
HETATM   15  C25 UNL     1      -0.694  53.730  -9.157  1.00  0.00    -0.033 C 
HETATM   16  C26 UNL     1      -1.351  53.215  -7.841  1.00  0.00     0.016 C 
HETATM   17  C27 UNL     1      -0.471  55.281  -9.004  1.00  0.00     0.011 C 
HETATM   18  C28 UNL     1       0.811  55.735  -8.270  1.00  0.00     0.011 C 
HETATM   19  C29 UNL     1       2.063  55.032  -8.825  1.00  0.00    -0.032 C 
HETATM   20  C30 UNL     1       2.229  55.470 -10.312  1.00  0.00     0.016 C 
ENDROOT
BRANCH   1  21
HETATM   21  C2  UNL     1       4.239  56.574  -8.155  1.00  0.00    -0.014 C 
HETATM   22  C1  UNL     1       3.569  57.845  -7.618  1.00  0.00     0.010 C 
BRANCH  21  23
HETATM   23  C3  UNL     1       5.648  56.398  -7.547  1.00  0.00     0.007 C 
BRANCH  23  24
HETATM   24  C4  UNL     1       5.921  57.322  -6.352  1.00  0.00     0.035 C 
BRANCH  24  25
HETATM   25  C5  UNL     1       7.236  56.993  -5.710  1.00  0.00     0.156 A 
HETATM   26  O1  UNL     1       7.238  57.068  -4.277  1.00  0.00    -0.370 OA
HETATM   27  C6  UNL     1       8.083  58.007  -4.960  1.00  0.00     0.080 A 
HETATM   28  C7  UNL     1       9.546  57.731  -4.791  1.00  0.00     0.048 C 
HETATM   29  C8  UNL     1       7.654  59.433  -4.813  1.00  0.00     0.048 C 
ENDBRANCH  24  25
ENDBRANCH  23  24
ENDBRANCH  21  23
ENDBRANCH   1  21
BRANCH   9  30
HETATM   30  C18 UNL     1      -1.180  51.765 -12.438  1.00  0.00     0.082 C 
HETATM   31  C19 UNL     1      -0.252  50.535 -12.538  1.00  0.00     0.049 C 
HETATM   32  C20 UNL     1      -2.243  51.610 -13.539  1.00  0.00     0.049 C 
BRANCH  30  33
HETATM   33  O2  UNL     1      -0.409  52.911 -12.841  1.00  0.00    -0.388 OA
HETATM   34  H35 UNL     1       0.074  52.685 -13.656  1.00  0.00     0.210 HD
ENDBRANCH  30  33
ENDBRANCH   9  30
TORSDOF 6
ENDMDL
