MODEL 1
REMARK minimizedAffinity -7.40620613
REMARK CNNscore 0.497098148
REMARK CNNaffinity 7.10773516
REMARK  12 active torsions:
REMARK  status: ('A' for Active; 'I' for Inactive)
REMARK    1  A    between atoms: O1_2  and  C2_3 
REMARK    2  A    between atoms: C3_5  and  C4_6 
REMARK    3  A    between atoms: C4_6  and  O3_7 
REMARK    4  A    between atoms: C4_6  and  C5_8 
REMARK    5  A    between atoms: C5_8  and  O4_10 
REMARK    6  A    between atoms: C5_8  and  C7_11 
REMARK    7  A    between atoms: C7_11  and  O5_12 
REMARK    8  A    between atoms: C9_14  and  C10_15 
REMARK    9  A    between atoms: C23_28  and  O6_29 
REMARK   10  A    between atoms: O6_29  and  C24_30 
REMARK   11  A    between atoms: C24_30  and  C25_32 
REMARK   12  A    between atoms: C34_41  and  O8_42 
ROOT
HETATM    1  C10 UNL     1      -6.296  45.307 -18.702  1.00  0.00     0.004 C 
HETATM    2  C11 UNL     1      -7.015  46.292 -17.750  1.00  0.00     0.007 C 
HETATM    3  C12 UNL     1      -6.302  47.641 -17.952  1.00  0.00     0.011 C 
HETATM    4  C13 UNL     1      -5.760  47.607 -19.377  1.00  0.00    -0.021 A 
HETATM    5  C14 UNL     1      -6.771  47.226 -20.443  1.00  0.00     0.022 A 
HETATM    6  C15 UNL     1      -5.830  46.181 -19.869  1.00  0.00    -0.027 A 
HETATM    7  C16 UNL     1      -4.796  45.612 -20.812  1.00  0.00     0.011 C 
HETATM    8  C17 UNL     1      -3.549  46.482 -21.004  1.00  0.00     0.007 C 
HETATM    9  C18 UNL     1      -3.885  47.987 -21.091  1.00  0.00     0.005 C 
HETATM   10  C19 UNL     1      -2.745  48.896 -21.730  1.00  0.00    -0.035 C 
HETATM   11  C20 UNL     1      -1.387  48.728 -21.008  1.00  0.00     0.016 C 
HETATM   12  C21 UNL     1      -2.541  48.439 -23.220  1.00  0.00     0.012 C 
HETATM   13  C22 UNL     1      -2.223  49.561 -24.214  1.00  0.00     0.034 C 
HETATM   14  C23 UNL     1      -1.462  50.723 -23.586  1.00  0.00     0.140 C 
HETATM   15  C29 UNL     1      -2.292  51.420 -22.460  1.00  0.00    -0.016 C 
HETATM   16  C30 UNL     1      -1.306  52.123 -21.501  1.00  0.00     0.018 C 
HETATM   17  C31 UNL     1      -3.181  52.544 -23.063  1.00  0.00     0.018 C 
HETATM   18  C32 UNL     1      -3.244  50.384 -21.740  1.00  0.00     0.007 C 
HETATM   19  C33 UNL     1      -3.743  50.842 -20.348  1.00  0.00     0.038 C 
HETATM   20  C34 UNL     1      -4.898  49.971 -19.832  1.00  0.00     0.128 C 
HETATM   21  C35 UNL     1      -4.502  48.471 -19.720  1.00  0.00    -0.005 C 
HETATM   22  C36 UNL     1      -3.491  48.317 -18.547  1.00  0.00     0.019 C 
ENDROOT
BRANCH   1  23
HETATM   23  C9  UNL     1      -7.077  44.067 -19.162  1.00  0.00     0.048 C 
HETATM   24  C2  UNL     1      -8.591  44.090 -18.957  1.00  0.00     0.264 C 
HETATM   25  O2  UNL     1      -9.094  42.997 -19.740  1.00  0.00    -0.353 OA
HETATM   26  C3  UNL     1      -8.113  42.651 -20.742  1.00  0.00     0.157 C 
HETATM   27  C8  UNL     1      -7.000  43.694 -20.631  1.00  0.00     0.044 C 
BRANCH  24  28
HETATM   28  O1  UNL     1      -9.152  45.321 -19.393  1.00  0.00    -0.366 OA
HETATM   29  C1  UNL     1     -10.571  45.296 -19.385  1.00  0.00     0.204 C 
ENDBRANCH  24  28
BRANCH  26  30
HETATM   30  C4  UNL     1      -8.718  42.567 -22.162  1.00  0.00     0.183 C 
BRANCH  30  31
HETATM   31  O3  UNL     1     -10.081  43.017 -22.143  1.00  0.00    -0.390 OA
HETATM   32  H7  UNL     1     -10.249  43.477 -22.982  1.00  0.00     0.210 HD
ENDBRANCH  30  31
BRANCH  30  33
HETATM   33  C5  UNL     1      -8.615  41.168 -22.828  1.00  0.00     0.103 C 
HETATM   34  C6  UNL     1      -7.498  40.350 -22.157  1.00  0.00     0.051 C 
BRANCH  33  35
HETATM   35  O4  UNL     1      -9.839  40.444 -22.594  1.00  0.00    -0.385 OA
HETATM   36  H11 UNL     1      -9.797  39.682 -23.208  1.00  0.00     0.210 HD
ENDBRANCH  33  35
BRANCH  33  37
HETATM   37  C7  UNL     1      -8.380  41.229 -24.351  1.00  0.00     0.204 C 
BRANCH  37  38
HETATM   38  O5  UNL     1      -7.915  39.949 -24.809  1.00  0.00    -0.398 OA
HETATM   39  H14 UNL     1      -7.738  40.053 -25.762  1.00  0.00     0.209 HD
ENDBRANCH  37  38
ENDBRANCH  33  37
ENDBRANCH  30  33
ENDBRANCH  26  30
ENDBRANCH   1  23
BRANCH  20  40
HETATM   40  O8  UNL     1      -6.001  50.142 -20.729  1.00  0.00    -0.395 OA
HETATM   41  H55 UNL     1      -6.299  51.065 -20.653  1.00  0.00     0.210 HD
ENDBRANCH  20  40
BRANCH  14  42
HETATM   42  O6  UNL     1      -1.149  51.663 -24.636  1.00  0.00    -0.312 OA
BRANCH  42  43
HETATM   43  C24 UNL     1       0.142  52.035 -24.781  1.00  0.00     0.283 C 
HETATM   44  O7  UNL     1       0.800  52.712 -24.006  1.00  0.00    -0.260 OA
BRANCH  43  45
HETATM   45  C25 UNL     1       0.680  51.602 -26.090  1.00  0.00     0.084 C 
HETATM   46  C26 UNL     1       0.587  52.223 -27.282  1.00  0.00    -0.082 C 
HETATM   47  C27 UNL     1      -0.170  53.497 -27.544  1.00  0.00     0.043 C 
HETATM   48  C28 UNL     1       1.247  51.630 -28.498  1.00  0.00     0.043 C 
ENDBRANCH  43  45
ENDBRANCH  42  43
ENDBRANCH  14  42
TORSDOF 12
ENDMDL
