MODEL 1
REMARK minimizedAffinity -6.71591425
REMARK CNNscore 0.393067807
REMARK CNNaffinity 6.49227142
REMARK  9 active torsions:
REMARK  status: ('A' for Active; 'I' for Inactive)
REMARK    1  A    between atoms: O1_2  and  C2_3 
REMARK    2  A    between atoms: C2_3  and  C3_4 
REMARK    3  A    between atoms: C3_4  and  C4_5 
REMARK    4  A    between atoms: C4_5  and  O2_6 
REMARK    5  A    between atoms: O2_6  and  C5_7 
REMARK    6  A    between atoms: C31_35  and  O5_36 
REMARK    7  A    between atoms: C32_38  and  O6_39 
REMARK    8  A    between atoms: C33_40  and  O7_42 
REMARK    9  A    between atoms: C39_47  and  O8_48 
ROOT
HETATM    1  C5  UNL     1      -7.742  15.083  17.562  1.00  0.00     0.122 C 
HETATM    2  C6  UNL     1      -7.630  13.705  16.912  1.00  0.00     0.033 C 
HETATM    3  C7  UNL     1      -6.648  13.628  15.741  1.00  0.00     0.013 C 
HETATM    4  C8  UNL     1      -5.317  14.442  15.910  1.00  0.00    -0.026 C 
HETATM    5  C9  UNL     1      -5.398  15.650  14.942  1.00  0.00     0.016 C 
HETATM    6  C10 UNL     1      -5.176  14.943  17.370  1.00  0.00     0.071 C 
HETATM    7  C11 UNL     1      -6.394  15.782  17.795  1.00  0.00     0.045 C 
HETATM    8  C12 UNL     1      -4.952  13.792  18.357  1.00  0.00     0.161 C 
HETATM    9  O3  UNL     1      -5.409  13.810  19.503  1.00  0.00    -0.292 OA
HETATM   10  C13 UNL     1      -4.095  12.654  17.932  1.00  0.00    -0.006 C 
HETATM   11  C14 UNL     1      -3.678  12.600  16.656  1.00  0.00    -0.030 C 
HETATM   12  C15 UNL     1      -4.098  13.530  15.519  1.00  0.00     0.027 C 
HETATM   13  C16 UNL     1      -2.841  14.227  14.923  1.00  0.00     0.011 C 
HETATM   14  C17 UNL     1      -1.700  13.226  14.567  1.00  0.00     0.015 C 
HETATM   15  C18 UNL     1      -1.334  12.330  15.778  1.00  0.00     0.013 C 
HETATM   16  C19 UNL     1      -0.816  13.307  16.881  1.00  0.00     0.020 C 
HETATM   17  C20 UNL     1      -0.347  11.086  15.558  1.00  0.00     0.067 C 
HETATM   18  C21 UNL     1      -0.804  10.347  14.322  1.00  0.00    -0.092 C 
HETATM   19  C22 UNL     1      -1.123   9.749  13.325  1.00  0.00    -0.103 C 
HETATM   20  C23 UNL     1      -1.468   9.004  12.098  1.00  0.00     0.129 C 
HETATM   21  C24 UNL     1      -0.407   7.967  11.626  1.00  0.00     0.235 C 
HETATM   22  C25 UNL     1      -0.206   6.798  12.614  1.00  0.00     0.044 C 
HETATM   23  C26 UNL     1       1.073   6.806  13.465  1.00  0.00     0.027 C 
HETATM   24  C27 UNL     1       1.004   7.709  14.702  1.00  0.00     0.020 C 
HETATM   25  C28 UNL     1       1.681   7.011  15.893  1.00  0.00     0.013 C 
HETATM   26  C29 UNL     1       1.756   8.956  14.228  1.00  0.00     0.158 C 
HETATM   27  O4  UNL     1       2.883   8.382  13.514  1.00  0.00    -0.373 OA
HETATM   28  C30 UNL     1       2.320   7.301  12.715  1.00  0.00     0.185 C 
HETATM   29  C31 UNL     1       2.014   7.750  11.261  1.00  0.00     0.384 C 
HETATM   30  N1  UNL     1       0.827   8.578  11.100  1.00  0.00     0.120 N 
HETATM   31  C32 UNL     1       2.166  10.008  15.275  1.00  0.00     0.183 C 
HETATM   32  C33 UNL     1       1.249  11.314  15.407  1.00  0.00     0.102 C 
HETATM   33  C34 UNL     1       1.907  12.152  16.532  1.00  0.00     0.050 C 
HETATM   34  C35 UNL     1      -0.700  10.229  16.830  1.00  0.00     0.034 C 
HETATM   35  C36 UNL     1      -2.173  10.540  17.242  1.00  0.00     0.027 C 
HETATM   36  C37 UNL     1      -2.321  10.990  18.700  1.00  0.00     0.013 C 
HETATM   37  C38 UNL     1      -3.675  11.655  18.980  1.00  0.00     0.043 C 
HETATM   38  C39 UNL     1      -2.652  11.594  16.236  1.00  0.00     0.095 C 
HETATM   39  H43 UNL     1       0.978   9.492  11.525  1.00  0.00     0.319 HD
ENDROOT
BRANCH  32  40
HETATM   40  O7  UNL     1       1.472  12.092  14.203  1.00  0.00    -0.386 OA
HETATM   41  H49 UNL     1       2.437  12.019  14.039  1.00  0.00     0.210 HD
ENDBRANCH  32  40
BRANCH  38  42
HETATM   42  O8  UNL     1      -3.288  10.869  15.179  1.00  0.00    -0.384 OA
HETATM   43  H57 UNL     1      -4.120  10.501  15.519  1.00  0.00     0.211 HD
ENDBRANCH  38  42
BRANCH  31  44
HETATM   44  O6  UNL     1       3.487  10.477  14.876  1.00  0.00    -0.390 OA
HETATM   45  H45 UNL     1       3.858   9.762  14.318  1.00  0.00     0.210 HD
ENDBRANCH  31  44
BRANCH  29  46
HETATM   46  O5  UNL     1       1.886   6.609  10.429  1.00  0.00    -0.366 OA
HETATM   47  H42 UNL     1       2.546   6.730   9.720  1.00  0.00     0.212 HD
ENDBRANCH  29  46
BRANCH   1  48
HETATM   48  O2  UNL     1      -8.557  15.889  16.699  1.00  0.00    -0.386 OA
BRANCH  48  49
HETATM   49  C4  UNL     1      -9.536  15.145  15.972  1.00  0.00     0.170 C 
BRANCH  49  50
HETATM   50  C3  UNL     1      -9.628  15.643  14.533  1.00  0.00     0.052 C 
BRANCH  50  51
HETATM   51  C2  UNL     1     -10.353  16.982  14.455  1.00  0.00     0.169 C 
BRANCH  51  52
HETATM   52  O1  UNL     1      -9.451  18.050  14.157  1.00  0.00    -0.396 OA
HETATM   53  C1  UNL     1      -8.600  17.777  13.048  1.00  0.00     0.201 C 
ENDBRANCH  51  52
ENDBRANCH  50  51
ENDBRANCH  49  50
ENDBRANCH  48  49
ENDBRANCH   1  48
TORSDOF 9
ENDMDL
