MODEL 1
REMARK minimizedAffinity -8.38477039
REMARK CNNscore 0.10849268
REMARK CNNaffinity 6.7365284
REMARK  11 active torsions:
REMARK  status: ('A' for Active; 'I' for Inactive)
REMARK    1  A    between atoms: C13_13  and  S1_14 
REMARK    2  A    between atoms: C25_30  and  O5_31 
REMARK    3  A    between atoms: C31_37  and  C32_38 
REMARK    4  A    between atoms: C32_38  and  O6_39 
REMARK    5  A    between atoms: C40_47  and  C41_48 
REMARK    6  A    between atoms: C40_47  and  N1_63 
REMARK    7  A    between atoms: C41_48  and  C42_49 
REMARK    8  A    between atoms: C42_49  and  C43_50 
REMARK    9  A    between atoms: C42_49  and  C50_57 
REMARK   10  A    between atoms: C43_50  and  C44_51 
REMARK   11  A    between atoms: C50_57  and  O7_58 
REMARK       I    between atoms: C55_65  and  N2_66 
REMARK       I    between atoms: C55_65  and  N3_67 
ROOT
HETATM    1  C1  UNL     1      -4.271  17.203  13.484  1.00  0.00     0.010 C 
HETATM    2  C2  UNL     1      -3.127  16.222  13.743  1.00  0.00    -0.010 C 
HETATM    3  C3  UNL     1      -1.949  16.926  14.409  1.00  0.00     0.009 C 
HETATM    4  C4  UNL     1      -0.761  15.996  14.655  1.00  0.00     0.039 C 
HETATM    5  C5  UNL     1      -1.093  14.560  14.974  1.00  0.00    -0.049 C 
HETATM    6  C6  UNL     1      -0.085  13.728  15.491  1.00  0.00     0.044 C 
HETATM    7  C7  UNL     1      -0.337  12.384  15.767  1.00  0.00     0.073 C 
HETATM    8  C8  UNL     1      -1.542  11.822  15.361  1.00  0.00     0.037 C 
HETATM    9  C9  UNL     1      -2.568  12.644  14.893  1.00  0.00     0.011 C 
HETATM   10  C10 UNL     1      -2.375  14.029  14.764  1.00  0.00    -0.047 C 
HETATM   11  C11 UNL     1      -3.558  14.938  14.499  1.00  0.00     0.024 C 
HETATM   12  C12 UNL     1      -4.550  15.077  15.710  1.00  0.00     0.033 C 
HETATM   13  C13 UNL     1      -4.066  14.869  17.192  1.00  0.00     0.139 C 
HETATM   14  C14 UNL     1      -5.236  14.281  18.092  1.00  0.00     0.037 C 
HETATM   15  C15 UNL     1      -6.213  15.273  18.736  1.00  0.00    -0.014 C 
HETATM   16  C16 UNL     1      -6.980  14.928  19.794  1.00  0.00    -0.050 C 
HETATM   17  C17 UNL     1      -6.975  13.495  20.250  1.00  0.00     0.042 C 
HETATM   18  C18 UNL     1      -5.512  13.114  20.497  1.00  0.00    -0.001 C 
HETATM   19  C19 UNL     1      -4.776  14.010  21.550  1.00  0.00     0.038 C 
HETATM   20  C20 UNL     1      -5.656  14.964  22.403  1.00  0.00     0.130 C 
HETATM   21  O4  UNL     1      -6.102  16.048  21.587  1.00  0.00    -0.371 OA
HETATM   22  C21 UNL     1      -7.348  15.867  20.914  1.00  0.00     0.185 C 
HETATM   23  C22 UNL     1      -7.989  17.234  20.701  1.00  0.00    -0.006 A 
HETATM   24  C23 UNL     1      -8.562  17.614  19.478  1.00  0.00     0.014 A 
HETATM   25  C24 UNL     1      -9.186  18.858  19.339  1.00  0.00     0.037 A 
HETATM   26  C25 UNL     1      -9.267  19.720  20.430  1.00  0.00     0.067 A 
HETATM   27  C26 UNL     1      -8.738  19.367  21.664  1.00  0.00     0.057 A 
HETATM   28  C27 UNL     1      -8.099  18.134  21.806  1.00  0.00     0.029 A 
HETATM   29  C28 UNL     1      -7.515  17.786  23.076  1.00  0.00    -0.066 C 
HETATM   30  C29 UNL     1      -6.842  17.246  23.915  1.00  0.00    -0.101 C 
HETATM   31  C30 UNL     1      -5.894  16.337  24.590  1.00  0.00     0.103 C 
HETATM   32  C31 UNL     1      -4.910  15.617  23.604  1.00  0.00     0.049 C 
HETATM   33  C33 UNL     1      -4.856  13.059  19.077  1.00  0.00     0.033 C 
HETATM   34  C34 UNL     1      -3.489  12.388  19.025  1.00  0.00     0.073 A 
HETATM   35  C35 UNL     1      -3.413  11.040  18.634  1.00  0.00     0.007 C 
HETATM   36  C36 UNL     1      -2.196  10.460  18.279  1.00  0.00     0.010 C 
HETATM   37  C37 UNL     1      -1.017  11.220  18.279  1.00  0.00    -0.005 C 
HETATM   38  C38 UNL     1      -1.070  12.503  18.852  1.00  0.00     0.012 C 
HETATM   39  C39 UNL     1      -2.290  13.068  19.244  1.00  0.00     0.133 A 
HETATM   40  C40 UNL     1       0.235  10.738  17.496  1.00  0.00     0.171 C 
HETATM   41  O8  UNL     1       0.635  11.728  16.479  1.00  0.00    -0.316 OA
HETATM   42 NA1  UNL     1      -2.285  13.132  18.942  1.00  0.00    -0.397 Na
ATOM     43  HA1 UNL     1      -1.710  13.616  18.253  1.00  0.00     0.155 HD
ENDROOT
BRANCH  40  44
HETATM   44  C41 UNL     1       1.468  10.697  18.473  1.00  0.00     0.075 C 
BRANCH  44  45
HETATM   45  C42 UNL     1       2.063  12.040  19.005  1.00  0.00     0.029 C 
BRANCH  45  46
HETATM   46  C43 UNL     1       2.018  12.234  20.549  1.00  0.00     0.046 C 
BRANCH  46  47
HETATM   47  C44 UNL     1       2.489  11.125  21.466  1.00  0.00    -0.058 A 
HETATM   48  C45 UNL     1       3.533  11.366  22.373  1.00  0.00     0.007 A 
HETATM   49  C46 UNL     1       3.999  10.360  23.223  1.00  0.00     0.001 A 
HETATM   50  C47 UNL     1       3.417   9.096  23.187  1.00  0.00     0.000 A 
HETATM   51  C48 UNL     1       2.359   8.849  22.317  1.00  0.00     0.001 A 
HETATM   52  C49 UNL     1       1.896   9.857  21.469  1.00  0.00     0.007 A 
ENDBRANCH  46  47
ENDBRANCH  45  46
BRANCH  45  53
HETATM   53  C50 UNL     1       3.456  12.335  18.363  1.00  0.00     0.062 C 
HETATM   54  C51 UNL     1       3.366  13.246  17.126  1.00  0.00     0.038 C 
HETATM   55  C52 UNL     1       4.754  13.876  16.972  1.00  0.00     0.003 C 
HETATM   56  C53 UNL     1       5.480  13.646  18.291  1.00  0.00     0.003 C 
HETATM   57  C54 UNL     1       4.416  13.135  19.255  1.00  0.00     0.038 C 
BRANCH  53  58
HETATM   58  O7  UNL     1       4.088  11.124  17.937  1.00  0.00    -0.389 OA
HETATM   59  H50 UNL     1       4.399  10.652  18.731  1.00  0.00     0.210 HD
ENDBRANCH  53  58
ENDBRANCH  45  53
ENDBRANCH  44  45
ENDBRANCH  40  44
BRANCH  40  60
HETATM   60  N1  UNL     1       0.058   9.357  16.991  1.00  0.00    -0.336 N 
HETATM   61  C55 UNL     1       1.039   8.660  16.569  1.00  0.00     0.124 C 
HETATM   62  N2  UNL     1       0.826   7.391  16.159  1.00  0.00    -0.279 NA
HETATM   63  N3  UNL     1       2.348   8.955  16.442  1.00  0.00    -0.279 NA
HETATM   64  H59 UNL     1       1.314   7.185  15.296  1.00  0.00     0.126 HD
HETATM   65  H60 UNL     1      -0.169   7.211  16.071  1.00  0.00     0.126 HD
HETATM   66  H61 UNL     1       2.586   9.876  16.805  1.00  0.00     0.126 HD
HETATM   67  H62 UNL     1       2.958   8.242  16.822  1.00  0.00     0.126 HD
ATOM     68  H1  UNL     1      -0.877   8.951  16.980  1.00  0.00     0.165 HD
ENDBRANCH  40  60
BRANCH  13  69
HETATM   69  S1  UNL     1      -3.299  16.360  17.894  1.00  0.00     0.106 S 
HETATM   70  O1  UNL     1      -3.850  17.482  17.139  1.00  0.00    -0.595 OA
HETATM   71  O2  UNL     1      -1.866  16.149  17.692  1.00  0.00    -0.595 OA
HETATM   72  O3  UNL     1      -3.723  16.373  19.290  1.00  0.00    -0.595 OA
ENDBRANCH  13  69
BRANCH  32  73
HETATM   73  C32 UNL     1      -3.813  16.583  23.134  1.00  0.00     0.172 C 
BRANCH  73  74
HETATM   74  O6  UNL     1      -2.526  16.006  23.380  1.00  0.00    -0.400 OA
HETATM   75  H34 UNL     1      -1.893  16.670  23.051  1.00  0.00     0.209 HD
ENDBRANCH  73  74
ENDBRANCH  32  73
BRANCH  26  76
HETATM   76  O5  UNL     1      -9.865  20.944  20.317  1.00  0.00    -0.361 OA
HETATM   77  H27 UNL     1      -9.998  21.119  19.371  1.00  0.00     0.217 HD
ENDBRANCH  26  76
TORSDOF 11
ENDMDL
