MODEL 1
REMARK minimizedAffinity -6.49508905
REMARK CNNscore 0.840782344
REMARK CNNaffinity 7.16444397
REMARK  7 active torsions:
REMARK  status: ('A' for Active; 'I' for Inactive)
REMARK    1  A    between atoms: C2_2  and  C4_4 
REMARK    2  A    between atoms: C4_4  and  C6_6 
REMARK    3  A    between atoms: C6_6  and  O1_7 
REMARK    4  A    between atoms: C6_6  and  C7_8 
REMARK    5  A    between atoms: C7_8  and  C8_9 
REMARK    6  A    between atoms: C8_9  and  C10_11 
REMARK    7  A    between atoms: C16_17  and  O2_18 
ROOT
HETATM    1  C10 UNL     1     -14.100 -13.117  29.380  1.00  0.00    -0.002 C 
HETATM    2  C11 UNL     1     -13.235 -13.322  30.656  1.00  0.00     0.006 C 
HETATM    3  C12 UNL     1     -12.965 -11.937  31.263  1.00  0.00     0.011 C 
HETATM    4  C13 UNL     1     -13.930 -10.978  30.539  1.00  0.00    -0.030 C 
HETATM    5  C14 UNL     1     -15.301 -11.078  31.276  1.00  0.00     0.016 C 
HETATM    6  C15 UNL     1     -13.458  -9.492  30.483  1.00  0.00     0.032 C 
HETATM    7  C16 UNL     1     -13.513  -8.743  31.832  1.00  0.00     0.124 C 
HETATM    8  C17 UNL     1     -13.008  -7.308  31.681  1.00  0.00     0.038 C 
HETATM    9  C18 UNL     1     -13.980  -6.485  30.832  1.00  0.00     0.012 C 
HETATM   10  C19 UNL     1     -13.579  -4.985  30.660  1.00  0.00     0.018 C 
HETATM   11  C20 UNL     1     -13.519  -4.286  32.036  1.00  0.00     0.023 C 
HETATM   12  C21 UNL     1     -12.225  -4.776  29.964  1.00  0.00     0.023 C 
HETATM   13  C22 UNL     1     -14.661  -4.291  29.811  1.00  0.00     0.135 C 
HETATM   14  O3  UNL     1     -15.123  -3.185  30.100  1.00  0.00    -0.297 OA
HETATM   15  C23 UNL     1     -15.084  -4.972  28.528  1.00  0.00     0.080 C 
HETATM   16  C24 UNL     1     -15.455  -6.421  28.791  1.00  0.00     0.018 C 
HETATM   17  C25 UNL     1     -14.314  -7.150  29.488  1.00  0.00    -0.026 A 
HETATM   18  C26 UNL     1     -13.247  -7.732  28.599  1.00  0.00     0.021 A 
HETATM   19  C27 UNL     1     -14.159  -8.693  29.348  1.00  0.00    -0.025 A 
HETATM   20  C28 UNL     1     -15.229  -9.425  28.533  1.00  0.00     0.011 C 
HETATM   21  C29 UNL     1     -15.052 -10.932  28.288  1.00  0.00     0.011 C 
HETATM   22  C30 UNL     1     -13.924 -11.588  29.090  1.00  0.00    -0.032 C 
HETATM   23  C31 UNL     1     -12.587 -11.365  28.320  1.00  0.00     0.016 C 
ENDROOT
BRANCH   1  24
HETATM   24  C8  UNL     1     -13.771 -14.165  28.272  1.00  0.00    -0.011 C 
HETATM   25  C9  UNL     1     -14.855 -15.247  28.175  1.00  0.00     0.010 C 
BRANCH  24  26
HETATM   26  C7  UNL     1     -12.392 -14.845  28.538  1.00  0.00     0.037 C 
BRANCH  26  27
HETATM   27  C6  UNL     1     -11.356 -14.572  27.430  1.00  0.00     0.126 C 
BRANCH  27  28
HETATM   28  C4  UNL     1      -9.993 -15.302  27.611  1.00  0.00     0.038 C 
HETATM   29  C5  UNL     1      -9.672 -15.607  29.082  1.00  0.00     0.017 C 
BRANCH  28  30
HETATM   30  C2  UNL     1      -8.843 -14.631  26.861  1.00  0.00    -0.087 C 
HETATM   31  C1  UNL     1      -8.856 -13.305  26.637  1.00  0.00     0.014 C 
HETATM   32  C3  UNL     1      -7.708 -15.477  26.347  1.00  0.00     0.043 C 
ENDBRANCH  28  30
ENDBRANCH  27  28
BRANCH  27  33
HETATM   33  O1  UNL     1     -11.915 -14.926  26.162  1.00  0.00    -0.395 OA
HETATM   34  H11 UNL     1     -11.282 -14.653  25.477  1.00  0.00     0.210 HD
ENDBRANCH  27  33
ENDBRANCH  26  27
ENDBRANCH  24  26
ENDBRANCH   1  24
BRANCH   7  35
HETATM   35  O2  UNL     1     -12.702  -9.392  32.809  1.00  0.00    -0.395 OA
HETATM   36  H28 UNL     1     -11.787  -9.406  32.479  1.00  0.00     0.210 HD
ENDBRANCH   7  35
TORSDOF 7
ENDMDL
