MODEL 1
REMARK minimizedAffinity -10.428194
REMARK  6 active torsions:
REMARK  status: ('A' for Active; 'I' for Inactive)
REMARK    1  A    between atoms: C2_2  and  C3_3 
REMARK    2  A    between atoms: C3_3  and  C4_4 
REMARK    3  A    between atoms: C3_3  and  C27_28 
REMARK    4  A    between atoms: C5_5  and  C6_6 
REMARK    5  A    between atoms: C6_6  and  C8_8 
REMARK    6  A    between atoms: C16_16  and  O1_17 
ROOT
HETATM    1  C8  UNL     1      -2.440  49.676 -24.645  1.00  0.00    -0.002 C 
HETATM    2  C9  UNL     1      -2.065  51.004 -23.954  1.00  0.00     0.040 C 
HETATM    3  C10 UNL     1      -1.806  50.554 -22.545  1.00  0.00    -0.068 C 
HETATM    4  C11 UNL     1      -0.738  50.862 -21.788  1.00  0.00    -0.072 C 
HETATM    5  C12 UNL     1       0.193  52.019 -22.049  1.00  0.00     0.035 C 
HETATM    6  C13 UNL     1       0.261  52.924 -20.811  1.00  0.00     0.010 C 
HETATM    7  C14 UNL     1       0.593  52.128 -19.535  1.00  0.00    -0.003 C 
HETATM    8  C15 UNL     1       0.755  53.045 -18.318  1.00  0.00     0.037 C 
HETATM    9  C16 UNL     1       1.208  52.251 -17.093  1.00  0.00     0.118 C 
HETATM   10  C17 UNL     1       0.299  51.059 -16.803  1.00  0.00     0.032 C 
HETATM   11  C18 UNL     1       0.092  50.167 -18.030  1.00  0.00     0.012 C 
HETATM   12  C19 UNL     1      -0.410  50.943 -19.278  1.00  0.00    -0.033 C 
HETATM   13  C20 UNL     1      -1.843  51.454 -18.998  1.00  0.00     0.016 C 
HETATM   14  C21 UNL     1      -0.364  50.043 -20.562  1.00  0.00     0.023 C 
HETATM   15  C22 UNL     1      -1.067  48.669 -20.546  1.00  0.00     0.011 C 
HETATM   16  C23 UNL     1      -2.539  48.692 -20.934  1.00  0.00     0.014 C 
HETATM   17  C24 UNL     1      -2.842  49.510 -22.203  1.00  0.00    -0.020 C 
HETATM   18  C25 UNL     1      -4.240  50.149 -22.016  1.00  0.00     0.020 C 
HETATM   19  C26 UNL     1      -2.823  48.691 -23.503  1.00  0.00     0.019 C 
ENDROOT
BRANCH   1  20
HETATM   20  C6  UNL     1      -3.518  49.831 -25.746  1.00  0.00     0.008 C 
HETATM   21  C7  UNL     1      -4.411  48.585 -25.826  1.00  0.00     0.014 C 
BRANCH  20  22
HETATM   22  C5  UNL     1      -2.884  50.044 -27.105  1.00  0.00    -0.026 C 
HETATM   23  C4  UNL     1      -1.763  50.724 -27.405  1.00  0.00    -0.025 C 
BRANCH  23  24
HETATM   24  C3  UNL     1      -0.810  51.431 -26.462  1.00  0.00     0.011 C 
BRANCH  24  25
HETATM   25  C2  UNL     1       0.592  50.773 -26.512  1.00  0.00     0.004 C 
HETATM   26  C1  UNL     1       1.687  51.709 -27.009  1.00  0.00     0.006 C 
ENDBRANCH  24  25
BRANCH  24  27
HETATM   27  C27 UNL     1      -0.708  52.961 -26.742  1.00  0.00    -0.015 C 
HETATM   28  C28 UNL     1      -0.152  53.251 -28.140  1.00  0.00     0.010 C 
HETATM   29  C29 UNL     1       0.100  53.742 -25.699  1.00  0.00     0.010 C 
ENDBRANCH  24  27
ENDBRANCH  23  24
ENDBRANCH  20  22
ENDBRANCH   1  20
BRANCH   9  30
HETATM   30  O1  UNL     1       1.227  53.124 -15.968  1.00  0.00    -0.396 OA
HETATM   31  H24 UNL     1       1.520  52.606 -15.199  1.00  0.00     0.210 HD
ENDBRANCH   9  30
TORSDOF 6
ENDMDL
