MODEL 1
REMARK minimizedAffinity -8.70306778
REMARK CNNscore 0.227027416
REMARK CNNaffinity 6.99866247
REMARK  9 active torsions:
REMARK  status: ('A' for Active; 'I' for Inactive)
REMARK    1  A    between atoms: C13_13  and  S1_14 
REMARK    2  A    between atoms: C22_26  and  C23_27 
REMARK    3  A    between atoms: C23_27  and  O4_28 
REMARK    4  A    between atoms: C29_34  and  O5_35 
REMARK    5  A    between atoms: C41_48  and  C42_49 
REMARK    6  A    between atoms: C41_48  and  N1_53 
REMARK    7  A    between atoms: C42_49  and  C43_50 
REMARK    8  A    between atoms: C43_50  and  C44_51 
REMARK    9  A    between atoms: C44_51  and  O7_52 
REMARK       I    between atoms: C45_55  and  N2_56 
REMARK       I    between atoms: C45_55  and  N3_57 
ROOT
HETATM    1  C1  UNL     1     -20.666  43.544 -19.124  1.00  0.00     0.010 C 
HETATM    2  C2  UNL     1     -19.923  42.915 -20.313  1.00  0.00    -0.010 C 
HETATM    3  C3  UNL     1     -18.891  41.872 -19.838  1.00  0.00     0.009 C 
HETATM    4  C4  UNL     1     -17.490  42.414 -19.504  1.00  0.00     0.039 C 
HETATM    5  C5  UNL     1     -17.327  43.906 -19.608  1.00  0.00    -0.049 C 
HETATM    6  C6  UNL     1     -16.304  44.554 -18.892  1.00  0.00     0.044 C 
HETATM    7  C7  UNL     1     -16.161  45.944 -18.948  1.00  0.00     0.072 C 
HETATM    8  C8  UNL     1     -17.133  46.695 -19.596  1.00  0.00     0.037 C 
HETATM    9  C9  UNL     1     -18.113  46.057 -20.358  1.00  0.00     0.011 C 
HETATM   10  C10 UNL     1     -18.184  44.662 -20.422  1.00  0.00    -0.047 C 
HETATM   11  C11 UNL     1     -19.271  43.992 -21.238  1.00  0.00     0.024 C 
HETATM   12  C12 UNL     1     -18.799  43.305 -22.552  1.00  0.00     0.033 C 
HETATM   13  C13 UNL     1     -18.400  44.104 -23.831  1.00  0.00     0.139 C 
HETATM   14  C14 UNL     1     -16.861  44.100 -24.139  1.00  0.00     0.038 C 
HETATM   15  C15 UNL     1     -16.568  43.047 -25.226  1.00  0.00    -0.014 C 
HETATM   16  C16 UNL     1     -16.160  43.388 -26.468  1.00  0.00    -0.050 C 
HETATM   17  C17 UNL     1     -16.043  44.844 -26.806  1.00  0.00     0.042 C 
HETATM   18  C18 UNL     1     -15.162  45.415 -25.699  1.00  0.00     0.001 C 
HETATM   19  C19 UNL     1     -13.797  44.641 -25.564  1.00  0.00     0.037 C 
HETATM   20  C20 UNL     1     -13.344  43.778 -26.783  1.00  0.00     0.123 C 
HETATM   21  C21 UNL     1     -11.835  43.451 -26.672  1.00  0.00     0.039 C 
HETATM   22  C22 UNL     1     -11.218  42.815 -27.959  1.00  0.00     0.023 C 
HETATM   23  C24 UNL     1     -11.114  41.271 -27.914  1.00  0.00     0.101 C 
HETATM   24  C25 UNL     1     -12.416  40.614 -28.072  1.00  0.00    -0.101 C 
HETATM   25  C26 UNL     1     -13.556  40.237 -28.103  1.00  0.00    -0.066 C 
HETATM   26  C27 UNL     1     -14.972  40.024 -28.004  1.00  0.00     0.029 A 
HETATM   27  C28 UNL     1     -15.475  38.752 -28.306  1.00  0.00     0.057 A 
HETATM   28  C29 UNL     1     -16.844  38.522 -28.263  1.00  0.00     0.067 A 
HETATM   29  C30 UNL     1     -17.727  39.540 -27.927  1.00  0.00     0.037 A 
HETATM   30  C31 UNL     1     -17.228  40.809 -27.623  1.00  0.00     0.014 A 
HETATM   31  C32 UNL     1     -15.843  41.076 -27.626  1.00  0.00    -0.006 A 
HETATM   32  C33 UNL     1     -15.342  42.504 -27.375  1.00  0.00     0.185 C 
HETATM   33  O6  UNL     1     -14.032  42.518 -26.778  1.00  0.00    -0.371 OA
HETATM   34  C34 UNL     1     -16.068  45.450 -24.412  1.00  0.00     0.030 C 
HETATM   35  C35 UNL     1     -15.308  45.991 -23.204  1.00  0.00    -0.050 C 
HETATM   36  C36 UNL     1     -14.527  45.180 -22.374  1.00  0.00     0.133 A 
HETATM   37  C37 UNL     1     -14.027  45.667 -21.166  1.00  0.00     0.138 A 
HETATM   38  C38 UNL     1     -14.317  46.977 -20.738  1.00  0.00    -0.000 C 
HETATM   39  C39 UNL     1     -14.934  47.838 -21.659  1.00  0.00     0.010 C 
HETATM   40  C40 UNL     1     -15.439  47.343 -22.867  1.00  0.00     0.006 C 
HETATM   41  C41 UNL     1     -14.149  47.318 -19.228  1.00  0.00     0.169 C 
HETATM   42  O8  UNL     1     -15.034  46.488 -18.378  1.00  0.00    -0.316 OA
HETATM   43 NA1  UNL     1     -15.394  44.321 -23.003  1.00  0.00    -0.401 Na
ATOM     44  HA1 UNL     1     -15.985  43.737 -23.595  1.00  0.00     0.154 HD
ENDROOT
BRANCH  41  45
HETATM   45  C42 UNL     1     -14.484  48.809 -18.886  1.00  0.00     0.069 C 
BRANCH  45  46
HETATM   46  C43 UNL     1     -15.372  49.059 -17.654  1.00  0.00     0.031 C 
BRANCH  46  47
HETATM   47  C44 UNL     1     -16.189  50.345 -17.646  1.00  0.00     0.164 C 
BRANCH  47  48
HETATM   48  O7  UNL     1     -15.870  51.153 -16.521  1.00  0.00    -0.401 OA
HETATM   49  H48 UNL     1     -16.273  50.688 -15.758  1.00  0.00     0.209 HD
ENDBRANCH  47  48
ENDBRANCH  46  47
ENDBRANCH  45  46
ENDBRANCH  41  45
BRANCH  41  50
HETATM   50  N1  UNL     1     -12.687  47.206 -18.951  1.00  0.00    -0.336 N 
HETATM   51  C45 UNL     1     -12.227  46.968 -17.783  1.00  0.00     0.124 C 
HETATM   52  N2  UNL     1     -12.867  46.891 -16.597  1.00  0.00    -0.279 NA
HETATM   53  N3  UNL     1     -10.892  46.823 -17.628  1.00  0.00    -0.279 NA
HETATM   54  H49 UNL     1     -13.875  46.979 -16.692  1.00  0.00     0.126 HD
HETATM   55  H50 UNL     1     -12.614  46.116 -16.002  1.00  0.00     0.126 HD
HETATM   56  H51 UNL     1     -10.588  46.185 -16.910  1.00  0.00     0.126 HD
HETATM   57  H52 UNL     1     -10.418  46.679 -18.512  1.00  0.00     0.126 HD
ATOM     58  H1  UNL     1     -12.030  47.325 -19.722  1.00  0.00     0.165 HD
ENDBRANCH  41  50
BRANCH  13  59
HETATM   59  S1  UNL     1     -19.372  45.551 -24.190  1.00  0.00     0.106 S 
HETATM   60  O1  UNL     1     -19.149  45.777 -25.616  1.00  0.00    -0.595 OA
HETATM   61  O2  UNL     1     -18.847  46.599 -23.324  1.00  0.00    -0.595 OA
HETATM   62  O3  UNL     1     -20.735  45.126 -23.871  1.00  0.00    -0.595 OA
ENDBRANCH  13  59
BRANCH  22  63
HETATM   63  C23 UNL     1      -9.802  43.379 -28.184  1.00  0.00     0.169 C 
BRANCH  63  64
HETATM   64  O4  UNL     1      -9.873  44.757 -28.537  1.00  0.00    -0.400 OA
HETATM   65  H29 UNL     1      -8.960  45.081 -28.601  1.00  0.00     0.209 HD
ENDBRANCH  63  64
ENDBRANCH  22  63
BRANCH  28  66
HETATM   66  O5  UNL     1     -17.293  37.272 -28.579  1.00  0.00    -0.361 OA
HETATM   67  H33 UNL     1     -18.262  37.277 -28.530  1.00  0.00     0.217 HD
ENDBRANCH  28  66
TORSDOF 9
ENDMDL
