MODEL 1
REMARK minimizedAffinity -8.89056206
REMARK CNNscore 0.616368711
REMARK CNNaffinity 6.75695801
REMARK  11 active torsions:
REMARK  status: ('A' for Active; 'I' for Inactive)
REMARK    1  A    between atoms: O1_2  and  C2_3 
REMARK    2  A    between atoms: C4_5  and  O2_6 
REMARK    3  A    between atoms: O2_6  and  C5_7 
REMARK    4  A    between atoms: C8_10  and  C9_11 
REMARK    5  A    between atoms: N1_12  and  C10_14 
REMARK    6  A    between atoms: C10_14  and  C11_15 
REMARK    7  A    between atoms: C11_15  and  O3_16 
REMARK    8  A    between atoms: C17_22  and  C18_23 
REMARK    9  A    between atoms: C24_31  and  O6_32 
REMARK   10  A    between atoms: C28_36  and  O7_37 
REMARK   11  A    between atoms: C32_42  and  O9_43 
ROOT
HETATM    1  C5  UNL     1       0.249  11.229  18.694  1.00  0.00     0.127 C 
HETATM    2  C6  UNL     1      -1.215  11.655  18.858  1.00  0.00     0.033 C 
HETATM    3  C7  UNL     1      -2.167  10.828  17.997  1.00  0.00     0.021 C 
HETATM    4  C8  UNL     1      -1.833  10.836  16.461  1.00  0.00     0.026 C 
HETATM    5  C12 UNL     1      -2.310   9.444  15.878  1.00  0.00     0.009 C 
HETATM    6  C13 UNL     1      -3.841   9.228  15.958  1.00  0.00     0.007 C 
HETATM    7  C14 UNL     1      -4.282   7.864  15.431  1.00  0.00     0.013 C 
HETATM    8  C15 UNL     1      -3.797   7.583  13.990  1.00  0.00    -0.005 C 
HETATM    9  C16 UNL     1      -4.559   8.488  12.997  1.00  0.00     0.019 C 
HETATM   10  C17 UNL     1      -3.936   6.070  13.612  1.00  0.00     0.028 C 
HETATM   11  C22 UNL     1      -2.702   5.403  14.264  1.00  0.00     0.013 C 
HETATM   12  C23 UNL     1      -1.700   6.523  14.575  1.00  0.00     0.040 C 
HETATM   13  C24 UNL     1      -2.257   7.782  13.889  1.00  0.00     0.070 C 
HETATM   14  C25 UNL     1      -1.763   9.138  14.461  1.00  0.00     0.026 C 
HETATM   15  C26 UNL     1      -0.232   9.243  14.462  1.00  0.00     0.011 C 
HETATM   16  C27 UNL     1       0.202  10.642  14.856  1.00  0.00     0.039 C 
HETATM   17  C28 UNL     1      -0.298  11.098  16.230  1.00  0.00     0.073 C 
HETATM   18  C29 UNL     1       0.521  10.473  17.381  1.00  0.00     0.071 C 
ENDROOT
BRANCH   1  19
HETATM   19  O2  UNL     1       0.613  10.424  19.824  1.00  0.00    -0.356 OA
BRANCH  19  20
HETATM   20  C4  UNL     1       2.021  10.263  19.948  1.00  0.00     0.263 C 
HETATM   21  C3  UNL     1       2.642  11.631  20.247  1.00  0.00     0.095 C 
HETATM   22  C2  UNL     1       4.070  11.412  20.720  1.00  0.00     0.156 C 
HETATM   23  C32 UNL     1       4.056  10.575  22.030  1.00  0.00     0.175 C 
HETATM   24  C30 UNL     1       2.747   9.765  22.168  1.00  0.00     0.151 C 
HETATM   25  O8  UNL     1       2.339   9.245  20.897  1.00  0.00    -0.354 OA
HETATM   26  C31 UNL     1       2.918   8.595  23.129  1.00  0.00     0.042 C 
BRANCH  22  27
HETATM   27  O1  UNL     1       4.749  12.642  20.991  1.00  0.00    -0.388 OA
HETATM   28  C1  UNL     1       4.834  13.526  19.890  1.00  0.00     0.202 C 
ENDBRANCH  22  27
BRANCH  23  29
HETATM   29  O9  UNL     1       4.203  11.449  23.170  1.00  0.00    -0.390 OA
HETATM   30  H49 UNL     1       4.709  12.213  22.810  1.00  0.00     0.210 HD
ENDBRANCH  23  29
ENDBRANCH  19  20
ENDBRANCH   1  19
BRANCH  17  31
HETATM   31  O7  UNL     1      -0.026  12.522  16.290  1.00  0.00    -0.389 OA
HETATM   32  H41 UNL     1       0.919  12.651  16.042  1.00  0.00     0.210 HD
ENDBRANCH  17  31
BRANCH   4  33
HETATM   33  C9  UNL     1      -2.590  12.039  15.863  1.00  0.00     0.068 C 
HETATM   34  N1  UNL     1      -2.249  12.637  14.771  1.00  0.00    -0.399 N 
ATOM     35  H1  UNL     1      -1.447  12.366  14.202  1.00  0.00     0.158 HD
BRANCH  34  36
HETATM   36  C10 UNL     1      -3.150  13.761  14.437  1.00  0.00     0.144 C 
BRANCH  36  37
HETATM   37  C11 UNL     1      -2.397  14.799  13.600  1.00  0.00     0.183 C 
BRANCH  37  38
HETATM   38  O3  UNL     1      -1.212  14.238  13.037  1.00  0.00    -0.399 OA
HETATM   39  H18 UNL     1      -1.139  13.336  13.406  1.00  0.00     0.209 HD
ENDBRANCH  37  38
ENDBRANCH  36  37
ENDBRANCH  34  36
ENDBRANCH   4  33
BRANCH  13  40
HETATM   40  O6  UNL     1      -1.888   7.727  12.500  1.00  0.00    -0.389 OA
HETATM   41  H35 UNL     1      -0.932   7.548  12.438  1.00  0.00     0.210 HD
ENDBRANCH  13  40
BRANCH  10  42
HETATM   42  C18 UNL     1      -5.258   5.388  13.882  1.00  0.00    -0.045 A 
HETATM   43  C19 UNL     1      -5.869   4.424  13.189  1.00  0.00     0.087 A 
HETATM   44  C20 UNL     1      -7.173   4.200  13.814  1.00  0.00     0.283 A 
HETATM   45  O4  UNL     1      -7.993   3.384  13.433  1.00  0.00    -0.260 OA
HETATM   46  O5  UNL     1      -7.318   5.053  14.866  1.00  0.00    -0.314 OA
HETATM   47  C21 UNL     1      -6.130   5.836  14.998  1.00  0.00     0.213 A 
ENDBRANCH  10  42
TORSDOF 11
ENDMDL
