MODEL 1
REMARK minimizedAffinity -7.71378374
REMARK CNNscore 0.305893213
REMARK CNNaffinity 5.45894241
REMARK  19 active torsions:
REMARK  status: ('A' for Active; 'I' for Inactive)
REMARK    1  A    between atoms: C19_20  and  O2_21 
REMARK    2  A    between atoms: C19_20  and  C20_22 
REMARK    3  A    between atoms: C20_22  and  C21_24 
REMARK    4  A    between atoms: C21_24  and  O4_25 
REMARK    5  A    between atoms: O4_25  and  C22_26 
REMARK    6  A    between atoms: C22_26  and  C23_28 
REMARK    7  A    between atoms: C23_28  and  C24_29 
REMARK    8  A    between atoms: C24_29  and  C25_30 
REMARK       I    between atoms: C25_30  and  N1_32 
REMARK    9  A    between atoms: N1_32  and  C26_33 
REMARK   10  A    between atoms: C26_33  and  C27_34 
REMARK   11  A    between atoms: C27_34  and  C28_35 
REMARK   12  A    between atoms: C28_35  and  C29_36 
REMARK   13  A    between atoms: C29_36  and  C30_37 
REMARK   14  A    between atoms: C30_37  and  C31_38 
REMARK       I    between atoms: C31_38  and  N2_40 
REMARK   15  A    between atoms: N2_40  and  C32_41 
REMARK   16  A    between atoms: C32_41  and  C33_42 
REMARK   17  A    between atoms: C32_41  and  C40_49 
REMARK   18  A    between atoms: C33_42  and  C34_43 
REMARK   19  A    between atoms: C40_49  and  O9_51 
ROOT
HETATM    1  C22 UNL     1     -11.191  45.325 -27.330  1.00  0.00     0.259 C 
HETATM    2  O5  UNL     1     -11.474  46.404 -27.830  1.00  0.00    -0.265 OA
ENDROOT
BRANCH   1   3
HETATM    3  O4  UNL     1     -11.824  44.782 -26.252  1.00  0.00    -0.314 OA
BRANCH   3   4
HETATM    4  C21 UNL     1     -13.196  44.493 -26.453  1.00  0.00     0.260 C 
BRANCH   4   5
HETATM    5  C20 UNL     1     -14.112  44.160 -25.275  1.00  0.00     0.185 C 
HETATM    6  O3  UNL     1     -14.108  43.008 -24.810  1.00  0.00    -0.292 OA
BRANCH   5   7
HETATM    7  C19 UNL     1     -15.139  45.166 -24.713  1.00  0.00     0.128 C 
HETATM    8  C14 UNL     1     -16.546  45.191 -25.377  1.00  0.00    -0.002 C 
HETATM    9  C13 UNL     1     -17.328  43.882 -25.190  1.00  0.00     0.013 C 
HETATM   10  C15 UNL     1     -16.478  45.468 -26.905  1.00  0.00     0.019 C 
HETATM   11  C16 UNL     1     -17.215  46.436 -24.699  1.00  0.00     0.002 C 
HETATM   12  C12 UNL     1     -18.826  44.116 -25.081  1.00  0.00     0.007 C 
HETATM   13  C11 UNL     1     -19.200  44.900 -23.811  1.00  0.00     0.002 C 
HETATM   14  C2  UNL     1     -19.505  43.997 -22.522  1.00  0.00    -0.016 C 
HETATM   15  C10 UNL     1     -18.339  46.195 -23.636  1.00  0.00    -0.004 C 
HETATM   16  C1  UNL     1     -21.006  43.599 -22.606  1.00  0.00     0.020 C 
HETATM   17  C3  UNL     1     -18.646  42.706 -22.435  1.00  0.00     0.022 C 
HETATM   18  C7  UNL     1     -19.302  44.731 -21.196  1.00  0.00    -0.068 C 
HETATM   19  C4  UNL     1     -18.970  41.828 -21.224  1.00  0.00     0.084 C 
HETATM   20  C5  UNL     1     -19.042  42.621 -19.943  1.00  0.00     0.149 C 
HETATM   21  O1  UNL     1     -19.060  42.077 -18.842  1.00  0.00    -0.293 OA
HETATM   22  C6  UNL     1     -19.107  44.099 -20.024  1.00  0.00     0.053 C 
HETATM   23  C8  UNL     1     -19.187  46.220 -21.263  1.00  0.00     0.035 C 
HETATM   24  C9  UNL     1     -18.012  46.537 -22.178  1.00  0.00     0.010 C 
HETATM   25  C17 UNL     1     -16.038  47.353 -24.268  1.00  0.00     0.009 C 
HETATM   26  C18 UNL     1     -14.748  46.636 -24.675  1.00  0.00     0.047 C 
BRANCH   7  27
HETATM   27  O2  UNL     1     -15.312  44.785 -23.321  1.00  0.00    -0.381 OA
HETATM   28  H27 UNL     1     -14.963  43.871 -23.233  1.00  0.00     0.211 HD
ENDBRANCH   7  27
ENDBRANCH   5   7
ENDBRANCH   4   5
ENDBRANCH   3   4
ENDBRANCH   1   3
BRANCH   1  29
HETATM   29  C23 UNL     1     -10.089  44.412 -27.794  1.00  0.00     0.120 C 
BRANCH  29  30
HETATM   30  C24 UNL     1      -9.548  44.856 -29.146  1.00  0.00     0.112 C 
BRANCH  30  31
HETATM   31  C25 UNL     1      -8.267  45.647 -28.985  1.00  0.00     0.217 C 
HETATM   32  O6  UNL     1      -7.163  45.124 -28.868  1.00  0.00    -0.274 OA
HETATM   33  N1  UNL     1      -8.474  47.008 -28.966  1.00  0.00    -0.361 N 
HETATM   34  H34 UNL     1      -9.407  47.373 -29.111  1.00  0.00     0.162 HD
BRANCH  33  35
HETATM   35  C26 UNL     1      -7.384  47.948 -28.793  1.00  0.00     0.122 C 
BRANCH  35  36
HETATM   36  C27 UNL     1      -6.061  47.243 -28.495  1.00  0.00     0.020 C 
BRANCH  36  37
HETATM   37  C28 UNL     1      -4.881  48.211 -28.341  1.00  0.00     0.002 C 
BRANCH  37  38
HETATM   38  C29 UNL     1      -4.510  48.494 -26.882  1.00  0.00     0.009 C 
BRANCH  38  39
HETATM   39  C30 UNL     1      -3.015  48.762 -26.706  1.00  0.00     0.103 C 
BRANCH  39  40
HETATM   40  C31 UNL     1      -2.608  50.197 -26.990  1.00  0.00     0.218 C 
HETATM   41  O7  UNL     1      -3.204  50.940 -27.761  1.00  0.00    -0.274 OA
HETATM   42  N2  UNL     1      -1.478  50.575 -26.293  1.00  0.00    -0.346 N 
HETATM   43  H45 UNL     1      -0.888  49.822 -25.950  1.00  0.00     0.163 HD
BRANCH  42  44
HETATM   44  C32 UNL     1      -0.776  51.824 -26.626  1.00  0.00     0.186 C 
BRANCH  44  45
HETATM   45  C33 UNL     1      -0.603  52.685 -25.368  1.00  0.00     0.074 C 
BRANCH  45  46
HETATM   46  C34 UNL     1      -1.406  52.205 -24.184  1.00  0.00    -0.056 A 
HETATM   47  C35 UNL     1      -2.744  52.593 -24.028  1.00  0.00     0.007 A 
HETATM   48  C36 UNL     1      -3.482  52.162 -22.926  1.00  0.00     0.001 A 
HETATM   49  C37 UNL     1      -2.891  51.340 -21.968  1.00  0.00     0.000 A 
HETATM   50  C38 UNL     1      -1.563  50.947 -22.112  1.00  0.00     0.001 A 
HETATM   51  C39 UNL     1      -0.823  51.375 -23.215  1.00  0.00     0.007 A 
ENDBRANCH  45  46
ENDBRANCH  44  45
BRANCH  44  52
HETATM   52  C40 UNL     1       0.591  51.418 -27.174  1.00  0.00     0.163 C 
HETATM   53  O8  UNL     1       1.003  51.660 -28.301  1.00  0.00    -0.648 OA
BRANCH  52  54
HETATM   54  O9  UNL     1       1.347  50.733 -26.297  1.00  0.00    -0.775 OA
HETATM   55  H54 UNL     1       2.182  50.550 -26.777  1.00  0.00     0.167 HD
ENDBRANCH  52  54
ENDBRANCH  44  52
ENDBRANCH  42  44
ENDBRANCH  39  40
ENDBRANCH  38  39
ENDBRANCH  37  38
ENDBRANCH  36  37
ENDBRANCH  35  36
ENDBRANCH  33  35
ENDBRANCH  30  31
ENDBRANCH  29  30
ENDBRANCH   1  29
TORSDOF 19
ENDMDL
