MODEL 1
REMARK minimizedAffinity -9.50134182
REMARK CNNscore 0.690366149
REMARK CNNaffinity 7.39423037
REMARK  13 active torsions:
REMARK  status: ('A' for Active; 'I' for Inactive)
REMARK    1  A    between atoms: C14_15  and  O2_16 
REMARK    2  A    between atoms: C14_15  and  C15_17 
REMARK    3  A    between atoms: C15_17  and  C16_19 
REMARK    4  A    between atoms: C16_19  and  O4_20 
REMARK    5  A    between atoms: O4_20  and  C17_21 
REMARK    6  A    between atoms: C17_21  and  C18_23 
REMARK    7  A    between atoms: C18_23  and  C19_24 
REMARK    8  A    between atoms: C19_24  and  C20_25 
REMARK       I    between atoms: C20_25  and  N1_27 
REMARK    9  A    between atoms: N1_27  and  C21_28 
REMARK   10  A    between atoms: C21_28  and  C22_29 
REMARK   11  A    between atoms: C22_29  and  C23_30 
REMARK   12  A    between atoms: C26_33  and  O7_34 
REMARK   13  A    between atoms: C27_35  and  O8_36 
ROOT
HETATM    1  C15 UNL     1      -2.198   8.052  13.467  1.00  0.00     0.185 C 
HETATM    2  O3  UNL     1      -3.275   7.746  12.944  1.00  0.00    -0.292 OA
ENDROOT
BRANCH   1   3
HETATM    3  C14 UNL     1      -1.016   7.043  13.551  1.00  0.00     0.128 C 
HETATM    4  C13 UNL     1      -1.495   5.662  13.056  1.00  0.00     0.047 C 
HETATM    5  C12 UNL     1      -0.978   5.506  11.624  1.00  0.00     0.009 C 
HETATM    6  C11 UNL     1      -0.331   6.851  11.243  1.00  0.00     0.002 C 
HETATM    7  C10 UNL     1       0.706   6.697  10.114  1.00  0.00     0.003 C 
HETATM    8  C29 UNL     1       0.171   7.399  12.592  1.00  0.00     0.005 C 
HETATM    9  C9  UNL     1       0.747   7.940   9.201  1.00  0.00     0.010 C 
HETATM   10  C33 UNL     1       2.129   6.220  10.550  1.00  0.00     0.072 C 
HETATM   11  C8  UNL     1       1.564   7.694   7.921  1.00  0.00     0.035 C 
HETATM   12  C7  UNL     1       2.533   6.549   8.101  1.00  0.00    -0.067 C 
HETATM   13  C2  UNL     1       3.239   6.507   9.459  1.00  0.00    -0.009 C 
HETATM   14  C6  UNL     1       2.648   5.596   7.160  1.00  0.00     0.053 C 
HETATM   15  C1  UNL     1       3.982   7.859   9.654  1.00  0.00     0.021 C 
HETATM   16  C3  UNL     1       4.342   5.410   9.466  1.00  0.00     0.022 C 
HETATM   17  C4  UNL     1       3.924   4.105   8.805  1.00  0.00     0.084 C 
HETATM   18  C5  UNL     1       3.418   4.355   7.407  1.00  0.00     0.149 C 
HETATM   19  O1  UNL     1       3.539   3.531   6.505  1.00  0.00    -0.293 OA
HETATM   20  C32 UNL     1       2.520   6.664  11.962  1.00  0.00     0.133 C 
HETATM   21  C31 UNL     1       1.451   6.661  13.028  1.00  0.00     0.091 C 
HETATM   22  O9  UNL     1       3.689   6.866  12.294  1.00  0.00    -0.297 OA
HETATM   23  C30 UNL     1       0.462   8.907  12.551  1.00  0.00     0.019 C 
BRANCH   3  24
HETATM   24  O2  UNL     1      -0.549   6.923  14.889  1.00  0.00    -0.381 OA
HETATM   25  H19 UNL     1      -1.187   6.379  15.390  1.00  0.00     0.211 HD
ENDBRANCH   3  24
ENDBRANCH   1   3
BRANCH   1  26
HETATM   26  C16 UNL     1      -1.961   9.460  14.021  1.00  0.00     0.260 C 
BRANCH  26  27
HETATM   27  O4  UNL     1      -1.740   9.461  15.433  1.00  0.00    -0.314 OA
BRANCH  27  28
HETATM   28  C17 UNL     1      -2.849   9.121  16.153  1.00  0.00     0.259 C 
HETATM   29  O5  UNL     1      -2.890   8.219  16.981  1.00  0.00    -0.265 OA
BRANCH  28  30
HETATM   30  C18 UNL     1      -4.003  10.009  15.759  1.00  0.00     0.120 C 
BRANCH  30  31
HETATM   31  C19 UNL     1      -5.329   9.423  16.224  1.00  0.00     0.112 C 
BRANCH  31  32
HETATM   32  C20 UNL     1      -5.841   8.357  15.276  1.00  0.00     0.218 C 
HETATM   33  O6  UNL     1      -6.211   8.592  14.133  1.00  0.00    -0.274 OA
HETATM   34  N1  UNL     1      -5.794   7.091  15.819  1.00  0.00    -0.361 N 
HETATM   35  H26 UNL     1      -5.582   6.985  16.803  1.00  0.00     0.162 HD
BRANCH  34  36
HETATM   36  C21 UNL     1      -6.294   5.935  15.099  1.00  0.00     0.127 C 
BRANCH  36  37
HETATM   37  C22 UNL     1      -5.622   5.775  13.734  1.00  0.00     0.058 C 
BRANCH  37  38
HETATM   38  C23 UNL     1      -5.922   4.432  13.117  1.00  0.00    -0.054 A 
HETATM   39  C24 UNL     1      -7.145   3.788  13.377  1.00  0.00     0.010 A 
HETATM   40  C25 UNL     1      -7.441   2.551  12.794  1.00  0.00     0.040 A 
HETATM   41  C26 UNL     1      -6.511   1.963  11.945  1.00  0.00     0.098 A 
HETATM   42  C27 UNL     1      -5.300   2.599  11.679  1.00  0.00     0.099 A 
HETATM   43  C28 UNL     1      -4.998   3.826  12.254  1.00  0.00     0.046 A 
BRANCH  41  44
HETATM   44  O7  UNL     1      -6.741   0.756  11.346  1.00  0.00    -0.358 OA
HETATM   45  H33 UNL     1      -7.613   0.438  11.637  1.00  0.00     0.217 HD
ENDBRANCH  41  44
BRANCH  42  46
HETATM   46  O8  UNL     1      -4.394   2.017  10.838  1.00  0.00    -0.358 OA
HETATM   47  H34 UNL     1      -4.821   1.180  10.566  1.00  0.00     0.217 HD
ENDBRANCH  42  46
ENDBRANCH  37  38
ENDBRANCH  36  37
ENDBRANCH  34  36
ENDBRANCH  31  32
ENDBRANCH  30  31
ENDBRANCH  28  30
ENDBRANCH  27  28
ENDBRANCH  26  27
ENDBRANCH   1  26
TORSDOF 13
ENDMDL
