MODEL 1
REMARK minimizedAffinity -9.77442646
REMARK  6 active torsions:
REMARK  status: ('A' for Active; 'I' for Inactive)
REMARK    1  A    between atoms: C2_2  and  C30_32 
REMARK    2  A    between atoms: C3_3  and  C4_4 
REMARK    3  A    between atoms: C4_4  and  C5_6 
REMARK    4  A    between atoms: C5_6  and  C6_7 
REMARK    5  A    between atoms: C6_7  and  C8_9 
REMARK    6  A    between atoms: C30_32  and  O4_34 
ROOT
HETATM    1  C8  UNL     1      -5.726   6.550  14.657  1.00  0.00    -0.001 C 
HETATM    2  C9  UNL     1      -6.326   7.517  13.596  1.00  0.00     0.007 C 
HETATM    3  C10 UNL     1      -5.151   8.254  12.928  1.00  0.00     0.015 C 
HETATM    4  C11 UNL     1      -3.929   7.938  13.816  1.00  0.00    -0.013 C 
HETATM    5  C12 UNL     1      -3.971   8.967  14.990  1.00  0.00     0.021 C 
HETATM    6  C13 UNL     1      -2.541   8.055  13.196  1.00  0.00    -0.070 C 
HETATM    7  C14 UNL     1      -2.264   8.897  12.188  1.00  0.00    -0.022 C 
HETATM    8  C15 UNL     1      -0.914   9.082  11.574  1.00  0.00     0.034 C 
HETATM    9  C16 UNL     1       0.288   8.367  12.246  1.00  0.00     0.013 C 
HETATM   10  C17 UNL     1       1.038   7.354  11.308  1.00  0.00     0.018 C 
HETATM   11  C18 UNL     1       1.551   8.081  10.040  1.00  0.00     0.023 C 
HETATM   12  C19 UNL     1       0.184   6.155  10.877  1.00  0.00     0.023 C 
HETATM   13  C20 UNL     1       2.286   6.812  12.029  1.00  0.00     0.135 C 
HETATM   14  O2  UNL     1       3.177   6.210  11.428  1.00  0.00    -0.297 OA
HETATM   15  C21 UNL     1       2.405   7.056  13.514  1.00  0.00     0.080 C 
HETATM   16  C22 UNL     1       1.053   6.818  14.162  1.00  0.00     0.017 C 
HETATM   17  C23 UNL     1      -0.026   7.840  13.704  1.00  0.00    -0.031 C 
HETATM   18  C24 UNL     1       0.045   9.065  14.663  1.00  0.00     0.016 C 
HETATM   19  C25 UNL     1      -1.448   7.168  13.777  1.00  0.00     0.024 C 
HETATM   20  C26 UNL     1      -1.810   6.590  15.171  1.00  0.00     0.010 C 
HETATM   21  C27 UNL     1      -3.236   6.007  15.313  1.00  0.00     0.011 C 
HETATM   22  C28 UNL     1      -4.227   6.450  14.218  1.00  0.00    -0.029 C 
HETATM   23  C29 UNL     1      -4.127   5.450  13.022  1.00  0.00     0.016 C 
ENDROOT
BRANCH   1  24
HETATM   24  C6  UNL     1      -6.566   5.253  14.824  1.00  0.00    -0.007 C 
HETATM   25  C7  UNL     1      -7.415   5.250  16.099  1.00  0.00     0.011 C 
BRANCH  24  26
HETATM   26  C5  UNL     1      -7.447   4.950  13.588  1.00  0.00     0.087 C 
BRANCH  26  27
HETATM   27  C4  UNL     1      -7.219   3.586  12.955  1.00  0.00     0.150 C 
HETATM   28  O1  UNL     1      -8.087   2.720  12.922  1.00  0.00    -0.293 OA
BRANCH  27  29
HETATM   29  C3  UNL     1      -5.855   3.329  12.411  1.00  0.00     0.063 C 
HETATM   30  C2  UNL     1      -5.513   2.240  11.698  1.00  0.00     0.015 C 
HETATM   31  C1  UNL     1      -6.420   1.128  11.264  1.00  0.00     0.055 C 
BRANCH  30  32
HETATM   32  C30 UNL     1      -4.091   2.186  11.290  1.00  0.00     0.171 C 
HETATM   33  O3  UNL     1      -3.455   3.087  10.772  1.00  0.00    -0.646 OA
BRANCH  32  34
HETATM   34  O4  UNL     1      -3.522   1.001  11.558  1.00  0.00    -0.773 OA
HETATM   35  H44 UNL     1      -2.595   1.106  11.255  1.00  0.00     0.167 HD
ENDBRANCH  32  34
ENDBRANCH  30  32
ENDBRANCH  27  29
ENDBRANCH  26  27
ENDBRANCH  24  26
ENDBRANCH   1  24
TORSDOF 6
ENDMDL
