MODEL 1
REMARK minimizedAffinity -7.23634052
REMARK CNNscore 0.77072829
REMARK CNNaffinity 6.84355688
REMARK  13 active torsions:
REMARK  status: ('A' for Active; 'I' for Inactive)
REMARK    1  A    between atoms: C4_4  and  C5_5 
REMARK    2  A    between atoms: C5_5  and  C6_6 
REMARK    3  A    between atoms: C6_6  and  C7_7 
REMARK    4  A    between atoms: C9_9  and  C10_10 
REMARK    5  A    between atoms: C11_11  and  C12_12 
REMARK    6  A    between atoms: C14_14  and  C15_15 
REMARK    7  A    between atoms: C18_18  and  C19_19 
REMARK    8  A    between atoms: C19_19  and  C20_20 
REMARK    9  A    between atoms: C20_20  and  C21_21 
REMARK   10  A    between atoms: C21_21  and  O1_22 
REMARK   11  A    between atoms: C23_24  and  C25_26 
REMARK   12  A    between atoms: C28_30  and  O3_32 
REMARK   13  A    between atoms: C30_33  and  O4_34 
ROOT
HETATM    1  C15 UNL     1       1.873  51.002 -13.611  1.00  0.00     0.149 C 
HETATM    2  C16 UNL     1       1.826  52.290 -12.788  1.00  0.00     0.054 C 
HETATM    3  C17 UNL     1       1.216  51.913 -11.405  1.00  0.00     0.050 C 
HETATM    4  C18 UNL     1       2.089  52.549 -10.251  1.00  0.00     0.032 C 
HETATM    5  C22 UNL     1       2.164  54.074 -10.444  1.00  0.00    -0.066 C 
HETATM    6  C23 UNL     1       3.286  54.832 -10.310  1.00  0.00    -0.021 C 
HETATM    7  C24 UNL     1       3.373  56.315 -10.583  1.00  0.00     0.052 C 
HETATM    8  C26 UNL     1       0.875  54.714 -10.944  1.00  0.00     0.038 C 
HETATM    9  C27 UNL     1      -0.394  53.876 -10.819  1.00  0.00     0.042 C 
HETATM   10  C28 UNL     1      -0.281  52.390 -11.242  1.00  0.00     0.067 C 
HETATM   11  C29 UNL     1      -1.181  52.126 -12.457  1.00  0.00     0.047 C 
HETATM   12  C30 UNL     1       1.401  50.377 -11.459  1.00  0.00     0.270 C 
HETATM   13  O5  UNL     1       1.237  49.996 -12.819  1.00  0.00    -0.351 OA
ENDROOT
BRANCH   4  14
HETATM   14  C19 UNL     1       1.634  52.161  -8.819  1.00  0.00     0.012 C 
BRANCH  14  15
HETATM   15  C20 UNL     1       1.768  53.281  -7.784  1.00  0.00     0.027 C 
BRANCH  15  16
HETATM   16  C21 UNL     1       0.501  53.427  -6.951  1.00  0.00     0.164 C 
BRANCH  16  17
HETATM   17  O1  UNL     1      -0.510  52.578  -7.478  1.00  0.00    -0.401 OA
HETATM   18  H32 UNL     1      -0.217  51.659  -7.349  1.00  0.00     0.209 HD
ENDBRANCH  16  17
ENDBRANCH  15  16
ENDBRANCH  14  15
ENDBRANCH   4  14
BRANCH  10  19
HETATM   19  O3  UNL     1      -0.930  51.680 -10.165  1.00  0.00    -0.389 OA
HETATM   20  H44 UNL     1      -0.738  50.725 -10.292  1.00  0.00     0.210 HD
ENDBRANCH  10  19
BRANCH  12  21
HETATM   21  O4  UNL     1       0.471  49.649 -10.688  1.00  0.00    -0.370 OA
HETATM   22  H46 UNL     1       0.744  48.717 -10.793  1.00  0.00     0.212 HD
ENDBRANCH  12  21
BRANCH   1  23
HETATM   23  C14 UNL     1       1.161  51.087 -14.927  1.00  0.00     0.011 C 
HETATM   24  C12 UNL     1       1.595  51.649 -16.076  1.00  0.00    -0.063 C 
HETATM   25  C13 UNL     1       2.914  52.366 -16.219  1.00  0.00     0.048 C 
BRANCH  24  26
HETATM   26  C11 UNL     1       0.719  51.590 -17.251  1.00  0.00     0.006 C 
HETATM   27  C10 UNL     1       0.727  52.437 -18.295  1.00  0.00     0.001 C 
BRANCH  27  28
HETATM   28  C9  UNL     1      -0.181  52.297 -19.414  1.00  0.00     0.002 C 
HETATM   29  C7  UNL     1       0.118  52.422 -20.724  1.00  0.00    -0.084 C 
HETATM   30  C8  UNL     1       1.473  52.776 -21.277  1.00  0.00     0.043 C 
BRANCH  29  31
HETATM   31  C6  UNL     1      -0.978  52.235 -21.763  1.00  0.00     0.037 C 
BRANCH  31  32
HETATM   32  C5  UNL     1      -0.485  51.704 -23.117  1.00  0.00     0.031 C 
BRANCH  32  33
HETATM   33  C4  UNL     1      -0.468  52.741 -24.209  1.00  0.00    -0.024 C 
HETATM   34  C2  UNL     1       0.163  52.686 -25.398  1.00  0.00    -0.091 C 
HETATM   35  C1  UNL     1       0.032  53.813 -26.392  1.00  0.00     0.042 C 
HETATM   36  C3  UNL     1       1.043  51.558 -25.866  1.00  0.00     0.042 C 
ENDBRANCH  32  33
ENDBRANCH  31  32
ENDBRANCH  29  31
ENDBRANCH  27  28
ENDBRANCH  24  26
ENDBRANCH   1  23
BRANCH   6  37
HETATM   37  C25 UNL     1       4.609  54.267  -9.887  1.00  0.00     0.265 C 
HETATM   38  O2  UNL     1       5.658  54.898  -9.975  1.00  0.00    -0.302 OA
ENDBRANCH   6  37
TORSDOF 13
ENDMDL
