MODEL 1
REMARK minimizedAffinity -7.96834421
REMARK CNNscore 0.694866598
REMARK CNNaffinity 6.27493906
REMARK  8 active torsions:
REMARK  status: ('A' for Active; 'I' for Inactive)
REMARK    1  A    between atoms: C2_2  and  C30_35 
REMARK    2  A    between atoms: C3_3  and  C4_4 
REMARK    3  A    between atoms: C4_4  and  O1_5 
REMARK    4  A    between atoms: C4_4  and  C5_6 
REMARK    5  A    between atoms: C5_6  and  C6_7 
REMARK    6  A    between atoms: C6_7  and  C8_9 
REMARK    7  A    between atoms: C29_33  and  O5_34 
REMARK    8  A    between atoms: C30_35  and  O7_37 
ROOT
HETATM    1  C8  UNL     1       3.256  12.842  20.152  1.00  0.00     0.006 C 
HETATM    2  C9  UNL     1       4.288  11.925  19.444  1.00  0.00     0.085 C 
HETATM    3  C10 UNL     1       3.521  11.393  18.250  1.00  0.00     0.140 C 
HETATM    4  O2  UNL     1       4.022  10.670  17.396  1.00  0.00    -0.297 OA
HETATM    5  C11 UNL     1       2.086  11.936  18.209  1.00  0.00     0.051 C 
HETATM    6  C12 UNL     1       2.206  13.184  17.286  1.00  0.00     0.029 C 
HETATM    7  C13 UNL     1       0.897  11.136  17.699  1.00  0.00    -0.024 C 
HETATM    8  C14 UNL     1      -0.364  11.542  18.008  1.00  0.00     0.003 C 
HETATM    9  C15 UNL     1      -0.532  12.650  19.042  1.00  0.00     0.157 C 
HETATM   10  O3  UNL     1      -1.627  13.183  19.226  1.00  0.00    -0.293 OA
HETATM   11  C16 UNL     1       0.660  13.128  19.873  1.00  0.00     0.094 C 
HETATM   12  C17 UNL     1       1.883  12.218  19.742  1.00  0.00    -0.015 C 
HETATM   13  C18 UNL     1       1.607  10.919  20.558  1.00  0.00     0.018 C 
HETATM   14  C19 UNL     1      -1.637  10.925  17.378  1.00  0.00    -0.008 C 
HETATM   15  C20 UNL     1      -2.314  10.083  18.484  1.00  0.00     0.021 C 
HETATM   16  C21 UNL     1      -2.636  12.029  16.898  1.00  0.00     0.022 C 
HETATM   17  C22 UNL     1      -3.499  11.678  15.689  1.00  0.00     0.080 C 
HETATM   18  C23 UNL     1      -3.712  10.192  15.557  1.00  0.00     0.135 C 
HETATM   19  O4  UNL     1      -4.845   9.719  15.491  1.00  0.00    -0.297 OA
HETATM   20  C24 UNL     1      -2.450   9.335  15.416  1.00  0.00     0.018 C 
HETATM   21  C25 UNL     1      -2.723   7.918  15.956  1.00  0.00     0.023 C 
HETATM   22  C26 UNL     1      -2.175   9.205  13.902  1.00  0.00     0.023 C 
HETATM   23  C27 UNL     1      -1.252  10.074  16.109  1.00  0.00     0.016 C 
HETATM   24  C28 UNL     1      -0.066   9.155  16.408  1.00  0.00     0.043 C 
HETATM   25  C29 UNL     1       1.175   9.952  16.807  1.00  0.00     0.149 C 
ENDROOT
BRANCH   1  26
HETATM   26  C6  UNL     1       3.638  13.169  21.632  1.00  0.00    -0.011 C 
HETATM   27  C7  UNL     1       2.471  13.376  22.603  1.00  0.00     0.010 C 
BRANCH  26  28
HETATM   28  C5  UNL     1       4.657  14.335  21.702  1.00  0.00     0.040 C 
BRANCH  28  29
HETATM   29  C4  UNL     1       5.460  14.511  23.006  1.00  0.00     0.142 C 
BRANCH  29  30
HETATM   30  C3  UNL     1       6.851  13.947  22.981  1.00  0.00     0.018 C 
HETATM   31  C2  UNL     1       7.192  12.644  23.071  1.00  0.00     0.010 C 
HETATM   32  C1  UNL     1       6.239  11.492  23.184  1.00  0.00     0.055 C 
BRANCH  31  33
HETATM   33  C30 UNL     1       8.645  12.340  23.036  1.00  0.00     0.171 C 
HETATM   34  O6  UNL     1       9.544  13.115  22.759  1.00  0.00    -0.646 OA
BRANCH  33  35
HETATM   35  O7  UNL     1       8.907  11.059  23.347  1.00  0.00    -0.773 OA
HETATM   36  H42 UNL     1       9.883  11.002  23.289  1.00  0.00     0.167 HD
ENDBRANCH  33  35
ENDBRANCH  31  33
ENDBRANCH  29  30
BRANCH  29  37
HETATM   37  O1  UNL     1       5.513  15.887  23.367  1.00  0.00    -0.392 OA
HETATM   38  H6  UNL     1       6.215  16.317  22.852  1.00  0.00     0.210 HD
ENDBRANCH  29  37
ENDBRANCH  28  29
ENDBRANCH  26  28
ENDBRANCH   1  26
BRANCH  25  39
HETATM   39  O5  UNL     1       2.007   9.036  17.510  1.00  0.00    -0.391 OA
HETATM   40  H41 UNL     1       2.930   9.241  17.245  1.00  0.00     0.210 HD
ENDBRANCH  25  39
TORSDOF 8
ENDMDL
