MODEL 1
REMARK minimizedAffinity -6.784585
REMARK CNNscore 0.754193366
REMARK CNNaffinity 6.43834686
REMARK  13 active torsions:
REMARK  status: ('A' for Active; 'I' for Inactive)
REMARK    1  A    between atoms: C2_2  and  C3_3 
REMARK    2  A    between atoms: C2_2  and  C14_14 
REMARK    3  A    between atoms: C4_4  and  C5_5 
REMARK    4  A    between atoms: C6_6  and  C8_8 
REMARK    5  A    between atoms: C8_8  and  C9_9 
REMARK    6  A    between atoms: C9_9  and  C10_10 
REMARK    7  A    between atoms: C18_18  and  C19_19 
REMARK    8  A    between atoms: C19_19  and  C20_20 
REMARK    9  A    between atoms: C20_20  and  C21_21 
REMARK   10  A    between atoms: C21_21  and  O1_22 
REMARK   11  A    between atoms: C23_24  and  C25_26 
REMARK   12  A    between atoms: C28_30  and  O3_32 
REMARK   13  A    between atoms: C30_33  and  O4_34 
ROOT
HETATM    1  C14 UNL     1     -10.036  45.525 -27.495  1.00  0.00     0.047 C 
HETATM    2  C15 UNL     1     -10.328  45.044 -28.925  1.00  0.00     0.013 C 
HETATM    3  C16 UNL     1     -11.784  45.411 -29.151  1.00  0.00     0.017 C 
HETATM    4  C17 UNL     1     -12.511  45.197 -27.779  1.00  0.00     0.024 C 
HETATM    5  C18 UNL     1     -13.433  46.482 -27.524  1.00  0.00     0.029 C 
HETATM    6  C22 UNL     1     -14.691  46.145 -26.705  1.00  0.00    -0.066 C 
HETATM    7  C23 UNL     1     -15.018  46.421 -25.421  1.00  0.00    -0.021 C 
HETATM    8  C24 UNL     1     -16.379  46.227 -24.804  1.00  0.00     0.052 C 
HETATM    9  C26 UNL     1     -15.629  45.283 -27.552  1.00  0.00     0.038 C 
HETATM   10  C27 UNL     1     -14.854  44.258 -28.407  1.00  0.00     0.042 C 
HETATM   11  C28 UNL     1     -13.463  43.903 -27.826  1.00  0.00     0.065 C 
HETATM   12  C29 UNL     1     -12.901  42.700 -28.608  1.00  0.00     0.047 C 
HETATM   13  C30 UNL     1     -11.318  45.051 -26.756  1.00  0.00     0.138 C 
ENDROOT
BRANCH   5  14
HETATM   14  C19 UNL     1     -12.831  47.922 -27.467  1.00  0.00     0.012 C 
BRANCH  14  15
HETATM   15  C20 UNL     1     -11.375  48.221 -27.805  1.00  0.00     0.027 C 
BRANCH  15  16
HETATM   16  C21 UNL     1     -10.595  48.733 -26.593  1.00  0.00     0.164 C 
BRANCH  16  17
HETATM   17  O1  UNL     1      -9.433  49.441 -26.998  1.00  0.00    -0.401 OA
HETATM   18  H32 UNL     1      -9.726  50.241 -27.471  1.00  0.00     0.209 HD
ENDBRANCH  16  17
ENDBRANCH  15  16
ENDBRANCH  14  15
ENDBRANCH   5  14
BRANCH  11  19
HETATM   19  O3  UNL     1     -13.670  43.434 -26.474  1.00  0.00    -0.389 OA
HETATM   20  H44 UNL     1     -14.300  42.689 -26.512  1.00  0.00     0.210 HD
ENDBRANCH  11  19
BRANCH  13  21
HETATM   21  O4  UNL     1     -11.127  43.703 -26.324  1.00  0.00    -0.394 OA
HETATM   22  H46 UNL     1     -11.992  43.415 -25.965  1.00  0.00     0.210 HD
ENDBRANCH  13  21
BRANCH   1  23
HETATM   23  C2  UNL     1      -8.680  45.083 -26.923  1.00  0.00    -0.061 C 
HETATM   24  C1  UNL     1      -8.091  43.921 -27.262  1.00  0.00     0.019 C 
BRANCH  23  25
HETATM   25  C3  UNL     1      -7.936  45.937 -25.993  1.00  0.00     0.007 C 
HETATM   26  C4  UNL     1      -7.239  47.052 -26.258  1.00  0.00     0.001 C 
BRANCH  26  27
HETATM   27  C5  UNL     1      -6.520  47.774 -25.226  1.00  0.00     0.002 C 
HETATM   28  C6  UNL     1      -5.291  48.324 -25.311  1.00  0.00    -0.084 C 
HETATM   29  C7  UNL     1      -4.408  48.336 -26.526  1.00  0.00     0.043 C 
BRANCH  28  30
HETATM   30  C8  UNL     1      -4.702  49.013 -24.091  1.00  0.00     0.037 C 
BRANCH  30  31
HETATM   31  C9  UNL     1      -3.223  48.657 -23.895  1.00  0.00     0.031 C 
BRANCH  31  32
HETATM   32  C10 UNL     1      -2.366  49.892 -23.802  1.00  0.00    -0.024 C 
HETATM   33  C11 UNL     1      -1.502  50.229 -22.826  1.00  0.00    -0.091 C 
HETATM   34  C12 UNL     1      -0.735  51.526 -22.896  1.00  0.00     0.042 C 
HETATM   35  C13 UNL     1      -1.203  49.400 -21.605  1.00  0.00     0.042 C 
ENDBRANCH  31  32
ENDBRANCH  30  31
ENDBRANCH  28  30
ENDBRANCH  26  27
ENDBRANCH  23  25
ENDBRANCH   1  23
BRANCH   7  36
HETATM   36  C25 UNL     1     -14.013  46.870 -24.423  1.00  0.00     0.265 C 
HETATM   37  O2  UNL     1     -12.891  47.260 -24.726  1.00  0.00    -0.302 OA
ENDBRANCH   7  36
TORSDOF 13
ENDMDL
