MODEL 1
REMARK minimizedAffinity -8.64807224
REMARK CNNscore 0.338504225
REMARK CNNaffinity 6.73004532
REMARK  13 active torsions:
REMARK  status: ('A' for Active; 'I' for Inactive)
REMARK    1  A    between atoms: C3_3  and  O1_4 
REMARK    2  A    between atoms: N1_14  and  O2_16 
REMARK    3  A    between atoms: O2_16  and  C13_17 
REMARK    4  A    between atoms: C13_17  and  C14_18 
REMARK       I    between atoms: C14_18  and  N2_20 
REMARK    5  A    between atoms: N2_20  and  C15_21 
REMARK    6  A    between atoms: C15_21  and  C16_22 
REMARK    7  A    between atoms: C15_21  and  C21_32 
REMARK       I    between atoms: C16_22  and  N3_24 
REMARK    8  A    between atoms: N3_24  and  C17_25 
REMARK    9  A    between atoms: C17_25  and  C18_26 
REMARK   10  A    between atoms: C17_25  and  C19_28 
REMARK   11  A    between atoms: C18_26  and  S1_27 
REMARK   12  A    between atoms: C19_28  and  C20_29 
REMARK   13  A    between atoms: C20_29  and  O6_31 
ROOT
HETATM    1  C1  UNL     1      -7.816  49.426 -23.483  1.00  0.00     0.015 C 
HETATM    2  C2  UNL     1      -6.618  49.362 -23.463  1.00  0.00    -0.078 C 
HETATM    3  C3  UNL     1      -5.154  49.221 -23.387  1.00  0.00     0.128 C 
HETATM    4  C4  UNL     1      -4.551  48.671 -24.678  1.00  0.00     0.052 C 
HETATM    5  C5  UNL     1      -3.059  48.992 -24.571  1.00  0.00     0.010 C 
HETATM    6  C6  UNL     1      -2.928  50.185 -23.602  1.00  0.00     0.002 C 
HETATM    7  C7  UNL     1      -1.871  50.011 -22.493  1.00  0.00    -0.004 C 
HETATM    8  C8  UNL     1      -1.960  48.777 -21.583  1.00  0.00     0.010 C 
HETATM    9  C9  UNL     1      -0.781  48.726 -20.609  1.00  0.00     0.035 C 
HETATM   10  C10 UNL     1      -0.557  50.012 -19.840  1.00  0.00    -0.069 C 
HETATM   11  C11 UNL     1      -0.268  49.967 -18.526  1.00  0.00     0.030 C 
HETATM   12  C12 UNL     1       0.081  51.189 -17.749  1.00  0.00     0.032 C 
HETATM   13  N1  UNL     1       0.305  51.066 -16.471  1.00  0.00    -0.271 N 
ATOM     14  H1  UNL     1       0.261  50.188 -15.956  1.00  0.00     0.194 HD
HETATM   15  C24 UNL     1       0.231  52.492 -18.519  1.00  0.00     0.060 C 
HETATM   16  C25 UNL     1      -0.759  52.532 -19.672  1.00  0.00     0.020 C 
HETATM   17  C26 UNL     1      -0.638  51.316 -20.638  1.00  0.00    -0.016 C 
HETATM   18  C27 UNL     1       0.674  51.475 -21.447  1.00  0.00     0.020 C 
HETATM   19  C28 UNL     1      -1.867  51.293 -21.633  1.00  0.00     0.002 C 
HETATM   20  C29 UNL     1      -3.230  51.446 -20.925  1.00  0.00     0.007 C 
HETATM   21  C30 UNL     1      -4.503  51.109 -21.723  1.00  0.00     0.014 C 
HETATM   22  C31 UNL     1      -4.371  50.554 -23.158  1.00  0.00     0.003 C 
HETATM   23  C32 UNL     1      -4.879  51.665 -24.130  1.00  0.00     0.020 C 
ENDROOT
BRANCH   3  24
HETATM   24  O1  UNL     1      -4.864  48.261 -22.371  1.00  0.00    -0.377 OA
HETATM   25  H2  UNL     1      -5.434  48.449 -21.613  1.00  0.00     0.211 HD
ENDBRANCH   3  24
BRANCH  13  26
HETATM   26  O2  UNL     1       0.614  52.308 -15.905  1.00  0.00    -0.271 OA
BRANCH  26  27
HETATM   27  C13 UNL     1       1.503  52.136 -14.812  1.00  0.00     0.303 C 
BRANCH  27  28
HETATM   28  C14 UNL     1       0.673  52.218 -13.539  1.00  0.00     0.244 C 
HETATM   29  O3  UNL     1      -0.519  51.918 -13.480  1.00  0.00    -0.271 OA
HETATM   30  N2  UNL     1       1.350  52.670 -12.425  1.00  0.00    -0.346 N 
HETATM   31  H16 UNL     1       2.357  52.779 -12.446  1.00  0.00     0.163 HD
BRANCH  30  32
HETATM   32  C15 UNL     1       0.683  52.822 -11.119  1.00  0.00     0.180 C 
BRANCH  32  33
HETATM   33  C16 UNL     1       1.608  53.682 -10.215  1.00  0.00     0.241 C 
HETATM   34  O4  UNL     1       1.934  53.353  -9.074  1.00  0.00    -0.271 OA
HETATM   35  N3  UNL     1       2.090  54.827 -10.835  1.00  0.00    -0.353 N 
HETATM   36  H18 UNL     1       1.810  54.990 -11.800  1.00  0.00     0.163 HD
BRANCH  35  37
HETATM   37  C17 UNL     1       2.956  55.786 -10.152  1.00  0.00     0.103 C 
BRANCH  37  38
HETATM   38  C18 UNL     1       4.413  55.730 -10.680  1.00  0.00     0.096 C 
BRANCH  38  39
HETATM   39  S1  UNL     1       5.581  54.758  -9.677  1.00  0.00    -0.180 SA
HETATM   40  H22 UNL     1       6.497  54.575 -10.643  1.00  0.00     0.101 HD
ENDBRANCH  38  39
ENDBRANCH  37  38
BRANCH  37  41
HETATM   41  C19 UNL     1       2.981  55.503  -8.637  1.00  0.00     0.136 C 
BRANCH  41  42
HETATM   42  C20 UNL     1       2.134  56.460  -7.840  1.00  0.00     0.141 C 
HETATM   43  O5  UNL     1       2.489  57.305  -7.037  1.00  0.00    -0.650 OA
BRANCH  42  44
HETATM   44  O6  UNL     1       0.822  56.301  -8.125  1.00  0.00    -0.776 OA
HETATM   45  H25 UNL     1       0.375  56.998  -7.599  1.00  0.00     0.167 HD
ENDBRANCH  42  44
ENDBRANCH  41  42
ENDBRANCH  37  41
ENDBRANCH  35  37
ENDBRANCH  32  33
BRANCH  32  46
HETATM   46  C21 UNL     1      -0.733  53.430 -11.272  1.00  0.00     0.009 C 
HETATM   47  C22 UNL     1      -0.849  54.762 -10.521  1.00  0.00     0.012 C 
HETATM   48  C23 UNL     1      -1.832  52.489 -10.757  1.00  0.00     0.012 C 
ENDBRANCH  32  46
ENDBRANCH  30  32
ENDBRANCH  27  28
ENDBRANCH  26  27
ENDBRANCH  13  26
TORSDOF 13
ENDMDL
