MODEL 1
REMARK minimizedAffinity -7.13182354
REMARK CNNscore 0.577286065
REMARK CNNaffinity 6.34888458
REMARK  6 active torsions:
REMARK  status: ('A' for Active; 'I' for Inactive)
REMARK    1  A    between atoms: C2_2  and  C3_3 
REMARK    2  A    between atoms: C2_2  and  C9_11 
REMARK    3  A    between atoms: C3_3  and  C4_4 
REMARK    4  A    between atoms: C5_5  and  C6_6 
REMARK    5  A    between atoms: C6_6  and  O1_9 
REMARK    6  A    between atoms: O1_9  and  O2_10 
ROOT
HETATM    1  C9  UNL     1     -17.063   2.310  14.937  1.00  0.00    -0.001 C 
HETATM    2  C10 UNL     1     -17.961   2.149  16.197  1.00  0.00     0.007 C 
HETATM    3  C11 UNL     1     -18.061   0.643  16.503  1.00  0.00     0.024 C 
HETATM    4  C12 UNL     1     -17.072  -0.002  15.560  1.00  0.00     0.092 C 
HETATM    5  C13 UNL     1     -15.646  -0.049  16.170  1.00  0.00     0.272 C 
HETATM    6  O3  UNL     1     -15.163   0.700  17.000  1.00  0.00    -0.264 OA
HETATM    7  O4  UNL     1     -14.965  -1.109  15.599  1.00  0.00    -0.305 OA
HETATM    8  C14 UNL     1     -15.834  -1.767  14.645  1.00  0.00     0.113 C 
HETATM    9  C15 UNL     1     -15.659  -1.009  13.290  1.00  0.00     0.043 C 
HETATM   10  C16 UNL     1     -15.852   0.529  13.409  1.00  0.00     0.014 C 
HETATM   11  C17 UNL     1     -17.084   0.896  14.277  1.00  0.00    -0.020 C 
HETATM   12  C18 UNL     1     -18.351   0.698  13.415  1.00  0.00     0.017 C 
HETATM   13  C19 UNL     1     -17.173  -1.437  15.219  1.00  0.00     0.137 A 
HETATM   14  O5  UNL     1     -18.362  -2.022  14.729  1.00  0.00    -0.364 OA
HETATM   15  C20 UNL     1     -17.945  -2.427  16.051  1.00  0.00     0.162 A 
HETATM   16  C21 UNL     1     -17.491  -3.845  16.152  1.00  0.00     0.041 C 
HETATM   17  C22 UNL     1     -15.967  -3.989  15.944  1.00  0.00     0.010 C 
HETATM   18  C23 UNL     1     -15.520  -5.473  16.067  1.00  0.00     0.056 C 
HETATM   19  C24 UNL     1     -15.865  -6.089  17.427  1.00  0.00     0.018 C 
HETATM   20  C25 UNL     1     -14.020  -5.583  15.811  1.00  0.00     0.131 C 
HETATM   21  O6  UNL     1     -13.259  -6.208  16.547  1.00  0.00    -0.298 OA
HETATM   22  C26 UNL     1     -13.512  -4.956  14.537  1.00  0.00     0.079 C 
HETATM   23  C27 UNL     1     -13.961  -3.503  14.465  1.00  0.00     0.020 C 
HETATM   24  C28 UNL     1     -15.503  -3.308  14.595  1.00  0.00    -0.004 C 
HETATM   25  C29 UNL     1     -16.185  -3.968  13.368  1.00  0.00     0.019 C 
ENDROOT
BRANCH   1  26
HETATM   26  C2  UNL     1     -17.328   3.623  14.143  1.00  0.00    -0.010 C 
HETATM   27  C1  UNL     1     -17.698   3.476  12.659  1.00  0.00     0.010 C 
BRANCH  26  28
HETATM   28  C3  UNL     1     -16.175   4.636  14.321  1.00  0.00     0.031 C 
BRANCH  28  29
HETATM   29  C4  UNL     1     -16.434   5.953  13.636  1.00  0.00    -0.027 C 
HETATM   30  C5  UNL     1     -15.464   6.753  13.164  1.00  0.00     0.009 C 
BRANCH  30  31
HETATM   31  C6  UNL     1     -15.628   8.090  12.460  1.00  0.00     0.106 C 
HETATM   32  C7  UNL     1     -14.470   9.087  12.625  1.00  0.00     0.053 C 
HETATM   33  C8  UNL     1     -16.913   8.751  12.983  1.00  0.00     0.053 C 
BRANCH  31  34
HETATM   34  O1  UNL     1     -15.865   7.834  11.059  1.00  0.00    -0.229 OA
BRANCH  34  35
HETATM   35  O2  UNL     1     -16.310   9.083  10.441  1.00  0.00    -0.249 OA
HETATM   36  H15 UNL     1     -15.441   9.350  10.093  1.00  0.00     0.253 HD
ENDBRANCH  34  35
ENDBRANCH  31  34
ENDBRANCH  30  31
ENDBRANCH  28  29
ENDBRANCH  26  28
ENDBRANCH   1  26
TORSDOF 6
ENDMDL
