MODEL 1
REMARK minimizedAffinity -9.90746498
REMARK  6 active torsions:
REMARK  status: ('A' for Active; 'I' for Inactive)
REMARK    1  A    between atoms: C2_2  and  C30_32 
REMARK    2  A    between atoms: C3_3  and  C4_4 
REMARK    3  A    between atoms: C4_4  and  C5_6 
REMARK    4  A    between atoms: C5_6  and  C6_7 
REMARK    5  A    between atoms: C6_7  and  C8_9 
REMARK    6  A    between atoms: C30_32  and  O4_34 
ROOT
HETATM    1  C8  UNL     1      -2.655  50.943 -24.729  1.00  0.00    -0.001 C 
HETATM    2  C9  UNL     1      -3.036  51.679 -26.010  1.00  0.00     0.007 C 
HETATM    3  C10 UNL     1      -3.547  50.603 -26.971  1.00  0.00     0.015 C 
HETATM    4  C11 UNL     1      -3.656  49.257 -26.184  1.00  0.00    -0.013 C 
HETATM    5  C12 UNL     1      -2.430  48.369 -26.533  1.00  0.00     0.021 C 
HETATM    6  C13 UNL     1      -4.921  48.488 -26.618  1.00  0.00    -0.070 C 
HETATM    7  C14 UNL     1      -5.161  48.238 -27.919  1.00  0.00    -0.022 C 
HETATM    8  C15 UNL     1      -6.261  47.374 -28.439  1.00  0.00     0.034 C 
HETATM    9  C16 UNL     1      -6.926  46.469 -27.373  1.00  0.00     0.013 C 
HETATM   10  C17 UNL     1      -8.189  45.710 -27.934  1.00  0.00     0.018 C 
HETATM   11  C18 UNL     1      -8.206  45.561 -29.471  1.00  0.00     0.023 C 
HETATM   12  C19 UNL     1      -8.247  44.274 -27.365  1.00  0.00     0.023 C 
HETATM   13  C20 UNL     1      -9.469  46.464 -27.556  1.00  0.00     0.135 C 
HETATM   14  O2  UNL     1     -10.562  45.901 -27.483  1.00  0.00    -0.297 OA
HETATM   15  C21 UNL     1      -9.365  47.961 -27.377  1.00  0.00     0.080 C 
HETATM   16  C22 UNL     1      -8.277  48.384 -26.391  1.00  0.00     0.017 C 
HETATM   17  C23 UNL     1      -7.204  47.303 -26.069  1.00  0.00    -0.031 C 
HETATM   18  C24 UNL     1      -7.745  46.413 -24.918  1.00  0.00     0.016 C 
HETATM   19  C25 UNL     1      -5.838  47.935 -25.543  1.00  0.00     0.024 C 
HETATM   20  C26 UNL     1      -6.057  48.920 -24.369  1.00  0.00     0.010 C 
HETATM   21  C27 UNL     1      -5.081  50.093 -24.284  1.00  0.00     0.011 C 
HETATM   22  C28 UNL     1      -3.640  49.726 -24.674  1.00  0.00    -0.029 C 
HETATM   23  C29 UNL     1      -3.095  48.680 -23.678  1.00  0.00     0.016 C 
ENDROOT
BRANCH   1  24
HETATM   24  C6  UNL     1      -2.359  51.814 -23.473  1.00  0.00    -0.007 C 
HETATM   25  C7  UNL     1      -2.681  51.011 -22.197  1.00  0.00     0.011 C 
BRANCH  24  26
HETATM   26  C5  UNL     1      -1.014  52.542 -23.310  1.00  0.00     0.087 C 
BRANCH  26  27
HETATM   27  C4  UNL     1      -0.335  53.077 -24.557  1.00  0.00     0.150 C 
HETATM   28  O1  UNL     1      -0.777  54.053 -25.157  1.00  0.00    -0.293 OA
BRANCH  27  29
HETATM   29  C3  UNL     1       0.926  52.407 -24.989  1.00  0.00     0.063 C 
HETATM   30  C2  UNL     1       1.216  52.064 -26.259  1.00  0.00     0.015 C 
HETATM   31  C1  UNL     1       0.311  52.235 -27.447  1.00  0.00     0.055 C 
BRANCH  30  32
HETATM   32  C30 UNL     1       2.528  51.443 -26.562  1.00  0.00     0.171 C 
HETATM   33  O3  UNL     1       2.998  50.467 -26.006  1.00  0.00    -0.646 OA
BRANCH  32  34
HETATM   34  O4  UNL     1       3.211  52.061 -27.542  1.00  0.00    -0.773 OA
HETATM   35  H44 UNL     1       4.031  51.529 -27.612  1.00  0.00     0.167 HD
ENDBRANCH  32  34
ENDBRANCH  30  32
ENDBRANCH  27  29
ENDBRANCH  26  27
ENDBRANCH  24  26
ENDBRANCH   1  24
TORSDOF 6
ENDMDL
