MODEL 1
REMARK minimizedAffinity -7.32525158
REMARK CNNscore 0.589981616
REMARK CNNaffinity 6.97138166
REMARK  20 active torsions:
REMARK  status: ('A' for Active; 'I' for Inactive)
REMARK    1  A    between atoms: C2_2  and  C18_24 
REMARK    2  A    between atoms: C3_3  and  C4_4 
REMARK    3  A    between atoms: C4_4  and  O2_6 
REMARK    4  A    between atoms: O2_6  and  C5_7 
REMARK    5  A    between atoms: C5_7  and  C6_8 
REMARK    6  A    between atoms: C6_8  and  C7_9 
REMARK    7  A    between atoms: C7_9  and  C8_10 
REMARK    8  A    between atoms: C8_10  and  C9_11 
REMARK    9  A    between atoms: C9_11  and  C10_12 
REMARK   10  A    between atoms: C10_12  and  C11_13 
REMARK   11  A    between atoms: C11_13  and  C12_14 
REMARK       I    between atoms: C12_14  and  N1_16 
REMARK   12  A    between atoms: N1_16  and  C13_17 
REMARK   13  A    between atoms: C18_24  and  C19_25 
REMARK   14  A    between atoms: C21_28  and  C22_29 
REMARK   15  A    between atoms: C22_29  and  C23_30 
REMARK   16  A    between atoms: C24_31  and  C25_32 
REMARK   17  A    between atoms: C25_32  and  C27_34 
REMARK   18  A    between atoms: C27_34  and  O6_36 
REMARK   19  A    between atoms: C29_37  and  O7_38 
REMARK   20  A    between atoms: C30_39  and  O8_40 
ROOT
HETATM    1  C1  UNL     1      -5.786   1.657  10.925  1.00  0.00     0.043 C 
HETATM    2  C2  UNL     1      -5.445   3.036  11.430  1.00  0.00    -0.075 C 
HETATM    3  C3  UNL     1      -6.217   3.759  12.268  1.00  0.00     0.084 C 
ENDROOT
BRANCH   3   4
HETATM    4  C4  UNL     1      -7.579   3.442  12.755  1.00  0.00     0.283 C 
HETATM    5  O1  UNL     1      -7.874   2.349  13.216  1.00  0.00    -0.260 OA
BRANCH   4   6
HETATM    6  O2  UNL     1      -8.369   4.540  12.729  1.00  0.00    -0.318 OA
BRANCH   6   7
HETATM    7  C5  UNL     1      -7.698   5.772  13.025  1.00  0.00     0.179 C 
BRANCH   7   8
HETATM    8  C6  UNL     1      -7.611   5.890  14.542  1.00  0.00     0.027 C 
BRANCH   8   9
HETATM    9  C7  UNL     1      -6.269   6.421  15.043  1.00  0.00     0.002 C 
BRANCH   9  10
HETATM   10  C8  UNL     1      -6.349   7.881  15.501  1.00  0.00     0.000 C 
BRANCH  10  11
HETATM   11  C9  UNL     1      -5.298   8.781  14.848  1.00  0.00     0.000 C 
BRANCH  11  12
HETATM   12  C10 UNL     1      -4.966   8.478  13.383  1.00  0.00     0.009 C 
BRANCH  12  13
HETATM   13  C11 UNL     1      -3.509   8.126  13.088  1.00  0.00     0.103 C 
BRANCH  13  14
HETATM   14  C12 UNL     1      -2.535   9.273  13.293  1.00  0.00     0.218 C 
HETATM   15  O3  UNL     1      -1.698   9.620  12.470  1.00  0.00    -0.274 OA
HETATM   16  N1  UNL     1      -2.670   9.874  14.528  1.00  0.00    -0.348 N 
HETATM   17  H19 UNL     1      -3.545   9.726  15.020  1.00  0.00     0.163 HD
BRANCH  16  18
HETATM   18  C13 UNL     1      -1.943  11.101  14.837  1.00  0.00     0.176 C 
HETATM   19  C14 UNL     1      -0.614  10.859  15.561  1.00  0.00     0.036 C 
HETATM   20  C15 UNL     1      -0.779  10.338  16.992  1.00  0.00     0.022 C 
HETATM   21  C16 UNL     1      -2.140  10.644  17.603  1.00  0.00     0.122 C 
HETATM   22  N2  UNL     1      -2.739  11.836  17.055  1.00  0.00    -0.359 N 
HETATM   23  C17 UNL     1      -2.838  12.009  15.694  1.00  0.00     0.240 C 
HETATM   24  H27 UNL     1      -3.441  12.338  17.586  1.00  0.00     0.162 HD
HETATM   25  O4  UNL     1      -3.684  12.763  15.219  1.00  0.00    -0.271 OA
ENDBRANCH  16  18
ENDBRANCH  13  14
ENDBRANCH  12  13
ENDBRANCH  11  12
ENDBRANCH  10  11
ENDBRANCH   9  10
ENDBRANCH   8   9
ENDBRANCH   7   8
ENDBRANCH   6   7
ENDBRANCH   4   6
ENDBRANCH   3   4
BRANCH   2  26
HETATM   26  C18 UNL     1      -4.115   3.599  10.949  1.00  0.00     0.068 C 
BRANCH  26  27
HETATM   27  C19 UNL     1      -3.007   3.483  12.015  1.00  0.00     0.156 C 
HETATM   28  O5  UNL     1      -2.958   4.732  12.743  1.00  0.00    -0.382 OA
HETATM   29  C20 UNL     1      -1.798   4.816  13.572  1.00  0.00     0.175 C 
HETATM   30  C21 UNL     1      -0.555   5.040  12.698  1.00  0.00     0.044 C 
HETATM   31  C29 UNL     1      -0.774   4.438  11.294  1.00  0.00     0.155 C 
HETATM   32  C30 UNL     1      -1.641   3.173  11.365  1.00  0.00     0.176 C 
BRANCH  30  33
HETATM   33  C22 UNL     1      -0.209   6.540  12.579  1.00  0.00     0.036 C 
BRANCH  33  34
HETATM   34  C23 UNL     1       0.358   6.896  11.228  1.00  0.00    -0.030 C 
HETATM   35  C24 UNL     1       1.398   7.727  11.045  1.00  0.00    -0.024 C 
BRANCH  35  36
HETATM   36  C25 UNL     1       2.031   8.131   9.724  1.00  0.00     0.032 C 
HETATM   37  C26 UNL     1       3.410   7.517   9.443  1.00  0.00     0.017 C 
BRANCH  36  38
HETATM   38  C27 UNL     1       1.045   7.919   8.545  1.00  0.00     0.121 C 
HETATM   39  C28 UNL     1       1.714   7.619   7.208  1.00  0.00     0.040 C 
BRANCH  38  40
HETATM   40  O6  UNL     1       0.221   9.076   8.367  1.00  0.00    -0.395 OA
HETATM   41  H46 UNL     1      -0.238   9.237   9.208  1.00  0.00     0.210 HD
ENDBRANCH  38  40
ENDBRANCH  36  38
ENDBRANCH  35  36
ENDBRANCH  33  34
ENDBRANCH  30  33
BRANCH  31  42
HETATM   42  O7  UNL     1       0.494   4.070  10.728  1.00  0.00    -0.392 OA
HETATM   43  H48 UNL     1       0.980   4.892  10.538  1.00  0.00     0.210 HD
ENDBRANCH  31  42
BRANCH  32  44
HETATM   44  O8  UNL     1      -0.944   2.200  12.167  1.00  0.00    -0.390 OA
HETATM   45  H50 UNL     1      -0.037   2.175  11.799  1.00  0.00     0.210 HD
ENDBRANCH  32  44
ENDBRANCH  26  27
ENDBRANCH   2  26
TORSDOF 20
ENDMDL
