MODEL 1
REMARK minimizedAffinity -6.37869692
REMARK CNNscore 0.528418541
REMARK CNNaffinity 6.45390892
REMARK  9 active torsions:
REMARK  status: ('A' for Active; 'I' for Inactive)
REMARK    1  A    between atoms: C12_14  and  C13_15 
REMARK    2  A    between atoms: C13_15  and  C15_17 
REMARK    3  A    between atoms: C15_17  and  C16_18 
REMARK    4  A    between atoms: C16_18  and  C17_19 
REMARK    5  A    between atoms: C18_20  and  C20_22 
REMARK    6  A    between atoms: C26_29  and  C27_30 
REMARK    7  A    between atoms: C27_30  and  C28_31 
REMARK    8  A    between atoms: C28_31  and  C29_32 
REMARK    9  A    between atoms: C29_32  and  O5_34 
ROOT
HETATM    1  C1  UNL     1       7.095  11.757  23.156  1.00  0.00     0.025 C 
HETATM    2  C2  UNL     1       6.290  12.780  22.840  1.00  0.00     0.015 C 
HETATM    3  C3  UNL     1       6.826  14.133  22.581  1.00  0.00     0.289 C 
HETATM    4  O1  UNL     1       7.978  14.496  22.732  1.00  0.00    -0.260 OA
HETATM    5  O2  UNL     1       5.799  14.915  22.161  1.00  0.00    -0.311 OA
HETATM    6  C4  UNL     1       4.622  14.121  21.915  1.00  0.00     0.142 C 
HETATM    7  C5  UNL     1       4.453  13.988  20.407  1.00  0.00     0.039 C 
HETATM    8  C6  UNL     1       3.367  13.005  19.942  1.00  0.00     0.006 C 
HETATM    9  C7  UNL     1       3.371  11.672  20.728  1.00  0.00    -0.027 A 
HETATM   10  C8  UNL     1       2.238  10.697  20.347  1.00  0.00     0.011 C 
HETATM   11  C9  UNL     1       0.860  11.335  20.109  1.00  0.00     0.011 C 
HETATM   12  C10 UNL     1       0.955  12.542  19.164  1.00  0.00    -0.032 C 
HETATM   13  C11 UNL     1       1.454  12.038  17.781  1.00  0.00     0.016 C 
HETATM   14  C12 UNL     1      -0.340  13.398  18.960  1.00  0.00    -0.002 C 
HETATM   15  C21 UNL     1       0.219  14.817  18.631  1.00  0.00     0.006 C 
HETATM   16  C22 UNL     1       1.726  14.804  18.949  1.00  0.00     0.011 C 
HETATM   17  C23 UNL     1       1.920  13.586  19.866  1.00  0.00    -0.032 C 
HETATM   18  C24 UNL     1       1.450  14.017  21.293  1.00  0.00     0.016 C 
HETATM   19  C25 UNL     1       4.703  10.972  20.858  1.00  0.00     0.022 A 
HETATM   20  C26 UNL     1       4.097  11.588  22.108  1.00  0.00    -0.021 A 
HETATM   21  C30 UNL     1       4.804  12.823  22.687  1.00  0.00     0.063 C 
ENDROOT
BRANCH  14  22
HETATM   22  C13 UNL     1      -1.524  12.972  18.037  1.00  0.00    -0.014 C 
HETATM   23  C14 UNL     1      -1.233  11.900  16.975  1.00  0.00     0.010 C 
BRANCH  22  24
HETATM   24  C15 UNL     1      -2.816  12.577  18.787  1.00  0.00     0.008 C 
BRANCH  24  25
HETATM   25  C16 UNL     1      -3.782  13.741  19.028  1.00  0.00     0.028 C 
BRANCH  25  26
HETATM   26  C17 UNL     1      -4.954  13.670  18.087  1.00  0.00    -0.017 C 
HETATM   27  C18 UNL     1      -6.208  14.098  18.327  1.00  0.00    -0.028 C 
HETATM   28  C19 UNL     1      -6.720  14.773  19.561  1.00  0.00     0.051 C 
BRANCH  27  29
HETATM   29  C20 UNL     1      -7.210  13.900  17.239  1.00  0.00     0.265 C 
HETATM   30  O3  UNL     1      -7.784  14.832  16.690  1.00  0.00    -0.302 OA
ENDBRANCH  27  29
ENDBRANCH  25  26
ENDBRANCH  24  25
ENDBRANCH  22  24
ENDBRANCH  14  22
BRANCH  20  31
HETATM   31  C27 UNL     1       3.481  10.699  23.200  1.00  0.00     0.021 C 
BRANCH  31  32
HETATM   32  C28 UNL     1       3.721   9.201  23.044  1.00  0.00     0.111 C 
BRANCH  32  33
HETATM   33  C29 UNL     1       2.428   8.455  23.189  1.00  0.00     0.139 C 
HETATM   34  O4  UNL     1       1.864   7.816  22.318  1.00  0.00    -0.650 OA
BRANCH  33  35
HETATM   35  O5  UNL     1       1.922   8.522  24.435  1.00  0.00    -0.776 OA
HETATM   36  H41 UNL     1       1.095   7.997  24.385  1.00  0.00     0.167 HD
ENDBRANCH  33  35
ENDBRANCH  32  33
ENDBRANCH  31  32
ENDBRANCH  20  31
TORSDOF 9
ENDMDL
