MODEL 1
REMARK minimizedAffinity -7.25995159
REMARK CNNscore 0.718739033
REMARK CNNaffinity 7.13989782
REMARK  9 active torsions:
REMARK  status: ('A' for Active; 'I' for Inactive)
REMARK    1  A    between atoms: C2_2  and  C3_3 
REMARK    2  A    between atoms: C2_2  and  C9_12 
REMARK    3  A    between atoms: C3_3  and  C4_4 
REMARK    4  A    between atoms: C4_4  and  C5_5 
REMARK    5  A    between atoms: C5_5  and  O1_6 
REMARK    6  A    between atoms: C5_5  and  C6_7 
REMARK    7  A    between atoms: C6_7  and  O2_9 
REMARK    8  A    between atoms: C6_7  and  C8_10 
REMARK    9  A    between atoms: C8_10  and  O3_11 
ROOT
HETATM    1  C9  UNL     1      -2.302  53.420  -9.929  1.00  0.00    -0.002 C 
HETATM    2  C10 UNL     1      -2.451  52.821  -8.500  1.00  0.00     0.007 C 
HETATM    3  C11 UNL     1      -1.243  53.306  -7.677  1.00  0.00     0.015 C 
HETATM    4  C12 UNL     1      -0.126  53.466  -8.724  1.00  0.00    -0.013 C 
HETATM    5  C13 UNL     1       0.396  52.024  -9.028  1.00  0.00     0.021 C 
HETATM    6  C14 UNL     1       1.135  54.251  -8.347  1.00  0.00    -0.070 C 
HETATM    7  C15 UNL     1       1.654  54.186  -7.107  1.00  0.00    -0.022 C 
HETATM    8  C16 UNL     1       3.050  54.620  -6.785  1.00  0.00     0.034 C 
HETATM    9  C17 UNL     1       3.948  54.475  -8.032  1.00  0.00     0.013 C 
HETATM   10  C18 UNL     1       5.486  54.561  -7.721  1.00  0.00     0.018 C 
HETATM   11  C19 UNL     1       5.904  53.315  -6.896  1.00  0.00     0.023 C 
HETATM   12  C20 UNL     1       5.932  55.796  -6.920  1.00  0.00     0.023 C 
HETATM   13  C21 UNL     1       6.280  54.533  -9.038  1.00  0.00     0.135 C 
HETATM   14  O4  UNL     1       7.355  53.936  -9.143  1.00  0.00    -0.297 OA
HETATM   15  C22 UNL     1       5.772  55.367 -10.187  1.00  0.00     0.080 C 
HETATM   16  C23 UNL     1       4.295  55.112 -10.444  1.00  0.00     0.017 C 
HETATM   17  C24 UNL     1       3.394  55.355  -9.208  1.00  0.00    -0.031 C 
HETATM   18  C25 UNL     1       3.421  56.875  -8.882  1.00  0.00     0.016 C 
HETATM   19  C26 UNL     1       1.853  55.000  -9.483  1.00  0.00     0.024 C 
HETATM   20  C27 UNL     1       1.512  54.412 -10.872  1.00  0.00     0.010 C 
HETATM   21  C28 UNL     1      -0.001  54.174 -11.151  1.00  0.00     0.011 C 
HETATM   22  C29 UNL     1      -0.901  54.153  -9.900  1.00  0.00    -0.029 C 
HETATM   23  C30 UNL     1      -1.300  55.646  -9.582  1.00  0.00     0.016 C 
ENDROOT
BRANCH   1  24
HETATM   24  C2  UNL     1      -2.765  52.471 -11.073  1.00  0.00    -0.014 C 
HETATM   25  C1  UNL     1      -3.824  53.019 -12.032  1.00  0.00     0.010 C 
BRANCH  24  26
HETATM   26  C3  UNL     1      -3.176  51.050 -10.605  1.00  0.00     0.007 C 
BRANCH  26  27
HETATM   27  C4  UNL     1      -4.692  50.803 -10.622  1.00  0.00     0.035 C 
BRANCH  27  28
HETATM   28  C5  UNL     1      -5.186  49.640  -9.738  1.00  0.00     0.154 C 
BRANCH  28  29
HETATM   29  O1  UNL     1      -4.062  48.798  -9.419  1.00  0.00    -0.392 OA
HETATM   30  H10 UNL     1      -3.383  49.366  -9.011  1.00  0.00     0.210 HD
ENDBRANCH  28  29
BRANCH  28  31
HETATM   31  C6  UNL     1      -6.306  48.734 -10.328  1.00  0.00     0.101 C 
HETATM   32  C7  UNL     1      -5.863  48.027 -11.610  1.00  0.00     0.051 C 
BRANCH  31  33
HETATM   33  O2  UNL     1      -6.657  47.728  -9.361  1.00  0.00    -0.385 OA
HETATM   34  H14 UNL     1      -6.663  48.194  -8.502  1.00  0.00     0.210 HD
ENDBRANCH  31  33
BRANCH  31  35
HETATM   35  C8  UNL     1      -7.582  49.566 -10.601  1.00  0.00     0.204 C 
BRANCH  35  36
HETATM   36  O3  UNL     1      -8.021  50.272  -9.444  1.00  0.00    -0.398 OA
HETATM   37  H17 UNL     1      -8.918  49.949  -9.239  1.00  0.00     0.209 HD
ENDBRANCH  35  36
ENDBRANCH  31  35
ENDBRANCH  28  31
ENDBRANCH  27  28
ENDBRANCH  26  27
ENDBRANCH  24  26
ENDBRANCH   1  24
TORSDOF 9
ENDMDL
