MODEL 1
REMARK minimizedAffinity -7.25701618
REMARK CNNscore 0.397095084
REMARK CNNaffinity 6.33840179
REMARK  4 active torsions:
REMARK  status: ('A' for Active; 'I' for Inactive)
REMARK    1  A    between atoms: C4_4  and  C5_5 
REMARK    2  A    between atoms: C5_5  and  C6_7 
REMARK    3  A    between atoms: C6_7  and  C7_8 
REMARK    4  A    between atoms: C7_8  and  C8_9 
ROOT
HETATM    1  C8  UNL     1      -0.863   7.621  13.751  1.00  0.00     0.028 C 
HETATM    2  C9  UNL     1      -1.025   6.636  14.948  1.00  0.00     0.009 C 
HETATM    3  C10 UNL     1      -1.297   7.484  16.198  1.00  0.00     0.011 C 
HETATM    4  C11 UNL     1      -1.939   8.771  15.655  1.00  0.00    -0.032 C 
HETATM    5  C12 UNL     1      -3.409   8.402  15.251  1.00  0.00     0.016 C 
HETATM    6  C13 UNL     1      -1.037   9.011  14.412  1.00  0.00     0.001 C 
HETATM    7  C14 UNL     1      -1.603  10.158  13.578  1.00  0.00     0.006 C 
HETATM    8  C15 UNL     1      -1.686  11.446  14.417  1.00  0.00     0.006 C 
HETATM    9  C16 UNL     1      -2.449  11.287  15.766  1.00  0.00     0.003 C 
HETATM   10  C17 UNL     1      -2.658  12.648  16.567  1.00  0.00    -0.035 C 
HETATM   11  C18 UNL     1      -1.353  13.488  16.568  1.00  0.00     0.016 C 
HETATM   12  C19 UNL     1      -3.717  13.519  15.805  1.00  0.00     0.017 C 
HETATM   13  C20 UNL     1      -5.151  13.292  16.250  1.00  0.00     0.080 C 
HETATM   14  C21 UNL     1      -5.330  13.634  17.710  1.00  0.00     0.135 C 
HETATM   15  O2  UNL     1      -6.423  14.032  18.120  1.00  0.00    -0.297 OA
HETATM   16  C22 UNL     1      -4.130  13.452  18.645  1.00  0.00     0.017 C 
HETATM   17  C23 UNL     1      -3.457  14.827  18.830  1.00  0.00     0.023 C 
HETATM   18  C24 UNL     1      -4.654  13.040  20.042  1.00  0.00     0.023 C 
HETATM   19  C25 UNL     1      -3.144  12.367  18.052  1.00  0.00     0.009 C 
HETATM   20  C26 UNL     1      -3.739  10.939  18.180  1.00  0.00     0.007 C 
HETATM   21  C27 UNL     1      -2.731   9.836  17.884  1.00  0.00     0.011 C 
HETATM   22  C28 UNL     1      -1.892  10.059  16.600  1.00  0.00    -0.032 C 
HETATM   23  C29 UNL     1      -0.445  10.341  17.100  1.00  0.00     0.016 C 
ENDROOT
BRANCH   1  24
HETATM   24  C7  UNL     1       0.443   7.451  12.962  1.00  0.00     0.093 A 
HETATM   25  C30 UNL     1       1.775   7.551  13.703  1.00  0.00     0.207 A 
HETATM   26  O3  UNL     1       1.264   8.628  12.899  1.00  0.00    -0.374 OA
BRANCH  24  27
HETATM   27  C6  UNL     1       0.367   6.677  11.661  1.00  0.00     0.123 C 
BRANCH  27  28
HETATM   28  C5  UNL     1       0.831   7.388  10.411  1.00  0.00     0.152 C 
HETATM   29  O1  UNL     1       0.764   8.619  10.330  1.00  0.00    -0.293 OA
BRANCH  28  30
HETATM   30  C4  UNL     1       1.457   6.664   9.263  1.00  0.00     0.052 C 
HETATM   31  C2  UNL     1       2.180   7.067   8.199  1.00  0.00    -0.084 C 
HETATM   32  C1  UNL     1       2.621   6.045   7.175  1.00  0.00     0.043 C 
HETATM   33  C3  UNL     1       2.652   8.460   7.890  1.00  0.00     0.043 C 
ENDBRANCH  28  30
ENDBRANCH  27  28
ENDBRANCH  24  27
ENDBRANCH   1  24
TORSDOF 4
ENDMDL
