MODEL 1
REMARK minimizedAffinity -6.3460145
REMARK CNNscore 0.901699185
REMARK CNNaffinity 7.05615187
REMARK  14 active torsions:
REMARK  status: ('A' for Active; 'I' for Inactive)
REMARK    1  A    between atoms: C5_5  and  C6_6 
REMARK    2  A    between atoms: C6_6  and  C8_8 
REMARK    3  A    between atoms: C8_8  and  O1_9 
REMARK    4  A    between atoms: O1_9  and  C9_10 
REMARK    5  A    between atoms: C17_20  and  O4_21 
REMARK    6  A    between atoms: C19_23  and  O5_24 
REMARK    7  A    between atoms: O5_24  and  C20_25 
REMARK    8  A    between atoms: C20_25  and  C21_27 
REMARK    9  A    between atoms: C21_27  and  C22_28 
REMARK   10  A    between atoms: C21_27  and  O7_30 
REMARK   11  A    between atoms: O7_30  and  C24_31 
REMARK   12  A    between atoms: C24_31  and  C25_33 
REMARK   13  A    between atoms: C25_33  and  C26_34 
REMARK   14  A    between atoms: C28_36  and  O9_38 
ROOT
HETATM    1  C1  UNL     1      -0.004  56.875  -7.122  1.00  0.00     0.015 C 
HETATM    2  C2  UNL     1       1.037  56.352  -7.790  1.00  0.00    -0.082 C 
HETATM    3  C3  UNL     1       2.435  56.435  -7.255  1.00  0.00     0.034 C 
HETATM    4  C4  UNL     1       3.014  55.031  -7.190  1.00  0.00     0.010 C 
HETATM    5  C5  UNL     1       3.126  54.343  -8.570  1.00  0.00    -0.001 C 
HETATM    6  C11 UNL     1       2.179  54.928  -9.661  1.00  0.00     0.033 C 
HETATM    7  C12 UNL     1       1.478  53.909 -10.572  1.00  0.00     0.163 C 
HETATM    8  O3  UNL     1       0.490  53.389  -9.687  1.00  0.00    -0.376 OA
HETATM    9  C13 UNL     1      -0.202  54.524  -9.161  1.00  0.00     0.134 C 
HETATM   10  C14 UNL     1      -1.370  54.850 -10.128  1.00  0.00     0.068 C 
HETATM   11  C15 UNL     1      -2.190  53.650 -10.618  1.00  0.00    -0.058 C 
HETATM   12  C16 UNL     1      -3.519  53.646 -10.390  1.00  0.00     0.017 C 
HETATM   13  C17 UNL     1      -1.459  52.484 -11.320  1.00  0.00     0.149 C 
HETATM   14  C18 UNL     1      -0.482  52.860 -12.465  1.00  0.00     0.072 C 
HETATM   15  C19 UNL     1       0.924  52.174 -12.413  1.00  0.00     0.171 C 
HETATM   16  C28 UNL     1       2.045  52.747 -11.403  1.00  0.00     0.107 C 
HETATM   17  C29 UNL     1       2.633  51.605 -10.560  1.00  0.00     0.051 C 
HETATM   18  C30 UNL     1       0.887  55.637  -9.110  1.00  0.00     0.050 C 
ENDROOT
BRANCH  15  19
HETATM   19  O5  UNL     1       0.739  50.747 -12.211  1.00  0.00    -0.311 OA
BRANCH  19  20
HETATM   20  C20 UNL     1       0.331  50.019 -13.288  1.00  0.00     0.289 C 
HETATM   21  O6  UNL     1      -0.775  49.502 -13.405  1.00  0.00    -0.262 OA
BRANCH  20  22
HETATM   22  C21 UNL     1       1.445  49.942 -14.338  1.00  0.00     0.231 C 
BRANCH  22  23
HETATM   23  C22 UNL     1       1.185  50.919 -15.492  1.00  0.00     0.038 C 
HETATM   24  C23 UNL     1       2.355  51.856 -15.752  1.00  0.00     0.008 C 
ENDBRANCH  22  23
BRANCH  22  25
HETATM   25  O7  UNL     1       2.687  50.345 -13.724  1.00  0.00    -0.306 OA
BRANCH  25  26
HETATM   26  C24 UNL     1       3.606  49.344 -13.603  1.00  0.00     0.259 C 
HETATM   27  O8  UNL     1       4.799  49.519 -13.396  1.00  0.00    -0.265 OA
BRANCH  26  28
HETATM   28  C25 UNL     1       2.920  48.007 -13.765  1.00  0.00     0.111 C 
BRANCH  28  29
HETATM   29  C26 UNL     1       2.852  47.202 -12.468  1.00  0.00     0.005 C 
HETATM   30  C27 UNL     1       1.428  46.830 -12.075  1.00  0.00     0.005 C 
ENDBRANCH  28  29
ENDBRANCH  26  28
ENDBRANCH  25  26
ENDBRANCH  22  25
ENDBRANCH  20  22
ENDBRANCH  19  20
ENDBRANCH  15  19
BRANCH  16  31
HETATM   31  O9  UNL     1       3.095  53.307 -12.221  1.00  0.00    -0.385 OA
HETATM   32  H45 UNL     1       3.935  52.855 -12.022  1.00  0.00     0.210 HD
ENDBRANCH  16  31
BRANCH  13  33
HETATM   33  O4  UNL     1      -2.427  51.579 -11.874  1.00  0.00    -0.391 OA
HETATM   34  H25 UNL     1      -2.927  52.081 -12.540  1.00  0.00     0.210 HD
ENDBRANCH  13  33
BRANCH   5  35
HETATM   35  C6  UNL     1       4.602  54.299  -9.086  1.00  0.00     0.010 C 
HETATM   36  C7  UNL     1       4.917  55.335 -10.177  1.00  0.00     0.012 C 
BRANCH  35  37
HETATM   37  C8  UNL     1       5.620  54.437  -7.935  1.00  0.00     0.183 C 
BRANCH  37  38
HETATM   38  O1  UNL     1       5.963  55.830  -7.807  1.00  0.00    -0.321 OA
BRANCH  38  39
HETATM   39  C9  UNL     1       6.805  56.167  -6.793  1.00  0.00     0.254 C 
HETATM   40  C10 UNL     1       6.292  57.391  -6.099  1.00  0.00     0.126 C 
HETATM   41  O2  UNL     1       7.835  55.583  -6.490  1.00  0.00    -0.266 OA
ENDBRANCH  38  39
ENDBRANCH  37  38
ENDBRANCH  35  37
ENDBRANCH   5  35
TORSDOF 14
ENDMDL
