MODEL 1
REMARK minimizedAffinity -7.36374426
REMARK CNNscore 0.238808393
REMARK CNNaffinity 5.80796289
REMARK  10 active torsions:
REMARK  status: ('A' for Active; 'I' for Inactive)
REMARK    1  A    between atoms: O1_2  and  C2_3 
REMARK    2  A    between atoms: C11_15  and  O3_16 
REMARK    3  A    between atoms: O3_16  and  C12_17 
REMARK    4  A    between atoms: C12_17  and  C13_19 
REMARK    5  A    between atoms: C13_19  and  C14_20 
REMARK    6  A    between atoms: C24_31  and  O6_32 
REMARK    7  A    between atoms: C25_35  and  O7_36 
REMARK    8  A    between atoms: C26_38  and  O9_39 
REMARK    9  A    between atoms: C31_44  and  C32_45 
REMARK   10  A    between atoms: C32_45  and  O10_46 
ROOT
HETATM    1  C2  UNL     1     -16.983  46.572 -20.310  1.00  0.00     0.092 A 
HETATM    2  C3  UNL     1     -15.675  46.968 -20.009  1.00  0.00     0.046 A 
HETATM    3  C4  UNL     1     -14.660  46.897 -20.975  1.00  0.00    -0.049 A 
HETATM    4  C5  UNL     1     -14.965  46.411 -22.256  1.00  0.00     0.039 A 
HETATM    5  C6  UNL     1     -16.260  45.981 -22.577  1.00  0.00     0.061 A 
HETATM    6  C7  UNL     1     -17.274  46.080 -21.599  1.00  0.00     0.094 A 
HETATM    7 CL1  UNL     1     -18.931  45.708 -21.998  1.00  0.00    -0.079 Cl
HETATM    8  N1  UNL     1     -16.502  45.439 -23.885  1.00  0.00    -0.321 N 
HETATM    9  C8  UNL     1     -16.972  44.060 -23.929  1.00  0.00     0.159 C 
HETATM   10  C9  UNL     1     -16.168  46.194 -25.009  1.00  0.00     0.226 C 
HETATM   11  O2  UNL     1     -15.689  47.332 -24.920  1.00  0.00    -0.273 OA
HETATM   12  C10 UNL     1     -16.537  45.671 -26.396  1.00  0.00     0.139 C 
HETATM   13  C11 UNL     1     -15.559  44.773 -27.156  1.00  0.00     0.177 C 
HETATM   14  C17 UNL     1     -14.130  45.248 -27.406  1.00  0.00     0.111 A 
HETATM   15  C18 UNL     1     -13.320  44.338 -28.290  1.00  0.00     0.051 C 
HETATM   16  O5  UNL     1     -13.418  45.695 -26.249  1.00  0.00    -0.366 OA
HETATM   17  C19 UNL     1     -13.732  46.717 -27.203  1.00  0.00     0.165 A 
HETATM   18  C20 UNL     1     -12.589  47.448 -27.860  1.00  0.00     0.043 C 
HETATM   19  C21 UNL     1     -12.749  47.414 -29.388  1.00  0.00     0.015 C 
HETATM   20  C22 UNL     1     -11.147  47.102 -27.411  1.00  0.00     0.143 C 
HETATM   21  C23 UNL     1     -10.890  47.371 -25.929  1.00  0.00     0.097 C 
HETATM   22  C24 UNL     1      -9.385  47.268 -25.667  1.00  0.00     0.166 C 
HETATM   23  N2  UNL     1      -8.675  48.240 -26.500  1.00  0.00    -0.316 N 
ATOM     24  H2  UNL     1      -7.852  48.743 -26.167  1.00  0.00     0.166 HD
HETATM   25  C25 UNL     1      -9.153  48.417 -27.668  1.00  0.00     0.260 C 
HETATM   26  O8  UNL     1     -10.261  47.912 -28.222  1.00  0.00    -0.311 OA
HETATM   27  C26 UNL     1      -9.050  47.608 -24.163  1.00  0.00     0.199 C 
HETATM   28  C28 UNL     1      -9.674  46.664 -23.168  1.00  0.00     0.010 C 
HETATM   29  C29 UNL     1     -10.670  46.978 -22.324  1.00  0.00    -0.001 C 
HETATM   30  C30 UNL     1     -11.180  46.026 -21.360  1.00  0.00     0.005 C 
HETATM   31  C31 UNL     1     -12.273  46.152 -20.580  1.00  0.00    -0.052 C 
HETATM   32  C33 UNL     1     -13.246  47.318 -20.634  1.00  0.00     0.075 C 
ENDROOT
BRANCH  13  33
HETATM   33  O3  UNL     1     -15.506  43.451 -26.578  1.00  0.00    -0.312 OA
BRANCH  33  34
HETATM   34  C12 UNL     1     -16.269  42.494 -27.177  1.00  0.00     0.259 C 
HETATM   35  O4  UNL     1     -16.585  41.433 -26.662  1.00  0.00    -0.265 OA
BRANCH  34  36
HETATM   36  C13 UNL     1     -16.648  42.949 -28.570  1.00  0.00     0.115 C 
BRANCH  36  37
HETATM   37  C14 UNL     1     -18.126  42.698 -28.910  1.00  0.00    -0.013 C 
HETATM   38  C15 UNL     1     -18.446  43.085 -30.358  1.00  0.00     0.010 C 
HETATM   39  C16 UNL     1     -19.024  43.493 -27.959  1.00  0.00     0.010 C 
ENDBRANCH  36  37
ENDBRANCH  34  36
ENDBRANCH  33  34
ENDBRANCH  13  33
BRANCH   1  40
HETATM   40  O1  UNL     1     -18.026  46.625 -19.420  1.00  0.00    -0.354 OA
HETATM   41  C1  UNL     1     -18.915  47.731 -19.497  1.00  0.00     0.210 C 
ENDBRANCH   1  40
BRANCH  22  42
HETATM   42  O6  UNL     1      -8.945  45.932 -25.927  1.00  0.00    -0.368 OA
HETATM   43  H32 UNL     1      -8.012  45.947 -25.638  1.00  0.00     0.212 HD
ENDBRANCH  22  42
BRANCH  25  44
HETATM   44  O7  UNL     1      -8.521  49.237 -28.517  1.00  0.00    -0.327 OA
HETATM   45  H33 UNL     1      -7.722  49.546 -28.063  1.00  0.00     0.221 HD
ENDBRANCH  25  44
BRANCH  27  46
HETATM   46  O9  UNL     1      -7.622  47.454 -23.979  1.00  0.00    -0.382 OA
HETATM   47  C27 UNL     1      -7.082  48.451 -23.122  1.00  0.00     0.202 C 
ENDBRANCH  27  46
BRANCH  31  48
HETATM   48  C32 UNL     1     -12.646  45.093 -19.558  1.00  0.00     0.198 C 
BRANCH  48  49
HETATM   49  O10 UNL     1     -12.510  45.562 -18.223  1.00  0.00    -0.397 OA
HETATM   50  H43 UNL     1     -13.064  46.359 -18.150  1.00  0.00     0.209 HD
ENDBRANCH  48  49
ENDBRANCH  31  48
TORSDOF 10
ENDMDL
