MODEL 1
REMARK minimizedAffinity -9.46939945
REMARK CNNscore 0.727459252
REMARK CNNaffinity 7.61202049
REMARK  9 active torsions:
REMARK  status: ('A' for Active; 'I' for Inactive)
REMARK    1  A    between atoms: C6_6  and  C8_8 
REMARK    2  A    between atoms: C8_8  and  O2_10 
REMARK    3  A    between atoms: O2_10  and  C9_11 
REMARK    4  A    between atoms: C9_11  and  C10_12 
REMARK    5  A    between atoms: C10_12  and  O3_13 
REMARK    6  A    between atoms: C27_33  and  O7_34 
REMARK    7  A    between atoms: C38_45  and  O8_46 
REMARK    8  A    between atoms: C38_45  and  C39_47 
REMARK    9  A    between atoms: C39_47  and  O9_48 
ROOT
HETATM    1  O2  UNL     1      -2.652  48.880 -15.778  1.00  0.00    -0.317 OA
ENDROOT
BRANCH   1   2
HETATM    2  C8  UNL     1      -2.039  49.914 -15.131  1.00  0.00     0.267 C 
HETATM    3  O1  UNL     1      -2.062  51.064 -15.555  1.00  0.00    -0.264 OA
BRANCH   2   4
HETATM    4  C6  UNL     1      -1.372  49.464 -13.815  1.00  0.00     0.049 C 
HETATM    5  C5  UNL     1      -2.302  48.438 -13.119  1.00  0.00     0.020 C 
HETATM    6  C4  UNL     1      -3.515  49.070 -12.451  1.00  0.00     0.002 C 
HETATM    7  C3  UNL     1      -3.089  50.099 -11.417  1.00  0.00     0.010 C 
HETATM    8  C2  UNL     1      -2.192  51.235 -11.984  1.00  0.00    -0.035 C 
HETATM    9  C1  UNL     1      -3.070  52.181 -12.834  1.00  0.00     0.016 C 
HETATM   10  C29 UNL     1      -1.008  50.625 -12.811  1.00  0.00     0.012 C 
HETATM   11  C37 UNL     1      -1.557  52.002 -10.762  1.00  0.00     0.010 C 
HETATM   12  C30 UNL     1      -0.168  51.742 -13.445  1.00  0.00     0.008 C 
HETATM   13  C31 UNL     1       0.219  52.904 -12.530  1.00  0.00     0.018 C 
HETATM   14  C32 UNL     1      -0.361  52.941 -11.114  1.00  0.00     0.028 C 
HETATM   15  C33 UNL     1      -0.635  54.405 -10.690  1.00  0.00     0.026 C 
HETATM   16  C40 UNL     1       0.733  52.608 -10.084  1.00  0.00     0.172 C 
HETATM   17  C34 UNL     1      -0.657  54.296  -9.161  1.00  0.00     0.031 C 
HETATM   18  C35 UNL     1      -1.941  53.551  -8.736  1.00  0.00     0.009 C 
HETATM   19  C38 UNL     1       0.674  53.548  -8.887  1.00  0.00     0.143 C 
HETATM   20  C36 UNL     1      -2.587  52.713  -9.850  1.00  0.00     0.007 C 
HETATM   21  O10 UNL     1       1.544  51.692 -10.197  1.00  0.00    -0.294 OA
HETATM   22  C7  UNL     1      -0.093  48.678 -14.215  1.00  0.00     0.026 C 
BRANCH  19  23
HETATM   23  O8  UNL     1       1.758  54.482  -9.026  1.00  0.00    -0.379 OA
HETATM   24  H53 UNL     1       2.586  53.976  -8.922  1.00  0.00     0.211 HD
ENDBRANCH  19  23
BRANCH  19  25
HETATM   25  C39 UNL     1       0.802  52.787  -7.565  1.00  0.00     0.210 C 
BRANCH  25  26
HETATM   26  O9  UNL     1       0.340  51.446  -7.705  1.00  0.00    -0.397 OA
HETATM   27  H56 UNL     1       0.171  51.112  -6.811  1.00  0.00     0.209 HD
ENDBRANCH  25  26
ENDBRANCH  19  25
ENDBRANCH   2   4
ENDBRANCH   1   2
BRANCH   1  28
HETATM   28  C9  UNL     1      -2.318  48.728 -17.169  1.00  0.00     0.227 C 
BRANCH  28  29
HETATM   29  C10 UNL     1      -3.555  48.865 -18.059  1.00  0.00     0.171 C 
HETATM   30  C11 UNL     1      -3.375  49.896 -19.175  1.00  0.00     0.175 C 
HETATM   31  O4  UNL     1      -2.851  50.989 -19.006  1.00  0.00    -0.294 OA
HETATM   32  C12 UNL     1      -3.914  49.378 -20.528  1.00  0.00     0.037 C 
HETATM   33  C13 UNL     1      -4.749  50.435 -21.271  1.00  0.00     0.019 C 
HETATM   34  C23 UNL     1      -2.726  48.784 -21.366  1.00  0.00     0.003 C 
HETATM   35  C28 UNL     1      -4.842  48.274 -19.971  1.00  0.00     0.059 C 
HETATM   36  C14 UNL     1      -4.020  51.157 -22.409  1.00  0.00     0.010 C 
HETATM   37  C15 UNL     1      -2.532  51.318 -22.116  1.00  0.00     0.040 C 
HETATM   38  C16 UNL     1      -1.674  51.931 -23.231  1.00  0.00     0.051 C 
HETATM   39  C21 UNL     1      -1.809  49.971 -21.930  1.00  0.00     0.084 C 
HETATM   40  C17 UNL     1      -2.341  53.040 -24.034  1.00  0.00     0.026 C 
HETATM   41  C18 UNL     1      -0.299  52.375 -22.686  1.00  0.00     0.020 C 
HETATM   42  C22 UNL     1      -1.402  50.717 -24.085  1.00  0.00     0.268 C 
HETATM   43  C19 UNL     1       0.130  51.637 -21.411  1.00  0.00     0.004 C 
HETATM   44  C20 UNL     1      -0.476  50.239 -21.181  1.00  0.00     0.040 C 
HETATM   45  O5  UNL     1      -1.416  49.614 -23.283  1.00  0.00    -0.308 OA
HETATM   46  O6  UNL     1      -1.164  50.695 -25.280  1.00  0.00    -0.264 OA
HETATM   47  C24 UNL     1      -3.294  47.935 -22.557  1.00  0.00     0.019 C 
HETATM   48  C25 UNL     1      -1.932  47.751 -20.495  1.00  0.00     0.016 C 
HETATM   49  C26 UNL     1      -2.815  46.869 -19.591  1.00  0.00     0.042 C 
HETATM   50  C27 UNL     1      -3.962  47.629 -18.899  1.00  0.00     0.099 C 
BRANCH  29  51
HETATM   51  O3  UNL     1      -4.704  49.255 -17.279  1.00  0.00    -0.377 OA
HETATM   52  H15 UNL     1      -4.394  49.877 -16.586  1.00  0.00     0.211 HD
ENDBRANCH  29  51
BRANCH  50  53
HETATM   53  O7  UNL     1      -4.745  46.714 -18.136  1.00  0.00    -0.386 OA
HETATM   54  H37 UNL     1      -5.270  47.261 -17.518  1.00  0.00     0.210 HD
ENDBRANCH  50  53
ENDBRANCH  28  29
ENDBRANCH   1  28
TORSDOF 9
ENDMDL
