MODEL 1
REMARK minimizedAffinity -8.68873405
REMARK CNNscore 0.598044634
REMARK CNNaffinity 7.5044117
REMARK  5 active torsions:
REMARK  status: ('A' for Active; 'I' for Inactive)
REMARK    1  A    between atoms: C2_2  and  C4_4 
REMARK    2  A    between atoms: C10_11  and  O2_12 
REMARK    3  A    between atoms: C13_15  and  O3_16 
REMARK    4  A    between atoms: C32_39  and  O6_40 
REMARK    5  A    between atoms: C37_46  and  O8_47 
ROOT
HETATM    1  C4  UNL     1       0.321  42.452 -11.619  1.00  0.00     0.181 C 
HETATM    2  O1  UNL     1       0.237  43.811 -11.155  1.00  0.00    -0.370 OA
HETATM    3  C5  UNL     1      -0.831  44.603 -11.731  1.00  0.00     0.163 C 
HETATM    4  C6  UNL     1      -0.437  46.033 -11.411  1.00  0.00     0.036 C 
HETATM    5  C7  UNL     1      -1.251  47.093 -12.150  1.00  0.00     0.016 C 
HETATM    6  C8  UNL     1      -1.282  46.910 -13.688  1.00  0.00     0.008 C 
HETATM    7  C9  UNL     1       0.187  46.917 -14.215  1.00  0.00     0.020 C 
HETATM    8  C10 UNL     1      -1.849  45.464 -13.965  1.00  0.00     0.103 C 
HETATM    9  C11 UNL     1      -1.941  45.220 -15.484  1.00  0.00     0.047 C 
HETATM   10  C12 UNL     1      -2.691  46.281 -16.288  1.00  0.00     0.073 C 
HETATM   11  C13 UNL     1      -3.215  47.486 -15.489  1.00  0.00     0.179 C 
HETATM   12  O4  UNL     1      -3.749  48.464 -16.397  1.00  0.00    -0.320 OA
HETATM   13  C14 UNL     1      -2.817  49.209 -17.194  1.00  0.00     0.302 C 
HETATM   14  O5  UNL     1      -2.414  48.448 -18.324  1.00  0.00    -0.346 OA
HETATM   15  C15 UNL     1      -2.573  49.031 -19.630  1.00  0.00     0.064 C 
HETATM   16  C16 UNL     1      -2.248  47.866 -20.583  1.00  0.00     0.046 C 
HETATM   17  C17 UNL     1      -4.014  49.446 -19.922  1.00  0.00     0.046 C 
HETATM   18  C18 UNL     1      -1.523  50.125 -19.854  1.00  0.00     0.060 C 
HETATM   19  C19 UNL     1      -1.588  50.979 -21.137  1.00  0.00     0.023 C 
HETATM   20  C20 UNL     1      -0.977  52.166 -20.366  1.00  0.00     0.054 C 
HETATM   21  C21 UNL     1       0.493  52.428 -20.417  1.00  0.00    -0.077 C 
HETATM   22  C22 UNL     1       1.196  52.233 -21.547  1.00  0.00     0.015 C 
HETATM   23  C23 UNL     1       1.112  53.001 -19.158  1.00  0.00     0.074 C 
HETATM   24  C24 UNL     1       0.815  52.197 -17.902  1.00  0.00    -0.022 A 
HETATM   25  C25 UNL     1       1.679  52.198 -16.802  1.00  0.00     0.043 A 
HETATM   26 CL1  UNL     1       3.128  53.141 -16.810  1.00  0.00    -0.084 Cl
HETATM   27  C26 UNL     1       1.400  51.455 -15.649  1.00  0.00     0.054 A 
HETATM   28  C27 UNL     1       0.238  50.670 -15.651  1.00  0.00     0.045 A 
HETATM   29  N1  UNL     1      -0.272  49.849 -14.666  1.00  0.00    -0.357 N 
HETATM   30  C28 UNL     1      -1.338  49.144 -15.144  1.00  0.00     0.036 C 
HETATM   31  C29 UNL     1      -1.635  49.652 -16.399  1.00  0.00     0.033 C 
HETATM   32  C30 UNL     1      -0.642  50.620 -16.735  1.00  0.00     0.014 A 
HETATM   33  C31 UNL     1      -0.394  51.455 -17.852  1.00  0.00    -0.001 A 
HETATM   34  C32 UNL     1      -1.457  51.468 -19.024  1.00  0.00     0.100 C 
HETATM   35  C33 UNL     1      -2.180  48.093 -14.403  1.00  0.00     0.066 C 
HETATM   36  C34 UNL     1      -3.035  48.938 -13.382  1.00  0.00     0.028 C 
HETATM   37  C35 UNL     1      -1.031  44.388 -13.227  1.00  0.00     0.147 A 
HETATM   38  O7  UNL     1      -1.585  43.074 -13.528  1.00  0.00    -0.360 OA
HETATM   39  C36 UNL     1      -0.242  43.291 -13.913  1.00  0.00     0.194 A 
HETATM   40  C37 UNL     1       0.785  42.545 -13.100  1.00  0.00     0.183 C 
HETATM   41  H37 UNL     1       0.139  49.750 -13.751  1.00  0.00     0.166 HD
ENDROOT
BRANCH   1  42
HETATM   42  C2  UNL     1       1.222  41.716 -10.636  1.00  0.00    -0.062 C 
HETATM   43  C1  UNL     1       2.522  41.416 -10.846  1.00  0.00     0.016 C 
HETATM   44  C3  UNL     1       0.570  41.287  -9.349  1.00  0.00     0.045 C 
ENDBRANCH   1  42
BRANCH  40  45
HETATM   45  O8  UNL     1       2.012  43.302 -13.191  1.00  0.00    -0.390 OA
HETATM   46  H44 UNL     1       2.012  43.865 -12.392  1.00  0.00     0.210 HD
ENDBRANCH  40  45
BRANCH   8  47
HETATM   47  O2  UNL     1      -3.160  45.328 -13.437  1.00  0.00    -0.386 OA
HETATM   48  H15 UNL     1      -3.411  44.387 -13.525  1.00  0.00     0.210 HD
ENDBRANCH   8  47
BRANCH  11  49
HETATM   49  O3  UNL     1      -4.398  47.082 -14.770  1.00  0.00    -0.364 OA
HETATM   50  H20 UNL     1      -4.593  46.161 -14.974  1.00  0.00     0.213 HD
ENDBRANCH  11  49
BRANCH  34  51
HETATM   51  O6  UNL     1      -2.728  52.003 -18.571  1.00  0.00    -0.384 OA
HETATM   52  H38 UNL     1      -2.481  52.856 -18.177  1.00  0.00     0.211 HD
ENDBRANCH  34  51
TORSDOF 5
ENDMDL
