MODEL 1
REMARK minimizedAffinity -6.29179335
REMARK CNNscore 0.662273943
REMARK CNNaffinity 6.42288065
REMARK  12 active torsions:
REMARK  status: ('A' for Active; 'I' for Inactive)
REMARK    1  A    between atoms: C4_4  and  C5_5 
REMARK    2  A    between atoms: C5_5  and  C6_6 
REMARK    3  A    between atoms: C6_6  and  C7_7 
REMARK    4  A    between atoms: C9_9  and  C10_10 
REMARK    5  A    between atoms: C11_11  and  C12_12 
REMARK    6  A    between atoms: C14_14  and  C15_15 
REMARK    7  A    between atoms: C19_20  and  C20_21 
REMARK    8  A    between atoms: C20_21  and  C21_22 
REMARK    9  A    between atoms: C21_22  and  C22_23 
REMARK   10  A    between atoms: C22_23  and  O2_24 
REMARK   11  A    between atoms: C24_26  and  C26_28 
REMARK   12  A    between atoms: C29_32  and  O4_34 
ROOT
HETATM    1  C15 UNL     1      -8.901   7.124  15.715  1.00  0.00     0.145 C 
HETATM    2  C16 UNL     1      -7.773   7.858  14.986  1.00  0.00     0.051 C 
HETATM    3  C17 UNL     1      -6.751   6.771  14.614  1.00  0.00     0.022 C 
HETATM    4  C18 UNL     1      -6.993   5.812  15.791  1.00  0.00     0.181 C 
HETATM    5  O1  UNL     1      -8.408   5.804  16.017  1.00  0.00    -0.381 OA
HETATM    6  C19 UNL     1      -7.039   6.074  13.219  1.00  0.00     0.029 C 
HETATM    7  C23 UNL     1      -6.009   4.942  13.003  1.00  0.00    -0.066 C 
HETATM    8  C24 UNL     1      -6.179   3.595  12.984  1.00  0.00    -0.021 C 
HETATM    9  C25 UNL     1      -5.098   2.612  12.605  1.00  0.00     0.052 C 
HETATM   10  C27 UNL     1      -4.615   5.547  12.875  1.00  0.00     0.038 C 
HETATM   11  C28 UNL     1      -4.258   6.251  14.186  1.00  0.00     0.042 C 
HETATM   12  C29 UNL     1      -5.277   7.333  14.604  1.00  0.00     0.065 C 
HETATM   13  C30 UNL     1      -5.114   8.581  13.711  1.00  0.00     0.047 C 
ENDROOT
BRANCH   6  14
HETATM   14  C20 UNL     1      -8.520   5.821  12.835  1.00  0.00     0.012 C 
BRANCH  14  15
HETATM   15  C21 UNL     1      -8.892   6.074  11.362  1.00  0.00     0.027 C 
BRANCH  15  16
HETATM   16  C22 UNL     1     -10.228   6.775  11.140  1.00  0.00     0.164 C 
BRANCH  16  17
HETATM   17  O2  UNL     1     -10.771   7.200  12.381  1.00  0.00    -0.401 OA
HETATM   18  H34 UNL     1     -11.683   7.493  12.207  1.00  0.00     0.209 HD
ENDBRANCH  16  17
ENDBRANCH  15  16
ENDBRANCH  14  15
ENDBRANCH   6  14
BRANCH  12  19
HETATM   19  O4  UNL     1      -4.924   7.751  15.931  1.00  0.00    -0.389 OA
HETATM   20  H46 UNL     1      -4.042   8.163  15.905  1.00  0.00     0.210 HD
ENDBRANCH  12  19
BRANCH   1  21
HETATM   21  C14 UNL     1      -9.299   7.783  17.005  1.00  0.00     0.011 C 
HETATM   22  C12 UNL     1     -10.281   8.691  17.192  1.00  0.00    -0.063 C 
HETATM   23  C13 UNL     1     -11.139   9.225  16.074  1.00  0.00     0.048 C 
BRANCH  22  24
HETATM   24  C11 UNL     1     -10.514   9.203  18.543  1.00  0.00     0.006 C 
HETATM   25  C10 UNL     1     -11.680   9.648  19.041  1.00  0.00     0.001 C 
BRANCH  25  26
HETATM   26  C9  UNL     1     -11.806  10.148  20.395  1.00  0.00     0.002 C 
HETATM   27  C7  UNL     1     -11.266  11.275  20.903  1.00  0.00    -0.084 C 
HETATM   28  C8  UNL     1     -10.438  12.276  20.140  1.00  0.00     0.043 C 
BRANCH  27  29
HETATM   29  C6  UNL     1     -11.496  11.624  22.364  1.00  0.00     0.037 C 
BRANCH  29  30
HETATM   30  C5  UNL     1     -12.899  12.187  22.613  1.00  0.00     0.031 C 
BRANCH  30  31
HETATM   31  C4  UNL     1     -12.854  13.650  22.965  1.00  0.00    -0.024 C 
HETATM   32  C2  UNL     1     -12.784  14.191  24.198  1.00  0.00    -0.091 C 
HETATM   33  C1  UNL     1     -12.704  15.684  24.381  1.00  0.00     0.042 C 
HETATM   34  C3  UNL     1     -12.793  13.408  25.483  1.00  0.00     0.042 C 
ENDBRANCH  30  31
ENDBRANCH  29  30
ENDBRANCH  27  29
ENDBRANCH  25  26
ENDBRANCH  22  24
ENDBRANCH   1  21
BRANCH   8  35
HETATM   35  C26 UNL     1      -7.446   2.926  13.409  1.00  0.00     0.265 C 
HETATM   36  O3  UNL     1      -8.116   2.227  12.659  1.00  0.00    -0.302 OA
ENDBRANCH   8  35
TORSDOF 12
ENDMDL
