MODEL 1
REMARK minimizedAffinity -7.58943892
REMARK CNNscore 0.497084767
REMARK CNNaffinity 5.98056269
REMARK  9 active torsions:
REMARK  status: ('A' for Active; 'I' for Inactive)
REMARK    1  A    between atoms: C2_2  and  C3_3 
REMARK    2  A    between atoms: C2_2  and  C9_11 
REMARK    3  A    between atoms: C3_3  and  C4_4 
REMARK    4  A    between atoms: C4_4  and  C5_5 
REMARK    5  A    between atoms: C5_5  and  O1_6 
REMARK    6  A    between atoms: C5_5  and  C6_7 
REMARK    7  A    between atoms: C6_7  and  O2_10 
REMARK    8  A    between atoms: C12_14  and  C13_15 
REMARK    9  A    between atoms: C13_15  and  O4_17 
ROOT
HETATM    1  C9  UNL     1       4.867  12.587  22.912  1.00  0.00    -0.001 C 
HETATM    2  C10 UNL     1       4.557  11.103  23.225  1.00  0.00     0.007 C 
HETATM    3  C11 UNL     1       3.189  10.799  22.594  1.00  0.00     0.022 C 
HETATM    4  C12 UNL     1       3.147  11.716  21.352  1.00  0.00     0.057 C 
HETATM    5  C14 UNL     1       1.728  11.963  20.785  1.00  0.00     0.014 C 
HETATM    6  C15 UNL     1       1.126  10.734  20.085  1.00  0.00     0.007 C 
HETATM    7  C16 UNL     1      -0.286  11.030  19.585  1.00  0.00     0.007 C 
HETATM    8  C17 UNL     1      -0.235  12.051  18.438  1.00  0.00     0.010 C 
HETATM    9  C18 UNL     1      -1.627  12.417  17.829  1.00  0.00     0.018 C 
HETATM   10  C19 UNL     1      -2.640  12.927  18.868  1.00  0.00     0.023 C 
HETATM   11  C20 UNL     1      -2.228  11.201  17.101  1.00  0.00     0.023 C 
HETATM   12  C21 UNL     1      -1.446  13.524  16.779  1.00  0.00     0.135 C 
HETATM   13  O5  UNL     1      -2.405  14.087  16.248  1.00  0.00    -0.297 OA
HETATM   14  C22 UNL     1      -0.036  13.852  16.357  1.00  0.00     0.080 C 
HETATM   15  C23 UNL     1       0.810  14.216  17.569  1.00  0.00     0.018 C 
HETATM   16  C24 UNL     1       0.570  13.312  18.781  1.00  0.00    -0.026 A 
HETATM   17  C25 UNL     1       0.335  14.021  20.092  1.00  0.00     0.021 A 
HETATM   18  C26 UNL     1       1.633  13.250  19.920  1.00  0.00    -0.027 A 
HETATM   19  C27 UNL     1       2.905  14.105  19.748  1.00  0.00     0.011 C 
HETATM   20  C28 UNL     1       3.994  14.048  20.838  1.00  0.00     0.012 C 
HETATM   21  C29 UNL     1       3.709  13.046  21.956  1.00  0.00    -0.022 C 
HETATM   22  C30 UNL     1       2.687  13.780  22.906  1.00  0.00     0.017 C 
ENDROOT
BRANCH   1  23
HETATM   23  C2  UNL     1       6.351  12.910  22.564  1.00  0.00    -0.014 C 
HETATM   24  C1  UNL     1       7.388  11.910  23.080  1.00  0.00     0.010 C 
BRANCH  23  25
HETATM   25  C3  UNL     1       6.698  14.339  23.069  1.00  0.00     0.007 C 
BRANCH  25  26
HETATM   26  C4  UNL     1       8.163  14.500  23.507  1.00  0.00     0.035 C 
BRANCH  26  27
HETATM   27  C5  UNL     1       8.601  15.973  23.498  1.00  0.00     0.151 C 
BRANCH  27  28
HETATM   28  O1  UNL     1       7.576  16.744  22.851  1.00  0.00    -0.393 OA
HETATM   29  H10 UNL     1       8.003  17.583  22.597  1.00  0.00     0.210 HD
ENDBRANCH  27  28
BRANCH  27  30
HETATM   30  C6  UNL     1       8.871  16.579  24.902  1.00  0.00     0.076 C 
HETATM   31  C7  UNL     1       7.582  17.082  25.556  1.00  0.00     0.048 C 
HETATM   32  C8  UNL     1       9.921  17.696  24.889  1.00  0.00     0.048 C 
BRANCH  30  33
HETATM   33  O2  UNL     1       9.369  15.515  25.739  1.00  0.00    -0.388 OA
HETATM   34  H17 UNL     1      10.313  15.407  25.522  1.00  0.00     0.210 HD
ENDBRANCH  30  33
ENDBRANCH  27  30
ENDBRANCH  26  27
ENDBRANCH  25  26
ENDBRANCH  23  25
ENDBRANCH   1  23
BRANCH   4  35
HETATM   35  C13 UNL     1       4.011  11.103  20.220  1.00  0.00     0.149 C 
HETATM   36  O3  UNL     1       5.225  10.982  20.196  1.00  0.00    -0.649 OA
BRANCH  35  37
HETATM   37  O4  UNL     1       3.326  10.722  19.126  1.00  0.00    -0.776 OA
HETATM   38  H23 UNL     1       4.022  10.383  18.524  1.00  0.00     0.167 HD
ENDBRANCH  35  37
ENDBRANCH   4  35
TORSDOF 9
ENDMDL
