MODEL 1
REMARK minimizedAffinity -9.29392815
REMARK CNNscore 0.661874712
REMARK CNNaffinity 7.91765738
REMARK  15 active torsions:
REMARK  status: ('A' for Active; 'I' for Inactive)
REMARK    1  A    between atoms: O1_2  and  C2_3 
REMARK    2  A    between atoms: C10_14  and  C11_15 
REMARK    3  A    between atoms: C11_15  and  C12_16 
REMARK    4  A    between atoms: C12_16  and  O5_17 
REMARK    5  A    between atoms: C12_16  and  C13_18 
REMARK    6  A    between atoms: C13_18  and  C14_19 
REMARK    7  A    between atoms: C15_20  and  C16_21 
REMARK    8  A    between atoms: C17_22  and  C19_24 
REMARK    9  A    between atoms: C19_24  and  C20_25 
REMARK   10  A    between atoms: C21_26  and  C22_27 
REMARK   11  A    between atoms: C23_28  and  C24_29 
REMARK   12  A    between atoms: C24_29  and  C25_30 
REMARK   13  A    between atoms: C25_30  and  O6_31 
REMARK   14  A    between atoms: C32_39  and  O8_40 
REMARK   15  A    between atoms: C33_41  and  O9_42 
ROOT
HETATM    1  C2  UNL     1      -6.766   4.764  12.728  1.00  0.00     0.192 C 
HETATM    2  C3  UNL     1      -6.236   3.670  11.753  1.00  0.00     0.074 C 
HETATM    3  C4  UNL     1      -4.974   2.928  12.213  1.00  0.00     0.037 C 
HETATM    4  C5  UNL     1      -3.696   3.621  11.751  1.00  0.00     0.122 C 
HETATM    5  C6  UNL     1      -3.322   3.400  10.298  1.00  0.00     0.035 C 
HETATM    6  C7  UNL     1      -1.808   3.588  10.292  1.00  0.00     0.045 C 
HETATM    7  C8  UNL     1      -1.417   3.646  11.770  1.00  0.00     0.221 C 
HETATM    8  O2  UNL     1      -2.560   3.109  12.465  1.00  0.00    -0.371 OA
HETATM    9  C9  UNL     1      -1.156   5.079  12.260  1.00  0.00     0.288 C 
HETATM   10  O3  UNL     1      -1.007   6.058  11.539  1.00  0.00    -0.262 OA
HETATM   11  O4  UNL     1      -1.173   5.117  13.625  1.00  0.00    -0.314 OA
HETATM   12  C10 UNL     1      -1.612   6.354  14.219  1.00  0.00     0.134 C 
HETATM   13  C26 UNL     1      -2.942   6.015  14.930  1.00  0.00     0.033 C 
HETATM   14  C27 UNL     1      -3.795   7.243  15.263  1.00  0.00     0.005 C 
HETATM   15  C28 UNL     1      -4.849   7.619  14.203  1.00  0.00     0.032 C 
HETATM   16  C29 UNL     1      -6.064   6.678  14.021  1.00  0.00     0.131 C 
HETATM   17  O7  UNL     1      -5.688   5.624  13.121  1.00  0.00    -0.347 OA
HETATM   18  C30 UNL     1      -6.665   6.122  15.320  1.00  0.00     0.042 C 
HETATM   19  C31 UNL     1      -7.170   7.237  16.245  1.00  0.00     0.015 C 
HETATM   20  C32 UNL     1      -7.811   5.151  15.009  1.00  0.00     0.158 C 
HETATM   21  C33 UNL     1      -7.398   4.091  13.979  1.00  0.00     0.209 C 
ENDROOT
BRANCH  12  22
HETATM   22  C11 UNL     1      -0.562   6.855  15.222  1.00  0.00     0.064 C 
BRANCH  22  23
HETATM   23  C12 UNL     1      -0.227   8.353  15.128  1.00  0.00     0.124 C 
BRANCH  23  24
HETATM   24  O5  UNL     1       0.976   8.550  15.889  1.00  0.00    -0.395 OA
HETATM   25  H18 UNL     1       1.479   9.281  15.494  1.00  0.00     0.210 HD
ENDBRANCH  23  24
BRANCH  23  26
HETATM   26  C13 UNL     1      -0.065   8.946  13.714  1.00  0.00     0.059 C 
BRANCH  26  27
HETATM   27  C14 UNL     1       1.299   8.760  13.104  1.00  0.00    -0.024 C 
HETATM   28  C15 UNL     1       1.627   8.551  11.819  1.00  0.00    -0.004 C 
BRANCH  28  29
HETATM   29  C16 UNL     1       0.728   8.471  10.693  1.00  0.00     0.002 C 
HETATM   30  C17 UNL     1       1.053   8.198   9.413  1.00  0.00    -0.080 C 
HETATM   31  C18 UNL     1      -0.033   8.221   8.362  1.00  0.00     0.043 C 
BRANCH  30  32
HETATM   32  C19 UNL     1       2.450   7.896   8.895  1.00  0.00     0.060 C 
BRANCH  32  33
HETATM   33  C20 UNL     1       3.107   6.736   9.599  1.00  0.00    -0.022 C 
HETATM   34  C21 UNL     1       4.292   6.730  10.231  1.00  0.00    -0.004 C 
BRANCH  34  35
HETATM   35  C22 UNL     1       5.147   7.883  10.427  1.00  0.00    -0.004 C 
HETATM   36  C23 UNL     1       6.204   7.971  11.247  1.00  0.00    -0.025 C 
BRANCH  36  37
HETATM   37  C24 UNL     1       6.811   6.894  12.111  1.00  0.00     0.053 C 
BRANCH  37  38
HETATM   38  C25 UNL     1       6.556   7.150  13.600  1.00  0.00     0.168 C 
BRANCH  38  39
HETATM   39  O6  UNL     1       5.168   7.382  13.849  1.00  0.00    -0.401 OA
HETATM   40  H37 UNL     1       4.674   6.615  13.513  1.00  0.00     0.209 HD
ENDBRANCH  38  39
ENDBRANCH  37  38
ENDBRANCH  36  37
ENDBRANCH  34  35
ENDBRANCH  32  33
ENDBRANCH  30  32
ENDBRANCH  28  29
ENDBRANCH  26  27
ENDBRANCH  23  26
ENDBRANCH  22  23
ENDBRANCH  12  22
BRANCH   1  41
HETATM   41  O1  UNL     1      -7.847   5.500  12.103  1.00  0.00    -0.358 OA
HETATM   42  C1  UNL     1      -8.852   5.975  12.991  1.00  0.00     0.205 C 
ENDBRANCH   1  41
BRANCH  20  43
HETATM   43  O8  UNL     1      -8.192   4.496  16.229  1.00  0.00    -0.392 OA
HETATM   44  H50 UNL     1      -9.152   4.644  16.357  1.00  0.00     0.210 HD
ENDBRANCH  20  43
BRANCH  21  45
HETATM   45  O9  UNL     1      -8.567   3.331  13.598  1.00  0.00    -0.387 OA
HETATM   46  H52 UNL     1      -9.077   3.924  13.010  1.00  0.00     0.210 HD
ENDBRANCH  21  45
TORSDOF 15
ENDMDL
