MODEL 1
REMARK minimizedAffinity -6.68613672
REMARK CNNscore 0.30396983
REMARK CNNaffinity 5.73239851
REMARK  2 active torsions:
REMARK  status: ('A' for Active; 'I' for Inactive)
REMARK    1  A    between atoms: C21_27  and  C22_28 
REMARK    2  A    between atoms: C22_28  and  O7_30 
ROOT
HETATM    1  C1  UNL     1       4.805  16.738   8.845  1.00  0.00     0.043 C 
HETATM    2  C2  UNL     1       4.310  17.325   7.546  1.00  0.00    -0.076 C 
HETATM    3  C3  UNL     1       3.020  17.174   7.194  1.00  0.00     0.084 C 
HETATM    4  C4  UNL     1       2.375  17.724   5.981  1.00  0.00     0.283 C 
HETATM    5  O1  UNL     1       2.547  18.841   5.530  1.00  0.00    -0.260 OA
HETATM    6  O2  UNL     1       1.532  16.778   5.495  1.00  0.00    -0.317 OA
HETATM    7  C5  UNL     1       0.720  17.227   4.397  1.00  0.00     0.195 C 
HETATM    8  C6  UNL     1      -0.091  16.069   3.691  1.00  0.00     0.053 C 
HETATM    9  C7  UNL     1      -0.141  14.784   4.621  1.00  0.00     0.159 C 
HETATM   10  C8  UNL     1      -1.097  14.903   5.779  1.00  0.00     0.011 C 
HETATM   11  C9  UNL     1      -2.205  15.662   5.720  1.00  0.00    -0.054 C 
HETATM   12  C10 UNL     1      -3.144  15.769   6.887  1.00  0.00     0.046 C 
HETATM   13  C11 UNL     1      -2.580  16.395   4.498  1.00  0.00     0.180 A 
HETATM   14  O3  UNL     1      -2.568  15.751   3.213  1.00  0.00    -0.370 OA
HETATM   15  C12 UNL     1      -1.495  16.654   3.469  1.00  0.00     0.170 A 
HETATM   16  O4  UNL     1      -0.475  13.557   3.939  1.00  0.00    -0.372 OA
HETATM   17  C13 UNL     1       0.172  13.348   2.681  1.00  0.00     0.162 C 
HETATM   18  C14 UNL     1       1.696  13.478   2.763  1.00  0.00     0.068 C 
HETATM   19  C15 UNL     1       1.977  14.993   2.586  1.00  0.00     0.147 C 
HETATM   20  O5  UNL     1       2.900  15.250   1.513  1.00  0.00    -0.312 OA
HETATM   21  C16 UNL     1       4.197  14.975   1.808  1.00  0.00     0.283 C 
HETATM   22  O6  UNL     1       4.588  14.280   2.732  1.00  0.00    -0.260 OA
HETATM   23  C17 UNL     1       5.040  15.781   0.896  1.00  0.00     0.082 C 
HETATM   24  C18 UNL     1       6.193  16.366   1.268  1.00  0.00     0.006 C 
HETATM   25  C19 UNL     1       6.841  16.210   2.551  1.00  0.00    -0.001 C 
HETATM   26  C20 UNL     1       7.601  17.154   3.129  1.00  0.00     0.007 C 
HETATM   27  C21 UNL     1       8.164  16.999   4.519  1.00  0.00     0.172 C 
HETATM   28  O8  UNL     1       7.364  17.823   5.388  1.00  0.00    -0.379 OA
HETATM   29  C24 UNL     1       6.291  17.091   5.994  1.00  0.00     0.173 C 
HETATM   30  C25 UNL     1       5.366  18.054   6.740  1.00  0.00     0.060 C 
HETATM   31  C26 UNL     1       0.574  15.667   2.295  1.00  0.00     0.034 C 
HETATM   32  C27 UNL     1       0.655  16.818   1.272  1.00  0.00     0.022 C 
HETATM   33  C28 UNL     1      -0.197  14.470   1.778  1.00  0.00     0.119 A 
HETATM   34  C29 UNL     1      -1.382  14.463   0.846  1.00  0.00     0.210 A 
HETATM   35  O9  UNL     1      -0.056  14.183   0.379  1.00  0.00    -0.371 OA
ENDROOT
BRANCH  27  36
HETATM   36  C22 UNL     1       9.626  17.496   4.607  1.00  0.00     0.146 C 
HETATM   37  C23 UNL     1       9.741  18.749   5.470  1.00  0.00     0.042 C 
BRANCH  36  38
HETATM   38  O7  UNL     1      10.122  17.837   3.305  1.00  0.00    -0.393 OA
HETATM   39  H27 UNL     1       9.334  18.094   2.786  1.00  0.00     0.210 HD
ENDBRANCH  36  38
ENDBRANCH  27  36
TORSDOF 2
ENDMDL
