MODEL 1
REMARK minimizedAffinity -8.07119846
REMARK CNNscore 0.50486213
REMARK CNNaffinity 7.44163275
REMARK  16 active torsions:
REMARK  status: ('A' for Active; 'I' for Inactive)
REMARK    1  A    between atoms: C2_2  and  N1_3 
REMARK    2  A    between atoms: N1_3  and  C3_4 
REMARK    3  A    between atoms: C3_4  and  C4_5 
REMARK    4  A    between atoms: C9_11  and  S1_12 
REMARK    5  A    between atoms: S1_12  and  N2_15 
REMARK    6  A    between atoms: N2_15  and  C10_16 
REMARK    7  A    between atoms: N2_15  and  C14_20 
REMARK    8  A    between atoms: C10_16  and  C11_17 
REMARK    9  A    between atoms: C14_20  and  C15_21 
REMARK   10  A    between atoms: C15_21  and  O4_22 
REMARK   11  A    between atoms: C15_21  and  C16_23 
REMARK   12  A    between atoms: C16_23  and  C17_24 
REMARK   13  A    between atoms: C16_23  and  N3_31 
REMARK   14  A    between atoms: C17_24  and  C18_25 
REMARK       I    between atoms: N3_31  and  C24_32 
REMARK   15  A    between atoms: C24_32  and  O6_34 
REMARK   16  A    between atoms: O6_34  and  C25_35 
ROOT
HETATM    1  C15 UNL     1      12.453  -6.109  30.444  1.00  0.00     0.155 C 
ENDROOT
BRANCH   1   2
HETATM    2  C14 UNL     1      11.315  -6.126  31.479  1.00  0.00     0.141 C 
BRANCH   2   3
HETATM    3  N2  UNL     1      10.999  -4.840  32.229  1.00  0.00    -0.204 NA
BRANCH   3   4
HETATM    4  S1  UNL     1      10.536  -3.553  31.141  1.00  0.00     0.243 S 
HETATM    5  O2  UNL     1      10.868  -2.273  31.726  1.00  0.00    -0.206 OA
HETATM    6  O3  UNL     1      10.993  -3.929  29.817  1.00  0.00    -0.206 OA
BRANCH   4   7
HETATM    7  C9  UNL     1       8.750  -3.610  31.131  1.00  0.00     0.075 A 
HETATM    8  C8  UNL     1       8.031  -2.518  31.635  1.00  0.00     0.027 A 
HETATM    9  C7  UNL     1       6.633  -2.514  31.598  1.00  0.00     0.039 A 
HETATM   10  C6  UNL     1       6.017  -3.631  31.035  1.00  0.00     0.086 A 
HETATM   11  O1  UNL     1       4.675  -3.812  30.915  1.00  0.00    -0.321 OA
HETATM   12  C32 UNL     1       6.699  -4.724  30.510  1.00  0.00     0.009 A 
HETATM   13  C5  UNL     1       4.489  -5.015  30.314  1.00  0.00     0.152 A 
HETATM   14  C4  UNL     1       5.696  -5.632  30.042  1.00  0.00     0.005 A 
HETATM   15  C31 UNL     1       8.105  -4.710  30.540  1.00  0.00     0.039 A 
BRANCH  14  16
HETATM   16  C3  UNL     1       5.894  -6.971  29.421  1.00  0.00     0.311 C 
BRANCH  16  17
HETATM   17  N1  UNL     1       5.228  -7.059  28.117  1.00  0.00     0.087 N 
HETATM   18  H6  UNL     1       4.559  -7.829  28.172  1.00  0.00     0.316 HD
BRANCH  17  19
HETATM   19  C2  UNL     1       6.149  -7.339  27.011  1.00  0.00     0.265 C 
HETATM   20  C1  UNL     1       7.456  -6.582  27.180  1.00  0.00     0.037 C 
ENDBRANCH  17  19
ENDBRANCH  16  17
ENDBRANCH  14  16
ENDBRANCH   4   7
ENDBRANCH   3   4
BRANCH   3  21
HETATM   21  C10 UNL     1       9.948  -5.135  33.278  1.00  0.00     0.111 C 
BRANCH  21  22
HETATM   22  C11 UNL     1       9.869  -4.056  34.374  1.00  0.00    -0.009 C 
HETATM   23  C12 UNL     1       8.910  -4.412  35.506  1.00  0.00     0.011 C 
HETATM   24  C13 UNL     1      11.236  -3.676  34.936  1.00  0.00     0.011 C 
ENDBRANCH  21  22
ENDBRANCH   3  21
ENDBRANCH   2   3
ENDBRANCH   1   2
BRANCH   1  25
HETATM   25  O4  UNL     1      13.714  -5.849  31.057  1.00  0.00    -0.392 OA
HETATM   26  H24 UNL     1      14.395  -5.966  30.372  1.00  0.00     0.210 HD
ENDBRANCH   1  25
BRANCH   1  27
HETATM   27  C16 UNL     1      12.523  -7.292  29.433  1.00  0.00     0.120 C 
BRANCH  27  28
HETATM   28  C17 UNL     1      11.404  -8.336  29.626  1.00  0.00     0.066 C 
BRANCH  28  29
HETATM   29  C18 UNL     1      10.804  -8.868  28.339  1.00  0.00    -0.056 A 
HETATM   30  C19 UNL     1      10.811  -8.107  27.163  1.00  0.00     0.007 A 
HETATM   31  C20 UNL     1      10.243  -8.612  25.992  1.00  0.00     0.001 A 
HETATM   32  C21 UNL     1       9.652  -9.874  25.987  1.00  0.00     0.000 A 
HETATM   33  C22 UNL     1       9.627 -10.634  27.155  1.00  0.00     0.001 A 
HETATM   34  C23 UNL     1      10.196 -10.133  28.325  1.00  0.00     0.007 A 
ENDBRANCH  28  29
ENDBRANCH  27  28
BRANCH  27  35
HETATM   35  N3  UNL     1      13.839  -7.951  29.543  1.00  0.00    -0.329 N 
HETATM   36  C24 UNL     1      14.037  -9.099  30.247  1.00  0.00     0.361 C 
HETATM   37  O5  UNL     1      13.155  -9.771  30.759  1.00  0.00    -0.238 OA
HETATM   38  H33 UNL     1      14.684  -7.431  29.327  1.00  0.00     0.165 HD
BRANCH  36  39
HETATM   39  O6  UNL     1      15.361  -9.385  30.271  1.00  0.00    -0.296 OA
BRANCH  39  40
HETATM   40  C25 UNL     1      16.025  -9.142  31.517  1.00  0.00     0.166 C 
HETATM   41  C26 UNL     1      17.291  -8.328  31.308  1.00  0.00     0.204 C 
HETATM   42  O7  UNL     1      18.173  -8.666  32.382  1.00  0.00    -0.358 OA
HETATM   43  C27 UNL     1      17.747  -9.915  32.929  1.00  0.00     0.266 C 
HETATM   44  O8  UNL     1      17.260  -9.759  34.269  1.00  0.00    -0.361 OA
HETATM   45  C30 UNL     1      16.597 -10.430  32.088  1.00  0.00     0.075 C 
HETATM   46  C28 UNL     1      15.947 -10.322  34.358  1.00  0.00     0.171 C 
HETATM   47  C29 UNL     1      15.729 -11.137  33.100  1.00  0.00     0.038 C 
ENDBRANCH  39  40
ENDBRANCH  36  39
ENDBRANCH  27  35
ENDBRANCH   1  27
TORSDOF 16
ENDMDL
