MODEL 1
REMARK minimizedAffinity -10.3120012
REMARK  4 active torsions:
REMARK  status: ('A' for Active; 'I' for Inactive)
REMARK    1  A    between atoms: C10_14  and  C11_15 
REMARK    2  A    between atoms: C11_15  and  C12_16 
REMARK    3  A    between atoms: C12_16  and  N3_17 
REMARK    4  A    between atoms: C15_20  and  C16_21 
ROOT
HETATM    1  N3  UNL     1      -2.048  50.776 -21.807  1.00  0.00     0.088 N 
HETATM    2  C13 UNL     1      -1.581  49.938 -22.909  1.00  0.00     0.273 C 
HETATM    3  C14 UNL     1      -2.612  49.884 -24.031  1.00  0.00     0.041 C 
HETATM    4  C15 UNL     1      -3.111  51.259 -24.488  1.00  0.00     0.042 C 
HETATM    5  C23 UNL     1      -3.362  52.218 -23.319  1.00  0.00     0.041 C 
HETATM    6  C24 UNL     1      -2.308  52.156 -22.217  1.00  0.00     0.273 C 
ENDROOT
BRANCH   1   7
HETATM    7  C12 UNL     1      -1.200  50.692 -20.606  1.00  0.00     0.277 C 
BRANCH   7   8
HETATM    8  C11 UNL     1      -1.450  51.741 -19.506  1.00  0.00     0.076 C 
BRANCH   8   9
HETATM    9  C10 UNL     1      -0.252  51.887 -18.599  1.00  0.00     0.034 A 
HETATM   10  C2  UNL     1       0.778  52.734 -18.767  1.00  0.00     0.018 A 
HETATM   11  C1  UNL     1       0.919  53.642 -19.962  1.00  0.00     0.069 C 
HETATM   12  N1  UNL     1       1.820  52.845 -17.884  1.00  0.00    -0.345 N 
HETATM   13  C3  UNL     1       1.830  52.097 -16.825  1.00  0.00     0.120 A 
ATOM     14  H1  UNL     1       2.577  53.506 -18.059  1.00  0.00     0.167 HD
HETATM   15  C4  UNL     1       2.972  52.210 -15.851  1.00  0.00    -0.017 A 
HETATM   16  N2  UNL     1       0.834  51.177 -16.526  1.00  0.00    -0.274 N 
HETATM   17  C5  UNL     1       4.053  53.197 -16.161  1.00  0.00     0.052 C 
HETATM   18  C6  UNL     1       2.973  51.431 -14.758  1.00  0.00     0.012 A 
HETATM   19  C7  UNL     1       1.910  50.499 -14.510  1.00  0.00     0.018 A 
HETATM   20  C8  UNL     1       0.896  50.399 -15.377  1.00  0.00     0.102 A 
HETATM   21  C9  UNL     1      -0.246  51.025 -17.383  1.00  0.00     0.261 A 
HETATM   22  O1  UNL     1      -1.174  50.235 -17.198  1.00  0.00    -0.267 OA
ENDBRANCH   8   9
ENDBRANCH   7   8
ENDBRANCH   1   7
BRANCH   4  23
HETATM   23  C16 UNL     1      -2.330  51.855 -25.635  1.00  0.00     0.050 A 
HETATM   24  N4  UNL     1      -2.971  52.763 -26.392  1.00  0.00    -0.264 N 
HETATM   25  O2  UNL     1      -2.083  53.166 -27.362  1.00  0.00    -0.237 OA
ATOM     26  H4  UNL     1      -3.930  53.091 -26.271  1.00  0.00     0.194 HD
HETATM   27  C17 UNL     1      -0.910  52.510 -27.204  1.00  0.00     0.114 A 
HETATM   28  C18 UNL     1       0.215  52.670 -28.009  1.00  0.00     0.082 A 
HETATM   29  C22 UNL     1      -1.000  51.653 -26.114  1.00  0.00     0.025 A 
HETATM   30  C19 UNL     1       1.317  51.894 -27.667  1.00  0.00     0.119 A 
HETATM   31  F1  UNL     1       2.435  51.995 -28.397  1.00  0.00    -0.206 F 
HETATM   32  C20 UNL     1       1.292  51.016 -26.589  1.00  0.00     0.043 A 
HETATM   33  C21 UNL     1       0.138  50.883 -25.800  1.00  0.00     0.019 A 
ENDBRANCH   4  23
TORSDOF 4
ENDMDL
