MODEL 1
REMARK minimizedAffinity -7.65322399
REMARK CNNscore 0.313833088
REMARK CNNaffinity 6.23677635
REMARK  19 active torsions:
REMARK  status: ('A' for Active; 'I' for Inactive)
REMARK    1  A    between atoms: O1_2  and  C2_3 
REMARK    2  A    between atoms: C2_3  and  C3_4 
REMARK    3  A    between atoms: C2_3  and  C28_36 
REMARK    4  A    between atoms: C3_4  and  C4_5 
REMARK    5  A    between atoms: C4_5  and  C6_7 
REMARK    6  A    between atoms: C6_7  and  O2_8 
REMARK    7  A    between atoms: C6_7  and  C7_9 
REMARK    8  A    between atoms: C8_10  and  C9_11 
REMARK    9  A    between atoms: C10_12  and  C11_13 
REMARK   10  A    between atoms: C11_13  and  N1_14 
REMARK       I    between atoms: N1_14  and  C12_15 
REMARK   11  A    between atoms: C12_15  and  C13_17 
REMARK   12  A    between atoms: C13_17  and  C16_20 
REMARK   13  A    between atoms: C16_20  and  O4_21 
REMARK   14  A    between atoms: C16_20  and  C17_22 
REMARK   15  A    between atoms: C19_24  and  C20_25 
REMARK   16  A    between atoms: C21_26  and  C22_27 
REMARK   17  A    between atoms: C23_28  and  C24_29 
REMARK   18  A    between atoms: C26_31  and  N2_33 
REMARK   19  A    between atoms: C28_36  and  O7_37 
ROOT
HETATM    1  C9  UNL     1      -2.327   8.183  15.265  1.00  0.00    -0.003 C 
HETATM    2  C10 UNL     1      -2.654   8.292  13.970  1.00  0.00    -0.007 C 
ENDROOT
BRANCH   1   3
HETATM    3  C8  UNL     1      -1.034   7.713  15.706  1.00  0.00    -0.002 C 
HETATM    4  C7  UNL     1       0.031   7.678  14.889  1.00  0.00     0.005 C 
BRANCH   4   5
HETATM    5  C6  UNL     1       1.455   7.340  15.259  1.00  0.00     0.144 C 
BRANCH   5   6
HETATM    6  C4  UNL     1       2.376   8.528  14.912  1.00  0.00     0.016 C 
HETATM    7  C5  UNL     1       1.949   9.825  15.624  1.00  0.00     0.013 C 
BRANCH   6   8
HETATM    8  C3  UNL     1       3.864   8.238  15.237  1.00  0.00     0.042 C 
BRANCH   8   9
HETATM    9  C2  UNL     1       4.763   8.642  14.040  1.00  0.00     0.159 C 
BRANCH   9  10
HETATM   10  O1  UNL     1       5.005  10.044  14.063  1.00  0.00    -0.388 OA
HETATM   11  C1  UNL     1       4.406  10.756  12.989  1.00  0.00     0.202 C 
ENDBRANCH   9  10
BRANCH   9  12
HETATM   12  C28 UNL     1       6.133   7.868  13.995  1.00  0.00     0.133 C 
HETATM   13  C29 UNL     1       6.698   7.709  12.547  1.00  0.00     0.114 C 
HETATM   14  C30 UNL     1       5.730   7.252  11.467  1.00  0.00     0.023 C 
HETATM   15  C31 UNL     1       7.348   9.046  12.278  1.00  0.00     0.227 C 
HETATM   16  O8  UNL     1       7.448   9.589  11.189  1.00  0.00    -0.273 OA
HETATM   17  N3  UNL     1       7.821   9.498  13.510  1.00  0.00    -0.332 N 
HETATM   18  C32 UNL     1       8.187  10.885  13.661  1.00  0.00     0.154 C 
HETATM   19  C33 UNL     1       7.295   8.658  14.644  1.00  0.00     0.183 A 
HETATM   20  C34 UNL     1       7.079   9.273  16.062  1.00  0.00     0.294 A 
HETATM   21  C35 UNL     1       8.399   7.845  15.396  1.00  0.00     0.169 A 
HETATM   22  O9  UNL     1       6.405  10.119  16.610  1.00  0.00    -0.262 OA
HETATM   23  O10 UNL     1       7.996   8.463  16.653  1.00  0.00    -0.311 OA
HETATM   24  C36 UNL     1       9.877   8.087  15.135  1.00  0.00     0.043 C 
BRANCH  12  25
HETATM   25  O7  UNL     1       6.005   6.543  14.531  1.00  0.00    -0.383 OA
HETATM   26  H42 UNL     1       5.934   6.588  15.504  1.00  0.00     0.210 HD
ENDBRANCH  12  25
ENDBRANCH   9  12
ENDBRANCH   8   9
ENDBRANCH   6   8
ENDBRANCH   5   6
BRANCH   5  27
HETATM   27  O2  UNL     1       1.543   7.008  16.638  1.00  0.00    -0.391 OA
HETATM   28  H12 UNL     1       2.473   6.790  16.826  1.00  0.00     0.210 HD
ENDBRANCH   5  27
ENDBRANCH   4   5
ENDBRANCH   1   3
BRANCH   2  29
HETATM   29  C11 UNL     1      -4.036   8.632  13.501  1.00  0.00     0.149 C 
BRANCH  29  30
HETATM   30  N1  UNL     1      -4.870   7.459  13.622  1.00  0.00    -0.357 N 
HETATM   31  C12 UNL     1      -6.025   7.476  14.374  1.00  0.00     0.228 C 
HETATM   32  O3  UNL     1      -6.424   8.506  14.914  1.00  0.00    -0.273 OA
HETATM   33  H19 UNL     1      -4.456   6.569  13.370  1.00  0.00     0.162 HD
BRANCH  31  34
HETATM   34  C13 UNL     1      -6.812   6.153  14.446  1.00  0.00     0.063 C 
HETATM   35  C14 UNL     1      -6.834   5.669  15.911  1.00  0.00     0.028 C 
HETATM   36  C15 UNL     1      -6.054   5.069  13.640  1.00  0.00     0.028 C 
BRANCH  34  37
HETATM   37  C16 UNL     1      -8.240   6.375  13.863  1.00  0.00     0.164 C 
BRANCH  37  38
HETATM   38  O4  UNL     1      -8.746   5.167  13.280  1.00  0.00    -0.390 OA
HETATM   39  H27 UNL     1      -9.677   5.339  13.064  1.00  0.00     0.210 HD
ENDBRANCH  37  38
BRANCH  37  40
HETATM   40  C17 UNL     1      -9.292   6.968  14.804  1.00  0.00    -0.054 C 
HETATM   41  C18 UNL     1      -8.881   6.948  16.263  1.00  0.00     0.046 C 
HETATM   42  C19 UNL     1     -10.484   7.522  14.488  1.00  0.00     0.005 C 
BRANCH  42  43
HETATM   43  C20 UNL     1     -11.087   7.665  13.175  1.00  0.00     0.000 C 
HETATM   44  C21 UNL     1     -12.395   7.652  12.863  1.00  0.00     0.000 C 
BRANCH  44  45
HETATM   45  C22 UNL     1     -13.519   7.467  13.757  1.00  0.00     0.001 C 
HETATM   46  C23 UNL     1     -14.398   6.459  13.609  1.00  0.00     0.009 C 
BRANCH  46  47
HETATM   47  C24 UNL     1     -15.559   6.175  14.472  1.00  0.00    -0.034 C 
HETATM   48  C25 UNL     1     -15.329   6.337  15.966  1.00  0.00     0.050 C 
HETATM   49  C26 UNL     1     -16.744   5.808  13.929  1.00  0.00     0.082 C 
HETATM   50  C27 UNL     1     -17.160   5.588  12.514  1.00  0.00     0.075 C 
BRANCH  49  51
HETATM   51  N2  UNL     1     -17.860   5.586  14.826  1.00  0.00    -0.120 N 
HETATM   52  O5  UNL     1     -18.017   4.431  15.243  1.00  0.00    -0.532 OA
HETATM   53  O6  UNL     1     -18.545   6.572  15.122  1.00  0.00    -0.532 OA
ENDBRANCH  49  51
ENDBRANCH  46  47
ENDBRANCH  44  45
ENDBRANCH  42  43
ENDBRANCH  37  40
ENDBRANCH  34  37
ENDBRANCH  31  34
ENDBRANCH  29  30
ENDBRANCH   2  29
TORSDOF 19
ENDMDL
