MODEL 1
REMARK minimizedAffinity -7.52990294
REMARK  6 active torsions:
REMARK  status: ('A' for Active; 'I' for Inactive)
REMARK    1  A    between atoms: C9_10  and  C10_11 
REMARK    2  A    between atoms: C11_13  and  O3_14 
REMARK    3  A    between atoms: C12_15  and  C13_16 
REMARK    4  A    between atoms: C14_18  and  O5_19 
REMARK    5  A    between atoms: C16_21  and  C17_22 
REMARK    6  A    between atoms: C17_22  and  C18_23 
ROOT
HETATM    1  C1  UNL     1       0.004  53.488 -19.385  1.00  0.00     0.043 C 
HETATM    2  C2  UNL     1      -0.052  52.008 -19.672  1.00  0.00    -0.087 C 
HETATM    3  C3  UNL     1      -0.315  51.143 -18.673  1.00  0.00    -0.024 C 
HETATM    4  C4  UNL     1      -0.410  49.653 -18.761  1.00  0.00     0.030 C 
HETATM    5  C5  UNL     1      -1.827  49.105 -18.589  1.00  0.00     0.042 C 
HETATM    6  C6  UNL     1      -2.979  49.606 -19.519  1.00  0.00     0.069 C 
HETATM    7  C7  UNL     1      -3.434  51.015 -19.066  1.00  0.00     0.047 C 
HETATM    8  O1  UNL     1      -4.090  48.738 -19.104  1.00  0.00    -0.338 OA
HETATM    9  C8  UNL     1      -5.088  48.558 -20.017  1.00  0.00     0.095 A 
HETATM   10  C9  UNL     1      -6.421  48.584 -19.594  1.00  0.00     0.070 A 
HETATM   11  C11 UNL     1      -7.455  48.439 -20.532  1.00  0.00     0.097 A 
HETATM   12  C12 UNL     1      -7.144  48.234 -21.880  1.00  0.00     0.069 A 
HETATM   13  C14 UNL     1      -5.800  48.164 -22.283  1.00  0.00     0.091 A 
HETATM   14  C15 UNL     1      -4.765  48.311 -21.350  1.00  0.00     0.015 A 
HETATM   15  C16 UNL     1      -3.304  48.251 -21.717  1.00  0.00     0.032 C 
HETATM   16  C21 UNL     1      -2.610  49.495 -21.067  1.00  0.00     0.034 C 
HETATM   17  C22 UNL     1      -2.988  50.747 -21.860  1.00  0.00     0.006 A 
HETATM   18  C23 UNL     1      -2.100  51.951 -22.213  1.00  0.00    -0.001 A 
HETATM   19  C24 UNL     1      -0.620  52.235 -22.181  1.00  0.00     0.010 C 
HETATM   20  C25 UNL     1       0.242  51.599 -21.099  1.00  0.00     0.034 C 
HETATM   21  C26 UNL     1      -2.606  51.005 -23.310  1.00  0.00    -0.039 A 
HETATM   22  C27 UNL     1      -3.685  51.533 -24.228  1.00  0.00     0.015 C 
HETATM   23  C28 UNL     1      -1.641  50.085 -24.027  1.00  0.00     0.015 C 
ENDROOT
BRANCH  15  24
HETATM   24  C17 UNL     1      -2.590  46.931 -21.331  1.00  0.00     0.014 C 
BRANCH  24  25
HETATM   25  C18 UNL     1      -3.525  45.774 -20.901  1.00  0.00    -0.022 C 
HETATM   26  C19 UNL     1      -4.869  45.827 -21.637  1.00  0.00     0.009 C 
HETATM   27  C20 UNL     1      -3.787  45.847 -19.391  1.00  0.00     0.009 C 
ENDBRANCH  24  25
ENDBRANCH  15  24
BRANCH  13  28
HETATM   28  O5  UNL     1      -5.451  47.953 -23.594  1.00  0.00    -0.359 OA
HETATM   29  H15 UNL     1      -6.272  47.954 -24.138  1.00  0.00     0.217 HD
ENDBRANCH  13  28
BRANCH  10  30
HETATM   30  C10 UNL     1      -6.724  48.789 -18.165  1.00  0.00     0.275 C 
HETATM   31  O2  UNL     1      -7.852  49.119 -17.815  1.00  0.00    -0.301 OA
ENDBRANCH  10  30
BRANCH  12  32
HETATM   32  C13 UNL     1      -8.236  48.104 -22.869  1.00  0.00     0.275 C 
HETATM   33  O4  UNL     1      -8.320  48.888 -23.811  1.00  0.00    -0.301 OA
ENDBRANCH  12  32
BRANCH  11  34
HETATM   34  O3  UNL     1      -8.778  48.494 -20.165  1.00  0.00    -0.359 OA
HETATM   35  H13 UNL     1      -8.833  48.638 -19.187  1.00  0.00     0.217 HD
ENDBRANCH  11  34
TORSDOF 6
ENDMDL
