MODEL 1
REMARK minimizedAffinity -7.58651066
REMARK CNNscore 0.531267464
REMARK CNNaffinity 6.87364912
REMARK  10 active torsions:
REMARK  status: ('A' for Active; 'I' for Inactive)
REMARK    1  A    between atoms: C19_21  and  O3_22 
REMARK    2  A    between atoms: C19_21  and  C20_23 
REMARK    3  A    between atoms: C20_23  and  C21_25 
REMARK    4  A    between atoms: C21_25  and  O5_26 
REMARK    5  A    between atoms: O5_26  and  C22_27 
REMARK    6  A    between atoms: C22_27  and  C23_29 
REMARK    7  A    between atoms: C23_29  and  C24_30 
REMARK    8  A    between atoms: C24_30  and  C25_31 
REMARK       I    between atoms: C25_31  and  N1_33 
REMARK    9  A    between atoms: N1_33  and  C26_34 
REMARK   10  A    between atoms: C26_34  and  C27_35 
ROOT
HETATM    1  C1  UNL     1      -6.942   6.894  13.646  1.00  0.00     0.021 C 
HETATM    2  C2  UNL     1      -8.142   6.035  14.105  1.00  0.00    -0.009 C 
HETATM    3  C3  UNL     1      -7.650   4.913  15.069  1.00  0.00     0.022 C 
HETATM    4  C4  UNL     1      -6.862   3.809  14.379  1.00  0.00     0.084 C 
HETATM    5  C5  UNL     1      -7.668   3.213  13.256  1.00  0.00     0.149 C 
HETATM    6  O1  UNL     1      -7.545   2.042  12.903  1.00  0.00    -0.293 OA
HETATM    7  C6  UNL     1      -8.574   4.107  12.499  1.00  0.00     0.053 C 
HETATM    8  C7  UNL     1      -8.758   5.393  12.847  1.00  0.00    -0.067 C 
HETATM    9  C8  UNL     1      -9.580   6.291  11.954  1.00  0.00     0.035 C 
HETATM   10  C9  UNL     1     -10.640   7.055  12.734  1.00  0.00     0.010 C 
HETATM   11  C10 UNL     1     -10.014   7.847  13.891  1.00  0.00     0.003 C 
HETATM   12  C11 UNL     1      -9.243   6.882  14.841  1.00  0.00     0.072 C 
HETATM   13  C12 UNL     1      -8.767   7.651  16.091  1.00  0.00     0.133 C 
HETATM   14  O2  UNL     1      -7.620   7.588  16.530  1.00  0.00    -0.297 OA
HETATM   15  C13 UNL     1      -9.817   8.472  16.832  1.00  0.00     0.091 C 
HETATM   16  C14 UNL     1     -10.499   9.439  15.856  1.00  0.00     0.005 C 
HETATM   17  C15 UNL     1      -9.464  10.496  15.385  1.00  0.00     0.019 C 
HETATM   18  C16 UNL     1     -11.085   8.593  14.697  1.00  0.00     0.002 C 
HETATM   19  C17 UNL     1     -11.998   9.569  13.963  1.00  0.00     0.009 C 
HETATM   20  C18 UNL     1     -12.533  10.512  15.061  1.00  0.00     0.047 C 
HETATM   21  C19 UNL     1     -11.798  10.128  16.364  1.00  0.00     0.128 C 
ENDROOT
BRANCH  21  22
HETATM   22  O3  UNL     1     -12.619   9.153  17.033  1.00  0.00    -0.381 OA
HETATM   23  H25 UNL     1     -12.350   9.156  17.974  1.00  0.00     0.211 HD
ENDBRANCH  21  22
BRANCH  21  24
HETATM   24  C20 UNL     1     -11.558  11.248  17.393  1.00  0.00     0.185 C 
HETATM   25  O4  UNL     1     -11.751  12.422  17.051  1.00  0.00    -0.292 OA
BRANCH  24  26
HETATM   26  C21 UNL     1     -11.102  10.881  18.801  1.00  0.00     0.260 C 
BRANCH  26  27
HETATM   27  O5  UNL     1     -11.734  11.677  19.804  1.00  0.00    -0.314 OA
BRANCH  27  28
HETATM   28  C22 UNL     1     -11.841  11.057  21.013  1.00  0.00     0.259 C 
HETATM   29  O6  UNL     1     -12.892  10.674  21.511  1.00  0.00    -0.265 OA
BRANCH  28  30
HETATM   30  C23 UNL     1     -10.478  10.881  21.635  1.00  0.00     0.120 C 
BRANCH  30  31
HETATM   31  C24 UNL     1     -10.285  11.854  22.792  1.00  0.00     0.112 C 
BRANCH  31  32
HETATM   32  C25 UNL     1     -10.822  11.282  24.090  1.00  0.00     0.218 C 
HETATM   33  O7  UNL     1     -11.154  11.981  25.042  1.00  0.00    -0.274 OA
HETATM   34  N1  UNL     1     -10.865   9.906  24.102  1.00  0.00    -0.357 N 
HETATM   35  H32 UNL     1     -10.763   9.413  23.225  1.00  0.00     0.162 HD
BRANCH  34  36
HETATM   36  C26 UNL     1     -11.450   9.177  25.205  1.00  0.00     0.161 C 
BRANCH  36  37
HETATM   37  C27 UNL     1     -12.425   8.139  24.716  1.00  0.00    -0.038 A 
HETATM   38  C28 UNL     1     -13.487   7.708  25.517  1.00  0.00     0.025 A 
HETATM   39  C29 UNL     1     -14.349   6.745  25.015  1.00  0.00     0.088 A 
HETATM   40  N2  UNL     1     -14.226   6.187  23.792  1.00  0.00    -0.375 N 
HETATM   41  C30 UNL     1     -13.190   6.610  23.037  1.00  0.00     0.088 A 
ATOM     42  H2  UNL     1     -14.883   5.482  23.456  1.00  0.00     0.164 HD
HETATM   43  C31 UNL     1     -12.279   7.569  23.447  1.00  0.00     0.025 A 
ENDBRANCH  36  37
ENDBRANCH  34  36
ENDBRANCH  31  32
ENDBRANCH  30  31
ENDBRANCH  28  30
ENDBRANCH  27  28
ENDBRANCH  26  27
ENDBRANCH  24  26
ENDBRANCH  21  24
TORSDOF 10
ENDMDL
