MODEL 1
REMARK minimizedAffinity -9.04062843
REMARK CNNscore 0.769068539
REMARK CNNaffinity 7.27189684
REMARK  18 active torsions:
REMARK  status: ('A' for Active; 'I' for Inactive)
REMARK    1  A    between atoms: C2_2  and  C4_4 
REMARK    2  A    between atoms: C4_4  and  N1_5 
REMARK    3  A    between atoms: C4_4  and  C30_38 
REMARK       I    between atoms: N1_5  and  C5_6 
REMARK    4  A    between atoms: C5_6  and  C6_8 
REMARK    5  A    between atoms: C6_8  and  C7_9 
REMARK    6  A    between atoms: C7_9  and  C8_10 
REMARK    7  A    between atoms: C8_10  and  O3_12 
REMARK    8  A    between atoms: O3_12  and  C9_13 
REMARK    9  A    between atoms: C9_13  and  C10_14 
REMARK   10  A    between atoms: C10_14  and  C11_16 
REMARK   11  A    between atoms: C11_16  and  O5_17 
REMARK   12  A    between atoms: C26_33  and  O7_34 
REMARK       I    between atoms: C30_38  and  N2_40 
REMARK   13  A    between atoms: N2_40  and  C31_41 
REMARK   14  A    between atoms: C31_41  and  C32_42 
REMARK   15  A    between atoms: C32_42  and  C33_43 
REMARK   16  A    between atoms: C32_42  and  C35_47 
REMARK   17  A    between atoms: C33_43  and  C34_44 
REMARK   18  A    between atoms: C34_44  and  O10_46 
ROOT
HETATM    1  C8  UNL     1      -5.504   5.295  14.068  1.00  0.00     0.259 C 
HETATM    2  O2  UNL     1      -6.007   4.373  13.439  1.00  0.00    -0.265 OA
ENDROOT
BRANCH   1   3
HETATM    3  C7  UNL     1      -6.288   6.290  14.873  1.00  0.00     0.120 C 
BRANCH   3   4
HETATM    4  C6  UNL     1      -7.423   5.569  15.582  1.00  0.00     0.112 C 
BRANCH   4   5
HETATM    5  C5  UNL     1      -8.564   6.503  15.910  1.00  0.00     0.218 C 
HETATM    6  N1  UNL     1      -9.309   6.844  14.805  1.00  0.00    -0.347 N 
HETATM    7  H9  UNL     1      -9.257   6.240  13.992  1.00  0.00     0.163 HD
HETATM    8  O1  UNL     1      -8.828   6.896  17.043  1.00  0.00    -0.274 OA
BRANCH   6   9
HETATM    9  C4  UNL     1     -10.479   7.728  14.901  1.00  0.00     0.179 C 
BRANCH   9  10
HETATM   10  C2  UNL     1     -10.105   9.188  14.549  1.00  0.00     0.009 C 
HETATM   11  C1  UNL     1     -11.275  10.144  14.834  1.00  0.00     0.012 C 
HETATM   12  C3  UNL     1      -8.877   9.668  15.333  1.00  0.00     0.012 C 
ENDBRANCH   9  10
BRANCH   9  13
HETATM   13  C30 UNL     1     -11.576   7.151  13.967  1.00  0.00     0.240 C 
HETATM   14  O8  UNL     1     -11.507   7.180  12.740  1.00  0.00    -0.271 OA
HETATM   15  N2  UNL     1     -12.648   6.603  14.649  1.00  0.00    -0.359 N 
HETATM   16  H43 UNL     1     -12.606   6.597  15.665  1.00  0.00     0.162 HD
BRANCH  15  17
HETATM   17  C31 UNL     1     -13.813   6.062  13.973  1.00  0.00     0.132 C 
BRANCH  17  18
HETATM   18  C32 UNL     1     -15.157   6.536  14.562  1.00  0.00     0.046 C 
BRANCH  18  19
HETATM   19  C33 UNL     1     -15.878   7.487  13.590  1.00  0.00     0.120 C 
BRANCH  19  20
HETATM   20  C34 UNL     1     -16.229   6.817  12.289  1.00  0.00     0.140 C 
HETATM   21  O9  UNL     1     -16.840   5.770  12.159  1.00  0.00    -0.650 OA
BRANCH  20  22
HETATM   22  O10 UNL     1     -15.711   7.452  11.218  1.00  0.00    -0.776 OA
HETATM   23  H49 UNL     1     -15.948   6.883  10.457  1.00  0.00     0.167 HD
ENDBRANCH  20  22
ENDBRANCH  19  20
ENDBRANCH  18  19
BRANCH  18  24
HETATM   24  C35 UNL     1     -15.992   5.360  15.064  1.00  0.00    -0.052 A 
HETATM   25  C36 UNL     1     -15.508   4.055  14.869  1.00  0.00     0.007 A 
HETATM   26  C37 UNL     1     -16.251   2.945  15.277  1.00  0.00     0.001 A 
HETATM   27  C38 UNL     1     -17.490   3.122  15.886  1.00  0.00     0.000 A 
HETATM   28  C39 UNL     1     -17.987   4.407  16.081  1.00  0.00     0.001 A 
HETATM   29  C40 UNL     1     -17.248   5.518  15.670  1.00  0.00     0.007 A 
ENDBRANCH  18  24
ENDBRANCH  17  18
ENDBRANCH  15  17
ENDBRANCH   9  13
ENDBRANCH   6   9
ENDBRANCH   4   5
ENDBRANCH   3   4
ENDBRANCH   1   3
BRANCH   1  30
HETATM   30  O3  UNL     1      -4.171   5.523  14.204  1.00  0.00    -0.314 OA
BRANCH  30  31
HETATM   31  C9  UNL     1      -3.791   6.508  15.179  1.00  0.00     0.260 C 
BRANCH  31  32
HETATM   32  C10 UNL     1      -2.439   7.094  14.795  1.00  0.00     0.185 C 
HETATM   33  O4  UNL     1      -1.640   7.482  15.663  1.00  0.00    -0.292 OA
BRANCH  32  34
HETATM   34  C11 UNL     1      -2.046   7.247  13.305  1.00  0.00     0.128 C 
HETATM   35  C12 UNL     1      -2.721   8.407  12.538  1.00  0.00     0.047 C 
HETATM   36  C13 UNL     1      -1.736   8.809  11.413  1.00  0.00     0.009 C 
HETATM   37  C14 UNL     1      -0.642   7.743  11.465  1.00  0.00     0.002 C 
HETATM   38  C15 UNL     1       0.708   8.014  10.782  1.00  0.00    -0.002 C 
HETATM   39  C28 UNL     1      -0.530   7.409  12.972  1.00  0.00     0.001 C 
HETATM   40  C16 UNL     1       0.492   8.408   9.304  1.00  0.00     0.010 C 
HETATM   41  C25 UNL     1       1.598   6.724  10.916  1.00  0.00     0.031 C 
HETATM   42  C17 UNL     1       1.789   8.462   8.495  1.00  0.00     0.035 C 
HETATM   43  C18 UNL     1       2.548   7.171   8.686  1.00  0.00    -0.068 C 
HETATM   44  C19 UNL     1       2.707   6.325   7.651  1.00  0.00     0.053 C 
HETATM   45  C23 UNL     1       2.956   6.847  10.129  1.00  0.00    -0.014 C 
HETATM   46  C20 UNL     1       3.169   4.934   7.863  1.00  0.00     0.149 C 
HETATM   47  O6  UNL     1       3.360   4.206   6.894  1.00  0.00    -0.293 OA
HETATM   48  C21 UNL     1       3.277   4.436   9.282  1.00  0.00     0.084 C 
HETATM   49  C22 UNL     1       3.813   5.547  10.166  1.00  0.00     0.022 C 
HETATM   50  C24 UNL     1       3.884   7.966  10.671  1.00  0.00     0.020 C 
HETATM   51  C26 UNL     1       1.693   6.223  12.386  1.00  0.00     0.124 C 
HETATM   52  C27 UNL     1       0.327   6.131  13.100  1.00  0.00     0.045 C 
HETATM   53  C29 UNL     1       0.084   8.567  13.796  1.00  0.00     0.019 C 
BRANCH  34  54
HETATM   54  O5  UNL     1      -2.531   6.042  12.665  1.00  0.00    -0.381 OA
HETATM   55  H16 UNL     1      -2.588   5.353  13.360  1.00  0.00     0.211 HD
ENDBRANCH  34  54
BRANCH  51  56
HETATM   56  O7  UNL     1       2.587   6.982  13.186  1.00  0.00    -0.395 OA
HETATM   57  H37 UNL     1       2.589   7.902  12.883  1.00  0.00     0.210 HD
ENDBRANCH  51  56
ENDBRANCH  32  34
ENDBRANCH  31  32
ENDBRANCH  30  31
ENDBRANCH   1  30
TORSDOF 18
ENDMDL
