MODEL 1
REMARK minimizedAffinity -8.25580025
REMARK CNNscore 0.424257725
REMARK CNNaffinity 6.65771723
REMARK  12 active torsions:
REMARK  status: ('A' for Active; 'I' for Inactive)
REMARK    1  A    between atoms: O1_2  and  C2_3 
REMARK    2  A    between atoms: C3_5  and  C4_6 
REMARK    3  A    between atoms: C4_6  and  O3_7 
REMARK    4  A    between atoms: C4_6  and  C5_8 
REMARK    5  A    between atoms: C5_8  and  O4_10 
REMARK    6  A    between atoms: C5_8  and  C7_11 
REMARK    7  A    between atoms: C7_11  and  O5_12 
REMARK    8  A    between atoms: C9_14  and  C10_15 
REMARK    9  A    between atoms: C23_28  and  O6_29 
REMARK   10  A    between atoms: O6_29  and  C24_30 
REMARK   11  A    between atoms: C24_30  and  C25_32 
REMARK   12  A    between atoms: C34_41  and  O8_42 
ROOT
HETATM    1  C10 UNL     1      -2.270   7.740  13.483  1.00  0.00     0.004 C 
HETATM    2  C11 UNL     1      -0.973   8.362  12.915  1.00  0.00     0.007 C 
HETATM    3  C12 UNL     1      -0.180   8.891  14.115  1.00  0.00     0.011 C 
HETATM    4  C13 UNL     1      -1.251   9.246  15.133  1.00  0.00    -0.021 A 
HETATM    5  C14 UNL     1      -1.609   8.111  16.057  1.00  0.00     0.022 A 
HETATM    6  C15 UNL     1      -2.478   8.401  14.845  1.00  0.00    -0.027 A 
HETATM    7  C16 UNL     1      -3.881   8.861  15.180  1.00  0.00     0.011 C 
HETATM    8  C17 UNL     1      -4.005  10.365  15.431  1.00  0.00     0.007 C 
HETATM    9  C18 UNL     1      -2.840  10.914  16.287  1.00  0.00     0.005 C 
HETATM   10  C19 UNL     1      -3.104  12.336  16.955  1.00  0.00    -0.035 C 
HETATM   11  C20 UNL     1      -3.474  13.410  15.904  1.00  0.00     0.016 C 
HETATM   12  C21 UNL     1      -4.309  12.213  17.941  1.00  0.00     0.012 C 
HETATM   13  C22 UNL     1      -4.494  13.416  18.864  1.00  0.00     0.034 C 
HETATM   14  C23 UNL     1      -3.230  13.751  19.658  1.00  0.00     0.140 C 
HETATM   15  C29 UNL     1      -1.974  13.956  18.754  1.00  0.00    -0.016 C 
HETATM   16  C30 UNL     1      -0.746  14.045  19.703  1.00  0.00     0.018 C 
HETATM   17  C31 UNL     1      -2.028  15.304  18.004  1.00  0.00     0.018 C 
HETATM   18  C32 UNL     1      -1.834  12.700  17.815  1.00  0.00     0.007 C 
HETATM   19  C33 UNL     1      -0.542  12.657  16.965  1.00  0.00     0.038 C 
HETATM   20  C34 UNL     1      -0.293  11.255  16.385  1.00  0.00     0.128 C 
HETATM   21  C35 UNL     1      -1.472  10.750  15.504  1.00  0.00    -0.005 C 
HETATM   22  C36 UNL     1      -1.472  11.566  14.177  1.00  0.00     0.019 C 
ENDROOT
BRANCH   1  23
HETATM   23  C9  UNL     1      -2.354   6.206  13.433  1.00  0.00     0.048 C 
HETATM   24  C2  UNL     1      -3.510   5.545  12.679  1.00  0.00     0.264 C 
HETATM   25  O2  UNL     1      -3.029   4.263  12.221  1.00  0.00    -0.353 OA
HETATM   26  C3  UNL     1      -1.679   4.085  12.709  1.00  0.00     0.157 C 
HETATM   27  C8  UNL     1      -1.146   5.502  12.847  1.00  0.00     0.044 C 
BRANCH  24  28
HETATM   28  O1  UNL     1      -4.613   5.372  13.561  1.00  0.00    -0.366 OA
HETATM   29  C1  UNL     1      -5.778   4.931  12.877  1.00  0.00     0.204 C 
ENDBRANCH  24  28
BRANCH  26  30
HETATM   30  C4  UNL     1      -0.879   3.228  11.710  1.00  0.00     0.183 C 
BRANCH  30  31
HETATM   31  O3  UNL     1      -0.248   4.095  10.754  1.00  0.00    -0.390 OA
HETATM   32  H7  UNL     1      -0.870   4.838  10.626  1.00  0.00     0.210 HD
ENDBRANCH  30  31
BRANCH  30  33
HETATM   33  C5  UNL     1      -1.727   2.143  10.994  1.00  0.00     0.103 C 
HETATM   34  C6  UNL     1      -2.981   1.823  11.826  1.00  0.00     0.051 C 
BRANCH  33  35
HETATM   35  O4  UNL     1      -2.190   2.675   9.735  1.00  0.00    -0.385 OA
HETATM   36  H11 UNL     1      -2.572   1.905   9.267  1.00  0.00     0.210 HD
ENDBRANCH  33  35
BRANCH  33  37
HETATM   37  C7  UNL     1      -0.943   0.853  10.686  1.00  0.00     0.204 C 
BRANCH  37  38
HETATM   38  O5  UNL     1      -0.646   0.808   9.283  1.00  0.00    -0.398 OA
HETATM   39  H14 UNL     1      -0.004   0.083   9.157  1.00  0.00     0.209 HD
ENDBRANCH  37  38
ENDBRANCH  33  37
ENDBRANCH  30  33
ENDBRANCH  26  30
ENDBRANCH   1  23
BRANCH  20  40
HETATM   40  O8  UNL     1      -0.070  10.362  17.483  1.00  0.00    -0.395 OA
HETATM   41  H55 UNL     1       0.723  10.667  17.954  1.00  0.00     0.210 HD
ENDBRANCH  20  40
BRANCH  14  42
HETATM   42  O6  UNL     1      -3.465  14.954  20.420  1.00  0.00    -0.312 OA
BRANCH  42  43
HETATM   43  C24 UNL     1      -4.710  15.478  20.357  1.00  0.00     0.283 C 
HETATM   44  O7  UNL     1      -5.337  15.746  19.344  1.00  0.00    -0.260 OA
BRANCH  43  45
HETATM   45  C25 UNL     1      -5.302  15.618  21.705  1.00  0.00     0.084 C 
HETATM   46  C26 UNL     1      -5.938  14.685  22.442  1.00  0.00    -0.082 C 
HETATM   47  C27 UNL     1      -6.130  13.242  22.060  1.00  0.00     0.043 C 
HETATM   48  C28 UNL     1      -6.507  15.048  23.790  1.00  0.00     0.043 C 
ENDBRANCH  43  45
ENDBRANCH  42  43
ENDBRANCH  14  42
TORSDOF 12
ENDMDL
