MODEL 1
REMARK minimizedAffinity -8.36054993
REMARK CNNscore 0.22884579
REMARK CNNaffinity 5.91223001
REMARK  12 active torsions:
REMARK  status: ('A' for Active; 'I' for Inactive)
REMARK    1  A    between atoms: C3_3  and  O1_4 
REMARK    2  A    between atoms: N1_14  and  O2_16 
REMARK    3  A    between atoms: O2_16  and  C13_17 
REMARK    4  A    between atoms: C13_17  and  C14_18 
REMARK       I    between atoms: C14_18  and  N2_20 
REMARK    5  A    between atoms: N2_20  and  C15_21 
REMARK    6  A    between atoms: C15_21  and  C16_22 
REMARK    7  A    between atoms: C15_21  and  C27_38 
REMARK       I    between atoms: C16_22  and  N3_24 
REMARK    8  A    between atoms: N3_24  and  C17_25 
REMARK    9  A    between atoms: C17_25  and  C18_26 
REMARK   10  A    between atoms: C17_25  and  C20_30 
REMARK   11  A    between atoms: C18_26  and  C19_27 
REMARK   12  A    between atoms: C19_27  and  O6_29 
ROOT
HETATM    1  C1  UNL     1       8.692  18.667  21.318  1.00  0.00     0.015 C 
HETATM    2  C2  UNL     1       8.414  17.525  21.566  1.00  0.00    -0.078 C 
HETATM    3  C3  UNL     1       8.090  16.121  21.870  1.00  0.00     0.128 C 
HETATM    4  C4  UNL     1       8.582  15.718  23.263  1.00  0.00     0.052 C 
HETATM    5  C5  UNL     1       7.849  14.405  23.506  1.00  0.00     0.010 C 
HETATM    6  C6  UNL     1       6.422  14.707  23.040  1.00  0.00     0.002 C 
HETATM    7  C7  UNL     1       5.515  13.484  22.761  1.00  0.00    -0.004 C 
HETATM    8  C8  UNL     1       6.177  12.269  22.087  1.00  0.00     0.010 C 
HETATM    9  C9  UNL     1       5.194  11.108  21.910  1.00  0.00     0.035 C 
HETATM   10  C10 UNL     1       3.880  11.502  21.271  1.00  0.00    -0.069 C 
HETATM   11  C11 UNL     1       3.350  10.733  20.301  1.00  0.00     0.030 C 
HETATM   12  C12 UNL     1       1.990  11.000  19.744  1.00  0.00     0.032 C 
HETATM   13  N1  UNL     1       1.438  10.383  18.744  1.00  0.00    -0.271 N 
ATOM     14  H1  UNL     1       0.503  10.591  18.393  1.00  0.00     0.194 HD
HETATM   15  C30 UNL     1       1.151  12.049  20.444  1.00  0.00     0.060 C 
HETATM   16  C31 UNL     1       2.024  13.205  20.907  1.00  0.00     0.020 C 
HETATM   17  C32 UNL     1       3.201  12.754  21.822  1.00  0.00    -0.016 C 
HETATM   18  C33 UNL     1       2.604  12.412  23.213  1.00  0.00     0.020 C 
HETATM   19  C34 UNL     1       4.254  13.922  21.973  1.00  0.00     0.002 C 
HETATM   20  C35 UNL     1       4.648  14.582  20.621  1.00  0.00     0.007 C 
HETATM   21  C36 UNL     1       6.042  15.213  20.560  1.00  0.00     0.014 C 
HETATM   22  C37 UNL     1       6.552  15.774  21.899  1.00  0.00     0.003 C 
HETATM   23  C38 UNL     1       5.692  17.009  22.285  1.00  0.00     0.020 C 
ENDROOT
BRANCH   3  24
HETATM   24  O1  UNL     1       8.780  15.294  20.929  1.00  0.00    -0.377 OA
HETATM   25  H2  UNL     1       9.693  15.621  20.874  1.00  0.00     0.211 HD
ENDBRANCH   3  24
BRANCH  13  26
HETATM   26  O2  UNL     1       2.279   9.395  18.204  1.00  0.00    -0.271 OA
BRANCH  26  27
HETATM   27  C13 UNL     1       2.423   9.638  16.814  1.00  0.00     0.303 C 
BRANCH  27  28
HETATM   28  C14 UNL     1       1.165   9.200  16.061  1.00  0.00     0.244 C 
HETATM   29  O3  UNL     1       0.486   9.986  15.408  1.00  0.00    -0.271 OA
HETATM   30  N2  UNL     1       0.871   7.851  16.199  1.00  0.00    -0.346 N 
HETATM   31  H16 UNL     1       1.612   7.283  16.587  1.00  0.00     0.163 HD
BRANCH  30  32
HETATM   32  C15 UNL     1      -0.059   7.117  15.326  1.00  0.00     0.180 C 
BRANCH  32  33
HETATM   33  C16 UNL     1       0.353   7.435  13.860  1.00  0.00     0.241 C 
HETATM   34  O4  UNL     1      -0.316   8.135  13.104  1.00  0.00    -0.271 OA
HETATM   35  N3  UNL     1       1.579   6.924  13.487  1.00  0.00    -0.354 N 
HETATM   36  H18 UNL     1       2.117   6.388  14.166  1.00  0.00     0.162 HD
BRANCH  35  37
HETATM   37  C17 UNL     1       2.202   7.213  12.205  1.00  0.00     0.098 C 
BRANCH  37  38
HETATM   38  C18 UNL     1       2.502   8.707  11.992  1.00  0.00     0.135 C 
BRANCH  38  39
HETATM   39  C19 UNL     1       3.930   9.138  12.173  1.00  0.00     0.141 C 
HETATM   40  O5  UNL     1       4.357  10.144  12.709  1.00  0.00    -0.650 OA
BRANCH  39  41
HETATM   41  O6  UNL     1       4.790   8.233  11.654  1.00  0.00    -0.776 OA
HETATM   42  H22 UNL     1       5.675   8.590  11.872  1.00  0.00     0.167 HD
ENDBRANCH  39  41
ENDBRANCH  38  39
ENDBRANCH  37  38
BRANCH  37  43
HETATM   43  C20 UNL     1       1.528   6.492  10.993  1.00  0.00     0.014 C 
HETATM   44  C21 UNL     1       2.075   5.123  10.587  1.00  0.00     0.033 C 
HETATM   45  C22 UNL     1       3.436   5.187   9.901  1.00  0.00     0.169 C 
HETATM   46  O7  UNL     1       3.783   6.509   9.481  1.00  0.00    -0.381 OA
HETATM   47  C23 UNL     1       2.733   7.226   8.810  1.00  0.00     0.054 C 
HETATM   48  C24 UNL     1       2.361   6.530   7.491  1.00  0.00     0.045 C 
HETATM   49  C25 UNL     1       3.314   8.605   8.467  1.00  0.00     0.045 C 
HETATM   50  C26 UNL     1       1.502   7.394   9.736  1.00  0.00     0.044 C 
ENDBRANCH  37  43
ENDBRANCH  35  37
ENDBRANCH  32  33
BRANCH  32  51
HETATM   51  C27 UNL     1      -1.570   7.298  15.613  1.00  0.00     0.009 C 
HETATM   52  C28 UNL     1      -1.864   8.601  16.363  1.00  0.00     0.012 C 
HETATM   53  C29 UNL     1      -2.386   7.292  14.313  1.00  0.00     0.012 C 
ENDBRANCH  32  51
ENDBRANCH  30  32
ENDBRANCH  27  28
ENDBRANCH  26  27
ENDBRANCH  13  26
TORSDOF 12
ENDMDL
