MODEL 1
REMARK minimizedAffinity -7.53762245
REMARK CNNscore 0.493680954
REMARK CNNaffinity 7.33703375
REMARK  11 active torsions:
REMARK  status: ('A' for Active; 'I' for Inactive)
REMARK    1  A    between atoms: C19_20  and  O2_21 
REMARK    2  A    between atoms: C19_20  and  C20_22 
REMARK    3  A    between atoms: C20_22  and  C21_24 
REMARK    4  A    between atoms: C21_24  and  O4_25 
REMARK    5  A    between atoms: O4_25  and  C22_26 
REMARK    6  A    between atoms: C22_26  and  C23_28 
REMARK    7  A    between atoms: C23_28  and  C24_29 
REMARK    8  A    between atoms: C24_29  and  C25_30 
REMARK       I    between atoms: C25_30  and  N1_32 
REMARK    9  A    between atoms: N1_32  and  C26_33 
REMARK   10  A    between atoms: C26_33  and  C27_34 
REMARK   11  A    between atoms: C27_34  and  C28_35 
ROOT
HETATM    1  C1  UNL     1      -4.392   3.918   9.721  1.00  0.00     0.020 C 
HETATM    2  C2  UNL     1      -3.615   3.422  10.966  1.00  0.00    -0.016 C 
HETATM    3  C3  UNL     1      -2.115   3.715  10.662  1.00  0.00     0.022 C 
HETATM    4  C4  UNL     1      -1.149   2.909  11.513  1.00  0.00     0.084 C 
HETATM    5  C5  UNL     1      -1.420   1.443  11.302  1.00  0.00     0.149 C 
HETATM    6  O1  UNL     1      -0.527   0.602  11.227  1.00  0.00    -0.293 OA
HETATM    7  C6  UNL     1      -2.838   1.014  11.265  1.00  0.00     0.053 C 
HETATM    8  C7  UNL     1      -3.831   1.914  11.165  1.00  0.00    -0.068 C 
HETATM    9  C8  UNL     1      -5.258   1.486  11.401  1.00  0.00     0.035 C 
HETATM   10  C9  UNL     1      -5.783   2.175  12.662  1.00  0.00     0.010 C 
HETATM   11  C10 UNL     1      -5.609   3.706  12.612  1.00  0.00    -0.004 C 
HETATM   12  C11 UNL     1      -4.128   4.108  12.284  1.00  0.00     0.002 C 
HETATM   13  C12 UNL     1      -3.944   5.646  12.322  1.00  0.00     0.007 C 
HETATM   14  C13 UNL     1      -4.486   6.297  13.609  1.00  0.00     0.013 C 
HETATM   15  C14 UNL     1      -5.954   5.918  13.884  1.00  0.00    -0.002 C 
HETATM   16  C15 UNL     1      -6.866   6.535  12.787  1.00  0.00     0.019 C 
HETATM   17  C16 UNL     1      -6.018   4.369  13.932  1.00  0.00     0.002 C 
HETATM   18  C17 UNL     1      -7.406   4.083  14.485  1.00  0.00     0.009 C 
HETATM   19  C18 UNL     1      -7.658   5.217  15.495  1.00  0.00     0.047 C 
HETATM   20  C19 UNL     1      -6.515   6.256  15.301  1.00  0.00     0.128 C 
ENDROOT
BRANCH  20  21
HETATM   21  O2  UNL     1      -5.517   5.992  16.293  1.00  0.00    -0.381 OA
HETATM   22  H27 UNL     1      -5.936   6.084  17.170  1.00  0.00     0.211 HD
ENDBRANCH  20  21
BRANCH  20  23
HETATM   23  C20 UNL     1      -7.003   7.711  15.467  1.00  0.00     0.185 C 
HETATM   24  O3  UNL     1      -6.259   8.677  15.268  1.00  0.00    -0.292 OA
BRANCH  23  25
HETATM   25  C21 UNL     1      -8.450   7.910  15.919  1.00  0.00     0.260 C 
BRANCH  25  26
HETATM   26  O4  UNL     1      -9.342   8.051  14.813  1.00  0.00    -0.314 OA
BRANCH  26  27
HETATM   27  C22 UNL     1     -10.491   8.720  15.111  1.00  0.00     0.259 C 
HETATM   28  O5  UNL     1     -11.500   8.716  14.420  1.00  0.00    -0.265 OA
BRANCH  27  29
HETATM   29  C23 UNL     1     -10.365   9.416  16.437  1.00  0.00     0.120 C 
BRANCH  29  30
HETATM   30  C24 UNL     1     -11.646  10.169  16.760  1.00  0.00     0.112 C 
BRANCH  30  31
HETATM   31  C25 UNL     1     -11.912  10.210  18.248  1.00  0.00     0.218 C 
HETATM   32  O6  UNL     1     -11.939  11.245  18.904  1.00  0.00    -0.274 OA
HETATM   33  N1  UNL     1     -12.127   8.963  18.790  1.00  0.00    -0.361 N 
HETATM   34  H34 UNL     1     -12.336   8.193  18.167  1.00  0.00     0.162 HD
BRANCH  33  35
HETATM   35  C26 UNL     1     -12.468   8.793  20.192  1.00  0.00     0.127 C 
BRANCH  35  36
HETATM   36  C27 UNL     1     -13.802   8.069  20.400  1.00  0.00     0.058 C 
BRANCH  36  37
HETATM   37  C28 UNL     1     -13.725   7.001  21.466  1.00  0.00    -0.057 A 
HETATM   38  C29 UNL     1     -14.236   5.718  21.224  1.00  0.00     0.007 A 
HETATM   39  C30 UNL     1     -14.150   4.727  22.203  1.00  0.00     0.001 A 
HETATM   40  C31 UNL     1     -13.553   5.007  23.430  1.00  0.00     0.000 A 
HETATM   41  C32 UNL     1     -13.041   6.279  23.681  1.00  0.00     0.001 A 
HETATM   42  C33 UNL     1     -13.125   7.272  22.704  1.00  0.00     0.007 A 
ENDBRANCH  36  37
ENDBRANCH  35  36
ENDBRANCH  33  35
ENDBRANCH  30  31
ENDBRANCH  29  30
ENDBRANCH  27  29
ENDBRANCH  26  27
ENDBRANCH  25  26
ENDBRANCH  23  25
ENDBRANCH  20  23
TORSDOF 11
ENDMDL
