MODEL 1
REMARK minimizedAffinity -9.5903101
REMARK CNNscore 0.51924485
REMARK CNNaffinity 7.02983236
REMARK  15 active torsions:
REMARK  status: ('A' for Active; 'I' for Inactive)
REMARK    1  A    between atoms: C14_14  and  C15_15 
REMARK    2  A    between atoms: C15_15  and  C16_16 
REMARK    3  A    between atoms: C16_16  and  O1_17 
REMARK    4  A    between atoms: C16_16  and  C23_29 
REMARK    5  A    between atoms: O1_17  and  C17_18 
REMARK    6  A    between atoms: C18_20  and  C19_21 
REMARK    7  A    between atoms: C19_21  and  O3_22 
REMARK    8  A    between atoms: C20_23  and  O4_24 
REMARK    9  A    between atoms: C21_25  and  O5_26 
REMARK   10  A    between atoms: C22_27  and  O6_28 
REMARK   11  A    between atoms: C25_31  and  C26_32 
REMARK   12  A    between atoms: C26_32  and  O7_33 
REMARK   13  A    between atoms: O7_33  and  C27_34 
REMARK   14  A    between atoms: C27_34  and  C28_36 
REMARK   15  A    between atoms: C28_36  and  C29_37 
ROOT
HETATM    1  C16 UNL     1      -1.194   5.366  13.130  1.00  0.00     0.153 C 
ENDROOT
BRANCH   1   2
HETATM    2  C15 UNL     1      -2.202   6.346  12.487  1.00  0.00     0.046 C 
BRANCH   2   3
HETATM    3  C14 UNL     1      -3.699   5.930  12.653  1.00  0.00     0.025 C 
HETATM    4  C2  UNL     1      -3.978   4.420  12.583  1.00  0.00    -0.084 C 
HETATM    5  C1  UNL     1      -3.078   3.425  12.618  1.00  0.00     0.014 C 
HETATM    6  C3  UNL     1      -5.448   4.084  12.499  1.00  0.00     0.034 C 
HETATM    7  C4  UNL     1      -6.219   4.679  13.678  1.00  0.00     0.010 C 
HETATM    8  C5  UNL     1      -5.967   6.197  13.811  1.00  0.00     0.002 C 
HETATM    9  C6  UNL     1      -6.934   6.919  14.813  1.00  0.00    -0.043 C 
HETATM   10  C12 UNL     1      -4.420   6.527  13.949  1.00  0.00    -0.032 C 
HETATM   11  C7  UNL     1      -6.903   6.355  16.246  1.00  0.00     0.015 C 
HETATM   12  C8  UNL     1      -8.403   6.781  14.325  1.00  0.00     0.015 C 
HETATM   13  C9  UNL     1      -6.620   8.436  14.825  1.00  0.00     0.009 C 
HETATM   14  C10 UNL     1      -5.150   8.759  15.038  1.00  0.00     0.002 C 
HETATM   15  C11 UNL     1      -4.265   8.075  14.001  1.00  0.00     0.010 C 
HETATM   16  C13 UNL     1      -3.749   5.919  15.206  1.00  0.00     0.016 C 
ENDBRANCH   2   3
ENDBRANCH   1   2
BRANCH   1  17
HETATM   17  O1  UNL     1      -0.596   6.040  14.251  1.00  0.00    -0.349 OA
BRANCH  17  18
HETATM   18  C17 UNL     1      -0.610   7.463  14.150  1.00  0.00     0.292 C 
HETATM   19  O2  UNL     1       0.658   7.808  13.555  1.00  0.00    -0.348 OA
HETATM   20  C18 UNL     1       1.083   9.124  13.885  1.00  0.00     0.179 C 
HETATM   21  C20 UNL     1       1.442   9.225  15.384  1.00  0.00     0.180 C 
HETATM   22  C21 UNL     1       0.553   8.300  16.240  1.00  0.00     0.183 C 
HETATM   23  C22 UNL     1      -0.815   8.102  15.558  1.00  0.00     0.204 C 
BRANCH  20  24
HETATM   24  C19 UNL     1       2.284   9.511  13.017  1.00  0.00     0.198 C 
BRANCH  24  25
HETATM   25  O3  UNL     1       2.646  10.875  13.231  1.00  0.00    -0.398 OA
HETATM   26  H31 UNL     1       1.998  11.422  12.741  1.00  0.00     0.209 HD
ENDBRANCH  24  25
ENDBRANCH  20  24
BRANCH  21  27
HETATM   27  O4  UNL     1       1.247  10.584  15.803  1.00  0.00    -0.390 OA
HETATM   28  H33 UNL     1       1.964  11.090  15.363  1.00  0.00     0.210 HD
ENDBRANCH  21  27
BRANCH  22  29
HETATM   29  O5  UNL     1       1.211   7.052  16.482  1.00  0.00    -0.390 OA
HETATM   30  H35 UNL     1       1.214   6.545  15.642  1.00  0.00     0.210 HD
ENDBRANCH  22  29
BRANCH  23  31
HETATM   31  O6  UNL     1      -1.517   9.354  15.429  1.00  0.00    -0.388 OA
HETATM   32  H37 UNL     1      -0.994  10.043  15.893  1.00  0.00     0.210 HD
ENDBRANCH  23  31
ENDBRANCH  17  18
ENDBRANCH   1  17
BRANCH   1  33
HETATM   33  C23 UNL     1      -0.114   4.840  12.188  1.00  0.00    -0.057 C 
HETATM   34  C24 UNL     1      -0.242   3.374  11.858  1.00  0.00     0.046 C 
HETATM   35  C25 UNL     1       0.915   5.612  11.774  1.00  0.00     0.005 C 
BRANCH  35  36
HETATM   36  C26 UNL     1       2.083   5.239  10.919  1.00  0.00     0.206 C 
BRANCH  36  37
HETATM   37  O7  UNL     1       1.738   5.557   9.567  1.00  0.00    -0.318 OA
BRANCH  37  38
HETATM   38  C27 UNL     1       2.776   5.816   8.724  1.00  0.00     0.259 C 
HETATM   39  O8  UNL     1       3.406   4.980   8.093  1.00  0.00    -0.265 OA
BRANCH  38  40
HETATM   40  C28 UNL     1       3.006   7.312   8.668  1.00  0.00     0.115 C 
BRANCH  40  41
HETATM   41  C29 UNL     1       2.029   8.041   7.734  1.00  0.00    -0.013 C 
HETATM   42  C30 UNL     1       1.771   7.195   6.487  1.00  0.00     0.010 C 
HETATM   43  C31 UNL     1       0.705   8.350   8.434  1.00  0.00     0.010 C 
ENDBRANCH  40  41
ENDBRANCH  38  40
ENDBRANCH  37  38
ENDBRANCH  36  37
ENDBRANCH  35  36
ENDBRANCH   1  33
TORSDOF 15
ENDMDL
