MODEL 1
REMARK minimizedAffinity -9.22764206
REMARK CNNscore 0.560009956
REMARK CNNaffinity 7.08355093
REMARK  14 active torsions:
REMARK  status: ('A' for Active; 'I' for Inactive)
REMARK    1  A    between atoms: C19_20  and  O2_21 
REMARK    2  A    between atoms: C19_20  and  C20_22 
REMARK    3  A    between atoms: C20_22  and  C21_24 
REMARK    4  A    between atoms: C21_24  and  O4_25 
REMARK    5  A    between atoms: O4_25  and  C22_26 
REMARK    6  A    between atoms: C22_26  and  C23_28 
REMARK    7  A    between atoms: C23_28  and  C24_29 
REMARK    8  A    between atoms: C24_29  and  C25_30 
REMARK       I    between atoms: C25_30  and  N1_32 
REMARK    9  A    between atoms: N1_32  and  C26_33 
REMARK   10  A    between atoms: C26_33  and  C27_34 
REMARK   11  A    between atoms: C27_34  and  C28_35 
REMARK   12  A    between atoms: C27_34  and  C30_39 
REMARK   13  A    between atoms: C28_35  and  C29_36 
REMARK   14  A    between atoms: C29_36  and  O8_38 
ROOT
HETATM    1  C20 UNL     1      -6.075  48.707 -24.673  1.00  0.00     0.185 C 
HETATM    2  O3  UNL     1      -7.217  48.224 -24.660  1.00  0.00    -0.292 OA
ENDROOT
BRANCH   1   3
HETATM    3  C19 UNL     1      -5.691  49.735 -23.591  1.00  0.00     0.128 C 
HETATM    4  C14 UNL     1      -4.297  49.494 -22.932  1.00  0.00    -0.002 C 
HETATM    5  C13 UNL     1      -3.063  49.856 -23.776  1.00  0.00     0.013 C 
HETATM    6  C15 UNL     1      -4.172  48.027 -22.444  1.00  0.00     0.019 C 
HETATM    7  C16 UNL     1      -4.377  50.520 -21.774  1.00  0.00     0.002 C 
HETATM    8  C12 UNL     1      -1.771  49.887 -22.937  1.00  0.00     0.007 C 
HETATM    9  C11 UNL     1      -1.872  50.796 -21.685  1.00  0.00     0.002 C 
HETATM   10  C2  UNL     1      -0.582  50.819 -20.786  1.00  0.00    -0.016 C 
HETATM   11  C10 UNL     1      -3.159  50.473 -20.844  1.00  0.00    -0.004 C 
HETATM   12  C1  UNL     1      -0.273  49.423 -20.186  1.00  0.00     0.020 C 
HETATM   13  C3  UNL     1       0.705  51.230 -21.560  1.00  0.00     0.022 C 
HETATM   14  C7  UNL     1      -0.869  51.833 -19.667  1.00  0.00    -0.068 C 
HETATM   15  C4  UNL     1       0.797  52.718 -21.846  1.00  0.00     0.084 C 
HETATM   16  C5  UNL     1       0.740  53.477 -20.544  1.00  0.00     0.149 C 
HETATM   17  O1  UNL     1       1.396  54.494 -20.339  1.00  0.00    -0.293 OA
HETATM   18  C6  UNL     1      -0.227  53.006 -19.524  1.00  0.00     0.053 C 
HETATM   19  C8  UNL     1      -2.053  51.512 -18.790  1.00  0.00     0.035 C 
HETATM   20  C9  UNL     1      -3.313  51.442 -19.655  1.00  0.00     0.010 C 
HETATM   21  C17 UNL     1      -5.762  50.283 -21.180  1.00  0.00     0.009 C 
HETATM   22  C18 UNL     1      -6.643  49.882 -22.382  1.00  0.00     0.047 C 
BRANCH   3  23
HETATM   23  O2  UNL     1      -5.690  51.010 -24.263  1.00  0.00    -0.381 OA
HETATM   24  H27 UNL     1      -5.319  50.848 -25.155  1.00  0.00     0.211 HD
ENDBRANCH   3  23
ENDBRANCH   1   3
BRANCH   1  25
HETATM   25  C21 UNL     1      -5.052  48.328 -25.741  1.00  0.00     0.260 C 
BRANCH  25  26
HETATM   26  O4  UNL     1      -5.677  47.960 -26.973  1.00  0.00    -0.314 OA
BRANCH  26  27
HETATM   27  C22 UNL     1      -4.885  48.112 -28.070  1.00  0.00     0.259 C 
HETATM   28  O5  UNL     1      -3.661  48.182 -28.048  1.00  0.00    -0.265 OA
BRANCH  27  29
HETATM   29  C23 UNL     1      -5.730  48.156 -29.319  1.00  0.00     0.120 C 
BRANCH  29  30
HETATM   30  C24 UNL     1      -5.993  46.753 -29.853  1.00  0.00     0.112 C 
BRANCH  30  31
HETATM   31  C25 UNL     1      -7.097  46.057 -29.081  1.00  0.00     0.218 C 
HETATM   32  O6  UNL     1      -7.173  44.837 -28.970  1.00  0.00    -0.274 OA
HETATM   33  N1  UNL     1      -8.019  46.930 -28.547  1.00  0.00    -0.360 N 
HETATM   34  H34 UNL     1      -7.999  47.897 -28.854  1.00  0.00     0.162 HD
BRANCH  33  35
HETATM   35  C26 UNL     1      -9.166  46.482 -27.783  1.00  0.00     0.132 C 
BRANCH  35  36
HETATM   36  C27 UNL     1     -10.538  46.718 -28.461  1.00  0.00     0.046 C 
BRANCH  36  37
HETATM   37  C28 UNL     1     -11.724  46.487 -27.501  1.00  0.00     0.120 C 
BRANCH  37  38
HETATM   38  C29 UNL     1     -12.381  47.676 -26.847  1.00  0.00     0.140 C 
HETATM   39  O7  UNL     1     -13.527  47.670 -26.416  1.00  0.00    -0.650 OA
BRANCH  38  40
HETATM   40  O8  UNL     1     -11.645  48.795 -26.733  1.00  0.00    -0.776 OA
HETATM   41  H40 UNL     1     -12.221  49.386 -26.201  1.00  0.00     0.167 HD
ENDBRANCH  38  40
ENDBRANCH  37  38
ENDBRANCH  36  37
BRANCH  36  42
HETATM   42  C30 UNL     1     -10.745  46.134 -29.859  1.00  0.00    -0.052 A 
HETATM   43  C31 UNL     1     -10.753  47.006 -30.965  1.00  0.00     0.007 A 
HETATM   44  C32 UNL     1     -10.924  46.525 -32.265  1.00  0.00     0.001 A 
HETATM   45  C33 UNL     1     -11.082  45.161 -32.487  1.00  0.00     0.000 A 
HETATM   46  C34 UNL     1     -11.069  44.281 -31.409  1.00  0.00     0.001 A 
HETATM   47  C35 UNL     1     -10.899  44.763 -30.106  1.00  0.00     0.007 A 
ENDBRANCH  36  42
ENDBRANCH  35  36
ENDBRANCH  33  35
ENDBRANCH  30  31
ENDBRANCH  29  30
ENDBRANCH  27  29
ENDBRANCH  26  27
ENDBRANCH  25  26
ENDBRANCH   1  25
TORSDOF 14
ENDMDL
