MODEL 1
REMARK minimizedAffinity -8.95064926
REMARK CNNscore 0.749090552
REMARK CNNaffinity 5.82250214
REMARK  14 active torsions:
REMARK  status: ('A' for Active; 'I' for Inactive)
REMARK    1  A    between atoms: C2_2  and  O1_3 
REMARK    2  A    between atoms: O1_3  and  C3_4 
REMARK    3  A    between atoms: C4_6  and  C5_7 
REMARK    4  A    between atoms: C5_7  and  O3_8 
REMARK    5  A    between atoms: C5_7  and  C6_9 
REMARK    6  A    between atoms: C6_9  and  O4_10 
REMARK    7  A    between atoms: O4_10  and  C7_11 
REMARK    8  A    between atoms: C12_16  and  C13_17 
REMARK    9  A    between atoms: C13_17  and  O5_19 
REMARK   10  A    between atoms: C13_17  and  C15_20 
REMARK   11  A    between atoms: C15_20  and  O6_21 
REMARK   12  A    between atoms: C18_24  and  O7_26 
REMARK   13  A    between atoms: C22_29  and  O8_30 
REMARK   14  A    between atoms: C23_31  and  O9_32 
ROOT
HETATM    1  C7  UNL     1      -2.236   5.526  12.877  1.00  0.00     0.126 C 
HETATM    2  C8  UNL     1      -2.225   6.153  14.260  1.00  0.00     0.040 C 
HETATM    3  C9  UNL     1      -3.712   6.389  14.599  1.00  0.00     0.026 C 
HETATM    4  C10 UNL     1      -4.467   5.252  13.856  1.00  0.00    -0.001 C 
HETATM    5  C11 UNL     1      -5.791   5.561  13.150  1.00  0.00     0.013 C 
HETATM    6  C12 UNL     1      -6.903   6.129  14.065  1.00  0.00     0.022 C 
HETATM    7  C16 UNL     1      -6.744   7.661  14.160  1.00  0.00     0.010 C 
HETATM    8  C17 UNL     1      -5.550   8.133  14.980  1.00  0.00     0.038 C 
HETATM    9  C18 UNL     1      -4.141   7.868  14.427  1.00  0.00     0.058 C 
HETATM   10  C19 UNL     1      -3.933   8.458  13.029  1.00  0.00     0.046 C 
HETATM   11  C20 UNL     1      -3.397   4.537  12.978  1.00  0.00     0.015 C 
HETATM   12  C21 UNL     1      -3.824   4.032  11.602  1.00  0.00     0.013 C 
ENDROOT
BRANCH   1  13
HETATM   13  O4  UNL     1      -1.029   4.827  12.591  1.00  0.00    -0.383 OA
BRANCH  13  14
HETATM   14  C6  UNL     1      -0.296   5.406  11.501  1.00  0.00     0.202 C 
BRANCH  14  15
HETATM   15  C5  UNL     1       0.953   6.069  12.091  1.00  0.00     0.173 C 
BRANCH  15  16
HETATM   16  C4  UNL     1       2.237   5.643  11.365  1.00  0.00     0.187 C 
HETATM   17  O2  UNL     1       1.940   5.387   9.967  1.00  0.00    -0.348 OA
HETATM   18  C3  UNL     1       2.771   6.243   9.165  1.00  0.00     0.291 C 
HETATM   19  C23 UNL     1       4.025   6.467  10.016  1.00  0.00     0.204 C 
HETATM   20  C22 UNL     1       3.420   6.628  11.404  1.00  0.00     0.183 C 
BRANCH  18  21
HETATM   21  O1  UNL     1       2.133   7.488   8.902  1.00  0.00    -0.359 OA
BRANCH  21  22
HETATM   22  C2  UNL     1       2.501   8.019   7.632  1.00  0.00     0.166 C 
HETATM   23  C1  UNL     1       1.806   7.202   6.560  1.00  0.00     0.033 C 
ENDBRANCH  21  22
ENDBRANCH  18  21
BRANCH  19  24
HETATM   24  O9  UNL     1       4.885   5.317   9.986  1.00  0.00    -0.388 OA
HETATM   25  H42 UNL     1       4.320   4.522   9.954  1.00  0.00     0.210 HD
ENDBRANCH  19  24
BRANCH  20  26
HETATM   26  O8  UNL     1       3.036   7.984  11.632  1.00  0.00    -0.390 OA
HETATM   27  H40 UNL     1       2.188   8.124  11.149  1.00  0.00     0.210 HD
ENDBRANCH  20  26
ENDBRANCH  15  16
BRANCH  15  28
HETATM   28  O3  UNL     1       1.022   5.754  13.494  1.00  0.00    -0.391 OA
HETATM   29  H9  UNL     1       0.119   5.928  13.831  1.00  0.00     0.210 HD
ENDBRANCH  15  28
ENDBRANCH  14  15
ENDBRANCH  13  14
ENDBRANCH   1  13
BRANCH   9  30
HETATM   30  O7  UNL     1      -3.257   8.618  15.297  1.00  0.00    -0.390 OA
HETATM   31  H34 UNL     1      -3.483   9.561  15.219  1.00  0.00     0.210 HD
ENDBRANCH   9  30
BRANCH   6  32
HETATM   32  C13 UNL     1      -8.338   5.726  13.547  1.00  0.00     0.079 C 
HETATM   33  C14 UNL     1      -8.441   5.814  12.013  1.00  0.00     0.048 C 
BRANCH  32  34
HETATM   34  O5  UNL     1      -8.585   4.361  13.915  1.00  0.00    -0.388 OA
HETATM   35  H23 UNL     1      -9.461   4.107  13.574  1.00  0.00     0.210 HD
ENDBRANCH  32  34
BRANCH  32  36
HETATM   36  C15 UNL     1      -9.464   6.617  14.148  1.00  0.00     0.201 C 
BRANCH  36  37
HETATM   37  O6  UNL     1      -9.728   6.329  15.514  1.00  0.00    -0.398 OA
HETATM   38  H26 UNL     1      -8.969   6.639  16.040  1.00  0.00     0.209 HD
ENDBRANCH  36  37
ENDBRANCH  32  36
ENDBRANCH   6  32
TORSDOF 14
ENDMDL
