MODEL 1
REMARK minimizedAffinity -11.0786982
REMARK CNNscore 0.406643093
REMARK CNNaffinity 8.04326153
REMARK  7 active torsions:
REMARK  status: ('A' for Active; 'I' for Inactive)
REMARK    1  A    between atoms: C2_2  and  C3_3 
REMARK    2  A    between atoms: C9_10  and  O1_11 
REMARK    3  A    between atoms: C18_22  and  C19_23 
REMARK    4  A    between atoms: C33_39  and  C34_40 
REMARK    5  A    between atoms: C34_40  and  O2_41 
REMARK    6  A    between atoms: C35_42  and  C38_45 
REMARK    7  A    between atoms: C39_46  and  O3_47 
ROOT
HETATM    1  C19 UNL     1      -0.465  51.113 -17.836  1.00  0.00    -0.003 C 
HETATM    2  C20 UNL     1       0.243  51.180 -18.985  1.00  0.00     0.102 C 
HETATM    3  N3  UNL     1      -0.259  50.847 -20.234  1.00  0.00    -0.349 N 
HETATM    4  C21 UNL     1      -0.085  51.620 -21.405  1.00  0.00     0.041 A 
HETATM    5  C22 UNL     1       0.924  52.540 -21.669  1.00  0.00     0.030 A 
HETATM    6  C23 UNL     1       0.913  53.238 -22.876  1.00  0.00     0.002 A 
HETATM    7  C24 UNL     1      -0.088  53.005 -23.824  1.00  0.00     0.001 A 
HETATM    8  C25 UNL     1      -1.094  52.076 -23.571  1.00  0.00     0.010 A 
HETATM    9  C26 UNL     1      -1.093  51.400 -22.353  1.00  0.00    -0.018 A 
HETATM   10  C27 UNL     1      -2.062  50.360 -21.844  1.00  0.00     0.041 C 
HETATM   11  C28 UNL     1      -1.875  49.025 -22.602  1.00  0.00     0.046 C 
HETATM   12  C29 UNL     1      -3.144  48.808 -23.394  1.00  0.00     0.239 C 
HETATM   13  N4  UNL     1      -4.249  49.479 -22.583  1.00  0.00    -0.062 N 
HETATM   14  C30 UNL     1      -5.417  49.791 -23.523  1.00  0.00     0.273 C 
HETATM   15  C31 UNL     1      -4.778  48.613 -21.436  1.00  0.00     0.271 C 
HETATM   16  C32 UNL     1      -4.204  48.865 -20.048  1.00  0.00    -0.051 C 
HETATM   17  C33 UNL     1      -4.029  47.768 -19.270  1.00  0.00     0.004 C 
HETATM   18  C35 UNL     1      -3.964  50.332 -19.624  1.00  0.00     0.027 C 
HETATM   19  C36 UNL     1      -4.364  51.213 -20.820  1.00  0.00     0.044 C 
HETATM   20  C37 UNL     1      -3.565  50.756 -22.045  1.00  0.00     0.206 C 
HETATM   21  C38 UNL     1      -2.507  50.809 -19.345  1.00  0.00     0.052 C 
HETATM   22  C39 UNL     1      -1.933  50.670 -17.926  1.00  0.00     0.160 C 
HETATM   23  C40 UNL     1      -1.569  50.197 -20.366  1.00  0.00     0.112 C 
ENDROOT
BRANCH   1  24
HETATM   24  C18 UNL     1       0.121  51.476 -16.519  1.00  0.00    -0.016 C 
HETATM   25  C3  UNL     1       1.556  51.774 -16.245  1.00  0.00    -0.032 C 
HETATM   26  C4  UNL     1       1.987  51.775 -14.968  1.00  0.00     0.099 C 
HETATM   27  N1  UNL     1       1.164  51.614 -13.852  1.00  0.00    -0.354 N 
HETATM   28  C5  UNL     1       1.697  52.001 -12.516  1.00  0.00     0.133 C 
HETATM   29  C16 UNL     1      -0.235  51.645 -14.065  1.00  0.00     0.062 C 
HETATM   30  C6  UNL     1       0.738  51.648 -11.375  1.00  0.00     0.062 C 
HETATM   31  C7  UNL     1      -0.653  52.080 -11.702  1.00  0.00    -0.012 C 
HETATM   32  C8  UNL     1      -1.622  52.633 -10.971  1.00  0.00     0.033 A 
HETATM   33  C15 UNL     1      -1.103  51.915 -13.071  1.00  0.00     0.067 C 
HETATM   34  C9  UNL     1      -1.786  53.080  -9.617  1.00  0.00     0.081 A 
HETATM   35  C14 UNL     1      -2.720  52.697 -11.957  1.00  0.00     0.046 A 
HETATM   36  C11 UNL     1      -2.978  53.618  -9.273  1.00  0.00     0.038 A 
HETATM   37  C12 UNL     1      -4.084  53.707 -10.223  1.00  0.00     0.005 A 
HETATM   38  C13 UNL     1      -4.000  53.268 -11.492  1.00  0.00     0.030 A 
HETATM   39  N2  UNL     1      -2.443  52.237 -13.145  1.00  0.00    -0.353 N 
ATOM     40  H2  UNL     1      -3.070  52.138 -13.943  1.00  0.00     0.166 HD
HETATM   41  C17 UNL     1      -0.694  51.438 -15.436  1.00  0.00     0.044 C 
BRANCH  25  42
HETATM   42  C2  UNL     1       2.529  52.163 -17.334  1.00  0.00     0.036 C 
HETATM   43  C1  UNL     1       3.907  52.542 -16.784  1.00  0.00     0.010 C 
ENDBRANCH  25  42
BRANCH  34  44
HETATM   44  O1  UNL     1      -0.669  52.925  -8.833  1.00  0.00    -0.355 OA
HETATM   45  C10 UNL     1      -0.434  53.896  -7.823  1.00  0.00     0.210 C 
ENDBRANCH  34  44
ENDBRANCH   1  24
BRANCH  22  46
HETATM   46  O3  UNL     1      -2.798  51.422 -17.079  1.00  0.00    -0.390 OA
HETATM   47  H42 UNL     1      -2.248  52.072 -16.593  1.00  0.00     0.210 HD
ENDBRANCH  22  46
BRANCH  17  48
HETATM   48  C34 UNL     1      -3.639  47.646 -17.843  1.00  0.00     0.191 C 
BRANCH  48  49
HETATM   49  O2  UNL     1      -2.303  47.176 -17.857  1.00  0.00    -0.397 OA
HETATM   50  H35 UNL     1      -2.252  46.390 -17.281  1.00  0.00     0.209 HD
ENDBRANCH  48  49
ENDBRANCH  17  48
TORSDOF 7
ENDMDL
