MODEL 1
REMARK minimizedAffinity -7.08862734
REMARK CNNscore 0.5097
REMARK CNNaffinity 6.68765593
REMARK  6 active torsions:
REMARK  status: ('A' for Active; 'I' for Inactive)
REMARK    1  A    between atoms: C2_2  and  C30_32 
REMARK    2  A    between atoms: C3_3  and  C4_4 
REMARK    3  A    between atoms: C4_4  and  C5_5 
REMARK    4  A    between atoms: C5_5  and  C6_6 
REMARK    5  A    between atoms: C6_6  and  C8_8 
REMARK    6  A    between atoms: C30_32  and  O4_34 
ROOT
HETATM    1  C8  UNL     1     -12.389 -12.419  29.100  1.00  0.00    -0.002 C 
HETATM    2  C9  UNL     1     -12.813 -13.041  30.431  1.00  0.00     0.007 C 
HETATM    3  C10 UNL     1     -12.981 -11.833  31.335  1.00  0.00     0.015 C 
HETATM    4  C11 UNL     1     -13.807 -10.828  30.497  1.00  0.00    -0.005 C 
HETATM    5  C12 UNL     1     -15.311 -11.201  30.638  1.00  0.00     0.021 C 
HETATM    6  C13 UNL     1     -13.645  -9.378  31.004  1.00  0.00    -0.000 C 
HETATM    7  C14 UNL     1     -13.312  -8.328  30.214  1.00  0.00    -0.060 C 
HETATM    8  C15 UNL     1     -12.936  -8.575  28.768  1.00  0.00     0.036 C 
HETATM    9  C16 UNL     1     -12.314  -9.947  28.572  1.00  0.00     0.015 C 
HETATM   10  C17 UNL     1     -13.257 -11.093  29.005  1.00  0.00    -0.028 C 
HETATM   11  C18 UNL     1     -14.405 -11.187  27.972  1.00  0.00     0.016 C 
HETATM   12  C19 UNL     1     -13.269  -6.853  30.675  1.00  0.00    -0.014 C 
HETATM   13  C20 UNL     1     -11.775  -6.449  30.817  1.00  0.00     0.020 C 
HETATM   14  C21 UNL     1     -13.925  -5.932  29.602  1.00  0.00     0.021 C 
HETATM   15  C22 UNL     1     -14.514  -4.661  30.188  1.00  0.00     0.080 C 
HETATM   16  C23 UNL     1     -15.659  -5.023  31.104  1.00  0.00     0.135 C 
HETATM   17  O1  UNL     1     -16.675  -4.328  31.126  1.00  0.00    -0.297 OA
HETATM   18  C24 UNL     1     -15.491  -6.265  32.000  1.00  0.00     0.018 C 
HETATM   19  C25 UNL     1     -16.016  -5.877  33.401  1.00  0.00     0.023 C 
HETATM   20  C26 UNL     1     -16.399  -7.369  31.439  1.00  0.00     0.023 C 
HETATM   21  C27 UNL     1     -13.962  -6.628  32.067  1.00  0.00     0.020 C 
HETATM   22  C28 UNL     1     -13.594  -7.757  33.027  1.00  0.00     0.090 C 
HETATM   23  C29 UNL     1     -13.883  -9.123  32.470  1.00  0.00     0.157 C 
HETATM   24  O2  UNL     1     -14.246 -10.017  33.232  1.00  0.00    -0.293 OA
ENDROOT
BRANCH   1  25
HETATM   25  C6  UNL     1     -12.393 -13.419  27.908  1.00  0.00    -0.014 C 
HETATM   26  C7  UNL     1     -12.787 -14.840  28.352  1.00  0.00     0.010 C 
BRANCH  25  27
HETATM   27  C5  UNL     1     -11.057 -13.477  27.125  1.00  0.00     0.008 C 
BRANCH  27  28
HETATM   28  C4  UNL     1     -10.858 -12.376  26.076  1.00  0.00     0.028 C 
BRANCH  28  29
HETATM   29  C3  UNL     1      -9.784 -12.758  25.093  1.00  0.00    -0.013 C 
HETATM   30  C2  UNL     1      -8.631 -13.408  25.356  1.00  0.00     0.008 C 
HETATM   31  C1  UNL     1      -8.209 -13.931  26.697  1.00  0.00     0.055 C 
BRANCH  30  32
HETATM   32  C30 UNL     1      -7.648 -13.682  24.272  1.00  0.00     0.171 C 
HETATM   33  O3  UNL     1      -6.767 -14.524  24.319  1.00  0.00    -0.646 OA
BRANCH  32  34
HETATM   34  O4  UNL     1      -7.796 -12.906  23.186  1.00  0.00    -0.773 OA
HETATM   35  H44 UNL     1      -7.084 -13.214  22.589  1.00  0.00     0.167 HD
ENDBRANCH  32  34
ENDBRANCH  30  32
ENDBRANCH  28  29
ENDBRANCH  27  28
ENDBRANCH  25  27
ENDBRANCH   1  25
TORSDOF 6
ENDMDL
