MODEL 1
REMARK minimizedAffinity -9.03930855
REMARK CNNscore 0.624540627
REMARK CNNaffinity 6.69209337
REMARK  8 active torsions:
REMARK  status: ('A' for Active; 'I' for Inactive)
REMARK    1  A    between atoms: C3_3  and  O1_4 
REMARK    2  A    between atoms: N1_14  and  O2_16 
REMARK    3  A    between atoms: O2_16  and  C13_17 
REMARK    4  A    between atoms: C13_17  and  C14_18 
REMARK       I    between atoms: C14_18  and  N2_20 
REMARK    5  A    between atoms: N2_20  and  C15_21 
REMARK    6  A    between atoms: C15_21  and  C16_22 
REMARK    7  A    between atoms: C16_22  and  O4_23 
REMARK    8  A    between atoms: C16_22  and  C17_24 
ROOT
HETATM    1  C1  UNL     1     -15.118  44.177 -25.845  1.00  0.00     0.015 C 
HETATM    2  C2  UNL     1     -14.181  43.933 -26.557  1.00  0.00    -0.078 C 
HETATM    3  C3  UNL     1     -13.030  43.621 -27.417  1.00  0.00     0.128 C 
HETATM    4  C4  UNL     1     -13.311  42.440 -28.353  1.00  0.00     0.052 C 
HETATM    5  C5  UNL     1     -12.150  42.513 -29.334  1.00  0.00     0.010 C 
HETATM    6  C6  UNL     1     -12.001  44.010 -29.629  1.00  0.00     0.002 C 
HETATM    7  C7  UNL     1     -10.620  44.482 -30.136  1.00  0.00    -0.004 C 
HETATM    8  C8  UNL     1      -9.382  43.920 -29.416  1.00  0.00     0.010 C 
HETATM    9  C9  UNL     1      -8.087  44.415 -30.062  1.00  0.00     0.035 C 
HETATM   10  C10 UNL     1      -8.026  45.913 -30.272  1.00  0.00    -0.069 C 
HETATM   11  C11 UNL     1      -6.885  46.574 -30.002  1.00  0.00     0.030 C 
HETATM   12  C12 UNL     1      -6.696  48.007 -30.371  1.00  0.00     0.032 C 
HETATM   13  N1  UNL     1      -5.611  48.701 -30.192  1.00  0.00    -0.271 N 
ATOM     14  H1  UNL     1      -5.503  49.671 -30.487  1.00  0.00     0.194 HD
HETATM   15  C23 UNL     1      -7.828  48.701 -31.105  1.00  0.00     0.060 C 
HETATM   16  C24 UNL     1      -9.183  48.127 -30.713  1.00  0.00     0.020 C 
HETATM   17  C25 UNL     1      -9.267  46.579 -30.866  1.00  0.00    -0.016 C 
HETATM   18  C26 UNL     1      -9.317  46.254 -32.386  1.00  0.00     0.020 C 
HETATM   19  C27 UNL     1     -10.574  46.032 -30.169  1.00  0.00     0.002 C 
HETATM   20  C28 UNL     1     -10.820  46.625 -28.757  1.00  0.00     0.007 C 
HETATM   21  C29 UNL     1     -11.578  45.736 -27.767  1.00  0.00     0.014 C 
HETATM   22  C30 UNL     1     -12.595  44.771 -28.397  1.00  0.00     0.003 C 
HETATM   23  C31 UNL     1     -13.814  45.598 -28.895  1.00  0.00     0.020 C 
ENDROOT
BRANCH   3  24
HETATM   24  O1  UNL     1     -11.941  43.236 -26.573  1.00  0.00    -0.377 OA
HETATM   25  H2  UNL     1     -12.291  42.592 -25.932  1.00  0.00     0.211 HD
ENDBRANCH   3  24
BRANCH  13  26
HETATM   26  O2  UNL     1      -4.604  47.965 -29.546  1.00  0.00    -0.271 OA
BRANCH  26  27
HETATM   27  C13 UNL     1      -4.765  48.126 -28.139  1.00  0.00     0.303 C 
BRANCH  27  28
HETATM   28  C14 UNL     1      -3.966  49.322 -27.639  1.00  0.00     0.243 C 
HETATM   29  O3  UNL     1      -3.415  50.108 -28.409  1.00  0.00    -0.271 OA
HETATM   30  N2  UNL     1      -3.993  49.485 -26.267  1.00  0.00    -0.356 N 
HETATM   31  H16 UNL     1      -4.278  48.680 -25.721  1.00  0.00     0.162 HD
BRANCH  30  32
HETATM   32  C15 UNL     1      -3.275  50.571 -25.614  1.00  0.00     0.159 C 
BRANCH  32  33
HETATM   33  C16 UNL     1      -2.851  51.706 -26.575  1.00  0.00     0.170 C 
BRANCH  33  34
HETATM   34  O4  UNL     1      -3.282  52.982 -26.087  1.00  0.00    -0.389 OA
HETATM   35  H20 UNL     1      -2.660  53.654 -26.416  1.00  0.00     0.210 HD
ENDBRANCH  33  34
BRANCH  33  36
HETATM   36  C17 UNL     1      -1.356  51.692 -26.788  1.00  0.00    -0.013 A 
HETATM   37  C18 UNL     1      -0.757  52.387 -27.845  1.00  0.00     0.013 A 
HETATM   38  C19 UNL     1       0.631  52.381 -27.982  1.00  0.00     0.025 A 
HETATM   39  C20 UNL     1       1.393  51.684 -27.051  1.00  0.00     0.005 A 
HETATM   40  C21 UNL     1       2.885  51.643 -27.180  1.00  0.00     0.068 C 
HETATM   41  N3  UNL     1       0.839  51.004 -26.017  1.00  0.00    -0.369 N 
HETATM   42  C22 UNL     1      -0.510  51.025 -25.907  1.00  0.00     0.097 A 
ATOM     43  H3  UNL     1       1.418  50.497 -25.347  1.00  0.00     0.165 HD
ENDBRANCH  33  36
ENDBRANCH  32  33
ENDBRANCH  30  32
ENDBRANCH  27  28
ENDBRANCH  26  27
ENDBRANCH  13  26
TORSDOF 8
ENDMDL
