MODEL 1
REMARK minimizedAffinity -8.07121277
REMARK CNNscore 0.778642058
REMARK CNNaffinity 7.7897191
REMARK  12 active torsions:
REMARK  status: ('A' for Active; 'I' for Inactive)
REMARK    1  A    between atoms: O1_2  and  C2_3 
REMARK    2  A    between atoms: C2_3  and  C3_4 
REMARK    3  A    between atoms: C3_4  and  C4_5 
REMARK    4  A    between atoms: C4_5  and  O2_6 
REMARK    5  A    between atoms: O2_6  and  C5_7 
REMARK    6  A    between atoms: C20_23  and  C21_24 
REMARK    7  A    between atoms: C21_24  and  O4_26 
REMARK    8  A    between atoms: C21_24  and  C23_27 
REMARK    9  A    between atoms: C23_27  and  O5_28 
REMARK   10  A    between atoms: C23_27  and  C24_29 
REMARK   11  A    between atoms: C33_40  and  O7_41 
REMARK   12  A    between atoms: C38_46  and  O8_47 
ROOT
HETATM    1  C5  UNL     1       1.364  53.175  -9.007  1.00  0.00     0.122 C 
HETATM    2  C6  UNL     1       1.092  51.682  -9.169  1.00  0.00     0.033 C 
HETATM    3  C7  UNL     1      -0.181  51.345  -9.954  1.00  0.00     0.013 C 
HETATM    4  C8  UNL     1      -0.512  52.293 -11.158  1.00  0.00    -0.026 C 
HETATM    5  C9  UNL     1      -1.685  53.205 -10.718  1.00  0.00     0.016 C 
HETATM    6  C10 UNL     1       0.724  53.154 -11.508  1.00  0.00     0.071 C 
HETATM    7  C11 UNL     1       1.214  53.983 -10.308  1.00  0.00     0.045 C 
HETATM    8  C12 UNL     1       1.856  52.296 -12.067  1.00  0.00     0.154 C 
HETATM    9  O3  UNL     1       3.047  52.553 -11.898  1.00  0.00    -0.293 OA
HETATM   10  C13 UNL     1       1.509  51.149 -12.931  1.00  0.00     0.057 C 
HETATM   11  C14 UNL     1       0.231  50.797 -13.138  1.00  0.00    -0.037 C 
HETATM   12  C15 UNL     1      -0.955  51.434 -12.405  1.00  0.00     0.026 C 
HETATM   13  C16 UNL     1      -1.857  52.150 -13.448  1.00  0.00     0.011 C 
HETATM   14  C17 UNL     1      -2.226  51.261 -14.663  1.00  0.00     0.014 C 
HETATM   15  C18 UNL     1      -0.985  50.611 -15.319  1.00  0.00    -0.002 C 
HETATM   16  C19 UNL     1      -0.130  51.737 -15.960  1.00  0.00     0.019 C 
HETATM   17  C20 UNL     1      -1.276  49.450 -16.332  1.00  0.00     0.034 C 
HETATM   18  C36 UNL     1       0.030  48.603 -16.291  1.00  0.00     0.012 C 
HETATM   19  C37 UNL     1       0.817  49.026 -15.031  1.00  0.00     0.044 C 
HETATM   20  C38 UNL     1      -0.199  49.825 -14.211  1.00  0.00     0.089 C 
ENDROOT
BRANCH  17  21
HETATM   21  C21 UNL     1      -1.859  49.710 -17.768  1.00  0.00     0.087 C 
HETATM   22  C22 UNL     1      -0.790  49.968 -18.852  1.00  0.00     0.049 C 
BRANCH  21  23
HETATM   23  O4  UNL     1      -2.700  50.867 -17.718  1.00  0.00    -0.387 OA
HETATM   24  H34 UNL     1      -2.139  51.661 -17.682  1.00  0.00     0.210 HD
ENDBRANCH  21  23
BRANCH  21  25
HETATM   25  C23 UNL     1      -2.759  48.486 -18.194  1.00  0.00     0.181 C 
BRANCH  25  26
HETATM   26  O5  UNL     1      -2.010  47.263 -18.043  1.00  0.00    -0.390 OA
HETATM   27  H36 UNL     1      -2.458  46.623 -18.639  1.00  0.00     0.210 HD
ENDBRANCH  25  26
BRANCH  25  28
HETATM   28  C24 UNL     1      -3.292  48.525 -19.641  1.00  0.00     0.158 C 
HETATM   29  O6  UNL     1      -3.547  49.923 -20.015  1.00  0.00    -0.373 OA
HETATM   30  C25 UNL     1      -3.801  49.846 -21.427  1.00  0.00     0.185 C 
HETATM   31  C26 UNL     1      -2.617  49.036 -21.891  1.00  0.00     0.028 C 
HETATM   32  C33 UNL     1      -3.825  51.182 -22.188  1.00  0.00     0.384 C 
HETATM   33  C27 UNL     1      -2.798  48.631 -23.351  1.00  0.00     0.049 C 
HETATM   34  C34 UNL     1      -2.479  47.939 -20.826  1.00  0.00     0.020 C 
HETATM   35  C28 UNL     1      -3.493  49.763 -24.185  1.00  0.00     0.161 C 
HETATM   36  C29 UNL     1      -2.920  49.803 -25.616  1.00  0.00     0.041 C 
HETATM   37  C32 UNL     1      -4.964  49.428 -24.503  1.00  0.00     0.041 C 
HETATM   38  N1  UNL     1      -3.344  51.098 -23.571  1.00  0.00     0.124 N 
HETATM   39  C30 UNL     1      -3.554  48.604 -26.315  1.00  0.00     0.003 C 
HETATM   40  C31 UNL     1      -4.915  48.420 -25.651  1.00  0.00     0.003 C 
HETATM   41  H50 UNL     1      -2.349  51.331 -23.566  1.00  0.00     0.320 HD
HETATM   42  C35 UNL     1      -0.998  47.650 -20.596  1.00  0.00     0.013 C 
BRANCH  32  43
HETATM   43  O7  UNL     1      -5.143  51.686 -22.244  1.00  0.00    -0.366 OA
HETATM   44  H52 UNL     1      -5.167  52.120 -23.114  1.00  0.00     0.212 HD
ENDBRANCH  32  43
ENDBRANCH  25  28
ENDBRANCH  21  25
ENDBRANCH  17  21
BRANCH  20  45
HETATM   45  O8  UNL     1      -1.044  48.876 -13.538  1.00  0.00    -0.384 OA
HETATM   46  H61 UNL     1      -1.054  48.037 -14.027  1.00  0.00     0.211 HD
ENDBRANCH  20  45
BRANCH   1  47
HETATM   47  O2  UNL     1       0.453  53.658  -8.009  1.00  0.00    -0.386 OA
BRANCH  47  48
HETATM   48  C4  UNL     1       0.944  54.776  -7.269  1.00  0.00     0.170 C 
BRANCH  48  49
HETATM   49  C3  UNL     1       0.489  56.081  -7.915  1.00  0.00     0.052 C 
BRANCH  49  50
HETATM   50  C2  UNL     1      -0.064  57.089  -6.909  1.00  0.00     0.169 C 
BRANCH  50  51
HETATM   51  O1  UNL     1      -0.469  56.469  -5.690  1.00  0.00    -0.396 OA
HETATM   52  C1  UNL     1       0.144  57.038  -4.539  1.00  0.00     0.201 C 
ENDBRANCH  50  51
ENDBRANCH  49  50
ENDBRANCH  48  49
ENDBRANCH  47  48
ENDBRANCH   1  47
TORSDOF 12
ENDMDL
