MODEL 1
REMARK minimizedAffinity -5.93223715
REMARK CNNscore 0.763378918
REMARK CNNaffinity 6.84979582
REMARK  13 active torsions:
REMARK  status: ('A' for Active; 'I' for Inactive)
REMARK    1  A    between atoms: C4_4  and  O1_5 
REMARK    2  A    between atoms: C7_9  and  C8_10 
REMARK    3  A    between atoms: C8_10  and  C10_12 
REMARK    4  A    between atoms: C10_12  and  O3_13 
REMARK    5  A    between atoms: C16_19  and  O4_21 
REMARK    6  A    between atoms: O4_21  and  C18_22 
REMARK    7  A    between atoms: C18_22  and  C19_24 
REMARK    8  A    between atoms: C19_24  and  C20_25 
REMARK    9  A    between atoms: C19_24  and  O6_27 
REMARK   10  A    between atoms: O6_27  and  C22_28 
REMARK   11  A    between atoms: C22_28  and  C23_30 
REMARK   12  A    between atoms: C23_30  and  C24_31 
REMARK   13  A    between atoms: C28_35  and  O8_36 
ROOT
HETATM    1  C1  UNL     1      -2.285  54.430 -10.055  1.00  0.00     0.017 C 
HETATM    2  C2  UNL     1      -2.219  53.100 -10.260  1.00  0.00    -0.056 C 
HETATM    3  C3  UNL     1      -1.151  52.273  -9.547  1.00  0.00     0.105 C 
HETATM    4  C4  UNL     1      -0.211  51.430 -10.447  1.00  0.00     0.173 C 
HETATM    5  O2  UNL     1      -1.005  50.476 -11.133  1.00  0.00    -0.345 OA
HETATM    6  C5  UNL     1      -0.579  50.329 -12.483  1.00  0.00     0.165 C 
HETATM    7  C6  UNL     1       0.417  51.461 -12.828  1.00  0.00     0.036 C 
HETATM    8  C7  UNL     1       1.741  50.922 -13.449  1.00  0.00    -0.001 C 
HETATM    9  C11 UNL     1       2.719  50.502 -12.343  1.00  0.00     0.010 C 
HETATM   10  C12 UNL     1       3.087  51.605 -11.354  1.00  0.00     0.034 C 
HETATM   11  C13 UNL     1       1.994  52.616 -11.125  1.00  0.00    -0.079 C 
HETATM   12  C14 UNL     1       2.293  53.837 -10.646  1.00  0.00     0.015 C 
HETATM   13  C15 UNL     1       0.578  52.240 -11.503  1.00  0.00     0.083 C 
HETATM   14  C16 UNL     1      -1.832  50.144 -13.411  1.00  0.00     0.093 C 
HETATM   15  C17 UNL     1      -2.633  48.942 -12.847  1.00  0.00     0.049 C 
HETATM   16  C26 UNL     1      -2.778  51.375 -13.608  1.00  0.00     0.044 C 
HETATM   17  C27 UNL     1      -2.769  52.583 -12.662  1.00  0.00     0.039 C 
HETATM   18  C28 UNL     1      -3.148  52.332 -11.196  1.00  0.00     0.146 C 
ENDROOT
BRANCH  14  19
HETATM   19  O4  UNL     1      -1.272  49.764 -14.721  1.00  0.00    -0.306 OA
BRANCH  19  20
HETATM   20  C18 UNL     1      -1.993  49.953 -15.863  1.00  0.00     0.289 C 
HETATM   21  O5  UNL     1      -2.466  51.018 -16.238  1.00  0.00    -0.262 OA
BRANCH  20  22
HETATM   22  C19 UNL     1      -2.134  48.646 -16.648  1.00  0.00     0.231 C 
BRANCH  22  23
HETATM   23  C20 UNL     1      -1.644  47.464 -15.809  1.00  0.00     0.038 C 
HETATM   24  C21 UNL     1      -2.646  46.324 -15.732  1.00  0.00     0.008 C 
ENDBRANCH  22  23
BRANCH  22  25
HETATM   25  O6  UNL     1      -1.266  48.701 -17.801  1.00  0.00    -0.306 OA
BRANCH  25  26
HETATM   26  C22 UNL     1      -1.848  48.300 -18.963  1.00  0.00     0.259 C 
HETATM   27  O7  UNL     1      -2.914  47.701 -19.039  1.00  0.00    -0.265 OA
BRANCH  26  28
HETATM   28  C23 UNL     1      -1.012  48.726 -20.143  1.00  0.00     0.111 C 
BRANCH  28  29
HETATM   29  C24 UNL     1      -1.793  48.624 -21.451  1.00  0.00     0.005 C 
HETATM   30  C25 UNL     1      -1.962  47.187 -21.925  1.00  0.00     0.005 C 
ENDBRANCH  28  29
ENDBRANCH  26  28
ENDBRANCH  25  26
ENDBRANCH  22  25
ENDBRANCH  20  22
ENDBRANCH  19  20
ENDBRANCH  14  19
BRANCH   4  31
HETATM   31  O1  UNL     1       0.633  50.683  -9.580  1.00  0.00    -0.364 OA
HETATM   32  H5  UNL     1       0.941  49.931 -10.108  1.00  0.00     0.213 HD
ENDBRANCH   4  31
BRANCH   8  33
HETATM   33  C8  UNL     1       2.306  51.841 -14.582  1.00  0.00     0.010 C 
HETATM   34  C9  UNL     1       3.707  51.513 -15.106  1.00  0.00     0.012 C 
BRANCH  33  35
HETATM   35  C10 UNL     1       1.321  52.024 -15.752  1.00  0.00     0.168 C 
BRANCH  35  36
HETATM   36  O3  UNL     1       1.440  53.308 -16.340  1.00  0.00    -0.400 OA
HETATM   37  H15 UNL     1       0.764  53.369 -17.036  1.00  0.00     0.209 HD
ENDBRANCH  35  36
ENDBRANCH  33  35
ENDBRANCH   8  33
BRANCH  18  38
HETATM   38  O8  UNL     1      -4.503  52.727 -10.990  1.00  0.00    -0.391 OA
HETATM   39  H44 UNL     1      -4.551  53.694 -10.989  1.00  0.00     0.210 HD
ENDBRANCH  18  38
TORSDOF 13
ENDMDL
