MODEL 1
REMARK minimizedAffinity -8.72991467
REMARK  6 active torsions:
REMARK  status: ('A' for Active; 'I' for Inactive)
REMARK    1  A    between atoms: C2_2  and  O2_4 
REMARK    2  A    between atoms: O2_4  and  C3_5 
REMARK    3  A    between atoms: C13_15  and  C14_16 
REMARK    4  A    between atoms: C14_16  and  C16_18 
REMARK    5  A    between atoms: C16_18  and  C17_19 
REMARK    6  A    between atoms: C17_19  and  C18_20 
ROOT
HETATM    1  C3  UNL     1      -6.703   5.671  13.494  1.00  0.00     0.136 C 
HETATM    2  C4  UNL     1      -6.120   7.060  13.195  1.00  0.00     0.034 C 
HETATM    3  C5  UNL     1      -4.704   7.259  13.735  1.00  0.00     0.013 C 
HETATM    4  C6  UNL     1      -3.756   6.103  13.397  1.00  0.00    -0.027 A 
HETATM    5  C7  UNL     1      -2.808   5.760  14.526  1.00  0.00     0.021 A 
HETATM    6  C8  UNL     1      -2.222   6.303  13.240  1.00  0.00    -0.027 A 
HETATM    7  C9  UNL     1      -1.703   7.742  13.258  1.00  0.00     0.011 C 
HETATM    8  C10 UNL     1      -0.178   7.959  13.213  1.00  0.00     0.011 C 
HETATM    9  C11 UNL     1       0.646   6.707  12.884  1.00  0.00    -0.032 C 
HETATM   10  C12 UNL     1       0.887   5.933  14.218  1.00  0.00     0.016 C 
HETATM   11  C13 UNL     1       2.026   6.946  12.177  1.00  0.00    -0.002 C 
HETATM   12  C22 UNL     1       2.274   5.585  11.458  1.00  0.00     0.006 C 
HETATM   13  C23 UNL     1       0.934   4.840  11.388  1.00  0.00     0.011 C 
HETATM   14  C24 UNL     1      -0.129   5.877  11.796  1.00  0.00    -0.032 C 
HETATM   15  C25 UNL     1      -0.491   6.674  10.505  1.00  0.00     0.016 C 
HETATM   16  C26 UNL     1      -1.403   5.261  12.434  1.00  0.00     0.004 C 
HETATM   17  C27 UNL     1      -2.276   4.464  11.456  1.00  0.00     0.006 C 
HETATM   18  C28 UNL     1      -3.481   3.864  12.179  1.00  0.00     0.006 C 
HETATM   19  C29 UNL     1      -4.439   4.982  12.601  1.00  0.00     0.001 C 
HETATM   20  C30 UNL     1      -5.664   4.521  13.419  1.00  0.00     0.016 C 
HETATM   21  C31 UNL     1      -6.333   3.254  12.885  1.00  0.00     0.013 C 
ENDROOT
BRANCH  11  22
HETATM   22  C14 UNL     1       3.257   7.398  13.022  1.00  0.00    -0.014 C 
HETATM   23  C15 UNL     1       2.895   8.545  13.975  1.00  0.00     0.010 C 
BRANCH  22  24
HETATM   24  C16 UNL     1       4.440   7.845  12.117  1.00  0.00     0.008 C 
BRANCH  24  25
HETATM   25  C17 UNL     1       4.448   7.173  10.734  1.00  0.00     0.028 C 
BRANCH  25  26
HETATM   26  C18 UNL     1       3.859   8.020   9.641  1.00  0.00    -0.025 C 
HETATM   27  C19 UNL     1       3.116   7.624   8.588  1.00  0.00    -0.091 C 
HETATM   28  C20 UNL     1       2.744   6.203   8.269  1.00  0.00     0.042 C 
HETATM   29  C21 UNL     1       2.588   8.635   7.601  1.00  0.00     0.042 C 
ENDBRANCH  25  26
ENDBRANCH  24  25
ENDBRANCH  22  24
ENDBRANCH  11  22
BRANCH   1  30
HETATM   30  O2  UNL     1      -7.270   5.656  14.825  1.00  0.00    -0.316 OA
BRANCH  30  31
HETATM   31  C2  UNL     1      -8.330   6.485  15.037  1.00  0.00     0.255 C 
HETATM   32  C1  UNL     1      -8.120   7.268  16.295  1.00  0.00     0.126 C 
HETATM   33  O1  UNL     1      -9.308   6.597  14.312  1.00  0.00    -0.266 OA
ENDBRANCH  30  31
ENDBRANCH   1  30
TORSDOF 6
ENDMDL
