MODEL 1
REMARK minimizedAffinity -7.54726028
REMARK CNNscore 0.641864896
REMARK CNNaffinity 7.14655876
REMARK  10 active torsions:
REMARK  status: ('A' for Active; 'I' for Inactive)
REMARK    1  A    between atoms: C2_2  and  O1_3 
REMARK    2  A    between atoms: O1_3  and  C3_4 
REMARK    3  A    between atoms: C14_15  and  O2_16 
REMARK    4  A    between atoms: C19_21  and  O3_22 
REMARK    5  A    between atoms: O3_22  and  C20_23 
REMARK    6  A    between atoms: C21_25  and  C22_26 
REMARK    7  A    between atoms: C22_26  and  O5_27 
REMARK    8  A    between atoms: C23_28  and  O6_29 
REMARK    9  A    between atoms: C24_30  and  O7_31 
REMARK   10  A    between atoms: C25_32  and  O8_33 
ROOT
HETATM    1  C3  UNL     1      -3.056   3.331  11.886  1.00  0.00     0.260 C 
HETATM    2  C4  UNL     1      -1.884   3.797  11.003  1.00  0.00     0.065 C 
HETATM    3  C5  UNL     1      -0.924   4.713  11.772  1.00  0.00    -0.007 C 
HETATM    4  C6  UNL     1       0.265   5.100  10.896  1.00  0.00     0.010 C 
HETATM    5  C7  UNL     1      -1.729   5.940  12.249  1.00  0.00     0.027 C 
HETATM    6  C8  UNL     1      -3.124   5.518  12.795  1.00  0.00     0.130 C 
HETATM    7  C9  UNL     1      -3.348   6.313  14.093  1.00  0.00     0.042 C 
HETATM    8  C10 UNL     1      -2.429   7.541  13.946  1.00  0.00    -0.029 C 
HETATM    9  C11 UNL     1      -3.131   8.534  12.967  1.00  0.00     0.016 C 
HETATM   10  C12 UNL     1      -2.084   8.255  15.278  1.00  0.00     0.006 C 
HETATM   11  C13 UNL     1      -3.275   8.973  15.916  1.00  0.00     0.038 C 
HETATM   12  C14 UNL     1      -2.890   9.716  17.201  1.00  0.00     0.124 C 
HETATM   13  C15 UNL     1      -1.950  10.891  16.853  1.00  0.00     0.034 C 
HETATM   14  C16 UNL     1      -1.492  11.842  18.022  1.00  0.00    -0.015 C 
HETATM   15  C17 UNL     1      -2.665  12.303  18.918  1.00  0.00     0.018 C 
HETATM   16  C18 UNL     1      -0.492  11.139  18.968  1.00  0.00     0.018 C 
HETATM   17  C19 UNL     1      -0.888  13.145  17.376  1.00  0.00     0.133 C 
HETATM   18  C26 UNL     1      -0.384  12.963  15.936  1.00  0.00     0.034 C 
HETATM   19  C27 UNL     1       0.227  11.595  15.684  1.00  0.00     0.013 C 
HETATM   20  C28 UNL     1      -0.717  10.441  16.036  1.00  0.00    -0.025 A 
HETATM   21  C29 UNL     1       0.026   9.171  16.388  1.00  0.00     0.021 A 
HETATM   22  C30 UNL     1      -0.838   9.166  15.145  1.00  0.00    -0.027 A 
HETATM   23  C31 UNL     1      -0.112   9.201  13.791  1.00  0.00     0.011 C 
HETATM   24  C32 UNL     1      -0.207   7.977  12.864  1.00  0.00     0.011 C 
HETATM   25  C33 UNL     1      -1.138   6.868  13.362  1.00  0.00    -0.030 C 
HETATM   26  C34 UNL     1      -0.342   6.014  14.389  1.00  0.00     0.016 C 
HETATM   27  O9  UNL     1      -3.193   4.125  13.065  1.00  0.00    -0.356 OA
ENDROOT
BRANCH  17  28
HETATM   28  O3  UNL     1       0.185  13.648  18.183  1.00  0.00    -0.352 OA
BRANCH  28  29
HETATM   29  C20 UNL     1      -0.084  14.937  18.746  1.00  0.00     0.292 C 
HETATM   30  O4  UNL     1      -1.240  14.859  19.583  1.00  0.00    -0.348 OA
HETATM   31  C21 UNL     1      -1.563  16.108  20.210  1.00  0.00     0.179 C 
HETATM   32  C23 UNL     1      -1.974  17.113  19.120  1.00  0.00     0.180 C 
HETATM   33  C24 UNL     1      -0.817  17.271  18.129  1.00  0.00     0.183 C 
HETATM   34  C25 UNL     1      -0.327  15.927  17.588  1.00  0.00     0.204 C 
BRANCH  31  35
HETATM   35  C22 UNL     1      -2.689  15.847  21.220  1.00  0.00     0.198 C 
BRANCH  35  36
HETATM   36  O5  UNL     1      -2.808  16.916  22.151  1.00  0.00    -0.398 OA
HETATM   37  H37 UNL     1      -3.599  16.743  22.689  1.00  0.00     0.209 HD
ENDBRANCH  35  36
ENDBRANCH  31  35
BRANCH  32  38
HETATM   38  O6  UNL     1      -2.307  18.396  19.644  1.00  0.00    -0.390 OA
HETATM   39  H39 UNL     1      -2.232  19.035  18.909  1.00  0.00     0.210 HD
ENDBRANCH  32  38
BRANCH  33  40
HETATM   40  O7  UNL     1      -1.221  18.122  17.037  1.00  0.00    -0.390 OA
HETATM   41  H41 UNL     1      -1.944  17.676  16.557  1.00  0.00     0.210 HD
ENDBRANCH  33  40
BRANCH  34  42
HETATM   42  O8  UNL     1       0.868  16.155  16.820  1.00  0.00    -0.388 OA
HETATM   43  H43 UNL     1       0.708  16.963  16.296  1.00  0.00     0.210 HD
ENDBRANCH  34  42
ENDBRANCH  28  29
ENDBRANCH  17  28
BRANCH  12  44
HETATM   44  O2  UNL     1      -4.113  10.201  17.759  1.00  0.00    -0.395 OA
HETATM   45  H24 UNL     1      -4.641   9.425  18.022  1.00  0.00     0.210 HD
ENDBRANCH  12  44
BRANCH   1  46
HETATM   46  O1  UNL     1      -4.240   3.346  11.088  1.00  0.00    -0.362 OA
BRANCH  46  47
HETATM   47  C2  UNL     1      -5.400   2.845  11.746  1.00  0.00     0.166 C 
HETATM   48  C1  UNL     1      -5.841   1.492  11.220  1.00  0.00     0.033 C 
ENDBRANCH  46  47
ENDBRANCH   1  46
TORSDOF 10
ENDMDL
