MODEL 1
REMARK minimizedAffinity -9.68337917
REMARK  6 active torsions:
REMARK  status: ('A' for Active; 'I' for Inactive)
REMARK    1  A    between atoms: O1_2  and  C2_3 
REMARK    2  A    between atoms: C9_12  and  C10_13 
REMARK    3  A    between atoms: C13_16  and  O4_17 
REMARK    4  A    between atoms: O4_17  and  C14_18 
REMARK    5  A    between atoms: C14_18  and  C15_19 
REMARK       I    between atoms: C15_19  and  N1_21 
REMARK    6  A    between atoms: N1_21  and  C16_22 
ROOT
HETATM    1  C10 UNL     1      -5.121  48.186 -27.549  1.00  0.00    -0.020 A 
HETATM    2  C11 UNL     1      -3.740  48.426 -27.529  1.00  0.00     0.015 A 
HETATM    3  C12 UNL     1      -3.051  48.557 -26.316  1.00  0.00     0.037 A 
HETATM    4  C13 UNL     1      -3.735  48.452 -25.106  1.00  0.00     0.069 A 
HETATM    5  C23 UNL     1      -5.111  48.215 -25.121  1.00  0.00     0.037 A 
HETATM    6  C24 UNL     1      -5.800  48.084 -26.330  1.00  0.00     0.015 A 
ENDROOT
BRANCH   4   7
HETATM    7  O4  UNL     1      -3.188  48.562 -23.859  1.00  0.00    -0.342 OA
BRANCH   7   8
HETATM    8  C14 UNL     1      -3.297  49.832 -23.216  1.00  0.00     0.278 C 
BRANCH   8   9
HETATM    9  C15 UNL     1      -2.432  50.870 -23.929  1.00  0.00     0.242 C 
HETATM   10  O5  UNL     1      -2.919  51.805 -24.559  1.00  0.00    -0.271 OA
HETATM   11  N1  UNL     1      -1.074  50.685 -23.767  1.00  0.00    -0.354 N 
HETATM   12  H11 UNL     1      -0.799  49.776 -23.404  1.00  0.00     0.162 HD
BRANCH  11  13
HETATM   13  C16 UNL     1      -0.090  51.499 -24.467  1.00  0.00     0.089 C 
HETATM   14  C17 UNL     1      -0.436  52.990 -24.372  1.00  0.00     0.051 C 
HETATM   15  C18 UNL     1      -0.048  53.751 -25.633  1.00  0.00     0.171 C 
HETATM   16  O6  UNL     1       1.173  53.247 -26.161  1.00  0.00    -0.381 OA
HETATM   17  C19 UNL     1       1.089  51.904 -26.668  1.00  0.00     0.055 C 
HETATM   18  C20 UNL     1       2.485  51.297 -26.478  1.00  0.00     0.045 C 
HETATM   19  C21 UNL     1       0.774  51.965 -28.167  1.00  0.00     0.045 C 
HETATM   20  C22 UNL     1       0.028  51.064 -25.927  1.00  0.00     0.062 C 
ENDBRANCH  11  13
ENDBRANCH   8   9
ENDBRANCH   7   8
ENDBRANCH   4   7
BRANCH   1  21
HETATM   21  C9  UNL     1      -5.848  48.040 -28.827  1.00  0.00     0.051 A 
HETATM   22  C8  UNL     1      -7.337  47.931 -28.846  1.00  0.00     0.299 A 
HETATM   23  O2  UNL     1      -7.938  47.787 -30.091  1.00  0.00    -0.271 OA
HETATM   24  O3  UNL     1      -8.008  47.965 -27.819  1.00  0.00    -0.259 OA
HETATM   25  C7  UNL     1      -7.197  47.734 -31.291  1.00  0.00     0.123 A 
HETATM   26  C2  UNL     1      -7.898  47.587 -32.496  1.00  0.00     0.102 A 
HETATM   27  C6  UNL     1      -5.809  47.829 -31.252  1.00  0.00     0.002 A 
HETATM   28  C3  UNL     1      -7.168  47.534 -33.685  1.00  0.00     0.040 A 
HETATM   29  C4  UNL     1      -5.772  47.626 -33.660  1.00  0.00     0.004 A 
HETATM   30  C5  UNL     1      -5.093  47.773 -32.448  1.00  0.00     0.014 A 
HETATM   31  C25 UNL     1      -5.143  47.981 -29.968  1.00  0.00     0.032 A 
BRANCH  26  32
HETATM   32  O1  UNL     1      -9.261  47.506 -32.399  1.00  0.00    -0.353 OA
HETATM   33  C1  UNL     1      -9.848  46.216 -32.501  1.00  0.00     0.210 C 
ENDBRANCH  26  32
ENDBRANCH   1  21
TORSDOF 6
ENDMDL
