MODEL 1
REMARK minimizedAffinity -8.06730652
REMARK CNNscore 0.600535274
REMARK CNNaffinity 6.99504852
REMARK  20 active torsions:
REMARK  status: ('A' for Active; 'I' for Inactive)
REMARK    1  A    between atoms: C2_2  and  O2_4 
REMARK    2  A    between atoms: O2_4  and  C3_5 
REMARK    3  A    between atoms: C5_7  and  O3_8 
REMARK    4  A    between atoms: C11_14  and  O4_15 
REMARK    5  A    between atoms: O4_15  and  C12_16 
REMARK    6  A    between atoms: C12_16  and  C13_18 
REMARK    7  A    between atoms: C13_18  and  C14_19 
REMARK    8  A    between atoms: C14_19  and  C15_20 
REMARK    9  A    between atoms: C15_20  and  C16_21 
REMARK   10  A    between atoms: C16_21  and  C17_22 
REMARK   11  A    between atoms: C17_22  and  C18_23 
REMARK   12  A    between atoms: C18_23  and  C19_24 
REMARK       I    between atoms: C19_24  and  N1_26 
REMARK   13  A    between atoms: N1_26  and  C20_27 
REMARK   14  A    between atoms: C20_27  and  C21_28 
REMARK   15  A    between atoms: C20_27  and  C25_36 
REMARK   16  A    between atoms: C21_28  and  C22_29 
REMARK   17  A    between atoms: C22_29  and  C23_30 
REMARK   18  A    between atoms: C23_30  and  N2_31 
REMARK       I    between atoms: C24_33  and  N3_34 
REMARK       I    between atoms: C24_33  and  N4_35 
REMARK   19  A    between atoms: C25_36  and  O8_38 
REMARK   20  A    between atoms: C35_48  and  C36_49 
ROOT
HETATM    1  C3  UNL     1      -3.674  51.086 -24.544  1.00  0.00     0.144 C 
HETATM    2  C4  UNL     1      -4.985  50.428 -24.124  1.00  0.00     0.072 C 
HETATM    3  C5  UNL     1      -4.739  49.776 -22.730  1.00  0.00     0.072 C 
HETATM    4  C6  UNL     1      -5.906  50.185 -21.755  1.00  0.00     0.026 C 
HETATM    5  C7  UNL     1      -7.277  49.707 -22.244  1.00  0.00     0.008 C 
HETATM    6  C8  UNL     1      -7.565  48.244 -21.963  1.00  0.00     0.006 C 
HETATM    7  C9  UNL     1      -7.097  47.715 -20.590  1.00  0.00    -0.004 C 
HETATM    8  C10 UNL     1      -8.192  46.794 -20.003  1.00  0.00     0.038 C 
HETATM    9  C11 UNL     1      -9.409  47.588 -19.527  1.00  0.00     0.132 C 
HETATM   10  C26 UNL     1      -9.009  48.640 -18.493  1.00  0.00     0.033 C 
HETATM   11  C27 UNL     1      -7.902  49.560 -19.007  1.00  0.00     0.012 C 
HETATM   12  C28 UNL     1      -6.654  48.812 -19.577  1.00  0.00    -0.036 C 
HETATM   13  C29 UNL     1      -5.966  48.124 -18.362  1.00  0.00     0.016 C 
HETATM   14  C30 UNL     1      -5.678  49.864 -20.245  1.00  0.00     0.001 C 
HETATM   15  C31 UNL     1      -4.181  49.655 -19.961  1.00  0.00     0.007 C 
HETATM   16  C32 UNL     1      -3.325  50.629 -20.769  1.00  0.00     0.013 C 
HETATM   17  C33 UNL     1      -3.310  50.260 -22.269  1.00  0.00    -0.002 C 
HETATM   18  C34 UNL     1      -2.213  49.175 -22.448  1.00  0.00     0.019 C 
HETATM   19  C35 UNL     1      -3.042  51.503 -23.189  1.00  0.00     0.059 C 
ENDROOT
BRANCH   9  20
HETATM   20  O4  UNL     1     -10.345  46.676 -18.921  1.00  0.00    -0.316 OA
BRANCH  20  21
HETATM   21  C12 UNL     1     -11.590  47.189 -18.700  1.00  0.00     0.259 C 
HETATM   22  O5  UNL     1     -12.060  47.482 -17.608  1.00  0.00    -0.265 OA
BRANCH  21  23
HETATM   23  C13 UNL     1     -12.373  47.263 -19.987  1.00  0.00     0.111 C 
BRANCH  23  24
HETATM   24  C14 UNL     1     -13.560  48.215 -19.870  1.00  0.00     0.010 C 
BRANCH  24  25
HETATM   25  C15 UNL     1     -14.900  47.674 -20.381  1.00  0.00     0.000 C 
BRANCH  25  26
HETATM   26  C16 UNL     1     -14.816  46.576 -21.445  1.00  0.00     0.000 C 
BRANCH  26  27
HETATM   27  C17 UNL     1     -14.320  47.020 -22.821  1.00  0.00     0.009 C 
BRANCH  27  28
HETATM   28  C18 UNL     1     -15.450  47.427 -23.763  1.00  0.00     0.103 C 
BRANCH  28  29
HETATM   29  C19 UNL     1     -16.432  46.295 -24.010  1.00  0.00     0.218 C 
HETATM   30  O6  UNL     1     -17.211  45.867 -23.166  1.00  0.00    -0.274 OA
HETATM   31  N1  UNL     1     -16.310  45.764 -25.278  1.00  0.00    -0.347 N 
HETATM   32  H29 UNL     1     -15.956  46.394 -25.989  1.00  0.00     0.163 HD
BRANCH  31  33
HETATM   33  C20 UNL     1     -17.240  44.729 -25.758  1.00  0.00     0.182 C 
BRANCH  33  34
HETATM   34  C21 UNL     1     -16.466  43.809 -26.714  1.00  0.00     0.038 C 
BRANCH  34  35
HETATM   35  C22 UNL     1     -15.033  44.262 -27.018  1.00  0.00     0.022 C 
BRANCH  35  36
HETATM   36  C23 UNL     1     -14.899  45.646 -27.647  1.00  0.00     0.121 C 
BRANCH  36  37
HETATM   37  N2  UNL     1     -14.261  45.506 -28.952  1.00  0.00    -0.372 N 
HETATM   38  C24 UNL     1     -13.020  45.788 -29.073  1.00  0.00     0.121 C 
HETATM   39  N3  UNL     1     -12.430  45.711 -30.287  1.00  0.00    -0.279 NA
HETATM   40  N4  UNL     1     -12.118  46.199 -28.153  1.00  0.00    -0.279 NA
HETATM   41  H37 UNL     1     -13.135  45.559 -31.000  1.00  0.00     0.126 HD
HETATM   42  H38 UNL     1     -11.886  46.541 -30.493  1.00  0.00     0.126 HD
HETATM   43  H39 UNL     1     -12.412  46.041 -27.194  1.00  0.00     0.126 HD
HETATM   44  H40 UNL     1     -11.210  45.777 -28.319  1.00  0.00     0.126 HD
ATOM     45  H2  UNL     1     -14.799  45.187 -29.758  1.00  0.00     0.161 HD
ENDBRANCH  36  37
ENDBRANCH  35  36
ENDBRANCH  34  35
ENDBRANCH  33  34
BRANCH  33  46
HETATM   46  C25 UNL     1     -18.440  45.401 -26.441  1.00  0.00     0.163 C 
HETATM   47  O7  UNL     1     -19.266  46.127 -25.911  1.00  0.00    -0.648 OA
BRANCH  46  48
HETATM   48  O8  UNL     1     -18.582  45.072 -27.747  1.00  0.00    -0.775 OA
HETATM   49  H41 UNL     1     -19.400  45.556 -27.999  1.00  0.00     0.167 HD
ENDBRANCH  46  48
ENDBRANCH  33  46
ENDBRANCH  31  33
ENDBRANCH  28  29
ENDBRANCH  27  28
ENDBRANCH  26  27
ENDBRANCH  25  26
ENDBRANCH  24  25
ENDBRANCH  23  24
ENDBRANCH  21  23
ENDBRANCH  20  21
ENDBRANCH   9  20
BRANCH   3  50
HETATM   50  O3  UNL     1      -4.758  48.355 -22.865  1.00  0.00    -0.389 OA
HETATM   51  H7  UNL     1      -4.243  48.109 -23.655  1.00  0.00     0.210 HD
ENDBRANCH   3  50
BRANCH   1  52
HETATM   52  O2  UNL     1      -2.880  50.123 -25.255  1.00  0.00    -0.316 OA
BRANCH  52  53
HETATM   53  C2  UNL     1      -3.197  49.954 -26.574  1.00  0.00     0.255 C 
HETATM   54  C1  UNL     1      -3.335  48.494 -26.880  1.00  0.00     0.126 C 
HETATM   55  O1  UNL     1      -3.342  50.855 -27.389  1.00  0.00    -0.266 OA
ENDBRANCH  52  53
ENDBRANCH   1  52
BRANCH  19  56
HETATM   56  C36 UNL     1      -1.628  52.095 -23.222  1.00  0.00    -0.043 A 
HETATM   57  C37 UNL     1      -0.747  52.053 -22.212  1.00  0.00     0.090 A 
HETATM   58  C38 UNL     1       0.625  52.599 -22.319  1.00  0.00     0.287 A 
HETATM   59  O9  UNL     1       1.389  52.526 -21.367  1.00  0.00    -0.260 OA
HETATM   60  O10 UNL     1       0.987  53.155 -23.513  1.00  0.00    -0.288 OA
HETATM   61  C39 UNL     1       0.070  53.152 -24.564  1.00  0.00     0.146 A 
HETATM   62  C40 UNL     1      -1.165  52.653 -24.476  1.00  0.00     0.032 A 
ENDBRANCH  19  56
TORSDOF 20
ENDMDL
