MODEL 1
REMARK minimizedAffinity -8.30644131
REMARK CNNscore 0.537202001
REMARK CNNaffinity 6.54096031
REMARK  7 active torsions:
REMARK  status: ('A' for Active; 'I' for Inactive)
REMARK    1  A    between atoms: C6_7  and  O2_8 
REMARK    2  A    between atoms: C11_15  and  C13_17 
REMARK    3  A    between atoms: C26_34  and  C27_35 
REMARK    4  A    between atoms: C27_35  and  C28_36 
REMARK    5  A    between atoms: C32_40  and  C33_41 
REMARK    6  A    between atoms: C33_41  and  N2_42 
REMARK    7  A    between atoms: C33_41  and  N3_43 
ROOT
HETATM    1  C1  UNL     1      10.152  19.323  23.970  1.00  0.00     0.077 C 
HETATM    2  C2  UNL     1       9.467  18.071  23.516  1.00  0.00     0.053 A 
HETATM    3  C3  UNL     1      10.130  17.089  22.881  1.00  0.00     0.088 A 
HETATM    4  C4  UNL     1       9.406  15.878  22.475  1.00  0.00     0.190 A 
HETATM    5  O1  UNL     1       9.966  14.967  21.874  1.00  0.00    -0.287 OA
HETATM    6  C5  UNL     1       7.982  15.800  22.834  1.00  0.00     0.082 A 
HETATM    7  C6  UNL     1       7.206  14.664  22.536  1.00  0.00     0.092 A 
HETATM    8  C7  UNL     1       5.873  14.580  22.962  1.00  0.00     0.016 A 
HETATM    9  C8  UNL     1       5.299  15.724  23.556  1.00  0.00     0.082 A 
HETATM   10  C9  UNL     1       6.067  16.855  23.847  1.00  0.00     0.075 A 
HETATM   11  C10 UNL     1       7.412  16.886  23.497  1.00  0.00     0.095 A 
HETATM   12  O3  UNL     1       8.118  18.017  23.828  1.00  0.00    -0.314 OA
HETATM   13  O4  UNL     1       3.971  15.833  23.879  1.00  0.00    -0.337 OA
HETATM   14  C11 UNL     1       3.018  14.953  23.231  1.00  0.00     0.095 C 
HETATM   15  C12 UNL     1       2.315  14.177  24.374  1.00  0.00     0.050 C 
HETATM   16  C18 UNL     1       3.676  13.944  22.227  1.00  0.00     0.175 C 
HETATM   17  O5  UNL     1       2.748  12.919  21.863  1.00  0.00    -0.310 OA
HETATM   18  C19 UNL     1       2.875  12.432  20.598  1.00  0.00     0.297 C 
HETATM   19  O6  UNL     1       3.379  13.014  19.654  1.00  0.00    -0.262 OA
HETATM   20  C20 UNL     1       2.415  11.021  20.544  1.00  0.00     0.175 A 
HETATM   21  C21 UNL     1       3.217   9.963  21.277  1.00  0.00     0.051 C 
HETATM   22  C22 UNL     1       3.506  10.290  22.747  1.00  0.00     0.004 C 
HETATM   23  C23 UNL     1       4.940  10.754  23.012  1.00  0.00     0.001 C 
HETATM   24  C24 UNL     1       5.488  12.024  22.326  1.00  0.00     0.012 C 
HETATM   25  C25 UNL     1       4.954  13.366  22.884  1.00  0.00     0.057 C 
HETATM   26  O7  UNL     1       2.086  10.548  19.220  1.00  0.00    -0.358 OA
HETATM   27  C26 UNL     1       0.983  10.714  20.116  1.00  0.00     0.172 A 
ENDROOT
BRANCH  27  28
HETATM   28  C27 UNL     1      -0.000  11.747  19.639  1.00  0.00     0.074 C 
BRANCH  28  29
HETATM   29  C28 UNL     1      -1.049  11.107  18.750  1.00  0.00    -0.055 A 
HETATM   30  C29 UNL     1      -2.400  11.446  18.888  1.00  0.00     0.007 A 
HETATM   31  C30 UNL     1      -3.357  10.832  18.077  1.00  0.00     0.001 A 
HETATM   32  C31 UNL     1      -2.983   9.874  17.128  1.00  0.00     0.011 A 
HETATM   33  C32 UNL     1      -1.636   9.525  16.948  1.00  0.00     0.004 A 
HETATM   34  C34 UNL     1      -0.680  10.173  17.760  1.00  0.00     0.018 A 
BRANCH  33  35
HETATM   35  C33 UNL     1      -1.155   8.489  15.947  1.00  0.00     0.479 C 
BRANCH  35  36
HETATM   36  N2  UNL     1       0.173   8.036  16.262  1.00  0.00     0.116 N 
HETATM   37  H37 UNL     1       0.829   8.774  16.003  1.00  0.00     0.316 HD
HETATM   38  H38 UNL     1       0.361   7.255  15.635  1.00  0.00     0.316 HD
ENDBRANCH  35  36
BRANCH  35  39
HETATM   39  N3  UNL     1      -1.858   7.235  15.922  1.00  0.00     0.116 N 
HETATM   40  H39 UNL     1      -1.714   6.801  16.832  1.00  0.00     0.316 HD
HETATM   41  H40 UNL     1      -2.855   7.408  15.826  1.00  0.00     0.316 HD
ENDBRANCH  35  39
ENDBRANCH  33  35
ENDBRANCH  28  29
ENDBRANCH  27  28
BRANCH  14  42
HETATM   42  C13 UNL     1       1.946  15.865  22.523  1.00  0.00     0.026 C 
HETATM   43  C14 UNL     1       1.475  17.063  23.393  1.00  0.00     0.037 C 
HETATM   44  C15 UNL     1       2.060  18.396  22.941  1.00  0.00     0.270 C 
HETATM   45  N1  UNL     1       1.664  18.727  21.576  1.00  0.00     0.083 N 
HETATM   46  C16 UNL     1       1.558  17.572  20.692  1.00  0.00     0.270 C 
HETATM   47  H15 UNL     1       2.327  19.405  21.199  1.00  0.00     0.315 HD
HETATM   48  C17 UNL     1       2.399  16.383  21.141  1.00  0.00     0.037 C 
ENDBRANCH  14  42
BRANCH   7  49
HETATM   49  O2  UNL     1       7.725  13.662  21.774  1.00  0.00    -0.359 OA
HETATM   50  H5  UNL     1       8.666  13.853  21.558  1.00  0.00     0.217 HD
ENDBRANCH   7  49
TORSDOF 7
ENDMDL
