MODEL 1
REMARK minimizedAffinity -9.22763348
REMARK  9 active torsions:
REMARK  status: ('A' for Active; 'I' for Inactive)
REMARK    1  A    between atoms: C2_2  and  C3_3 
REMARK    2  A    between atoms: C2_2  and  C9_12 
REMARK    3  A    between atoms: C3_3  and  C4_4 
REMARK    4  A    between atoms: C4_4  and  C5_5 
REMARK    5  A    between atoms: C5_5  and  O1_6 
REMARK    6  A    between atoms: C5_5  and  C6_7 
REMARK    7  A    between atoms: C6_7  and  O2_9 
REMARK    8  A    between atoms: C6_7  and  C8_10 
REMARK    9  A    between atoms: C8_10  and  O3_11 
ROOT
HETATM    1  C9  UNL     1      -2.163   5.792  13.292  1.00  0.00    -0.002 C 
HETATM    2  C10 UNL     1      -2.272   5.273  11.832  1.00  0.00     0.007 C 
HETATM    3  C11 UNL     1      -0.903   5.518  11.160  1.00  0.00     0.015 C 
HETATM    4  C12 UNL     1       0.074   5.784  12.326  1.00  0.00    -0.005 C 
HETATM    5  C13 UNL     1       0.486   4.388  12.889  1.00  0.00     0.021 C 
HETATM    6  C14 UNL     1       1.407   6.492  12.103  1.00  0.00    -0.000 C 
HETATM    7  C15 UNL     1       1.979   7.253  13.076  1.00  0.00    -0.060 C 
HETATM    8  C16 UNL     1       1.246   7.514  14.397  1.00  0.00     0.036 C 
HETATM    9  C17 UNL     1      -0.117   6.825  14.603  1.00  0.00     0.015 C 
HETATM   10  C18 UNL     1      -0.857   6.650  13.270  1.00  0.00    -0.028 C 
HETATM   11  C19 UNL     1      -1.154   8.065  12.690  1.00  0.00     0.016 C 
HETATM   12  C20 UNL     1       3.355   7.949  12.883  1.00  0.00    -0.014 C 
HETATM   13  C21 UNL     1       3.048   9.336  12.279  1.00  0.00     0.020 C 
HETATM   14  C22 UNL     1       4.111   8.136  14.228  1.00  0.00     0.021 C 
HETATM   15  C23 UNL     1       5.536   8.642  14.051  1.00  0.00     0.080 C 
HETATM   16  C24 UNL     1       6.301   7.634  13.241  1.00  0.00     0.135 C 
HETATM   17  O4  UNL     1       7.310   7.103  13.698  1.00  0.00    -0.297 OA
HETATM   18  C25 UNL     1       5.757   7.318  11.841  1.00  0.00     0.018 C 
HETATM   19  C26 UNL     1       6.490   6.054  11.321  1.00  0.00     0.023 C 
HETATM   20  C27 UNL     1       6.126   8.467  10.895  1.00  0.00     0.023 C 
HETATM   21  C28 UNL     1       4.222   7.009  11.965  1.00  0.00     0.020 C 
HETATM   22  C29 UNL     1       3.520   6.818  10.617  1.00  0.00     0.090 C 
HETATM   23  C30 UNL     1       2.117   6.286  10.791  1.00  0.00     0.157 C 
HETATM   24  O5  UNL     1       1.569   5.713   9.853  1.00  0.00    -0.293 OA
ENDROOT
BRANCH   1  25
HETATM   25  C2  UNL     1      -3.522   6.300  13.874  1.00  0.00    -0.014 C 
HETATM   26  C1  UNL     1      -3.729   6.124  15.381  1.00  0.00     0.010 C 
BRANCH  25  27
HETATM   27  C3  UNL     1      -4.718   5.738  13.071  1.00  0.00     0.007 C 
BRANCH  27  28
HETATM   28  C4  UNL     1      -4.978   4.222  13.228  1.00  0.00     0.035 C 
BRANCH  28  29
HETATM   29  C5  UNL     1      -5.839   3.602  12.117  1.00  0.00     0.154 C 
BRANCH  29  30
HETATM   30  O1  UNL     1      -7.042   3.073  12.699  1.00  0.00    -0.392 OA
HETATM   31  H10 UNL     1      -7.460   2.566  11.971  1.00  0.00     0.210 HD
ENDBRANCH  29  30
BRANCH  29  32
HETATM   32  C6  UNL     1      -5.162   2.466  11.299  1.00  0.00     0.101 C 
HETATM   33  C7  UNL     1      -6.017   1.189  11.210  1.00  0.00     0.051 C 
BRANCH  32  34
HETATM   34  O2  UNL     1      -5.049   2.971   9.947  1.00  0.00    -0.385 OA
HETATM   35  H14 UNL     1      -4.535   2.297   9.449  1.00  0.00     0.210 HD
ENDBRANCH  32  34
BRANCH  32  36
HETATM   36  C8  UNL     1      -3.740   2.160  11.807  1.00  0.00     0.204 C 
BRANCH  36  37
HETATM   37  O3  UNL     1      -3.325   0.866  11.356  1.00  0.00    -0.398 OA
HETATM   38  H17 UNL     1      -3.471   0.236  12.089  1.00  0.00     0.209 HD
ENDBRANCH  36  37
ENDBRANCH  32  36
ENDBRANCH  29  32
ENDBRANCH  28  29
ENDBRANCH  27  28
ENDBRANCH  25  27
ENDBRANCH   1  25
TORSDOF 9
ENDMDL
