MODEL 1
REMARK minimizedAffinity -6.89951849
REMARK CNNscore 0.812916577
REMARK CNNaffinity 6.83046341
REMARK  9 active torsions:
REMARK  status: ('A' for Active; 'I' for Inactive)
REMARK    1  A    between atoms: C4_4  and  C5_5 
REMARK    2  A    between atoms: C5_5  and  C6_6 
REMARK    3  A    between atoms: C6_6  and  C7_7 
REMARK    4  A    between atoms: C7_7  and  C9_9 
REMARK    5  A    between atoms: C16_16  and  O1_17 
REMARK    6  A    between atoms: C22_23  and  O2_24 
REMARK    7  A    between atoms: C24_26  and  O3_27 
REMARK    8  A    between atoms: C25_28  and  C27_30 
REMARK    9  A    between atoms: C27_30  and  O5_32 
ROOT
HETATM    1  C9  UNL     1      -1.937  15.536   4.432  1.00  0.00    -0.002 C 
HETATM    2  C10 UNL     1      -2.757  15.417   3.122  1.00  0.00     0.007 C 
HETATM    3  C11 UNL     1      -1.755  15.079   2.002  1.00  0.00     0.015 C 
HETATM    4  C12 UNL     1      -0.442  14.681   2.720  1.00  0.00    -0.005 C 
HETATM    5  C13 UNL     1      -0.570  13.181   3.108  1.00  0.00     0.021 C 
HETATM    6  C14 UNL     1       0.903  14.783   2.001  1.00  0.00     0.003 C 
HETATM    7  C15 UNL     1       2.060  14.998   2.687  1.00  0.00    -0.030 C 
HETATM    8  C16 UNL     1       2.009  15.182   4.218  1.00  0.00     0.149 C 
HETATM    9  C17 UNL     1       0.623  15.308   4.899  1.00  0.00     0.047 C 
HETATM   10  C18 UNL     1      -0.477  15.710   3.921  1.00  0.00    -0.026 C 
HETATM   11  C19 UNL     1      -0.223  17.176   3.469  1.00  0.00     0.016 C 
HETATM   12  C20 UNL     1       3.441  15.237   1.962  1.00  0.00     0.014 C 
HETATM   13  C21 UNL     1       3.539  16.789   1.877  1.00  0.00     0.023 C 
HETATM   14  C22 UNL     1       4.677  14.618   2.742  1.00  0.00     0.133 C 
HETATM   15  C23 UNL     1       5.757  13.942   1.875  1.00  0.00     0.065 C 
HETATM   16  C24 UNL     1       6.008  14.703   0.576  1.00  0.00     0.139 C 
HETATM   17  C25 UNL     1       4.744  14.654  -0.318  1.00  0.00     0.072 C 
HETATM   18  C26 UNL     1       4.818  13.339  -1.157  1.00  0.00     0.030 C 
HETATM   19  C28 UNL     1       3.410  14.571   0.541  1.00  0.00     0.029 C 
HETATM   20  C29 UNL     1       2.164  14.941  -0.257  1.00  0.00     0.090 C 
HETATM   21  C30 UNL     1       0.899  14.670   0.508  1.00  0.00     0.157 C 
HETATM   22  O6  UNL     1      -0.139  14.437  -0.118  1.00  0.00    -0.293 OA
ENDROOT
BRANCH   1  23
HETATM   23  C7  UNL     1      -2.600  16.466   5.492  1.00  0.00    -0.014 C 
HETATM   24  C8  UNL     1      -2.635  15.956   6.936  1.00  0.00     0.010 C 
BRANCH  23  25
HETATM   25  C6  UNL     1      -4.007  16.927   5.046  1.00  0.00     0.008 C 
BRANCH  25  26
HETATM   26  C5  UNL     1      -4.839  17.638   6.128  1.00  0.00     0.028 C 
BRANCH  26  27
HETATM   27  C4  UNL     1      -6.325  17.463   5.959  1.00  0.00    -0.025 C 
HETATM   28  C2  UNL     1      -7.291  17.724   6.863  1.00  0.00    -0.091 C 
HETATM   29  C1  UNL     1      -7.046  18.213   8.264  1.00  0.00     0.042 C 
HETATM   30  C3  UNL     1      -8.741  17.531   6.516  1.00  0.00     0.042 C 
ENDBRANCH  26  27
ENDBRANCH  25  26
ENDBRANCH  23  25
ENDBRANCH   1  23
BRANCH   8  31
HETATM   31  O1  UNL     1       2.689  14.089   4.838  1.00  0.00    -0.391 OA
HETATM   32  H25 UNL     1       2.505  14.117   5.791  1.00  0.00     0.210 HD
ENDBRANCH   8  31
BRANCH  14  33
HETATM   33  O2  UNL     1       5.358  15.625   3.512  1.00  0.00    -0.394 OA
HETATM   34  H35 UNL     1       4.790  15.821   4.286  1.00  0.00     0.210 HD
ENDBRANCH  14  33
BRANCH  17  35
HETATM   35  C27 UNL     1       4.839  15.781  -1.354  1.00  0.00     0.151 C 
HETATM   36  O4  UNL     1       5.095  15.643  -2.543  1.00  0.00    -0.649 OA
BRANCH  35  37
HETATM   37  O5  UNL     1       4.636  17.018  -0.878  1.00  0.00    -0.776 OA
HETATM   38  H43 UNL     1       4.848  17.598  -1.641  1.00  0.00     0.167 HD
ENDBRANCH  35  37
ENDBRANCH  17  35
BRANCH  16  39
HETATM   39  O3  UNL     1       6.438  16.033   0.873  1.00  0.00    -0.394 OA
HETATM   40  H39 UNL     1       6.455  16.137   1.849  1.00  0.00     0.210 HD
ENDBRANCH  16  39
TORSDOF 9
ENDMDL
