MODEL 1
REMARK minimizedAffinity -6.53735256
REMARK CNNscore 0.6750862
REMARK CNNaffinity 5.95746183
REMARK  4 active torsions:
REMARK  status: ('A' for Active; 'I' for Inactive)
REMARK    1  A    between atoms: C2_2  and  C3_3 
REMARK    2  A    between atoms: C6_6  and  C7_7 
REMARK    3  A    between atoms: C7_7  and  O1_9 
REMARK    4  A    between atoms: C23_29  and  O6_30 
ROOT
HETATM    1  C3  UNL     1     -21.485   0.270  12.421  1.00  0.00     0.008 C 
HETATM    2  C4  UNL     1     -20.680   0.108  11.157  1.00  0.00    -0.023 C 
HETATM    3  C5  UNL     1     -20.018  -0.964  10.686  1.00  0.00     0.004 C 
HETATM    4  C6  UNL     1     -19.884  -2.379  11.196  1.00  0.00     0.182 C 
HETATM    5  O2  UNL     1     -19.180  -2.432  12.458  1.00  0.00    -0.308 OA
HETATM    6  C9  UNL     1     -17.833  -2.223  12.418  1.00  0.00     0.276 C 
HETATM    7  O3  UNL     1     -17.200  -1.943  11.403  1.00  0.00    -0.264 OA
HETATM    8  C10 UNL     1     -17.160  -2.419  13.816  1.00  0.00     0.095 C 
HETATM    9  C11 UNL     1     -18.137  -2.955  14.885  1.00  0.00     0.036 C 
HETATM   10  C12 UNL     1     -16.168  -3.538  13.559  1.00  0.00     0.003 C 
HETATM   11  C13 UNL     1     -14.947  -3.763  14.050  1.00  0.00     0.072 C 
HETATM   12  C14 UNL     1     -14.177  -2.990  15.030  1.00  0.00     0.245 C 
HETATM   13  O4  UNL     1     -13.210  -3.528  15.570  1.00  0.00    -0.268 OA
HETATM   14  N1  UNL     1     -14.463  -1.700  15.302  1.00  0.00    -0.320 N 
HETATM   15  C15 UNL     1     -15.430  -0.811  14.906  1.00  0.00     0.098 C 
HETATM   16  C16 UNL     1     -16.577  -1.077  14.259  1.00  0.00     0.045 C 
HETATM   17  C17 UNL     1     -17.508   0.075  14.042  1.00  0.00     0.194 C 
HETATM   18  O5  UNL     1     -18.707  -0.119  13.919  1.00  0.00    -0.287 OA
HETATM   19  C18 UNL     1     -17.023   1.453  14.081  1.00  0.00     0.046 A 
HETATM   20  C19 UNL     1     -15.884   1.710  14.826  1.00  0.00     0.032 A 
HETATM   21  C20 UNL     1     -15.457   3.028  15.040  1.00  0.00     0.026 A 
HETATM   22  C21 UNL     1     -16.151   4.102  14.468  1.00  0.00    -0.027 A 
HETATM   23  C22 UNL     1     -15.656   5.507  14.666  1.00  0.00     0.051 C 
HETATM   24  C23 UNL     1     -17.248   3.828  13.643  1.00  0.00     0.086 A 
HETATM   25  C24 UNL     1     -17.714   2.515  13.478  1.00  0.00     0.059 A 
HETATM   26  C25 UNL     1     -18.772   2.274  12.478  1.00  0.00     0.163 C 
HETATM   27  O7  UNL     1     -18.379   1.988  11.349  1.00  0.00    -0.292 OA
HETATM   28  C26 UNL     1     -20.223   2.598  12.804  1.00  0.00     0.084 C 
HETATM   29  C27 UNL     1     -21.090   1.461  13.350  1.00  0.00     0.016 C 
HETATM   30  C28 UNL     1     -15.110   0.588  15.371  1.00  0.00     0.210 C 
HETATM   31  O8  UNL     1     -14.186   0.785  16.154  1.00  0.00    -0.285 OA
HETATM   32  H20 UNL     1     -13.748  -1.291  15.907  1.00  0.00     0.169 HD
ENDROOT
BRANCH   4  33
HETATM   33  C7  UNL     1     -21.223  -3.132  11.386  1.00  0.00     0.147 C 
HETATM   34  C8  UNL     1     -21.880  -3.532  10.072  1.00  0.00     0.042 C 
BRANCH  33  35
HETATM   35  O1  UNL     1     -20.989  -4.339  12.132  1.00  0.00    -0.393 OA
HETATM   36  H14 UNL     1     -20.566  -4.059  12.964  1.00  0.00     0.210 HD
ENDBRANCH  33  35
ENDBRANCH   4  33
BRANCH   1  37
HETATM   37  C2  UNL     1     -22.997   0.306  12.087  1.00  0.00     0.004 C 
HETATM   38  C1  UNL     1     -23.358  -0.100  10.662  1.00  0.00     0.006 C 
ENDBRANCH   1  37
BRANCH  24  39
HETATM   39  O6  UNL     1     -17.817   4.884  12.982  1.00  0.00    -0.359 OA
HETATM   40  H25 UNL     1     -18.060   4.600  12.078  1.00  0.00     0.217 HD
ENDBRANCH  24  39
TORSDOF 4
ENDMDL
