MODEL 1
REMARK minimizedAffinity -8.05020332
REMARK  12 active torsions:
REMARK  status: ('A' for Active; 'I' for Inactive)
REMARK    1  A    between atoms: C2_2  and  C3_3 
REMARK    2  A    between atoms: C3_3  and  C5_5 
REMARK    3  A    between atoms: C3_3  and  C20_20 
REMARK    4  A    between atoms: C6_6  and  C7_7 
REMARK    5  A    between atoms: C7_7  and  C9_9 
REMARK    6  A    between atoms: C9_9  and  C10_10 
REMARK    7  A    between atoms: C10_10  and  C11_11 
REMARK    8  A    between atoms: C12_12  and  C14_14 
REMARK    9  A    between atoms: C14_14  and  C15_15 
REMARK   10  A    between atoms: C15_15  and  C16_16 
REMARK   11  A    between atoms: C20_20  and  C21_21 
REMARK   12  A    between atoms: C21_21  and  C22_22 
ROOT
HETATM    1  C3  UNL     1      -4.946   3.297  11.805  1.00  0.00    -0.010 C 
HETATM    2  C4  UNL     1      -5.755   3.570  10.512  1.00  0.00     0.024 C 
ENDROOT
BRANCH   1   3
HETATM    3  C2  UNL     1      -4.517   1.834  11.704  1.00  0.00    -0.024 C 
HETATM    4  C1  UNL     1      -3.284   1.314  11.630  1.00  0.00     0.008 C 
ENDBRANCH   1   3
BRANCH   1   5
HETATM    5  C5  UNL     1      -3.743   4.245  11.787  1.00  0.00    -0.017 C 
HETATM    6  C6  UNL     1      -3.214   4.919  12.824  1.00  0.00    -0.025 C 
BRANCH   6   7
HETATM    7  C7  UNL     1      -2.012   5.832  12.705  1.00  0.00     0.004 C 
HETATM    8  C8  UNL     1      -1.953   6.744  13.932  1.00  0.00     0.014 C 
BRANCH   7   9
HETATM    9  C9  UNL     1      -0.739   4.977  12.548  1.00  0.00     0.012 C 
BRANCH   9  10
HETATM   10  C10 UNL     1      -0.051   5.086  11.181  1.00  0.00     0.028 C 
BRANCH  10  11
HETATM   11  C11 UNL     1       1.131   6.020  11.204  1.00  0.00    -0.024 C 
HETATM   12  C12 UNL     1       1.162   7.349  10.972  1.00  0.00    -0.087 C 
HETATM   13  C13 UNL     1      -0.052   8.175  10.625  1.00  0.00     0.043 C 
BRANCH  12  14
HETATM   14  C14 UNL     1       2.437   8.186  11.027  1.00  0.00     0.037 C 
BRANCH  14  15
HETATM   15  C15 UNL     1       3.461   8.005   9.897  1.00  0.00     0.031 C 
BRANCH  15  16
HETATM   16  C16 UNL     1       2.805   8.051   8.541  1.00  0.00    -0.024 C 
HETATM   17  C17 UNL     1       2.519   7.011   7.733  1.00  0.00    -0.091 C 
HETATM   18  C18 UNL     1       2.869   5.577   8.019  1.00  0.00     0.042 C 
HETATM   19  C19 UNL     1       1.806   7.229   6.423  1.00  0.00     0.042 C 
ENDBRANCH  15  16
ENDBRANCH  14  15
ENDBRANCH  12  14
ENDBRANCH  10  11
ENDBRANCH   9  10
ENDBRANCH   7   9
ENDBRANCH   6   7
ENDBRANCH   1   5
BRANCH   1  20
HETATM   20  C20 UNL     1      -5.867   3.674  13.016  1.00  0.00     0.018 C 
BRANCH  20  21
HETATM   21  C21 UNL     1      -7.348   3.911  12.680  1.00  0.00     0.011 C 
BRANCH  21  22
HETATM   22  C22 UNL     1      -8.114   5.127  13.285  1.00  0.00     0.022 C 
HETATM   23  C23 UNL     1      -9.065   5.894  12.373  1.00  0.00    -0.084 C 
HETATM   24  C24 UNL     1      -8.972   6.048  11.042  1.00  0.00     0.014 C 
HETATM   25  C25 UNL     1     -10.199   6.566  13.124  1.00  0.00     0.034 C 
HETATM   26  C26 UNL     1      -9.814   6.926  14.563  1.00  0.00     0.009 C 
HETATM   27  C27 UNL     1      -8.333   7.326  14.663  1.00  0.00    -0.010 C 
HETATM   28  C28 UNL     1      -8.052   7.934  16.042  1.00  0.00     0.011 C 
HETATM   29  C29 UNL     1      -7.353   6.142  14.239  1.00  0.00    -0.037 C 
HETATM   30  C30 UNL     1      -6.135   6.815  13.570  1.00  0.00     0.016 C 
HETATM   31  C31 UNL     1      -6.837   5.358  15.468  1.00  0.00     0.016 C 
ENDBRANCH  21  22
ENDBRANCH  20  21
ENDBRANCH   1  20
TORSDOF 12
ENDMDL
