MODEL 1
REMARK minimizedAffinity -8.2966423
REMARK CNNscore 0.661462963
REMARK CNNaffinity 6.38351679
REMARK  9 active torsions:
REMARK  status: ('A' for Active; 'I' for Inactive)
REMARK    1  A    between atoms: C2_2  and  C30_35 
REMARK    2  A    between atoms: C3_3  and  C4_4 
REMARK    3  A    between atoms: C4_4  and  O1_5 
REMARK    4  A    between atoms: C4_4  and  C5_6 
REMARK    5  A    between atoms: C5_6  and  C6_7 
REMARK    6  A    between atoms: C6_7  and  C8_9 
REMARK    7  A    between atoms: C10_11  and  O2_12 
REMARK    8  A    between atoms: C29_33  and  O5_34 
REMARK    9  A    between atoms: C30_35  and  O7_37 
ROOT
HETATM    1  C8  UNL     1     -13.452  46.382 -27.022  1.00  0.00     0.001 C 
HETATM    2  C9  UNL     1     -12.814  47.432 -26.065  1.00  0.00     0.038 C 
HETATM    3  C10 UNL     1     -11.391  47.696 -26.592  1.00  0.00     0.132 C 
HETATM    4  C11 UNL     1     -11.450  47.256 -28.077  1.00  0.00     0.017 C 
HETATM    5  C12 UNL     1     -12.170  48.376 -28.905  1.00  0.00     0.023 C 
HETATM    6  C13 UNL     1     -10.149  46.972 -28.826  1.00  0.00    -0.029 C 
HETATM    7  C14 UNL     1     -10.148  46.171 -29.927  1.00  0.00     0.002 C 
HETATM    8  C15 UNL     1     -11.432  45.424 -30.277  1.00  0.00     0.157 C 
HETATM    9  O3  UNL     1     -11.522  44.763 -31.312  1.00  0.00    -0.293 OA
HETATM   10  C16 UNL     1     -12.638  45.459 -29.339  1.00  0.00     0.094 C 
HETATM   11  C17 UNL     1     -12.264  45.923 -27.931  1.00  0.00    -0.019 C 
HETATM   12  C18 UNL     1     -11.459  44.779 -27.248  1.00  0.00     0.017 C 
HETATM   13  C19 UNL     1      -8.878  45.935 -30.797  1.00  0.00    -0.008 C 
HETATM   14  C20 UNL     1      -8.382  44.521 -30.420  1.00  0.00     0.021 C 
HETATM   15  C21 UNL     1      -9.157  46.006 -32.325  1.00  0.00     0.022 C 
HETATM   16  C22 UNL     1      -7.907  45.896 -33.188  1.00  0.00     0.080 C 
HETATM   17  C23 UNL     1      -6.880  46.941 -32.839  1.00  0.00     0.135 C 
HETATM   18  O4  UNL     1      -6.282  47.531 -33.741  1.00  0.00    -0.297 OA
HETATM   19  C24 UNL     1      -6.527  47.133 -31.358  1.00  0.00     0.018 C 
HETATM   20  C25 UNL     1      -5.463  46.095 -30.974  1.00  0.00     0.023 C 
HETATM   21  C26 UNL     1      -5.868  48.531 -31.219  1.00  0.00     0.023 C 
HETATM   22  C27 UNL     1      -7.841  47.095 -30.505  1.00  0.00     0.016 C 
HETATM   23  C28 UNL     1      -7.606  47.216 -28.990  1.00  0.00     0.043 C 
HETATM   24  C29 UNL     1      -8.898  47.629 -28.286  1.00  0.00     0.149 C 
ENDROOT
BRANCH   1  25
HETATM   25  C6  UNL     1     -14.408  45.378 -26.310  1.00  0.00    -0.011 C 
HETATM   26  C7  UNL     1     -15.718  45.054 -27.039  1.00  0.00     0.010 C 
BRANCH  25  27
HETATM   27  C5  UNL     1     -14.657  45.793 -24.837  1.00  0.00     0.040 C 
BRANCH  27  28
HETATM   28  C4  UNL     1     -15.879  46.702 -24.625  1.00  0.00     0.142 C 
BRANCH  28  29
HETATM   29  C3  UNL     1     -16.831  46.106 -23.622  1.00  0.00     0.018 C 
HETATM   30  C2  UNL     1     -18.175  46.215 -23.555  1.00  0.00     0.010 C 
HETATM   31  C1  UNL     1     -19.033  47.045 -24.468  1.00  0.00     0.055 C 
BRANCH  30  32
HETATM   32  C30 UNL     1     -18.939  45.506 -22.494  1.00  0.00     0.171 C 
HETATM   33  O6  UNL     1     -19.688  44.561 -22.674  1.00  0.00    -0.646 OA
BRANCH  32  34
HETATM   34  O7  UNL     1     -18.747  46.003 -21.260  1.00  0.00    -0.773 OA
HETATM   35  H44 UNL     1     -19.321  45.443 -20.698  1.00  0.00     0.167 HD
ENDBRANCH  32  34
ENDBRANCH  30  32
ENDBRANCH  28  29
BRANCH  28  36
HETATM   36  O1  UNL     1     -15.478  47.999 -24.209  1.00  0.00    -0.392 OA
HETATM   37  H6  UNL     1     -16.291  48.504 -24.035  1.00  0.00     0.210 HD
ENDBRANCH  28  36
ENDBRANCH  27  28
ENDBRANCH  25  27
ENDBRANCH   1  25
BRANCH   3  38
HETATM   38  O2  UNL     1     -11.010  49.057 -26.438  1.00  0.00    -0.394 OA
HETATM   39  H17 UNL     1     -11.194  49.308 -25.513  1.00  0.00     0.210 HD
ENDBRANCH   3  38
BRANCH  24  40
HETATM   40  O5  UNL     1      -9.029  49.040 -28.410  1.00  0.00    -0.391 OA
HETATM   41  H43 UNL     1      -9.691  49.319 -27.743  1.00  0.00     0.210 HD
ENDBRANCH  24  40
TORSDOF 9
ENDMDL
