MODEL 1
REMARK minimizedAffinity -6.61986685
REMARK CNNscore 0.590218425
REMARK CNNaffinity 6.36486006
REMARK  14 active torsions:
REMARK  status: ('A' for Active; 'I' for Inactive)
REMARK    1  A    between atoms: C2_2  and  C3_3 
REMARK    2  A    between atoms: C2_2  and  C27_31 
REMARK    3  A    between atoms: C4_4  and  C5_5 
REMARK    4  A    between atoms: C6_6  and  C7_7 
REMARK    5  A    between atoms: C6_6  and  C9_9 
REMARK    6  A    between atoms: C13_13  and  O1_14 
REMARK    7  A    between atoms: C15_16  and  C16_17 
REMARK    8  A    between atoms: C16_17  and  C17_18 
REMARK    9  A    between atoms: C17_18  and  C18_19 
REMARK   10  A    between atoms: C18_19  and  O2_20 
REMARK   11  A    between atoms: C20_22  and  C22_24 
REMARK   12  A    between atoms: C25_28  and  O4_30 
REMARK   13  A    between atoms: C27_31  and  C28_32 
REMARK   14  A    between atoms: C28_32  and  C29_33 
ROOT
HETATM    1  C9  UNL     1      -8.103  48.167 -28.917  1.00  0.00     0.044 C 
HETATM    2  C10 UNL     1      -7.900  47.500 -27.548  1.00  0.00     0.013 C 
HETATM    3  C11 UNL     1      -8.822  46.300 -27.552  1.00  0.00     0.017 C 
HETATM    4  C12 UNL     1     -10.101  46.713 -28.331  1.00  0.00     0.025 C 
HETATM    5  C13 UNL     1      -9.475  47.624 -29.474  1.00  0.00     0.141 C 
HETATM    6  C15 UNL     1     -10.877  45.354 -28.713  1.00  0.00     0.029 C 
HETATM    7  C19 UNL     1     -12.405  45.554 -28.824  1.00  0.00    -0.066 C 
HETATM    8  C20 UNL     1     -13.332  44.672 -28.365  1.00  0.00    -0.021 C 
HETATM    9  C21 UNL     1     -13.054  43.364 -27.665  1.00  0.00     0.052 C 
HETATM   10  C23 UNL     1     -12.718  46.925 -29.363  1.00  0.00     0.038 C 
HETATM   11  C24 UNL     1     -12.370  47.961 -28.293  1.00  0.00     0.042 C 
HETATM   12  C25 UNL     1     -11.087  47.625 -27.474  1.00  0.00     0.065 C 
HETATM   13  C26 UNL     1     -11.456  47.016 -26.105  1.00  0.00     0.047 C 
ENDROOT
BRANCH   5  14
HETATM   14  O1  UNL     1      -9.319  46.955 -30.721  1.00  0.00    -0.389 OA
HETATM   15  C14 UNL     1      -8.384  45.880 -30.671  1.00  0.00     0.202 C 
ENDBRANCH   5  14
BRANCH   6  16
HETATM   16  C16 UNL     1     -10.321  44.596 -29.946  1.00  0.00     0.012 C 
BRANCH  16  17
HETATM   17  C17 UNL     1     -11.374  43.942 -30.851  1.00  0.00     0.027 C 
BRANCH  17  18
HETATM   18  C18 UNL     1     -10.741  43.107 -31.964  1.00  0.00     0.164 C 
BRANCH  18  19
HETATM   19  O2  UNL     1     -10.981  41.720 -31.764  1.00  0.00    -0.401 OA
HETATM   20  H27 UNL     1     -11.927  41.563 -31.924  1.00  0.00     0.209 HD
ENDBRANCH  18  19
ENDBRANCH  17  18
ENDBRANCH  16  17
ENDBRANCH   6  16
BRANCH  12  21
HETATM   21  O4  UNL     1     -10.479  48.891 -27.167  1.00  0.00    -0.389 OA
HETATM   22  H39 UNL     1     -11.108  49.412 -26.641  1.00  0.00     0.210 HD
ENDBRANCH  12  21
BRANCH   1  23
HETATM   23  C6  UNL     1      -6.862  48.054 -29.823  1.00  0.00    -0.074 C 
HETATM   24  C5  UNL     1      -5.600  47.931 -29.354  1.00  0.00     0.003 C 
BRANCH  24  25
HETATM   25  C4  UNL     1      -5.156  47.943 -27.972  1.00  0.00     0.001 C 
HETATM   26  C3  UNL     1      -4.015  48.543 -27.589  1.00  0.00     0.006 C 
BRANCH  26  27
HETATM   27  C2  UNL     1      -3.484  48.624 -26.227  1.00  0.00    -0.067 C 
HETATM   28  C1  UNL     1      -2.199  48.990 -26.067  1.00  0.00     0.019 C 
BRANCH  27  29
HETATM   29  C27 UNL     1      -4.418  48.292 -25.071  1.00  0.00     0.041 C 
BRANCH  29  30
HETATM   30  C28 UNL     1      -3.887  48.527 -23.649  1.00  0.00     0.032 C 
BRANCH  30  31
HETATM   31  C29 UNL     1      -3.784  49.997 -23.338  1.00  0.00    -0.024 C 
HETATM   32  C30 UNL     1      -4.786  50.850 -23.048  1.00  0.00    -0.091 C 
HETATM   33  C31 UNL     1      -4.505  52.311 -22.809  1.00  0.00     0.042 C 
HETATM   34  C32 UNL     1      -6.236  50.469 -22.927  1.00  0.00     0.042 C 
ENDBRANCH  30  31
ENDBRANCH  29  30
ENDBRANCH  27  29
ENDBRANCH  26  27
ENDBRANCH  24  25
BRANCH  23  35
HETATM   35  C7  UNL     1      -7.147  48.059 -31.327  1.00  0.00     0.030 C 
HETATM   36  C8  UNL     1      -5.950  47.985 -32.272  1.00  0.00     0.010 C 
ENDBRANCH  23  35
ENDBRANCH   1  23
BRANCH   8  37
HETATM   37  C22 UNL     1     -14.806  44.932 -28.473  1.00  0.00     0.265 C 
HETATM   38  O3  UNL     1     -15.639  44.030 -28.491  1.00  0.00    -0.302 OA
ENDBRANCH   8  37
TORSDOF 14
ENDMDL
