MODEL 1
REMARK minimizedAffinity -7.7670331
REMARK CNNscore 0.384939164
REMARK CNNaffinity 6.67962313
REMARK  13 active torsions:
REMARK  status: ('A' for Active; 'I' for Inactive)
REMARK    1  A    between atoms: C3_3  and  O1_4 
REMARK    2  A    between atoms: N1_14  and  O2_16 
REMARK    3  A    between atoms: O2_16  and  C13_17 
REMARK    4  A    between atoms: C13_17  and  C14_18 
REMARK       I    between atoms: C14_18  and  N2_20 
REMARK    5  A    between atoms: N2_20  and  C15_21 
REMARK    6  A    between atoms: C15_21  and  C16_22 
REMARK    7  A    between atoms: C15_21  and  C21_32 
REMARK       I    between atoms: C16_22  and  N3_24 
REMARK    8  A    between atoms: N3_24  and  C17_25 
REMARK    9  A    between atoms: C17_25  and  C18_26 
REMARK   10  A    between atoms: C17_25  and  C19_28 
REMARK   11  A    between atoms: C18_26  and  S1_27 
REMARK   12  A    between atoms: C19_28  and  C20_29 
REMARK   13  A    between atoms: C20_29  and  O6_31 
ROOT
HETATM    1  C1  UNL     1      -8.011   6.062  12.789  1.00  0.00     0.015 C 
HETATM    2  C2  UNL     1      -7.039   6.094  13.494  1.00  0.00    -0.078 C 
HETATM    3  C3  UNL     1      -5.855   6.114  14.366  1.00  0.00     0.128 C 
HETATM    4  C4  UNL     1      -4.746   5.149  13.871  1.00  0.00     0.052 C 
HETATM    5  C5  UNL     1      -3.400   5.789  14.272  1.00  0.00     0.010 C 
HETATM    6  C6  UNL     1      -3.792   7.010  15.100  1.00  0.00     0.002 C 
HETATM    7  C7  UNL     1      -2.746   8.092  15.406  1.00  0.00    -0.004 C 
HETATM    8  C8  UNL     1      -1.928   8.583  14.196  1.00  0.00     0.010 C 
HETATM    9  C9  UNL     1      -1.593  10.070  14.231  1.00  0.00     0.035 C 
HETATM   10  C10 UNL     1      -1.243  10.468  15.634  1.00  0.00    -0.069 C 
HETATM   11  C11 UNL     1       0.012  10.839  15.953  1.00  0.00     0.030 C 
HETATM   12  C12 UNL     1       0.391  11.178  17.349  1.00  0.00     0.032 C 
HETATM   13  N1  UNL     1       1.577  11.678  17.556  1.00  0.00    -0.271 N 
ATOM     14  H1  UNL     1       2.282  11.815  16.832  1.00  0.00     0.194 HD
HETATM   15  C24 UNL     1      -0.625  10.942  18.453  1.00  0.00     0.060 C 
HETATM   16  C25 UNL     1      -1.748  10.004  18.022  1.00  0.00     0.020 C 
HETATM   17  C26 UNL     1      -2.377  10.368  16.649  1.00  0.00    -0.016 C 
HETATM   18  C27 UNL     1      -3.053  11.753  16.755  1.00  0.00     0.020 C 
HETATM   19  C28 UNL     1      -3.405   9.221  16.268  1.00  0.00     0.002 C 
HETATM   20  C29 UNL     1      -4.763   9.693  15.683  1.00  0.00     0.007 C 
HETATM   21  C30 UNL     1      -5.737   8.533  15.401  1.00  0.00     0.014 C 
HETATM   22  C31 UNL     1      -5.120   7.489  14.456  1.00  0.00     0.003 C 
HETATM   23  C32 UNL     1      -4.974   8.114  13.044  1.00  0.00     0.020 C 
ENDROOT
BRANCH   3  24
HETATM   24  O1  UNL     1      -6.260   5.683  15.667  1.00  0.00    -0.377 OA
HETATM   25  H2  UNL     1      -6.748   4.849  15.551  1.00  0.00     0.211 HD
ENDBRANCH   3  24
BRANCH  13  26
HETATM   26  O2  UNL     1       1.750  12.002  18.912  1.00  0.00    -0.271 OA
BRANCH  26  27
HETATM   27  C13 UNL     1       2.919  12.793  19.061  1.00  0.00     0.303 C 
BRANCH  27  28
HETATM   28  C14 UNL     1       3.993  11.991  19.785  1.00  0.00     0.244 C 
HETATM   29  O3  UNL     1       4.735  11.173  19.243  1.00  0.00    -0.271 OA
HETATM   30  N2  UNL     1       4.085  12.263  21.138  1.00  0.00    -0.346 N 
HETATM   31  H16 UNL     1       3.717  13.144  21.476  1.00  0.00     0.163 HD
BRANCH  30  32
HETATM   32  C15 UNL     1       5.032  11.546  22.003  1.00  0.00     0.180 C 
BRANCH  32  33
HETATM   33  C16 UNL     1       5.956  12.603  22.661  1.00  0.00     0.241 C 
HETATM   34  O4  UNL     1       5.557  13.683  23.095  1.00  0.00    -0.271 OA
HETATM   35  N3  UNL     1       7.284  12.224  22.706  1.00  0.00    -0.353 N 
HETATM   36  H18 UNL     1       7.542  11.411  22.143  1.00  0.00     0.163 HD
BRANCH  35  37
HETATM   37  C17 UNL     1       8.347  13.133  23.146  1.00  0.00     0.103 C 
BRANCH  37  38
HETATM   38  C18 UNL     1       7.819  14.575  23.341  1.00  0.00     0.096 C 
BRANCH  38  39
HETATM   39  S1  UNL     1       8.854  15.864  22.561  1.00  0.00    -0.180 SA
HETATM   40  H22 UNL     1       8.081  16.905  22.907  1.00  0.00     0.101 HD
ENDBRANCH  38  39
ENDBRANCH  37  38
BRANCH  37  41
HETATM   41  C19 UNL     1       9.537  13.033  22.181  1.00  0.00     0.136 C 
BRANCH  41  42
HETATM   42  C20 UNL     1       9.172  12.313  20.913  1.00  0.00     0.141 C 
HETATM   43  O5  UNL     1       9.560  11.215  20.552  1.00  0.00    -0.650 OA
BRANCH  42  44
HETATM   44  O6  UNL     1       8.298  13.012  20.165  1.00  0.00    -0.776 OA
HETATM   45  H25 UNL     1       8.126  12.440  19.387  1.00  0.00     0.167 HD
ENDBRANCH  42  44
ENDBRANCH  41  42
ENDBRANCH  37  41
ENDBRANCH  35  37
ENDBRANCH  32  33
BRANCH  32  46
HETATM   46  C21 UNL     1       4.284  10.678  23.043  1.00  0.00     0.009 C 
HETATM   47  C22 UNL     1       2.966  11.333  23.482  1.00  0.00     0.012 C 
HETATM   48  C23 UNL     1       3.971   9.286  22.481  1.00  0.00     0.012 C 
ENDBRANCH  32  46
ENDBRANCH  30  32
ENDBRANCH  27  28
ENDBRANCH  26  27
ENDBRANCH  13  26
TORSDOF 13
ENDMDL
