MODEL 1
REMARK minimizedAffinity -8.94374657
REMARK  14 active torsions:
REMARK  status: ('A' for Active; 'I' for Inactive)
REMARK    1  A    between atoms: C2_2  and  O1_3 
REMARK    2  A    between atoms: O1_3  and  C3_4 
REMARK    3  A    between atoms: C4_6  and  C5_7 
REMARK    4  A    between atoms: C5_7  and  O3_8 
REMARK    5  A    between atoms: C5_7  and  C6_9 
REMARK    6  A    between atoms: C6_9  and  O4_10 
REMARK    7  A    between atoms: O4_10  and  C7_11 
REMARK    8  A    between atoms: C12_16  and  C13_17 
REMARK    9  A    between atoms: C13_17  and  O5_19 
REMARK   10  A    between atoms: C13_17  and  C15_20 
REMARK   11  A    between atoms: C15_20  and  O6_21 
REMARK   12  A    between atoms: C18_24  and  O7_26 
REMARK   13  A    between atoms: C22_29  and  O8_30 
REMARK   14  A    between atoms: C23_31  and  O9_32 
ROOT
HETATM    1  C7  UNL     1      -0.236  52.067 -22.305  1.00  0.00     0.126 C 
HETATM    2  C8  UNL     1      -1.693  51.726 -22.045  1.00  0.00     0.040 C 
HETATM    3  C9  UNL     1      -1.743  51.315 -20.558  1.00  0.00     0.026 C 
HETATM    4  C10 UNL     1      -0.618  52.149 -19.885  1.00  0.00    -0.001 C 
HETATM    5  C11 UNL     1       0.273  51.495 -18.823  1.00  0.00     0.013 C 
HETATM    6  C12 UNL     1      -0.481  50.936 -17.592  1.00  0.00     0.022 C 
HETATM    7  C16 UNL     1      -0.949  49.498 -17.900  1.00  0.00     0.010 C 
HETATM    8  C17 UNL     1      -2.095  49.395 -18.898  1.00  0.00     0.038 C 
HETATM    9  C18 UNL     1      -1.818  49.781 -20.360  1.00  0.00     0.058 C 
HETATM   10  C19 UNL     1      -0.668  48.978 -20.976  1.00  0.00     0.046 C 
HETATM   11  C20 UNL     1       0.144  52.851 -21.049  1.00  0.00     0.015 C 
HETATM   12  C21 UNL     1       1.657  53.006 -20.922  1.00  0.00     0.013 C 
ENDROOT
BRANCH   1  13
HETATM   13  O4  UNL     1      -0.071  52.890 -23.456  1.00  0.00    -0.383 OA
BRANCH  13  14
HETATM   14  C6  UNL     1       0.172  52.132 -24.650  1.00  0.00     0.202 C 
BRANCH  14  15
HETATM   15  C5  UNL     1      -0.351  52.957 -25.830  1.00  0.00     0.173 C 
BRANCH  15  16
HETATM   16  C4  UNL     1      -1.047  52.087 -26.888  1.00  0.00     0.187 C 
HETATM   17  O2  UNL     1      -0.910  50.687 -26.528  1.00  0.00    -0.348 OA
HETATM   18  C3  UNL     1      -2.227  50.122 -26.413  1.00  0.00     0.291 C 
HETATM   19  C23 UNL     1      -3.086  50.948 -27.375  1.00  0.00     0.204 C 
HETATM   20  C22 UNL     1      -2.545  52.350 -27.131  1.00  0.00     0.183 C 
BRANCH  18  21
HETATM   21  O1  UNL     1      -2.730  50.243 -25.086  1.00  0.00    -0.359 OA
BRANCH  21  22
HETATM   22  C2  UNL     1      -3.254  49.011 -24.598  1.00  0.00     0.166 C 
HETATM   23  C1  UNL     1      -3.947  48.304 -25.746  1.00  0.00     0.033 C 
ENDBRANCH  21  22
ENDBRANCH  18  21
BRANCH  19  24
HETATM   24  O9  UNL     1      -2.853  50.561 -28.739  1.00  0.00    -0.388 OA
HETATM   25  H42 UNL     1      -1.909  50.334 -28.829  1.00  0.00     0.210 HD
ENDBRANCH  19  24
BRANCH  20  26
HETATM   26  O8  UNL     1      -3.211  52.962 -26.028  1.00  0.00    -0.390 OA
HETATM   27  H40 UNL     1      -2.822  52.574 -25.210  1.00  0.00     0.210 HD
ENDBRANCH  20  26
ENDBRANCH  15  16
BRANCH  15  28
HETATM   28  O3  UNL     1       0.747  53.690 -26.403  1.00  0.00    -0.391 OA
HETATM   29  H9  UNL     1       1.203  54.091 -25.635  1.00  0.00     0.210 HD
ENDBRANCH  15  28
ENDBRANCH  14  15
ENDBRANCH  13  14
ENDBRANCH   1  13
BRANCH   9  30
HETATM   30  O7  UNL     1      -3.006  49.367 -21.081  1.00  0.00    -0.390 OA
HETATM   31  H34 UNL     1      -3.094  48.403 -20.992  1.00  0.00     0.210 HD
ENDBRANCH   9  30
BRANCH   6  32
HETATM   32  C13 UNL     1       0.415  50.989 -16.294  1.00  0.00     0.079 C 
HETATM   33  C14 UNL     1      -0.375  51.497 -15.072  1.00  0.00     0.048 C 
BRANCH  32  34
HETATM   34  O5  UNL     1       0.856  49.657 -15.994  1.00  0.00    -0.388 OA
HETATM   35  H23 UNL     1       1.389  49.687 -15.179  1.00  0.00     0.210 HD
ENDBRANCH  32  34
BRANCH  32  36
HETATM   36  C15 UNL     1       1.663  51.903 -16.462  1.00  0.00     0.201 C 
BRANCH  36  37
HETATM   37  O6  UNL     1       1.438  53.234 -16.017  1.00  0.00    -0.398 OA
HETATM   38  H26 UNL     1       1.369  53.220 -15.047  1.00  0.00     0.209 HD
ENDBRANCH  36  37
ENDBRANCH  32  36
ENDBRANCH   6  32
TORSDOF 14
ENDMDL
