MODEL 1
REMARK minimizedAffinity -8.06989956
REMARK CNNscore 0.441753387
REMARK CNNaffinity 6.8275609
REMARK  10 active torsions:
REMARK  status: ('A' for Active; 'I' for Inactive)
REMARK    1  A    between atoms: C14_14  and  C15_15 
REMARK    2  A    between atoms: C15_15  and  C17_17 
REMARK    3  A    between atoms: C17_17  and  C18_18 
REMARK    4  A    between atoms: C18_18  and  C19_19 
REMARK    5  A    between atoms: C20_20  and  C22_22 
REMARK    6  A    between atoms: C22_22  and  O2_24 
REMARK    7  A    between atoms: C27_29  and  C28_30 
REMARK    8  A    between atoms: C28_30  and  C29_31 
REMARK    9  A    between atoms: C29_31  and  C30_32 
REMARK   10  A    between atoms: C30_32  and  O3_33 
ROOT
HETATM    1  C1  UNL     1      -5.316   5.147  13.274  1.00  0.00     0.043 C 
HETATM    2  C2  UNL     1      -4.649   6.461  13.623  1.00  0.00    -0.085 C 
HETATM    3  C3  UNL     1      -5.595   7.629  13.464  1.00  0.00     0.043 C 
HETATM    4  C4  UNL     1      -3.357   6.562  14.038  1.00  0.00    -0.073 C 
HETATM    5  C5  UNL     1      -2.477   5.337  14.159  1.00  0.00     0.035 C 
HETATM    6  C6  UNL     1      -0.972   5.582  14.247  1.00  0.00     0.010 C 
HETATM    7  C7  UNL     1      -0.414   6.802  13.489  1.00  0.00     0.003 C 
HETATM    8  C8  UNL     1      -1.314   8.115  13.602  1.00  0.00    -0.032 C 
HETATM    9  C9  UNL     1      -0.551   9.268  14.316  1.00  0.00     0.016 C 
HETATM   10  C10 UNL     1      -1.679   8.685  12.180  1.00  0.00     0.011 C 
HETATM   11  C11 UNL     1      -0.580   8.737  11.098  1.00  0.00     0.011 C 
HETATM   12  C12 UNL     1       0.576   7.746  11.295  1.00  0.00    -0.032 C 
HETATM   13  C13 UNL     1       1.740   8.434  12.070  1.00  0.00     0.016 C 
HETATM   14  C14 UNL     1       1.158   7.142   9.976  1.00  0.00    -0.002 C 
HETATM   15  C23 UNL     1       1.829   5.827  10.456  1.00  0.00     0.006 C 
HETATM   16  C24 UNL     1       1.280   5.543  11.878  1.00  0.00     0.011 C 
HETATM   17  C25 UNL     1       0.035   6.456  12.017  1.00  0.00    -0.032 C 
HETATM   18  C26 UNL     1      -1.115   5.704  11.268  1.00  0.00     0.016 C 
HETATM   19  C27 UNL     1      -2.681   7.885  14.384  1.00  0.00     0.023 C 
ENDROOT
BRANCH  14  20
HETATM   20  C15 UNL     1       1.900   8.011   8.919  1.00  0.00    -0.014 C 
HETATM   21  C16 UNL     1       1.476   7.570   7.505  1.00  0.00     0.010 C 
BRANCH  20  22
HETATM   22  C17 UNL     1       3.430   8.218   8.962  1.00  0.00     0.008 C 
BRANCH  22  23
HETATM   23  C18 UNL     1       4.261   7.247   9.807  1.00  0.00     0.028 C 
BRANCH  23  24
HETATM   24  C19 UNL     1       5.136   8.005  10.770  1.00  0.00    -0.013 C 
HETATM   25  C20 UNL     1       6.277   7.592  11.356  1.00  0.00     0.008 C 
HETATM   26  C21 UNL     1       6.924   6.251  11.189  1.00  0.00     0.055 C 
BRANCH  25  27
HETATM   27  C22 UNL     1       6.942   8.567  12.260  1.00  0.00     0.171 C 
HETATM   28  O1  UNL     1       8.140   8.709  12.423  1.00  0.00    -0.646 OA
BRANCH  27  29
HETATM   29  O2  UNL     1       6.060   9.327  12.933  1.00  0.00    -0.773 OA
HETATM   30  H35 UNL     1       6.633   9.910  13.473  1.00  0.00     0.167 HD
ENDBRANCH  27  29
ENDBRANCH  25  27
ENDBRANCH  23  24
ENDBRANCH  22  23
ENDBRANCH  20  22
ENDBRANCH  14  20
BRANCH  19  31
HETATM   31  C28 UNL     1      -2.762   8.184  15.915  1.00  0.00     0.012 C 
BRANCH  31  32
HETATM   32  C29 UNL     1      -3.201   9.573  16.376  1.00  0.00     0.027 C 
BRANCH  32  33
HETATM   33  C30 UNL     1      -4.503  10.025  15.717  1.00  0.00     0.164 C 
BRANCH  33  34
HETATM   34  O3  UNL     1      -4.516  11.431  15.514  1.00  0.00    -0.401 OA
HETATM   35  H50 UNL     1      -4.674  11.848  16.379  1.00  0.00     0.209 HD
ENDBRANCH  33  34
ENDBRANCH  32  33
ENDBRANCH  31  32
ENDBRANCH  19  31
TORSDOF 10
ENDMDL
