MODEL 1
REMARK minimizedAffinity -7.3933506
REMARK CNNscore 0.870298028
REMARK CNNaffinity 7.31480074
REMARK  7 active torsions:
REMARK  status: ('A' for Active; 'I' for Inactive)
REMARK    1  A    between atoms: C2_2  and  C30_33 
REMARK    2  A    between atoms: C3_3  and  C4_4 
REMARK    3  A    between atoms: C4_4  and  O1_5 
REMARK    4  A    between atoms: C4_4  and  C5_6 
REMARK    5  A    between atoms: C5_6  and  C6_7 
REMARK    6  A    between atoms: C6_7  and  C8_9 
REMARK    7  A    between atoms: C30_33  and  O5_35 
ROOT
HETATM    1  C8  UNL     1      -1.449  52.154 -10.075  1.00  0.00    -0.002 C 
HETATM    2  C9  UNL     1      -0.636  50.849 -10.320  1.00  0.00     0.007 C 
HETATM    3  C10 UNL     1       0.850  51.174 -10.085  1.00  0.00     0.015 C 
HETATM    4  C11 UNL     1       0.854  52.541  -9.377  1.00  0.00    -0.005 C 
HETATM    5  C12 UNL     1       0.614  52.271  -7.860  1.00  0.00     0.021 C 
HETATM    6  C13 UNL     1       2.093  53.422  -9.428  1.00  0.00    -0.000 C 
HETATM    7  C14 UNL     1       2.005  54.776  -9.368  1.00  0.00    -0.060 C 
HETATM    8  C15 UNL     1       0.630  55.460  -9.323  1.00  0.00     0.036 C 
HETATM    9  C16 UNL     1      -0.623  54.562  -9.389  1.00  0.00     0.015 C 
HETATM   10  C17 UNL     1      -0.341  53.249 -10.132  1.00  0.00    -0.028 C 
HETATM   11  C18 UNL     1      -0.020  53.573 -11.627  1.00  0.00     0.016 C 
HETATM   12  C19 UNL     1       3.234  55.718  -9.374  1.00  0.00    -0.014 C 
HETATM   13  C20 UNL     1       3.310  56.365 -10.785  1.00  0.00     0.020 C 
HETATM   14  C21 UNL     1       3.055  56.859  -8.328  1.00  0.00     0.021 C 
HETATM   15  C22 UNL     1       4.375  57.432  -7.845  1.00  0.00     0.080 C 
HETATM   16  C23 UNL     1       5.121  56.366  -7.077  1.00  0.00     0.135 C 
HETATM   17  O2  UNL     1       5.758  56.665  -6.066  1.00  0.00    -0.297 OA
HETATM   18  C24 UNL     1       5.061  54.924  -7.616  1.00  0.00     0.018 C 
HETATM   19  C25 UNL     1       6.493  54.351  -7.509  1.00  0.00     0.023 C 
HETATM   20  C26 UNL     1       4.154  54.112  -6.680  1.00  0.00     0.023 C 
HETATM   21  C27 UNL     1       4.597  54.968  -9.118  1.00  0.00     0.020 C 
HETATM   22  C28 UNL     1       4.615  53.622  -9.849  1.00  0.00     0.090 C 
HETATM   23  C29 UNL     1       3.433  52.766  -9.494  1.00  0.00     0.157 C 
HETATM   24  O3  UNL     1       3.568  51.563  -9.290  1.00  0.00    -0.293 OA
ENDROOT
BRANCH   1  25
HETATM   25  C6  UNL     1      -2.705  52.241 -11.002  1.00  0.00    -0.011 C 
HETATM   26  C7  UNL     1      -3.759  53.209 -10.463  1.00  0.00     0.010 C 
BRANCH  25  27
HETATM   27  C5  UNL     1      -3.296  50.811 -11.218  1.00  0.00     0.040 C 
BRANCH  27  28
HETATM   28  C4  UNL     1      -4.541  50.477 -10.374  1.00  0.00     0.142 C 
BRANCH  28  29
HETATM   29  C3  UNL     1      -5.382  49.399 -10.997  1.00  0.00     0.018 C 
HETATM   30  C2  UNL     1      -6.662  49.108 -10.680  1.00  0.00     0.010 C 
HETATM   31  C1  UNL     1      -7.476  49.798  -9.625  1.00  0.00     0.055 C 
BRANCH  30  32
HETATM   32  C30 UNL     1      -7.293  47.991 -11.424  1.00  0.00     0.171 C 
HETATM   33  O4  UNL     1      -8.400  47.520 -11.229  1.00  0.00    -0.646 OA
BRANCH  32  34
HETATM   34  O5  UNL     1      -6.499  47.508 -12.394  1.00  0.00    -0.773 OA
HETATM   35  H44 UNL     1      -7.035  46.795 -12.795  1.00  0.00     0.167 HD
ENDBRANCH  32  34
ENDBRANCH  30  32
ENDBRANCH  28  29
BRANCH  28  36
HETATM   36  O1  UNL     1      -4.138  49.995  -9.097  1.00  0.00    -0.392 OA
HETATM   37  H6  UNL     1      -3.771  49.102  -9.219  1.00  0.00     0.210 HD
ENDBRANCH  28  36
ENDBRANCH  27  28
ENDBRANCH  25  27
ENDBRANCH   1  25
TORSDOF 7
ENDMDL
