MODEL 1
REMARK minimizedAffinity -9.40506649
REMARK  6 active torsions:
REMARK  status: ('A' for Active; 'I' for Inactive)
REMARK    1  A    between atoms: C4_4  and  C5_5 
REMARK    2  A    between atoms: C5_5  and  C6_6 
REMARK    3  A    between atoms: C6_6  and  C7_7 
REMARK    4  A    between atoms: C7_7  and  C9_9 
REMARK    5  A    between atoms: C16_16  and  O1_17 
REMARK    6  A    between atoms: C19_20  and  O2_21 
ROOT
HETATM    1  C9  UNL     1      -2.694   8.503  15.267  1.00  0.00    -0.002 C 
HETATM    2  C10 UNL     1      -1.729   7.768  16.237  1.00  0.00     0.006 C 
HETATM    3  C11 UNL     1      -0.365   7.655  15.522  1.00  0.00     0.011 C 
HETATM    4  C12 UNL     1      -0.742   7.570  14.038  1.00  0.00    -0.032 C 
HETATM    5  C13 UNL     1      -1.238   6.112  13.798  1.00  0.00     0.016 C 
HETATM    6  C14 UNL     1       0.363   7.896  12.996  1.00  0.00     0.006 C 
HETATM    7  C15 UNL     1       1.643   7.062  13.115  1.00  0.00     0.038 C 
HETATM    8  C16 UNL     1       2.675   7.577  12.112  1.00  0.00     0.123 C 
HETATM    9  C17 UNL     1       2.229   7.404  10.646  1.00  0.00     0.026 C 
HETATM   10  C18 UNL     1       3.140   8.251   9.740  1.00  0.00     0.039 C 
HETATM   11  C19 UNL     1       2.825   8.050   8.258  1.00  0.00     0.118 C 
HETATM   12  C20 UNL     1       1.327   7.932   7.967  1.00  0.00     0.032 C 
HETATM   13  C21 UNL     1       0.482   8.496   9.108  1.00  0.00     0.013 C 
HETATM   14  C22 UNL     1       0.744   7.731  10.399  1.00  0.00    -0.025 A 
HETATM   15  C23 UNL     1      -0.218   6.611  10.735  1.00  0.00     0.021 A 
HETATM   16  C24 UNL     1      -0.246   7.869  11.578  1.00  0.00    -0.027 A 
HETATM   17  C25 UNL     1      -1.503   8.744  11.420  1.00  0.00     0.011 C 
HETATM   18  C26 UNL     1      -2.526   8.603  12.573  1.00  0.00     0.011 C 
HETATM   19  C27 UNL     1      -1.852   8.686  13.952  1.00  0.00    -0.032 C 
HETATM   20  C28 UNL     1      -1.292  10.156  14.075  1.00  0.00     0.016 C 
ENDROOT
BRANCH   1  21
HETATM   21  C7  UNL     1      -4.167   8.014  15.159  1.00  0.00    -0.014 C 
HETATM   22  C8  UNL     1      -5.068   8.726  14.151  1.00  0.00     0.010 C 
BRANCH  21  23
HETATM   23  C6  UNL     1      -4.269   6.474  14.973  1.00  0.00     0.008 C 
BRANCH  23  24
HETATM   24  C5  UNL     1      -4.833   5.987  13.636  1.00  0.00     0.028 C 
BRANCH  24  25
HETATM   25  C4  UNL     1      -6.019   5.083  13.849  1.00  0.00    -0.025 C 
HETATM   26  C2  UNL     1      -6.394   4.030  13.097  1.00  0.00    -0.091 C 
HETATM   27  C1  UNL     1      -5.646   3.514  11.898  1.00  0.00     0.042 C 
HETATM   28  C3  UNL     1      -7.641   3.254  13.431  1.00  0.00     0.042 C 
ENDBRANCH  24  25
ENDBRANCH  23  24
ENDBRANCH  21  23
ENDBRANCH   1  21
BRANCH   8  29
HETATM   29  O1  UNL     1       3.904   6.878  12.327  1.00  0.00    -0.395 OA
HETATM   30  H28 UNL     1       3.728   5.926  12.230  1.00  0.00     0.210 HD
ENDBRANCH   8  29
BRANCH  11  31
HETATM   31  O2  UNL     1       3.372   9.156   7.541  1.00  0.00    -0.396 OA
HETATM   32  H33 UNL     1       3.219   8.999   6.594  1.00  0.00     0.210 HD
ENDBRANCH  11  31
TORSDOF 6
ENDMDL
