MODEL 1
REMARK minimizedAffinity -5.96413136
REMARK CNNscore 0.545425594
REMARK CNNaffinity 4.71606064
REMARK  12 active torsions:
REMARK  status: ('A' for Active; 'I' for Inactive)
REMARK    1  A    between atoms: C3_3  and  O1_4 
REMARK    2  A    between atoms: O1_4  and  C4_5 
REMARK    3  A    between atoms: C5_7  and  C6_8 
REMARK    4  A    between atoms: C6_8  and  O3_9 
REMARK    5  A    between atoms: C7_10  and  O4_11 
REMARK    6  A    between atoms: C8_12  and  O5_13 
REMARK    7  A    between atoms: C9_14  and  O6_15 
REMARK    8  A    between atoms: C10_16  and  O7_17 
REMARK    9  A    between atoms: C15_22  and  O8_23 
REMARK   10  A    between atoms: C15_22  and  C16_24 
REMARK   11  A    between atoms: C17_25  and  C18_26 
REMARK   12  A    between atoms: C18_26  and  O9_28 
ROOT
HETATM    1  C1  UNL     1       3.515  14.438   3.030  1.00  0.00     0.016 C 
HETATM    2  C2  UNL     1       2.069  14.224   2.533  1.00  0.00     0.052 C 
HETATM    3  C3  UNL     1       1.875  14.830   1.121  1.00  0.00     0.160 C 
HETATM    4  C10 UNL     1       0.410  14.767   0.629  1.00  0.00     0.148 C 
HETATM    5  C11 UNL     1      -0.619  15.142   1.695  1.00  0.00     0.046 C 
HETATM    6  C12 UNL     1      -0.463  14.374   3.023  1.00  0.00    -0.010 C 
HETATM    7  C13 UNL     1      -1.581  14.861   3.983  1.00  0.00     0.018 C 
HETATM    8  C14 UNL     1      -0.738  12.866   2.791  1.00  0.00     0.018 C 
HETATM    9  C15 UNL     1       0.990  14.625   3.591  1.00  0.00     0.088 C 
ENDROOT
BRANCH   3  10
HETATM   10  O1  UNL     1       2.782  14.101   0.267  1.00  0.00    -0.350 OA
BRANCH  10  11
HETATM   11  C4  UNL     1       3.758  14.868  -0.422  1.00  0.00     0.292 C 
HETATM   12  O2  UNL     1       3.340  15.193  -1.749  1.00  0.00    -0.348 OA
HETATM   13  C5  UNL     1       3.128  14.074  -2.632  1.00  0.00     0.179 C 
HETATM   14  C7  UNL     1       3.870  12.793  -2.225  1.00  0.00     0.180 C 
HETATM   15  C8  UNL     1       5.235  13.194  -1.678  1.00  0.00     0.183 C 
HETATM   16  C9  UNL     1       5.096  14.084  -0.438  1.00  0.00     0.204 C 
BRANCH  13  17
HETATM   17  C6  UNL     1       1.635  13.842  -2.909  1.00  0.00     0.198 C 
BRANCH  17  18
HETATM   18  O3  UNL     1       1.409  12.909  -3.960  1.00  0.00    -0.398 OA
HETATM   19  H10 UNL     1       0.449  12.896  -4.123  1.00  0.00     0.209 HD
ENDBRANCH  17  18
ENDBRANCH  13  17
BRANCH  14  20
HETATM   20  O4  UNL     1       4.050  11.937  -3.363  1.00  0.00    -0.390 OA
HETATM   21  H12 UNL     1       4.725  11.287  -3.076  1.00  0.00     0.210 HD
ENDBRANCH  14  20
BRANCH  15  22
HETATM   22  O5  UNL     1       6.001  12.013  -1.379  1.00  0.00    -0.390 OA
HETATM   23  H14 UNL     1       6.805  12.319  -0.916  1.00  0.00     0.210 HD
ENDBRANCH  15  22
BRANCH  16  24
HETATM   24  O6  UNL     1       6.232  14.976  -0.419  1.00  0.00    -0.388 OA
HETATM   25  H16 UNL     1       6.064  15.662  -1.092  1.00  0.00     0.210 HD
ENDBRANCH  16  24
ENDBRANCH  10  11
ENDBRANCH   3  10
BRANCH   4  26
HETATM   26  O7  UNL     1       0.209  15.673  -0.469  1.00  0.00    -0.393 OA
HETATM   27  H18 UNL     1       0.281  16.582  -0.138  1.00  0.00     0.210 HD
ENDBRANCH   4  26
BRANCH   9  28
HETATM   28  O8  UNL     1       1.209  13.731   4.700  1.00  0.00    -0.385 OA
HETATM   29  H27 UNL     1       0.494  13.852   5.343  1.00  0.00     0.211 HD
ENDBRANCH   9  28
BRANCH   9  30
HETATM   30  C16 UNL     1       1.121  16.014   4.206  1.00  0.00     0.010 C 
HETATM   31  C17 UNL     1       1.333  16.393   5.482  1.00  0.00     0.003 C 
BRANCH  31  32
HETATM   32  C18 UNL     1       1.457  17.816   5.968  1.00  0.00     0.136 C 
HETATM   33  C19 UNL     1       0.091  18.481   6.056  1.00  0.00     0.043 C 
BRANCH  32  34
HETATM   34  O9  UNL     1       2.065  17.863   7.252  1.00  0.00    -0.392 OA
HETATM   35  H34 UNL     1       2.953  17.474   7.153  1.00  0.00     0.210 HD
ENDBRANCH  32  34
ENDBRANCH  31  32
ENDBRANCH   9  30
TORSDOF 12
ENDMDL
