MODEL 1
REMARK minimizedAffinity -9.13427734
REMARK CNNscore 0.480621964
REMARK CNNaffinity 6.87523794
REMARK  7 active torsions:
REMARK  status: ('A' for Active; 'I' for Inactive)
REMARK    1  A    between atoms: C2_2  and  C30_35 
REMARK    2  A    between atoms: C3_3  and  C4_4 
REMARK    3  A    between atoms: C4_4  and  O1_5 
REMARK    4  A    between atoms: C4_4  and  C5_6 
REMARK    5  A    between atoms: C5_6  and  C6_7 
REMARK    6  A    between atoms: C6_7  and  C8_9 
REMARK    7  A    between atoms: C30_35  and  O7_37 
ROOT
HETATM    1  C8  UNL     1       0.465   6.770  12.834  1.00  0.00     0.006 C 
HETATM    2  C9  UNL     1       0.809   7.824  13.914  1.00  0.00     0.085 C 
HETATM    3  C10 UNL     1      -0.365   7.726  14.867  1.00  0.00     0.141 C 
HETATM    4  O2  UNL     1      -0.332   8.181  16.003  1.00  0.00    -0.297 OA
HETATM    5  C11 UNL     1      -1.482   6.837  14.294  1.00  0.00     0.056 C 
HETATM    6  C12 UNL     1      -1.246   5.500  15.073  1.00  0.00     0.030 C 
HETATM    7  C13 UNL     1      -2.960   7.118  14.374  1.00  0.00     0.015 C 
HETATM    8  C14 UNL     1      -3.854   6.398  13.652  1.00  0.00     0.007 C 
HETATM    9  C15 UNL     1      -3.272   5.488  12.574  1.00  0.00     0.157 C 
HETATM   10  O3  UNL     1      -3.972   4.651  12.011  1.00  0.00    -0.293 OA
HETATM   11  C16 UNL     1      -1.801   5.620  12.147  1.00  0.00     0.094 C 
HETATM   12  C17 UNL     1      -1.094   6.825  12.772  1.00  0.00    -0.014 C 
HETATM   13  C18 UNL     1      -1.568   8.104  12.017  1.00  0.00     0.018 C 
HETATM   14  C19 UNL     1      -5.391   6.500  13.818  1.00  0.00    -0.007 C 
HETATM   15  C20 UNL     1      -5.941   7.297  12.618  1.00  0.00     0.021 C 
HETATM   16  C21 UNL     1      -6.044   5.091  13.872  1.00  0.00     0.022 C 
HETATM   17  C22 UNL     1      -7.473   5.004  14.397  1.00  0.00     0.080 C 
HETATM   18  C23 UNL     1      -8.090   6.318  14.796  1.00  0.00     0.135 C 
HETATM   19  O4  UNL     1      -9.289   6.511  14.590  1.00  0.00    -0.297 OA
HETATM   20  C24 UNL     1      -7.228   7.331  15.550  1.00  0.00     0.018 C 
HETATM   21  C25 UNL     1      -7.787   8.740  15.255  1.00  0.00     0.023 C 
HETATM   22  C26 UNL     1      -7.440   7.052  17.052  1.00  0.00     0.023 C 
HETATM   23  C27 UNL     1      -5.705   7.170  15.201  1.00  0.00     0.021 C 
HETATM   24  C28 UNL     1      -4.920   8.473  15.379  1.00  0.00     0.090 C 
HETATM   25  C29 UNL     1      -3.455   8.332  15.071  1.00  0.00     0.158 C 
HETATM   26  O5  UNL     1      -2.703   9.284  15.258  1.00  0.00    -0.293 OA
ENDROOT
BRANCH   1  27
HETATM   27  C6  UNL     1       1.378   6.867  11.578  1.00  0.00    -0.011 C 
HETATM   28  C7  UNL     1       0.774   7.511  10.328  1.00  0.00     0.010 C 
BRANCH  27  29
HETATM   29  C5  UNL     1       2.017   5.502  11.235  1.00  0.00     0.040 C 
BRANCH  29  30
HETATM   30  C4  UNL     1       3.060   5.542  10.102  1.00  0.00     0.142 C 
BRANCH  30  31
HETATM   31  C3  UNL     1       4.368   6.131  10.545  1.00  0.00     0.018 C 
HETATM   32  C2  UNL     1       4.828   7.383  10.344  1.00  0.00     0.010 C 
HETATM   33  C1  UNL     1       4.116   8.487   9.624  1.00  0.00     0.055 C 
BRANCH  32  34
HETATM   34  C30 UNL     1       6.171   7.677  10.908  1.00  0.00     0.171 C 
HETATM   35  O6  UNL     1       6.472   8.631  11.605  1.00  0.00    -0.646 OA
BRANCH  34  36
HETATM   36  O7  UNL     1       7.091   6.761  10.568  1.00  0.00    -0.773 OA
HETATM   37  H40 UNL     1       7.899   7.074  11.022  1.00  0.00     0.167 HD
ENDBRANCH  34  36
ENDBRANCH  32  34
ENDBRANCH  30  31
BRANCH  30  38
HETATM   38  O1  UNL     1       3.314   4.201   9.682  1.00  0.00    -0.392 OA
HETATM   39  H6  UNL     1       3.763   3.734  10.407  1.00  0.00     0.210 HD
ENDBRANCH  30  38
ENDBRANCH  29  30
ENDBRANCH  27  29
ENDBRANCH   1  27
TORSDOF 7
ENDMDL
