MODEL 1
REMARK minimizedAffinity -9.54060173
REMARK CNNscore 0.620877266
REMARK CNNaffinity 7.63604212
REMARK  13 active torsions:
REMARK  status: ('A' for Active; 'I' for Inactive)
REMARK    1  A    between atoms: C2_2  and  O2_4 
REMARK    2  A    between atoms: O2_4  and  C3_5 
REMARK    3  A    between atoms: C20_22  and  C21_23 
REMARK    4  A    between atoms: C21_23  and  C22_24 
REMARK    5  A    between atoms: C21_23  and  C28_31 
REMARK    6  A    between atoms: C22_24  and  C23_25 
REMARK    7  A    between atoms: C24_26  and  C25_27 
REMARK    8  A    between atoms: C25_27  and  O3_30 
REMARK    9  A    between atoms: C28_31  and  O5_33 
REMARK   10  A    between atoms: O5_33  and  C29_34 
REMARK   11  A    between atoms: C30_35  and  O6_36 
REMARK   12  A    between atoms: C31_37  and  O7_38 
REMARK   13  A    between atoms: C33_41  and  O9_42 
ROOT
HETATM    1  C3  UNL     1      -5.541   6.365  15.276  1.00  0.00     0.140 C 
HETATM    2  C4  UNL     1      -4.373   6.180  16.238  1.00  0.00     0.034 C 
HETATM    3  C5  UNL     1      -3.052   5.818  15.550  1.00  0.00     0.016 C 
HETATM    4  C6  UNL     1      -2.876   6.337  14.089  1.00  0.00    -0.016 C 
HETATM    5  C7  UNL     1      -3.315   5.237  13.088  1.00  0.00     0.020 C 
HETATM    6  C8  UNL     1      -1.377   6.630  13.788  1.00  0.00    -0.068 C 
HETATM    7  C9  UNL     1      -0.980   7.752  13.131  1.00  0.00    -0.068 C 
HETATM    8  C10 UNL     1      -1.933   8.810  12.616  1.00  0.00     0.036 C 
HETATM    9  C11 UNL     1      -3.398   8.396  12.649  1.00  0.00     0.011 C 
HETATM   10  C12 UNL     1      -3.721   7.655  13.957  1.00  0.00     0.008 C 
HETATM   11  C13 UNL     1      -5.265   7.512  14.247  1.00  0.00    -0.016 C 
HETATM   12  C14 UNL     1      -6.104   7.234  12.976  1.00  0.00     0.018 C 
HETATM   13  C15 UNL     1      -5.767   8.875  14.807  1.00  0.00     0.018 C 
HETATM   14  C16 UNL     1       0.508   8.052  12.963  1.00  0.00    -0.013 C 
HETATM   15  C17 UNL     1       0.902   8.839  14.253  1.00  0.00     0.021 C 
HETATM   16  C18 UNL     1       0.972   8.895  11.759  1.00  0.00     0.015 C 
HETATM   17  C19 UNL     1       2.459   8.542  11.579  1.00  0.00     0.007 C 
HETATM   18  C20 UNL     1       2.754   7.285  12.441  1.00  0.00     0.009 C 
HETATM   19  C34 UNL     1       1.316   6.726  12.708  1.00  0.00    -0.028 C 
HETATM   20  C35 UNL     1       0.828   5.929  11.454  1.00  0.00     0.016 C 
HETATM   21  C36 UNL     1       1.134   5.842  13.940  1.00  0.00     0.015 C 
HETATM   22  C37 UNL     1      -0.357   5.579  14.250  1.00  0.00     0.036 C 
ENDROOT
BRANCH  18  23
HETATM   23  C21 UNL     1       3.810   6.339  11.806  1.00  0.00     0.094 C 
BRANCH  23  24
HETATM   24  C22 UNL     1       3.330   5.580  10.542  1.00  0.00     0.042 C 
BRANCH  24  25
HETATM   25  C23 UNL     1       2.519   6.384   9.565  1.00  0.00    -0.027 C 
HETATM   26  C24 UNL     1       3.049   7.261   8.691  1.00  0.00     0.006 C 
BRANCH  26  27
HETATM   27  C25 UNL     1       2.306   8.082   7.656  1.00  0.00     0.068 C 
HETATM   28  C26 UNL     1       0.969   8.563   8.219  1.00  0.00     0.050 C 
HETATM   29  C27 UNL     1       2.086   7.263   6.381  1.00  0.00     0.050 C 
BRANCH  27  30
HETATM   30  O3  UNL     1       3.063   9.244   7.309  1.00  0.00    -0.387 OA
HETATM   31  H42 UNL     1       3.913   8.932   6.952  1.00  0.00     0.211 HD
ENDBRANCH  27  30
ENDBRANCH  26  27
ENDBRANCH  24  25
ENDBRANCH  23  24
BRANCH  23  32
HETATM   32  C28 UNL     1       5.069   7.082  11.392  1.00  0.00     0.264 C 
HETATM   33  O4  UNL     1       5.778   6.747  10.453  1.00  0.00    -0.265 OA
BRANCH  32  34
HETATM   34  O5  UNL     1       5.271   8.192  12.158  1.00  0.00    -0.308 OA
BRANCH  34  35
HETATM   35  C29 UNL     1       6.557   8.239  12.834  1.00  0.00     0.218 C 
HETATM   36  C30 UNL     1       6.283   7.926  14.309  1.00  0.00     0.183 C 
HETATM   37  C31 UNL     1       7.467   8.354  15.170  1.00  0.00     0.173 C 
HETATM   38  C32 UNL     1       7.729   9.854  15.012  1.00  0.00     0.205 C 
HETATM   39  O8  UNL     1       7.051  10.419  13.879  1.00  0.00    -0.356 OA
HETATM   40  C33 UNL     1       7.215   9.632  12.696  1.00  0.00     0.288 C 
BRANCH  36  41
HETATM   41  O6  UNL     1       6.076   6.515  14.495  1.00  0.00    -0.390 OA
HETATM   42  H45 UNL     1       5.171   6.407  14.855  1.00  0.00     0.210 HD
ENDBRANCH  36  41
BRANCH  37  43
HETATM   43  O7  UNL     1       7.209   8.037  16.539  1.00  0.00    -0.391 OA
HETATM   44  H47 UNL     1       7.010   7.080  16.550  1.00  0.00     0.210 HD
ENDBRANCH  37  43
BRANCH  40  45
HETATM   45  O9  UNL     1       8.602   9.502  12.405  1.00  0.00    -0.369 OA
HETATM   46  H51 UNL     1       8.836  10.299  11.898  1.00  0.00     0.212 HD
ENDBRANCH  40  45
ENDBRANCH  34  35
ENDBRANCH  32  34
ENDBRANCH  23  32
ENDBRANCH  18  23
BRANCH   1  47
HETATM   47  O2  UNL     1      -6.723   6.678  16.047  1.00  0.00    -0.316 OA
BRANCH  47  48
HETATM   48  C2  UNL     1      -7.833   5.910  15.842  1.00  0.00     0.255 C 
HETATM   49  C1  UNL     1      -9.052   6.784  15.845  1.00  0.00     0.126 C 
HETATM   50  O1  UNL     1      -7.847   4.699  15.682  1.00  0.00    -0.266 OA
ENDBRANCH  47  48
ENDBRANCH   1  47
TORSDOF 13
ENDMDL
