MODEL 1
REMARK minimizedAffinity -8.40761375
REMARK CNNscore 0.766735017
REMARK CNNaffinity 7.08660269
REMARK  12 active torsions:
REMARK  status: ('A' for Active; 'I' for Inactive)
REMARK    1  A    between atoms: C2_2  and  C17_19 
REMARK    2  A    between atoms: C3_3  and  C4_4 
REMARK    3  A    between atoms: C4_4  and  C5_5 
REMARK    4  A    between atoms: C5_5  and  C6_6 
REMARK    5  A    between atoms: C12_12  and  O1_13 
REMARK    6  A    between atoms: C17_19  and  C18_20 
REMARK    7  A    between atoms: C19_21  and  C20_22 
REMARK    8  A    between atoms: C20_22  and  C22_24 
REMARK    9  A    between atoms: C22_24  and  C23_26 
REMARK   10  A    between atoms: C23_26  and  O4_27 
REMARK   11  A    between atoms: C23_26  and  C24_28 
REMARK   12  A    between atoms: C24_28  and  C25_29 
ROOT
HETATM    1  C1  UNL     1      -0.147   9.178  13.100  1.00  0.00     0.043 C 
HETATM    2  C2  UNL     1      -0.796   8.452  11.953  1.00  0.00    -0.084 C 
HETATM    3  C3  UNL     1      -2.124   8.233  11.855  1.00  0.00    -0.024 C 
ENDROOT
BRANCH   3   4
HETATM    4  C4  UNL     1      -3.202   8.741  12.772  1.00  0.00     0.030 C 
BRANCH   4   5
HETATM    5  C5  UNL     1      -4.270   7.731  13.210  1.00  0.00     0.042 C 
BRANCH   5   6
HETATM    6  C6  UNL     1      -3.889   6.635  14.239  1.00  0.00     0.065 C 
HETATM    7  C7  UNL     1      -3.078   7.233  15.401  1.00  0.00     0.046 C 
HETATM    8  C8  UNL     1      -3.106   5.448  13.661  1.00  0.00     0.043 C 
HETATM    9  C9  UNL     1      -3.933   4.689  12.637  1.00  0.00     0.044 C 
HETATM   10  C10 UNL     1      -5.315   4.437  13.165  1.00  0.00    -0.021 A 
HETATM   11  C11 UNL     1      -6.116   3.454  12.566  1.00  0.00     0.046 A 
HETATM   12  C16 UNL     1      -5.825   5.191  14.231  1.00  0.00     0.082 A 
HETATM   13  C12 UNL     1      -7.397   3.219  13.052  1.00  0.00     0.066 A 
HETATM   14  C13 UNL     1      -7.898   3.950  14.121  1.00  0.00     0.046 A 
HETATM   15  C14 UNL     1      -7.116   4.944  14.724  1.00  0.00    -0.025 A 
HETATM   16  C15 UNL     1      -7.663   5.726  15.884  1.00  0.00     0.051 C 
HETATM   17  O2  UNL     1      -5.117   6.183  14.856  1.00  0.00    -0.340 OA
BRANCH  13  18
HETATM   18  O1  UNL     1      -8.206   2.270  12.497  1.00  0.00    -0.361 OA
HETATM   19  H17 UNL     1      -7.710   1.807  11.800  1.00  0.00     0.217 HD
ENDBRANCH  13  18
ENDBRANCH   5   6
ENDBRANCH   4   5
ENDBRANCH   3   4
BRANCH   2  20
HETATM   20  C17 UNL     1       0.162   7.932  10.890  1.00  0.00     0.060 C 
BRANCH  20  21
HETATM   21  C18 UNL     1      -0.135   8.534   9.544  1.00  0.00    -0.026 C 
HETATM   22  C19 UNL     1       0.512   8.396   8.372  1.00  0.00    -0.019 C 
BRANCH  22  23
HETATM   23  C20 UNL     1       1.762   7.625   8.019  1.00  0.00     0.076 C 
HETATM   24  C21 UNL     1       1.768   6.992   6.626  1.00  0.00     0.022 C 
BRANCH  23  25
HETATM   25  C22 UNL     1       2.999   8.505   8.260  1.00  0.00     0.162 C 
HETATM   26  O3  UNL     1       3.363   9.374   7.458  1.00  0.00    -0.294 OA
BRANCH  25  27
HETATM   27  C23 UNL     1       3.745   8.357   9.601  1.00  0.00     0.188 C 
BRANCH  27  28
HETATM   28  O4  UNL     1       4.864   9.239   9.659  1.00  0.00    -0.388 OA
HETATM   29  H31 UNL     1       4.868   9.738   8.815  1.00  0.00     0.210 HD
ENDBRANCH  27  28
BRANCH  27  30
HETATM   30  C24 UNL     1       4.189   6.931   9.959  1.00  0.00     0.043 C 
BRANCH  30  31
HETATM   31  C25 UNL     1       3.504   6.186  11.129  1.00  0.00    -0.020 C 
HETATM   32  C26 UNL     1       2.352   5.276  10.691  1.00  0.00     0.009 C 
HETATM   33  C27 UNL     1       3.054   7.105  12.261  1.00  0.00     0.009 C 
ENDBRANCH  30  31
ENDBRANCH  27  30
ENDBRANCH  25  27
ENDBRANCH  23  25
ENDBRANCH  22  23
ENDBRANCH  20  21
ENDBRANCH   2  20
TORSDOF 12
ENDMDL
