MODEL 1
REMARK minimizedAffinity -8.9914856
REMARK CNNscore 0.661577284
REMARK CNNaffinity 7.28678131
REMARK  11 active torsions:
REMARK  status: ('A' for Active; 'I' for Inactive)
REMARK    1  A    between atoms: C2_2  and  O1_4 
REMARK    2  A    between atoms: C2_2  and  C4_5 
REMARK    3  A    between atoms: C5_6  and  C6_7 
REMARK    4  A    between atoms: C6_7  and  C7_8 
REMARK    5  A    between atoms: C7_8  and  C8_9 
REMARK    6  A    between atoms: C7_8  and  C14_21 
REMARK    7  A    between atoms: C8_9  and  O3_11 
REMARK    8  A    between atoms: O3_11  and  C9_12 
REMARK    9  A    between atoms: C11_15  and  O5_16 
REMARK   10  A    between atoms: C12_17  and  O6_18 
REMARK   11  A    between atoms: C13_19  and  O7_20 
ROOT
HETATM    1  C7  UNL     1      -0.236   6.387  13.086  1.00  0.00     0.094 C 
ENDROOT
BRANCH   1   2
HETATM    2  C6  UNL     1      -0.278   4.855  13.280  1.00  0.00     0.042 C 
BRANCH   2   3
HETATM    3  C5  UNL     1      -1.356   4.104  12.546  1.00  0.00    -0.027 C 
HETATM    4  C4  UNL     1      -1.115   3.257  11.530  1.00  0.00     0.006 C 
BRANCH   4   5
HETATM    5  C2  UNL     1      -2.146   2.464  10.759  1.00  0.00     0.068 C 
HETATM    6  C1  UNL     1      -3.049   1.697  11.729  1.00  0.00     0.050 C 
HETATM    7  C3  UNL     1      -2.972   3.404   9.875  1.00  0.00     0.050 C 
BRANCH   5   8
HETATM    8  O1  UNL     1      -1.486   1.517   9.920  1.00  0.00    -0.387 OA
HETATM    9  H7  UNL     1      -2.170   1.046   9.415  1.00  0.00     0.211 HD
ENDBRANCH   5   8
ENDBRANCH   4   5
ENDBRANCH   2   3
ENDBRANCH   1   2
BRANCH   1  10
HETATM   10  C8  UNL     1       0.187   6.776  11.673  1.00  0.00     0.266 C 
HETATM   11  O2  UNL     1      -0.145   6.223  10.634  1.00  0.00    -0.265 OA
BRANCH  10  12
HETATM   12  O3  UNL     1       0.972   7.894  11.707  1.00  0.00    -0.287 OA
BRANCH  12  13
HETATM   13  C9  UNL     1       1.562   8.253  10.447  1.00  0.00     0.300 C 
HETATM   14  O4  UNL     1       0.612   8.006   9.410  1.00  0.00    -0.355 OA
HETATM   15  C10 UNL     1       1.073   8.493   8.150  1.00  0.00     0.205 C 
HETATM   16  C11 UNL     1       2.493   8.023   7.790  1.00  0.00     0.173 C 
HETATM   17  C12 UNL     1       3.015   6.962   8.773  1.00  0.00     0.182 C 
HETATM   18  C13 UNL     1       2.889   7.476  10.215  1.00  0.00     0.205 C 
BRANCH  16  19
HETATM   19  O5  UNL     1       3.375   9.157   7.754  1.00  0.00    -0.391 OA
HETATM   20  H17 UNL     1       3.792   9.261   8.635  1.00  0.00     0.210 HD
ENDBRANCH  16  19
BRANCH  17  21
HETATM   21  O6  UNL     1       2.312   5.724   8.614  1.00  0.00    -0.390 OA
HETATM   22  H19 UNL     1       2.481   5.415   7.710  1.00  0.00     0.210 HD
ENDBRANCH  17  21
BRANCH  18  23
HETATM   23  O7  UNL     1       4.003   8.359  10.467  1.00  0.00    -0.388 OA
HETATM   24  H21 UNL     1       3.880   8.686  11.388  1.00  0.00     0.210 HD
ENDBRANCH  18  23
ENDBRANCH  12  13
ENDBRANCH  10  12
ENDBRANCH   1  10
BRANCH   1  25
HETATM   25  C14 UNL     1      -1.424   7.153  13.741  1.00  0.00     0.009 C 
HETATM   26  C15 UNL     1      -2.154   6.334  14.844  1.00  0.00     0.007 C 
HETATM   27  C16 UNL     1      -2.787   7.347  15.817  1.00  0.00     0.015 C 
HETATM   28  C17 UNL     1      -2.756   8.692  15.064  1.00  0.00    -0.013 C 
HETATM   29  C18 UNL     1      -3.997   8.716  14.116  1.00  0.00     0.021 C 
HETATM   30  C19 UNL     1      -2.855   9.990  15.856  1.00  0.00    -0.068 C 
HETATM   31  C23 UNL     1      -1.348   8.589  14.347  1.00  0.00    -0.028 C 
HETATM   32  C20 UNL     1      -2.284  11.126  15.377  1.00  0.00    -0.068 C 
HETATM   33  C35 UNL     1      -3.676   9.944  17.120  1.00  0.00     0.036 C 
HETATM   34  C21 UNL     1      -1.485  11.119  14.065  1.00  0.00     0.036 C 
HETATM   35  C25 UNL     1      -2.376  12.474  16.136  1.00  0.00    -0.015 C 
HETATM   36  C22 UNL     1      -1.273   9.758  13.360  1.00  0.00     0.015 C 
HETATM   37  C26 UNL     1      -1.043  12.653  16.896  1.00  0.00     0.020 C 
HETATM   38  C27 UNL     1      -2.598  13.647  15.152  1.00  0.00     0.021 C 
HETATM   39  C33 UNL     1      -3.625  12.477  17.079  1.00  0.00     0.013 C 
HETATM   40  C28 UNL     1      -2.786  15.012  15.795  1.00  0.00     0.080 C 
HETATM   41  C29 UNL     1      -3.142  15.015  17.261  1.00  0.00     0.135 C 
HETATM   42  O8  UNL     1      -2.923  16.039  17.919  1.00  0.00    -0.297 OA
HETATM   43  C30 UNL     1      -3.867  13.809  17.875  1.00  0.00     0.018 C 
HETATM   44  C31 UNL     1      -5.372  14.159  17.833  1.00  0.00     0.023 C 
HETATM   45  C32 UNL     1      -3.447  13.717  19.362  1.00  0.00     0.023 C 
HETATM   46  C34 UNL     1      -3.647  11.218  17.957  1.00  0.00     0.011 C 
HETATM   47  C24 UNL     1      -0.150   8.706  15.339  1.00  0.00     0.016 C 
ENDBRANCH   1  25
TORSDOF 11
ENDMDL
