MODEL 1
REMARK minimizedAffinity -9.17129898
REMARK  8 active torsions:
REMARK  status: ('A' for Active; 'I' for Inactive)
REMARK    1  A    between atoms: C2_2  and  C4_4 
REMARK    2  A    between atoms: C2_2  and  N1_12 
REMARK    3  A    between atoms: C4_4  and  C5_5 
REMARK    4  A    between atoms: C5_5  and  C6_6 
REMARK    5  A    between atoms: N1_12  and  C12_13 
REMARK    6  A    between atoms: C12_13  and  C13_14 
REMARK    7  A    between atoms: C13_14  and  O1_15 
REMARK    8  A    between atoms: C13_14  and  C14_16 
ROOT
HETATM    1  C13 UNL     1       1.192  53.928 -23.906  1.00  0.00     0.179 C 
ENDROOT
BRANCH   1   2
HETATM    2  C12 UNL     1       0.083  53.688 -24.966  1.00  0.00     0.306 C 
BRANCH   2   3
HETATM    3  N1  UNL     1       0.665  53.440 -26.295  1.00  0.00     0.095 N 
HETATM    4  H16 UNL     1       0.175  54.015 -26.985  1.00  0.00     0.317 HD
BRANCH   3   5
HETATM    5  C2  UNL     1       0.718  52.037 -26.738  1.00  0.00     0.151 C 
HETATM    6  C1  UNL     1       0.475  51.891 -28.250  1.00  0.00     0.048 C 
HETATM    7  C3  UNL     1       2.090  51.419 -26.388  1.00  0.00     0.048 C 
BRANCH   5   8
HETATM    8  C4  UNL     1      -0.360  51.247 -25.942  1.00  0.00     0.045 C 
BRANCH   8   9
HETATM    9  C5  UNL     1      -1.814  51.669 -26.210  1.00  0.00     0.041 C 
BRANCH   9  10
HETATM   10  C6  UNL     1      -2.695  50.463 -26.438  1.00  0.00    -0.058 A 
HETATM   11  C7  UNL     1      -3.225  50.199 -27.708  1.00  0.00     0.007 A 
HETATM   12  C8  UNL     1      -4.018  49.070 -27.924  1.00  0.00     0.001 A 
HETATM   13  C9  UNL     1      -4.278  48.191 -26.875  1.00  0.00     0.000 A 
HETATM   14  C10 UNL     1      -3.750  48.441 -25.610  1.00  0.00     0.001 A 
HETATM   15  C11 UNL     1      -2.963  49.573 -25.391  1.00  0.00     0.007 A 
ENDBRANCH   9  10
ENDBRANCH   8   9
ENDBRANCH   5   8
ENDBRANCH   3   5
ENDBRANCH   2   3
ENDBRANCH   1   2
BRANCH   1  16
HETATM   16  O1  UNL     1       1.430  55.341 -23.792  1.00  0.00    -0.389 OA
HETATM   17  H20 UNL     1       0.562  55.767 -23.701  1.00  0.00     0.210 HD
ENDBRANCH   1  16
BRANCH   1  18
HETATM   18  C14 UNL     1       0.927  53.391 -22.510  1.00  0.00    -0.027 A 
HETATM   19  C15 UNL     1       1.212  54.224 -21.410  1.00  0.00     0.012 A 
HETATM   20  C16 UNL     1       1.011  53.788 -20.099  1.00  0.00     0.031 A 
HETATM   21  C17 UNL     1       0.504  52.511 -19.870  1.00  0.00     0.041 A 
HETATM   22  C18 UNL     1       0.224  51.658 -20.939  1.00  0.00    -0.030 A 
HETATM   23  N2  UNL     1       0.293  52.072 -18.559  1.00  0.00    -0.327 N 
HETATM   24  C19 UNL     1       0.446  52.097 -22.253  1.00  0.00     0.019 A 
HETATM   25  C20 UNL     1      -0.204  50.246 -20.654  1.00  0.00     0.050 C 
HETATM   26  C21 UNL     1      -1.014  50.165 -19.371  1.00  0.00     0.108 C 
HETATM   27  C22 UNL     1      -0.362  50.918 -18.233  1.00  0.00     0.222 C 
HETATM   28  O2  UNL     1      -0.490  50.572 -17.062  1.00  0.00    -0.273 OA
HETATM   29  H28 UNL     1       0.609  52.634 -17.780  1.00  0.00     0.169 HD
ENDBRANCH   1  18
TORSDOF 8
ENDMDL
