MODEL 1
REMARK minimizedAffinity -8.84265041
REMARK CNNscore 0.409270436
REMARK CNNaffinity 7.4088459
REMARK  9 active torsions:
REMARK  status: ('A' for Active; 'I' for Inactive)
REMARK    1  A    between atoms: C3_3  and  O1_4 
REMARK    2  A    between atoms: N1_14  and  O2_16 
REMARK    3  A    between atoms: O2_16  and  C13_17 
REMARK    4  A    between atoms: C13_17  and  C14_18 
REMARK       I    between atoms: C14_18  and  N2_20 
REMARK    5  A    between atoms: N2_20  and  C15_21 
REMARK    6  A    between atoms: C15_21  and  C16_22 
REMARK    7  A    between atoms: C15_21  and  C18_26 
REMARK    8  A    between atoms: C16_22  and  C17_23 
REMARK    9  A    between atoms: C17_23  and  O5_25 
ROOT
HETATM    1  C1  UNL     1      -9.511   8.467  15.267  1.00  0.00     0.015 C 
HETATM    2  C2  UNL     1      -8.648   7.636  15.169  1.00  0.00    -0.078 C 
HETATM    3  C3  UNL     1      -7.606   6.599  15.060  1.00  0.00     0.128 C 
HETATM    4  C4  UNL     1      -6.949   6.309  16.420  1.00  0.00     0.052 C 
HETATM    5  C5  UNL     1      -5.503   5.884  16.109  1.00  0.00     0.010 C 
HETATM    6  C6  UNL     1      -5.337   5.960  14.577  1.00  0.00     0.002 C 
HETATM    7  C7  UNL     1      -3.909   6.260  14.071  1.00  0.00    -0.004 C 
HETATM    8  C8  UNL     1      -2.897   5.258  14.645  1.00  0.00     0.010 C 
HETATM    9  C9  UNL     1      -1.517   5.467  14.038  1.00  0.00     0.035 C 
HETATM   10  C10 UNL     1      -1.022   6.884  14.217  1.00  0.00    -0.069 C 
HETATM   11  C11 UNL     1       0.240   7.093  14.635  1.00  0.00     0.030 C 
HETATM   12  C12 UNL     1       0.842   8.453  14.674  1.00  0.00     0.032 C 
HETATM   13  N1  UNL     1       2.114   8.547  14.944  1.00  0.00    -0.271 N 
ATOM     14  H1  UNL     1       2.717   7.754  15.160  1.00  0.00     0.194 HD
HETATM   15  C25 UNL     1      -0.031   9.634  14.304  1.00  0.00     0.060 C 
HETATM   16  C26 UNL     1      -1.511   9.334  14.497  1.00  0.00     0.020 C 
HETATM   17  C27 UNL     1      -1.986   8.012  13.830  1.00  0.00    -0.016 C 
HETATM   18  C28 UNL     1      -1.939   8.162  12.291  1.00  0.00     0.020 C 
HETATM   19  C29 UNL     1      -3.451   7.711  14.353  1.00  0.00     0.002 C 
HETATM   20  C30 UNL     1      -4.509   8.705  13.826  1.00  0.00     0.007 C 
HETATM   21  C31 UNL     1      -5.904   8.431  14.390  1.00  0.00     0.014 C 
HETATM   22  C32 UNL     1      -6.410   6.988  14.132  1.00  0.00     0.003 C 
HETATM   23  C33 UNL     1      -6.758   6.811  12.642  1.00  0.00     0.020 C 
ENDROOT
BRANCH   3  24
HETATM   24  O1  UNL     1      -8.244   5.406  14.597  1.00  0.00    -0.377 OA
HETATM   25  H2  UNL     1      -7.678   4.649  14.816  1.00  0.00     0.211 HD
ENDBRANCH   3  24
BRANCH  13  26
HETATM   26  O2  UNL     1       2.546   9.885  14.899  1.00  0.00    -0.271 OA
BRANCH  26  27
HETATM   27  C13 UNL     1       3.957   9.929  14.730  1.00  0.00     0.303 C 
BRANCH  27  28
HETATM   28  C14 UNL     1       4.292  10.012  13.251  1.00  0.00     0.244 C 
HETATM   29  O3  UNL     1       4.362  11.082  12.649  1.00  0.00    -0.271 OA
HETATM   30  N2  UNL     1       4.425   8.781  12.634  1.00  0.00    -0.354 N 
HETATM   31  H16 UNL     1       4.310   7.959  13.221  1.00  0.00     0.162 HD
BRANCH  30  32
HETATM   32  C15 UNL     1       4.513   8.632  11.181  1.00  0.00     0.098 C 
BRANCH  32  33
HETATM   33  C16 UNL     1       5.714   7.753  10.800  1.00  0.00     0.135 C 
BRANCH  33  34
HETATM   34  C17 UNL     1       6.079   6.814  11.914  1.00  0.00     0.141 C 
HETATM   35  O4  UNL     1       6.482   7.131  13.022  1.00  0.00    -0.650 OA
BRANCH  34  36
HETATM   36  O5  UNL     1       5.877   5.521  11.596  1.00  0.00    -0.776 OA
HETATM   37  H20 UNL     1       6.172   5.032  12.394  1.00  0.00     0.167 HD
ENDBRANCH  34  36
ENDBRANCH  33  34
ENDBRANCH  32  33
BRANCH  32  38
HETATM   38  C18 UNL     1       3.193   8.074  10.565  1.00  0.00     0.014 C 
HETATM   39  C19 UNL     1       2.580   6.946  11.414  1.00  0.00     0.033 C 
HETATM   40  C20 UNL     1       1.300   6.414  10.790  1.00  0.00     0.169 C 
HETATM   41  O6  UNL     1       1.534   5.964   9.458  1.00  0.00    -0.381 OA
HETATM   42  C21 UNL     1       2.039   6.962   8.558  1.00  0.00     0.054 C 
HETATM   43  C22 UNL     1       2.359   6.223   7.251  1.00  0.00     0.045 C 
HETATM   44  C23 UNL     1       0.962   8.020   8.262  1.00  0.00     0.045 C 
HETATM   45  C24 UNL     1       3.339   7.589   9.112  1.00  0.00     0.044 C 
ENDBRANCH  32  38
ENDBRANCH  30  32
ENDBRANCH  27  28
ENDBRANCH  26  27
ENDBRANCH  13  26
TORSDOF 9
ENDMDL
