MODEL 1
REMARK minimizedAffinity -7.35489607
REMARK CNNscore 0.133025914
REMARK CNNaffinity 6.71907282
REMARK  9 active torsions:
REMARK  status: ('A' for Active; 'I' for Inactive)
REMARK    1  A    between atoms: C13_13  and  S1_14 
REMARK    2  A    between atoms: C25_30  and  O5_31 
REMARK    3  A    between atoms: C31_37  and  C32_38 
REMARK    4  A    between atoms: C32_38  and  O6_39 
REMARK    5  A    between atoms: C40_47  and  C41_48 
REMARK    6  A    between atoms: C40_47  and  N1_52 
REMARK    7  A    between atoms: C41_48  and  C42_49 
REMARK    8  A    between atoms: C42_49  and  C43_50 
REMARK    9  A    between atoms: C43_50  and  O7_51 
REMARK       I    between atoms: C44_54  and  N2_55 
REMARK       I    between atoms: C44_54  and  N3_56 
ROOT
HETATM    1  C1  UNL     1     -11.560  -6.888  31.365  1.00  0.00     0.010 C 
HETATM    2  C2  UNL     1     -12.714  -6.167  30.678  1.00  0.00    -0.010 C 
HETATM    3  C3  UNL     1     -13.561  -5.348  31.715  1.00  0.00     0.009 C 
HETATM    4  C4  UNL     1     -15.073  -5.203  31.375  1.00  0.00     0.039 C 
HETATM    5  C5  UNL     1     -15.297  -5.118  29.889  1.00  0.00    -0.049 C 
HETATM    6  C6  UNL     1     -16.350  -4.426  29.301  1.00  0.00     0.044 C 
HETATM    7  C7  UNL     1     -16.405  -4.380  27.914  1.00  0.00     0.072 C 
HETATM    8  C8  UNL     1     -15.309  -4.759  27.137  1.00  0.00     0.037 C 
HETATM    9  C9  UNL     1     -14.336  -5.559  27.715  1.00  0.00     0.011 C 
HETATM   10  C10 UNL     1     -14.440  -5.875  29.069  1.00  0.00    -0.047 C 
HETATM   11  C11 UNL     1     -13.675  -6.991  29.787  1.00  0.00     0.024 C 
HETATM   12  C12 UNL     1     -13.149  -8.100  28.848  1.00  0.00     0.033 C 
HETATM   13  C13 UNL     1     -13.342  -9.596  29.223  1.00  0.00     0.139 C 
HETATM   14  C14 UNL     1     -13.955 -10.511  28.110  1.00  0.00     0.038 C 
HETATM   15  C15 UNL     1     -12.947 -10.948  27.043  1.00  0.00    -0.014 C 
HETATM   16  C16 UNL     1     -13.261 -12.031  26.297  1.00  0.00    -0.050 C 
HETATM   17  C17 UNL     1     -14.655 -12.599  26.494  1.00  0.00     0.042 C 
HETATM   18  C18 UNL     1     -15.605 -11.411  26.235  1.00  0.00     0.001 C 
HETATM   19  C19 UNL     1     -15.391 -10.822  24.785  1.00  0.00     0.038 C 
HETATM   20  C20 UNL     1     -14.595 -11.669  23.756  1.00  0.00     0.130 C 
HETATM   21  O4  UNL     1     -13.214 -11.473  24.077  1.00  0.00    -0.371 OA
HETATM   22  C21 UNL     1     -12.653 -12.429  24.984  1.00  0.00     0.185 C 
HETATM   23  C22 UNL     1     -11.152 -12.474  24.736  1.00  0.00    -0.006 A 
HETATM   24  C23 UNL     1     -10.222 -12.519  25.785  1.00  0.00     0.014 A 
HETATM   25  C24 UNL     1      -8.853 -12.621  25.516  1.00  0.00     0.037 A 
HETATM   26  C25 UNL     1      -8.403 -12.695  24.203  1.00  0.00     0.067 A 
HETATM   27  C26 UNL     1      -9.297 -12.682  23.136  1.00  0.00     0.057 A 
HETATM   28  C27 UNL     1     -10.665 -12.584  23.396  1.00  0.00     0.029 A 
HETATM   29  C28 UNL     1     -11.596 -12.583  22.293  1.00  0.00    -0.066 C 
HETATM   30  C29 UNL     1     -12.607 -12.461  21.655  1.00  0.00    -0.101 C 
HETATM   31  C30 UNL     1     -14.013 -12.196  21.279  1.00  0.00     0.103 C 
HETATM   32  C31 UNL     1     -14.751 -11.224  22.270  1.00  0.00     0.049 C 
HETATM   33  C33 UNL     1     -15.437 -10.383  27.479  1.00  0.00     0.030 C 
HETATM   34  C34 UNL     1     -16.217  -9.061  27.370  1.00  0.00    -0.050 A 
HETATM   35  C35 UNL     1     -17.030  -8.662  28.442  1.00  0.00     0.006 A 
HETATM   36  C36 UNL     1     -17.784  -7.472  28.427  1.00  0.00     0.010 A 
HETATM   37  C37 UNL     1     -17.850  -6.649  27.293  1.00  0.00    -0.000 A 
HETATM   38  C38 UNL     1     -17.089  -7.074  26.195  1.00  0.00     0.138 A 
HETATM   39  C39 UNL     1     -16.253  -8.211  26.261  1.00  0.00     0.133 A 
HETATM   40  C40 UNL     1     -18.554  -5.240  27.320  1.00  0.00     0.169 C 
HETATM   41  O8  UNL     1     -17.571  -4.128  27.245  1.00  0.00    -0.316 OA
HETATM   42 NA1  UNL     1     -15.088  -8.411  26.949  1.00  0.00    -0.401 Na
ATOM     43  HA1 UNL     1     -14.229  -8.764  27.368  1.00  0.00     0.154 HD
ENDROOT
BRANCH  40  44
HETATM   44  C41 UNL     1     -19.392  -5.029  26.005  1.00  0.00     0.069 C 
BRANCH  44  45
HETATM   45  C42 UNL     1     -18.851  -4.004  24.992  1.00  0.00     0.031 C 
BRANCH  45  46
HETATM   46  C43 UNL     1     -19.838  -2.940  24.540  1.00  0.00     0.164 C 
BRANCH  46  47
HETATM   47  O7  UNL     1     -19.166  -2.036  23.664  1.00  0.00    -0.401 OA
HETATM   48  H46 UNL     1     -19.790  -1.309  23.494  1.00  0.00     0.209 HD
ENDBRANCH  46  47
ENDBRANCH  45  46
ENDBRANCH  44  45
ENDBRANCH  40  44
BRANCH  40  49
HETATM   49  N1  UNL     1     -19.482  -5.075  28.465  1.00  0.00    -0.336 N 
HETATM   50  C44 UNL     1     -19.962  -3.966  28.867  1.00  0.00     0.124 C 
HETATM   51  N2  UNL     1     -20.783  -3.956  29.942  1.00  0.00    -0.279 NA
HETATM   52  N3  UNL     1     -19.810  -2.700  28.420  1.00  0.00    -0.279 NA
HETATM   53  H47 UNL     1     -20.549  -3.235  30.610  1.00  0.00     0.126 HD
HETATM   54  H48 UNL     1     -20.810  -4.875  30.373  1.00  0.00     0.126 HD
HETATM   55  H49 UNL     1     -20.683  -2.186  28.478  1.00  0.00     0.126 HD
HETATM   56  H50 UNL     1     -19.466  -2.642  27.466  1.00  0.00     0.126 HD
ATOM     57  H1  UNL     1     -19.759  -5.916  28.970  1.00  0.00     0.165 HD
ENDBRANCH  40  49
BRANCH  13  58
HETATM   58  S1  UNL     1     -13.985 -10.060  30.853  1.00  0.00     0.106 S 
HETATM   59  O1  UNL     1     -12.833  -9.986  31.742  1.00  0.00    -0.595 OA
HETATM   60  O2  UNL     1     -15.037  -9.094  31.140  1.00  0.00    -0.595 OA
HETATM   61  O3  UNL     1     -14.474 -11.426  30.664  1.00  0.00    -0.595 OA
ENDBRANCH  13  58
BRANCH  32  62
HETATM   62  C32 UNL     1     -14.288  -9.779  22.030  1.00  0.00     0.172 C 
BRANCH  62  63
HETATM   63  O6  UNL     1     -13.062  -9.541  22.723  1.00  0.00    -0.400 OA
HETATM   64  H34 UNL     1     -12.359  -9.993  22.224  1.00  0.00     0.209 HD
ENDBRANCH  62  63
ENDBRANCH  32  62
BRANCH  26  65
HETATM   65  O5  UNL     1      -7.058 -12.792  23.998  1.00  0.00    -0.361 OA
HETATM   66  H27 UNL     1      -6.895 -12.812  23.040  1.00  0.00     0.217 HD
ENDBRANCH  26  65
TORSDOF 9
ENDMDL
