MODEL 1
REMARK minimizedAffinity -9.04694653
REMARK CNNscore 0.286978722
REMARK CNNaffinity 7.13509798
REMARK  12 active torsions:
REMARK  status: ('A' for Active; 'I' for Inactive)
REMARK    1  A    between atoms: C3_3  and  O1_4 
REMARK    2  A    between atoms: N1_14  and  O2_16 
REMARK    3  A    between atoms: O2_16  and  C13_17 
REMARK    4  A    between atoms: C13_17  and  C14_18 
REMARK       I    between atoms: C14_18  and  N2_20 
REMARK    5  A    between atoms: N2_20  and  C15_21 
REMARK    6  A    between atoms: C15_21  and  C16_22 
REMARK    7  A    between atoms: C15_21  and  C27_38 
REMARK       I    between atoms: C16_22  and  N3_24 
REMARK    8  A    between atoms: N3_24  and  C17_25 
REMARK    9  A    between atoms: C17_25  and  C18_26 
REMARK   10  A    between atoms: C17_25  and  C20_30 
REMARK   11  A    between atoms: C18_26  and  C19_27 
REMARK   12  A    between atoms: C19_27  and  O6_29 
ROOT
HETATM    1  C1  UNL     1      -9.990   6.642  12.994  1.00  0.00     0.015 C 
HETATM    2  C2  UNL     1      -9.039   6.715  13.726  1.00  0.00    -0.078 C 
HETATM    3  C3  UNL     1      -7.886   6.810  14.637  1.00  0.00     0.128 C 
HETATM    4  C4  UNL     1      -7.989   5.809  15.793  1.00  0.00     0.052 C 
HETATM    5  C5  UNL     1      -6.581   5.839  16.377  1.00  0.00     0.010 C 
HETATM    6  C6  UNL     1      -5.679   5.807  15.140  1.00  0.00     0.002 C 
HETATM    7  C7  UNL     1      -4.214   6.267  15.341  1.00  0.00    -0.004 C 
HETATM    8  C8  UNL     1      -3.986   7.481  16.256  1.00  0.00     0.010 C 
HETATM    9  C9  UNL     1      -2.498   7.796  16.423  1.00  0.00     0.035 C 
HETATM   10  C10 UNL     1      -1.734   7.882  15.120  1.00  0.00    -0.069 C 
HETATM   11  C11 UNL     1      -0.854   8.881  14.927  1.00  0.00     0.030 C 
HETATM   12  C12 UNL     1       0.026   8.934  13.723  1.00  0.00     0.032 C 
HETATM   13  N1  UNL     1       0.846   9.893  13.414  1.00  0.00    -0.271 N 
ATOM     14  H1  UNL     1       1.431   9.896  12.577  1.00  0.00     0.194 HD
HETATM   15  C30 UNL     1       0.016   7.729  12.805  1.00  0.00     0.060 C 
HETATM   16  C31 UNL     1      -1.380   7.137  12.714  1.00  0.00     0.020 C 
HETATM   17  C32 UNL     1      -1.983   6.770  14.102  1.00  0.00    -0.016 C 
HETATM   18  C33 UNL     1      -1.263   5.489  14.603  1.00  0.00     0.020 C 
HETATM   19  C34 UNL     1      -3.531   6.486  13.967  1.00  0.00     0.002 C 
HETATM   20  C35 UNL     1      -4.289   7.555  13.136  1.00  0.00     0.007 C 
HETATM   21  C36 UNL     1      -5.770   7.753  13.473  1.00  0.00     0.014 C 
HETATM   22  C37 UNL     1      -6.487   6.494  13.988  1.00  0.00     0.003 C 
HETATM   23  C38 UNL     1      -6.615   5.481  12.816  1.00  0.00     0.020 C 
ENDROOT
BRANCH   3  24
HETATM   24  O1  UNL     1      -7.891   8.118  15.221  1.00  0.00    -0.377 OA
HETATM   25  H2  UNL     1      -8.809   8.314  15.472  1.00  0.00     0.211 HD
ENDBRANCH   3  24
BRANCH  13  26
HETATM   26  O2  UNL     1       0.835  10.925  14.366  1.00  0.00    -0.271 OA
BRANCH  26  27
HETATM   27  C13 UNL     1       2.014  10.838  15.151  1.00  0.00     0.303 C 
BRANCH  27  28
HETATM   28  C14 UNL     1       1.903  11.688  16.417  1.00  0.00     0.244 C 
HETATM   29  O3  UNL     1       2.495  12.751  16.588  1.00  0.00    -0.271 OA
HETATM   30  N2  UNL     1       1.044  11.148  17.360  1.00  0.00    -0.346 N 
HETATM   31  H16 UNL     1       0.906  10.143  17.317  1.00  0.00     0.163 HD
BRANCH  30  32
HETATM   32  C15 UNL     1       0.912  11.731  18.693  1.00  0.00     0.180 C 
BRANCH  32  33
HETATM   33  C16 UNL     1       1.888  10.999  19.642  1.00  0.00     0.241 C 
HETATM   34  O4  UNL     1       2.496   9.985  19.302  1.00  0.00    -0.271 OA
HETATM   35  N3  UNL     1       1.982  11.555  20.901  1.00  0.00    -0.354 N 
HETATM   36  H18 UNL     1       1.402  12.355  21.124  1.00  0.00     0.162 HD
BRANCH  35  37
HETATM   37  C17 UNL     1       2.840  11.009  21.967  1.00  0.00     0.098 C 
BRANCH  37  38
HETATM   38  C18 UNL     1       3.106   9.529  21.643  1.00  0.00     0.135 C 
BRANCH  38  39
HETATM   39  C19 UNL     1       2.407   8.579  22.577  1.00  0.00     0.141 C 
HETATM   40  O5  UNL     1       1.657   7.663  22.292  1.00  0.00    -0.650 OA
BRANCH  39  41
HETATM   41  O6  UNL     1       2.711   8.839  23.866  1.00  0.00    -0.776 OA
HETATM   42  H22 UNL     1       2.232   8.147  24.368  1.00  0.00     0.167 HD
ENDBRANCH  39  41
ENDBRANCH  38  39
ENDBRANCH  37  38
BRANCH  37  43
HETATM   43  C20 UNL     1       4.131  11.879  22.072  1.00  0.00     0.014 C 
HETATM   44  C21 UNL     1       3.884  13.386  22.141  1.00  0.00     0.033 C 
HETATM   45  C22 UNL     1       5.190  14.168  22.277  1.00  0.00     0.169 C 
HETATM   46  O7  UNL     1       6.341  13.430  21.877  1.00  0.00    -0.381 OA
HETATM   47  C23 UNL     1       6.182  12.655  20.685  1.00  0.00     0.054 C 
HETATM   48  C24 UNL     1       5.879  13.552  19.473  1.00  0.00     0.045 C 
HETATM   49  C25 UNL     1       7.538  11.973  20.447  1.00  0.00     0.045 C 
HETATM   50  C26 UNL     1       5.093  11.582  20.898  1.00  0.00     0.044 C 
ENDBRANCH  37  43
ENDBRANCH  35  37
ENDBRANCH  32  33
BRANCH  32  51
HETATM   51  C27 UNL     1      -0.540  11.668  19.219  1.00  0.00     0.009 C 
HETATM   52  C28 UNL     1      -1.440  10.732  18.405  1.00  0.00     0.012 C 
HETATM   53  C29 UNL     1      -1.163  13.068  19.266  1.00  0.00     0.012 C 
ENDBRANCH  32  51
ENDBRANCH  30  32
ENDBRANCH  27  28
ENDBRANCH  26  27
ENDBRANCH  13  26
TORSDOF 12
ENDMDL
