MODEL 1
REMARK minimizedAffinity -9.45732784
REMARK CNNscore 0.732746542
REMARK CNNaffinity 7.09873819
REMARK  12 active torsions:
REMARK  status: ('A' for Active; 'I' for Inactive)
REMARK    1  A    between atoms: C12_13  and  O2_14 
REMARK    2  A    between atoms: C19_21  and  O3_22 
REMARK    3  A    between atoms: C19_21  and  C20_23 
REMARK    4  A    between atoms: C20_23  and  C21_25 
REMARK    5  A    between atoms: C21_25  and  O5_26 
REMARK    6  A    between atoms: O5_26  and  C22_27 
REMARK    7  A    between atoms: C22_27  and  C23_29 
REMARK    8  A    between atoms: C23_29  and  C24_30 
REMARK    9  A    between atoms: C24_30  and  C25_31 
REMARK       I    between atoms: C25_31  and  N1_33 
REMARK   10  A    between atoms: N1_33  and  C26_34 
REMARK   11  A    between atoms: C26_34  and  C27_35 
REMARK   12  A    between atoms: C27_35  and  C28_36 
ROOT
HETATM    1  C1  UNL     1      -6.114  49.962 -21.389  1.00  0.00     0.020 C 
HETATM    2  C2  UNL     1      -6.293  49.390 -22.820  1.00  0.00    -0.014 C 
HETATM    3  C3  UNL     1      -7.705  49.857 -23.290  1.00  0.00     0.022 C 
HETATM    4  C4  UNL     1      -8.294  49.039 -24.431  1.00  0.00     0.084 C 
HETATM    5  C5  UNL     1      -8.309  47.575 -24.077  1.00  0.00     0.149 C 
HETATM    6  O1  UNL     1      -9.160  46.799 -24.502  1.00  0.00    -0.293 OA
HETATM    7  C6  UNL     1      -7.184  47.046 -23.274  1.00  0.00     0.053 C 
HETATM    8  C7  UNL     1      -6.255  47.858 -22.742  1.00  0.00    -0.068 C 
HETATM    9  C8  UNL     1      -5.005  47.275 -22.131  1.00  0.00     0.035 C 
HETATM   10  C9  UNL     1      -3.753  48.045 -22.567  1.00  0.00     0.010 C 
HETATM   11  C10 UNL     1      -3.950  48.810 -23.891  1.00  0.00    -0.002 C 
HETATM   12  C11 UNL     1      -5.153  49.820 -23.835  1.00  0.00     0.031 C 
HETATM   13  C12 UNL     1      -4.681  51.297 -23.811  1.00  0.00     0.124 C 
HETATM   14  C13 UNL     1      -3.353  51.491 -23.076  1.00  0.00     0.045 C 
HETATM   15  C14 UNL     1      -2.166  50.768 -23.755  1.00  0.00     0.001 C 
HETATM   16  C15 UNL     1      -1.096  50.472 -22.678  1.00  0.00     0.019 C 
HETATM   17  C16 UNL     1      -2.615  49.407 -24.385  1.00  0.00     0.002 C 
HETATM   18  C17 UNL     1      -2.592  49.632 -25.901  1.00  0.00     0.009 C 
HETATM   19  C18 UNL     1      -1.385  50.535 -26.083  1.00  0.00     0.047 C 
HETATM   20  C19 UNL     1      -1.557  51.584 -24.973  1.00  0.00     0.128 C 
ENDROOT
BRANCH  20  21
HETATM   21  O3  UNL     1      -2.489  52.560 -25.449  1.00  0.00    -0.381 OA
HETATM   22  H27 UNL     1      -2.258  52.795 -26.366  1.00  0.00     0.211 HD
ENDBRANCH  20  21
BRANCH  20  23
HETATM   23  C20 UNL     1      -0.222  52.303 -24.670  1.00  0.00     0.185 C 
HETATM   24  O4  UNL     1       0.475  52.784 -25.573  1.00  0.00    -0.292 OA
BRANCH  23  25
HETATM   25  C21 UNL     1       0.202  52.367 -23.206  1.00  0.00     0.260 C 
BRANCH  25  26
HETATM   26  O5  UNL     1       0.892  53.597 -22.976  1.00  0.00    -0.314 OA
BRANCH  26  27
HETATM   27  C22 UNL     1       1.318  53.762 -21.698  1.00  0.00     0.259 C 
HETATM   28  O6  UNL     1       1.922  54.750 -21.295  1.00  0.00    -0.265 OA
BRANCH  27  29
HETATM   29  C23 UNL     1       1.026  52.556 -20.833  1.00  0.00     0.120 C 
BRANCH  29  30
HETATM   30  C24 UNL     1      -0.061  52.766 -19.783  1.00  0.00     0.112 C 
BRANCH  30  31
HETATM   31  C25 UNL     1       0.422  52.437 -18.383  1.00  0.00     0.218 C 
HETATM   32  O7  UNL     1      -0.204  51.728 -17.602  1.00  0.00    -0.274 OA
HETATM   33  N1  UNL     1       1.635  53.014 -18.080  1.00  0.00    -0.361 N 
HETATM   34  H34 UNL     1       2.191  53.410 -18.829  1.00  0.00     0.162 HD
BRANCH  33  35
HETATM   35  C26 UNL     1       2.316  52.726 -16.829  1.00  0.00     0.128 C 
BRANCH  35  36
HETATM   36  C27 UNL     1       1.682  51.557 -16.067  1.00  0.00     0.078 C 
BRANCH  36  37
HETATM   37  C28 UNL     1       2.223  51.427 -14.683  1.00  0.00     0.027 A 
HETATM   38  C29 UNL     1       3.031  50.477 -14.095  1.00  0.00     0.114 A 
HETATM   39  N2  UNL     1       3.254  50.775 -12.776  1.00  0.00    -0.360 N 
HETATM   40  C30 UNL     1       2.612  51.900 -12.560  1.00  0.00     0.180 A 
ATOM     41  H2  UNL     1       3.802  50.237 -12.105  1.00  0.00     0.166 HD
HETATM   42  N3  UNL     1       1.971  52.335 -13.685  1.00  0.00    -0.355 N 
HETATM   43  H41 UNL     1       1.418  53.187 -13.753  1.00  0.00     0.166 HD
ENDBRANCH  36  37
ENDBRANCH  35  36
ENDBRANCH  33  35
ENDBRANCH  30  31
ENDBRANCH  29  30
ENDBRANCH  27  29
ENDBRANCH  26  27
ENDBRANCH  25  26
ENDBRANCH  23  25
ENDBRANCH  20  23
BRANCH  13  44
HETATM   44  O2  UNL     1      -5.655  52.175 -23.266  1.00  0.00    -0.395 OA
HETATM   45  H16 UNL     1      -5.334  53.085 -23.396  1.00  0.00     0.210 HD
ENDBRANCH  13  44
TORSDOF 12
ENDMDL
