MODEL 1
REMARK minimizedAffinity -8.26627636
REMARK CNNscore 0.536406219
REMARK CNNaffinity 6.82160711
REMARK  11 active torsions:
REMARK  status: ('A' for Active; 'I' for Inactive)
REMARK    1  A    between atoms: C3_4  and  O2_5 
REMARK    2  A    between atoms: O2_5  and  C4_6 
REMARK    3  A    between atoms: C7_9  and  C8_10 
REMARK    4  A    between atoms: N1_11  and  C9_13 
REMARK    5  A    between atoms: C9_13  and  C10_14 
REMARK    6  A    between atoms: C10_14  and  C11_15 
REMARK    7  A    between atoms: C22_26  and  C23_27 
REMARK    8  A    between atoms: C29_35  and  O5_36 
REMARK    9  A    between atoms: C33_40  and  O6_41 
REMARK   10  A    between atoms: C36_44  and  O7_45 
REMARK   11  A    between atoms: C37_46  and  O8_47 
ROOT
HETATM    1  C4  UNL     1      -0.433  56.174  -5.274  1.00  0.00     0.127 C 
HETATM    2  C5  UNL     1       0.125  57.075  -6.381  1.00  0.00     0.033 C 
HETATM    3  C6  UNL     1      -0.214  56.543  -7.766  1.00  0.00     0.021 C 
HETATM    4  C7  UNL     1       0.351  55.110  -8.059  1.00  0.00     0.026 C 
HETATM    5  C17 UNL     1      -0.741  54.317  -8.893  1.00  0.00     0.009 C 
HETATM    6  C18 UNL     1      -1.053  54.957 -10.262  1.00  0.00     0.007 C 
HETATM    7  C19 UNL     1      -2.168  54.217 -10.996  1.00  0.00     0.013 C 
HETATM    8  C20 UNL     1      -1.843  52.718 -11.247  1.00  0.00    -0.005 C 
HETATM    9  C21 UNL     1      -0.726  52.622 -12.309  1.00  0.00     0.019 C 
HETATM   10  C22 UNL     1      -3.173  51.996 -11.668  1.00  0.00     0.028 C 
HETATM   11  C27 UNL     1      -3.822  51.558 -10.338  1.00  0.00     0.013 C 
HETATM   12  C28 UNL     1      -2.817  51.833  -9.218  1.00  0.00     0.040 C 
HETATM   13  C29 UNL     1      -1.462  52.034  -9.906  1.00  0.00     0.070 C 
HETATM   14  C30 UNL     1      -0.420  52.813  -9.055  1.00  0.00     0.026 C 
HETATM   15  C31 UNL     1      -0.241  52.163  -7.672  1.00  0.00     0.011 C 
HETATM   16  C32 UNL     1       0.875  52.837  -6.891  1.00  0.00     0.039 C 
HETATM   17  C33 UNL     1       0.701  54.361  -6.713  1.00  0.00     0.073 C 
HETATM   18  C34 UNL     1      -0.372  54.677  -5.643  1.00  0.00     0.071 C 
ENDROOT
BRANCH   1  19
HETATM   19  O2  UNL     1       0.324  56.446  -4.095  1.00  0.00    -0.356 OA
BRANCH  19  20
HETATM   20  C3  UNL     1      -0.446  56.862  -2.974  1.00  0.00     0.263 C 
HETATM   21  O1  UNL     1      -1.801  57.043  -3.378  1.00  0.00    -0.354 OA
HETATM   22  C2  UNL     1      -2.693  57.365  -2.300  1.00  0.00     0.151 C 
HETATM   23  C1  UNL     1      -3.354  56.088  -1.789  1.00  0.00     0.042 C 
HETATM   24  C37 UNL     1      -2.013  58.151  -1.157  1.00  0.00     0.175 C 
HETATM   25  C36 UNL     1      -0.891  59.028  -1.722  1.00  0.00     0.154 C 
HETATM   26  C35 UNL     1       0.132  58.203  -2.500  1.00  0.00     0.095 C 
BRANCH  24  27
HETATM   27  O8  UNL     1      -2.969  58.973  -0.478  1.00  0.00    -0.390 OA
HETATM   28  H51 UNL     1      -3.008  59.809  -0.991  1.00  0.00     0.210 HD
ENDBRANCH  24  27
BRANCH  25  29
HETATM   29  O7  UNL     1      -1.482  60.036  -2.566  1.00  0.00    -0.393 OA
HETATM   30  H49 UNL     1      -1.610  59.642  -3.456  1.00  0.00     0.210 HD
ENDBRANCH  25  29
ENDBRANCH  19  20
ENDBRANCH   1  19
BRANCH  17  31
HETATM   31  O6  UNL     1       1.937  54.848  -6.164  1.00  0.00    -0.389 OA
HETATM   32  H43 UNL     1       2.667  54.227  -6.332  1.00  0.00     0.210 HD
ENDBRANCH  17  31
BRANCH   4  33
HETATM   33  C8  UNL     1       1.646  55.195  -8.879  1.00  0.00     0.068 C 
HETATM   34  N1  UNL     1       1.713  54.911 -10.137  1.00  0.00    -0.401 N 
ATOM     35  H1  UNL     1       0.916  54.597 -10.690  1.00  0.00     0.158 HD
BRANCH  34  36
HETATM   36  C9  UNL     1       3.068  55.092 -10.684  1.00  0.00     0.123 C 
BRANCH  36  37
HETATM   37  C10 UNL     1       3.715  56.314 -10.025  1.00  0.00     0.058 C 
BRANCH  37  38
HETATM   38  C11 UNL     1       4.889  55.905  -9.172  1.00  0.00    -0.057 A 
HETATM   39  C12 UNL     1       5.068  56.454  -7.896  1.00  0.00     0.007 A 
HETATM   40  C13 UNL     1       6.185  56.113  -7.132  1.00  0.00     0.001 A 
HETATM   41  C14 UNL     1       7.125  55.216  -7.633  1.00  0.00     0.000 A 
HETATM   42  C15 UNL     1       6.956  54.664  -8.902  1.00  0.00     0.001 A 
HETATM   43  C16 UNL     1       5.847  55.011  -9.672  1.00  0.00     0.007 A 
ENDBRANCH  37  38
ENDBRANCH  36  37
ENDBRANCH  34  36
ENDBRANCH   4  33
BRANCH  13  44
HETATM   44  O5  UNL     1      -0.946  50.720 -10.146  1.00  0.00    -0.389 OA
HETATM   45  H37 UNL     1      -0.046  50.800 -10.504  1.00  0.00     0.210 HD
ENDBRANCH  13  44
BRANCH  10  46
HETATM   46  C23 UNL     1      -3.062  50.873 -12.669  1.00  0.00    -0.045 A 
HETATM   47  C24 UNL     1      -2.821  50.926 -13.979  1.00  0.00     0.087 A 
HETATM   48  C25 UNL     1      -2.825  49.551 -14.475  1.00  0.00     0.283 A 
HETATM   49  O3  UNL     1      -2.663  49.228 -15.636  1.00  0.00    -0.260 OA
HETATM   50  O4  UNL     1      -3.039  48.703 -13.436  1.00  0.00    -0.314 OA
HETATM   51  C26 UNL     1      -3.199  49.460 -12.240  1.00  0.00     0.213 A 
ENDBRANCH  10  46
TORSDOF 11
ENDMDL
