MODEL 1
REMARK minimizedAffinity -6.28450727
REMARK CNNscore 0.521682918
REMARK CNNaffinity 5.51985884
REMARK  4 active torsions:
REMARK  status: ('A' for Active; 'I' for Inactive)
REMARK    1  A    between atoms: C2_2  and  C3_3 
REMARK    2  A    between atoms: C2_2  and  C9_9 
REMARK    3  A    between atoms: C3_3  and  C4_4 
REMARK    4  A    between atoms: C4_4  and  C5_5 
ROOT
HETATM    1  C9  UNL     1      -4.872 -11.168   3.150  1.00  0.00     0.018 C 
HETATM    2  C10 UNL     1      -3.375 -11.376   3.492  1.00  0.00     0.010 C 
HETATM    3  C11 UNL     1      -3.210 -11.020   4.986  1.00  0.00     0.011 C 
HETATM    4  C12 UNL     1      -4.627 -11.165   5.592  1.00  0.00    -0.032 C 
HETATM    5  C13 UNL     1      -4.881 -12.701   5.746  1.00  0.00     0.016 C 
HETATM    6  C14 UNL     1      -5.450 -10.541   4.433  1.00  0.00     0.002 C 
HETATM    7  C15 UNL     1      -6.950 -10.653   4.661  1.00  0.00     0.006 C 
HETATM    8  C16 UNL     1      -7.338  -9.966   5.982  1.00  0.00     0.006 C 
HETATM    9  C17 UNL     1      -6.512 -10.468   7.200  1.00  0.00     0.003 C 
HETATM   10  C18 UNL     1      -7.045  -9.971   8.612  1.00  0.00    -0.035 C 
HETATM   11  C19 UNL     1      -7.112  -8.431   8.712  1.00  0.00     0.016 C 
HETATM   12  C20 UNL     1      -8.517 -10.490   8.787  1.00  0.00     0.017 C 
HETATM   13  C21 UNL     1      -8.928 -10.859  10.208  1.00  0.00     0.080 C 
HETATM   14  C22 UNL     1      -8.140 -10.107  11.250  1.00  0.00     0.135 C 
HETATM   15  O1  UNL     1      -8.715  -9.462  12.127  1.00  0.00    -0.297 OA
HETATM   16  C23 UNL     1      -6.615 -10.268  11.209  1.00  0.00     0.017 C 
HETATM   17  C24 UNL     1      -6.274 -11.440  12.154  1.00  0.00     0.023 C 
HETATM   18  C25 UNL     1      -5.957  -9.002  11.792  1.00  0.00     0.023 C 
HETATM   19  C26 UNL     1      -6.164 -10.618   9.745  1.00  0.00     0.009 C 
HETATM   20  C27 UNL     1      -4.654 -10.420   9.509  1.00  0.00     0.007 C 
HETATM   21  C28 UNL     1      -4.207 -10.982   8.157  1.00  0.00     0.011 C 
HETATM   22  C29 UNL     1      -4.950 -10.366   6.945  1.00  0.00    -0.032 C 
HETATM   23  C30 UNL     1      -4.478  -8.887   6.826  1.00  0.00     0.016 C 
ENDROOT
BRANCH   1  24
HETATM   24  C2  UNL     1      -5.143 -10.395   1.860  1.00  0.00    -0.084 C 
HETATM   25  C1  UNL     1      -6.199  -9.561   1.810  1.00  0.00     0.014 C 
BRANCH  24  26
HETATM   26  C3  UNL     1      -4.199 -10.626   0.684  1.00  0.00     0.037 C 
BRANCH  26  27
HETATM   27  C4  UNL     1      -4.717 -11.371  -0.565  1.00  0.00     0.031 C 
BRANCH  27  28
HETATM   28  C5  UNL     1      -3.694 -12.289  -1.185  1.00  0.00    -0.024 C 
HETATM   29  C6  UNL     1      -3.547 -12.591  -2.489  1.00  0.00    -0.091 C 
HETATM   30  C7  UNL     1      -2.454 -13.526  -2.941  1.00  0.00     0.042 C 
HETATM   31  C8  UNL     1      -4.414 -12.074  -3.604  1.00  0.00     0.042 C 
ENDBRANCH  27  28
ENDBRANCH  26  27
ENDBRANCH  24  26
ENDBRANCH   1  24
TORSDOF 4
ENDMDL
