MODEL 1
REMARK minimizedAffinity -9.70717716
REMARK CNNscore 0.556901157
REMARK CNNaffinity 6.35869455
REMARK  5 active torsions:
REMARK  status: ('A' for Active; 'I' for Inactive)
REMARK    1  A    between atoms: C5_5  and  C6_6 
REMARK    2  A    between atoms: C6_6  and  C7_8 
REMARK    3  A    between atoms: C7_8  and  O2_9 
REMARK    4  A    between atoms: O2_9  and  C8_10 
REMARK    5  A    between atoms: C14_17  and  C15_18 
ROOT
HETATM    1  C8  UNL     1      -0.843   6.570  13.149  1.00  0.00     0.093 A 
HETATM    2  C9  UNL     1      -0.203   5.474  12.571  1.00  0.00     0.076 A 
HETATM    3  C10 UNL     1      -0.951   4.356  12.195  1.00  0.00     0.093 A 
HETATM    4  C11 UNL     1      -2.331   4.286  12.370  1.00  0.00     0.011 A 
HETATM    5  C12 UNL     1      -2.972   5.384  12.951  1.00  0.00     0.042 A 
HETATM    6  C13 UNL     1      -2.236   6.512  13.334  1.00  0.00     0.068 A 
HETATM    7 CL1  UNL     1      -3.100   7.829  14.053  1.00  0.00    -0.081 Cl
HETATM    8  C14 UNL     1      -3.052   3.078  11.943  1.00  0.00    -0.007 A 
HETATM    9  C21 UNL     1      -2.338   2.079  11.400  1.00  0.00     0.095 A 
HETATM   10  C22 UNL     1      -0.880   2.132  11.216  1.00  0.00     0.289 A 
HETATM   11  O3  UNL     1      -0.276   1.185  10.725  1.00  0.00    -0.260 OA
HETATM   12  O4  UNL     1      -0.236   3.287  11.622  1.00  0.00    -0.275 OA
ENDROOT
BRANCH   1  13
HETATM   13  O2  UNL     1      -0.218   7.720  13.552  1.00  0.00    -0.342 OA
BRANCH  13  14
HETATM   14  C7  UNL     1       0.328   8.596  12.581  1.00  0.00     0.254 C 
BRANCH  14  15
HETATM   15  C6  UNL     1      -0.368   8.601  11.214  1.00  0.00     0.155 C 
HETATM   16  O1  UNL     1      -1.425   9.199  11.009  1.00  0.00    -0.295 OA
BRANCH  15  17
HETATM   17  C5  UNL     1       0.335   7.823  10.107  1.00  0.00     0.062 C 
HETATM   18  C4  UNL     1       1.776   7.505  10.521  1.00  0.00     0.049 C 
HETATM   19  C2  UNL     1       2.692   7.180   9.320  1.00  0.00     0.054 C 
HETATM   20  C1  UNL     1       3.562   5.958   9.653  1.00  0.00     0.045 C 
HETATM   21  C3  UNL     1       3.629   8.348   8.974  1.00  0.00     0.045 C 
HETATM   22  O5  UNL     1       1.898   6.799   8.191  1.00  0.00    -0.381 OA
HETATM   23  C24 UNL     1       1.020   7.805   7.689  1.00  0.00     0.169 C 
HETATM   24  C23 UNL     1       0.307   8.585   8.786  1.00  0.00     0.038 C 
ENDBRANCH  15  17
ENDBRANCH  14  15
ENDBRANCH  13  14
ENDBRANCH   1  13
BRANCH   8  25
HETATM   25  C15 UNL     1      -4.506   2.860  12.046  1.00  0.00    -0.025 A 
HETATM   26  C16 UNL     1      -5.313   3.796  12.706  1.00  0.00     0.012 A 
HETATM   27  C17 UNL     1      -6.690   3.588  12.806  1.00  0.00     0.001 A 
HETATM   28  C18 UNL     1      -7.266   2.448  12.248  1.00  0.00     0.000 A 
HETATM   29  C19 UNL     1      -6.469   1.513  11.588  1.00  0.00     0.001 A 
HETATM   30  C20 UNL     1      -5.092   1.717  11.487  1.00  0.00     0.012 A 
ENDBRANCH   8  25
TORSDOF 5
ENDMDL
