MODEL 1
REMARK minimizedAffinity -9.40925407
REMARK  9 active torsions:
REMARK  status: ('A' for Active; 'I' for Inactive)
REMARK    1  A    between atoms: C2_2  and  C3_3 
REMARK    2  A    between atoms: C2_2  and  C9_11 
REMARK    3  A    between atoms: C3_3  and  C4_4 
REMARK    4  A    between atoms: C4_4  and  C5_5 
REMARK    5  A    between atoms: C6_6  and  C7_7 
REMARK    6  A    between atoms: C6_6  and  C8_9 
REMARK    7  A    between atoms: C7_7  and  O1_8 
REMARK    8  A    between atoms: C8_9  and  O2_10 
REMARK    9  A    between atoms: C11_13  and  O3_14 
ROOT
HETATM    1  C9  UNL     1       1.482   6.802  12.800  1.00  0.00     0.001 C 
HETATM    2  C10 UNL     1       0.766   7.935  13.584  1.00  0.00     0.038 C 
HETATM    3  C11 UNL     1      -0.719   7.515  13.727  1.00  0.00     0.131 C 
HETATM    4  C12 UNL     1      -0.755   6.016  13.297  1.00  0.00     0.014 C 
HETATM    5  C13 UNL     1      -0.355   5.201  14.574  1.00  0.00     0.023 C 
HETATM    6  C14 UNL     1      -2.032   5.331  12.808  1.00  0.00    -0.058 C 
HETATM    7  C15 UNL     1      -1.980   4.234  12.002  1.00  0.00    -0.000 C 
HETATM    8  C16 UNL     1      -0.617   3.750  11.506  1.00  0.00     0.157 C 
HETATM    9  O4  UNL     1      -0.510   2.700  10.874  1.00  0.00    -0.293 OA
HETATM   10  C17 UNL     1       0.643   4.554  11.807  1.00  0.00     0.094 C 
HETATM   11  C18 UNL     1       0.313   6.007  12.144  1.00  0.00    -0.019 C 
HETATM   12  C19 UNL     1      -0.160   6.687  10.826  1.00  0.00     0.017 C 
HETATM   13  C20 UNL     1      -3.239   3.446  11.553  1.00  0.00    -0.008 C 
HETATM   14  C21 UNL     1      -3.440   3.774  10.053  1.00  0.00     0.021 C 
HETATM   15  C22 UNL     1      -3.054   1.901  11.710  1.00  0.00     0.022 C 
HETATM   16  C23 UNL     1      -4.324   1.096  11.974  1.00  0.00     0.080 C 
HETATM   17  C24 UNL     1      -5.563   1.784  11.457  1.00  0.00     0.135 C 
HETATM   18  O5  UNL     1      -6.342   1.202  10.701  1.00  0.00    -0.297 OA
HETATM   19  C25 UNL     1      -5.842   3.188  12.004  1.00  0.00     0.018 C 
HETATM   20  C26 UNL     1      -6.746   3.004  13.242  1.00  0.00     0.023 C 
HETATM   21  C27 UNL     1      -6.640   4.003  10.970  1.00  0.00     0.023 C 
HETATM   22  C28 UNL     1      -4.484   3.843  12.435  1.00  0.00     0.014 C 
HETATM   23  C29 UNL     1      -4.572   5.360  12.618  1.00  0.00     0.011 C 
HETATM   24  C30 UNL     1      -3.335   5.881  13.340  1.00  0.00     0.036 C 
ENDROOT
BRANCH   1  25
HETATM   25  C2  UNL     1       2.705   7.218  11.924  1.00  0.00    -0.013 C 
HETATM   26  C1  UNL     1       2.515   8.679  11.476  1.00  0.00     0.010 C 
BRANCH  25  27
HETATM   27  C3  UNL     1       2.980   6.321  10.690  1.00  0.00     0.008 C 
BRANCH  27  28
HETATM   28  C4  UNL     1       2.755   7.003   9.327  1.00  0.00     0.028 C 
BRANCH  28  29
HETATM   29  C5  UNL     1       2.890   6.067   8.157  1.00  0.00    -0.020 C 
HETATM   30  C6  UNL     1       3.458   4.841   8.112  1.00  0.00    -0.037 C 
BRANCH  30  31
HETATM   31  C7  UNL     1       4.106   4.156   9.285  1.00  0.00     0.200 C 
BRANCH  31  32
HETATM   32  O1  UNL     1       3.221   3.164   9.787  1.00  0.00    -0.397 OA
HETATM   33  H12 UNL     1       3.658   2.770  10.562  1.00  0.00     0.209 HD
ENDBRANCH  31  32
ENDBRANCH  30  31
BRANCH  30  34
HETATM   34  C8  UNL     1       3.516   4.023   6.838  1.00  0.00     0.200 C 
BRANCH  34  35
HETATM   35  O2  UNL     1       4.833   3.559   6.565  1.00  0.00    -0.397 OA
HETATM   36  H15 UNL     1       4.799   3.148   5.685  1.00  0.00     0.209 HD
ENDBRANCH  34  35
ENDBRANCH  30  34
ENDBRANCH  28  29
ENDBRANCH  27  28
ENDBRANCH  25  27
ENDBRANCH   1  25
BRANCH   3  37
HETATM   37  O3  UNL     1      -1.512   8.351  12.891  1.00  0.00    -0.394 OA
HETATM   38  H20 UNL     1      -1.434   9.261  13.225  1.00  0.00     0.210 HD
ENDBRANCH   3  37
TORSDOF 9
ENDMDL
