MODEL 1
REMARK minimizedAffinity -10.0774431
REMARK  2 active torsions:
REMARK  status: ('A' for Active; 'I' for Inactive)
REMARK       I    between atoms: C1_2  and  N1_3 
REMARK    1  A    between atoms: C1_2  and  C14_18 
REMARK    2  A    between atoms: N1_3  and  C2_4 
ROOT
HETATM    1  C2  UNL     1      -0.654  52.361 -23.804  1.00  0.00     0.135 C 
HETATM    2  C3  UNL     1       0.754  52.268 -24.440  1.00  0.00     0.032 C 
HETATM    3  C4  UNL     1       0.702  52.052 -25.963  1.00  0.00     0.007 C 
HETATM    4  C5  UNL     1      -0.029  50.748 -26.335  1.00  0.00     0.042 C 
HETATM    5  C6  UNL     1      -1.308  50.624 -25.576  1.00  0.00    -0.021 A 
HETATM    6  C7  UNL     1      -1.559  51.355 -24.432  1.00  0.00     0.040 A 
HETATM    7  N2  UNL     1      -2.822  51.056 -24.003  1.00  0.00    -0.355 N 
HETATM    8  C8  UNL     1      -3.379  50.094 -24.818  1.00  0.00     0.065 A 
HETATM    9  C9  UNL     1      -4.627  49.463 -24.759  1.00  0.00     0.061 A 
HETATM   10 CL1  UNL     1      -5.754  49.832 -23.515  1.00  0.00    -0.082 Cl
HETATM   11  C10 UNL     1      -4.939  48.518 -25.738  1.00  0.00     0.026 A 
HETATM   12  C11 UNL     1      -4.029  48.216 -26.750  1.00  0.00     0.003 A 
HETATM   13  C12 UNL     1      -2.782  48.853 -26.802  1.00  0.00     0.014 A 
HETATM   14  C13 UNL     1      -2.447  49.807 -25.821  1.00  0.00     0.001 A 
HETATM   15  H9  UNL     1      -3.285  51.471 -23.202  1.00  0.00     0.166 HD
ENDROOT
BRANCH   1  16
HETATM   16  N1  UNL     1      -0.597  52.081 -22.387  1.00  0.00    -0.347 N 
HETATM   17  C1  UNL     1       0.283  52.745 -21.562  1.00  0.00     0.252 C 
HETATM   18  O1  UNL     1       0.966  53.693 -21.929  1.00  0.00    -0.268 OA
HETATM   19  H1  UNL     1      -1.117  51.286 -22.047  1.00  0.00     0.163 HD
BRANCH  17  20
HETATM   20  C14 UNL     1       0.352  52.273 -20.149  1.00  0.00     0.034 A 
HETATM   21  C15 UNL     1      -0.265  51.057 -19.837  1.00  0.00     0.018 A 
HETATM   22  C16 UNL     1      -0.236  50.551 -18.531  1.00  0.00     0.015 A 
HETATM   23  C17 UNL     1       0.413  51.287 -17.522  1.00  0.00    -0.008 A 
HETATM   24  C18 UNL     1       0.626  51.079 -16.131  1.00  0.00     0.030 A 
HETATM   25  C20 UNL     1       1.006  52.506 -17.851  1.00  0.00     0.043 A 
HETATM   26  C19 UNL     1       1.326  52.160 -15.648  1.00  0.00     0.089 A 
HETATM   27  N3  UNL     1       1.547  53.018 -16.692  1.00  0.00    -0.365 N 
HETATM   28  H17 UNL     1       2.036  53.900 -16.625  1.00  0.00     0.165 HD
HETATM   29  C21 UNL     1       0.990  53.030 -19.152  1.00  0.00     0.047 A 
ENDBRANCH  17  20
ENDBRANCH   1  16
TORSDOF 2
ENDMDL
