MODEL 1
REMARK minimizedAffinity -10.4926624
REMARK CNNscore 0.601018548
REMARK CNNaffinity 7.59644318
REMARK  13 active torsions:
REMARK  status: ('A' for Active; 'I' for Inactive)
REMARK    1  A    between atoms: O1_2  and  C2_3 
REMARK    2  A    between atoms: C12_14  and  C13_15 
REMARK    3  A    between atoms: C13_15  and  C15_17 
REMARK    4  A    between atoms: C15_17  and  C16_18 
REMARK    5  A    between atoms: C17_19  and  C18_20 
REMARK    6  A    between atoms: C18_20  and  O3_23 
REMARK    7  A    between atoms: C29_32  and  O4_33 
REMARK    8  A    between atoms: O4_33  and  C30_34 
REMARK    9  A    between atoms: C31_36  and  C32_37 
REMARK   10  A    between atoms: C32_37  and  O6_38 
REMARK   11  A    between atoms: C33_39  and  O7_40 
REMARK   12  A    between atoms: C34_41  and  O8_42 
REMARK   13  A    between atoms: C35_43  and  O9_44 
ROOT
HETATM    1  C2  UNL     1      -4.356  46.618 -20.344  1.00  0.00     0.270 C 
HETATM    2  O2  UNL     1      -5.805  46.748 -20.351  1.00  0.00    -0.344 OA
HETATM    3  C3  UNL     1      -6.184  47.524 -21.519  1.00  0.00     0.095 C 
HETATM    4  C4  UNL     1      -6.447  48.961 -21.039  1.00  0.00     0.008 C 
HETATM    5  C5  UNL     1      -5.442  49.739 -20.585  1.00  0.00    -0.021 C 
HETATM    6  C6  UNL     1      -4.093  49.109 -20.334  1.00  0.00     0.030 C 
HETATM    7  C7  UNL     1      -3.837  47.814 -21.226  1.00  0.00     0.024 C 
HETATM    8  C8  UNL     1      -2.404  47.619 -21.795  1.00  0.00     0.016 C 
HETATM    9  C9  UNL     1      -1.277  48.551 -21.327  1.00  0.00     0.011 C 
HETATM   10  C10 UNL     1      -1.742  49.996 -21.102  1.00  0.00    -0.032 C 
HETATM   11  C11 UNL     1      -2.242  50.599 -22.434  1.00  0.00     0.016 C 
HETATM   12  C12 UNL     1      -0.688  50.980 -20.493  1.00  0.00    -0.002 C 
HETATM   13  C22 UNL     1      -1.594  52.040 -19.786  1.00  0.00     0.006 C 
HETATM   14  C23 UNL     1      -3.017  51.453 -19.687  1.00  0.00     0.011 C 
HETATM   15  C24 UNL     1      -2.830  49.958 -19.973  1.00  0.00    -0.029 C 
HETATM   16  C25 UNL     1      -2.291  49.332 -18.622  1.00  0.00     0.016 C 
HETATM   17  C26 UNL     1      -4.900  47.601 -22.351  1.00  0.00     0.039 C 
HETATM   18  C27 UNL     1      -5.070  48.541 -23.551  1.00  0.00     0.011 C 
HETATM   19  C28 UNL     1      -6.446  48.373 -24.219  1.00  0.00     0.033 C 
HETATM   20  C29 UNL     1      -7.106  47.029 -23.890  1.00  0.00     0.136 C 
HETATM   21  C36 UNL     1      -7.334  46.827 -22.344  1.00  0.00     0.014 C 
HETATM   22  C37 UNL     1      -8.743  47.303 -21.911  1.00  0.00     0.021 C 
HETATM   23  C38 UNL     1      -7.334  45.294 -22.096  1.00  0.00     0.021 C 
ENDROOT
BRANCH  20  24
HETATM   24  O4  UNL     1      -8.352  46.869 -24.577  1.00  0.00    -0.352 OA
BRANCH  24  25
HETATM   25  C30 UNL     1      -9.141  48.053 -24.662  1.00  0.00     0.292 C 
HETATM   26  O5  UNL     1     -10.521  47.791 -24.398  1.00  0.00    -0.348 OA
HETATM   27  C31 UNL     1     -11.219  47.053 -25.407  1.00  0.00     0.179 C 
HETATM   28  C33 UNL     1     -11.082  47.708 -26.796  1.00  0.00     0.180 C 
HETATM   29  C34 UNL     1      -9.619  47.985 -27.172  1.00  0.00     0.183 C 
HETATM   30  C35 UNL     1      -8.912  48.733 -26.031  1.00  0.00     0.204 C 
BRANCH  27  31
HETATM   31  C32 UNL     1     -10.890  45.553 -25.381  1.00  0.00     0.198 C 
BRANCH  31  32
HETATM   32  O6  UNL     1     -11.189  44.949 -26.639  1.00  0.00    -0.398 OA
HETATM   33  H50 UNL     1     -12.157  44.847 -26.684  1.00  0.00     0.209 HD
ENDBRANCH  31  32
ENDBRANCH  27  31
BRANCH  28  34
HETATM   34  O7  UNL     1     -11.765  48.982 -26.765  1.00  0.00    -0.390 OA
HETATM   35  H52 UNL     1     -12.720  48.787 -26.708  1.00  0.00     0.210 HD
ENDBRANCH  28  34
BRANCH  29  36
HETATM   36  O8  UNL     1      -8.958  46.774 -27.539  1.00  0.00    -0.390 OA
HETATM   37  H54 UNL     1      -7.998  46.926 -27.502  1.00  0.00     0.210 HD
ENDBRANCH  29  36
BRANCH  30  38
HETATM   38  O9  UNL     1      -9.361  50.099 -25.987  1.00  0.00    -0.388 OA
HETATM   39  H56 UNL     1     -10.343  50.070 -26.027  1.00  0.00     0.210 HD
ENDBRANCH  30  38
ENDBRANCH  24  25
ENDBRANCH  20  24
BRANCH   1  40
HETATM   40  O1  UNL     1      -3.963  45.353 -20.881  1.00  0.00    -0.365 OA
HETATM   41  C1  UNL     1      -4.237  44.289 -19.981  1.00  0.00     0.204 C 
ENDBRANCH   1  40
BRANCH  12  42
HETATM   42  C13 UNL     1       0.412  51.648 -21.383  1.00  0.00    -0.010 C 
HETATM   43  C14 UNL     1       1.246  52.671 -20.602  1.00  0.00     0.010 C 
BRANCH  42  44
HETATM   44  C15 UNL     1      -0.273  52.334 -22.602  1.00  0.00     0.031 C 
BRANCH  44  45
HETATM   45  C16 UNL     1       0.522  52.339 -23.882  1.00  0.00    -0.027 C 
HETATM   46  C17 UNL     1      -0.002  52.092 -25.095  1.00  0.00     0.006 C 
BRANCH  46  47
HETATM   47  C18 UNL     1       0.700  52.144 -26.444  1.00  0.00     0.070 C 
HETATM   48  C19 UNL     1       2.121  51.565 -26.316  1.00  0.00     0.050 C 
HETATM   49  C20 UNL     1      -0.031  51.353 -27.543  1.00  0.00     0.050 C 
BRANCH  47  50
HETATM   50  O3  UNL     1       0.685  53.501 -26.916  1.00  0.00    -0.382 OA
HETATM   51  C21 UNL     1      -0.398  53.889 -27.742  1.00  0.00     0.202 C 
ENDBRANCH  47  50
ENDBRANCH  46  47
ENDBRANCH  44  45
ENDBRANCH  42  44
ENDBRANCH  12  42
TORSDOF 13
ENDMDL
