MODEL 1
REMARK minimizedAffinity -9.29972649
REMARK  8 active torsions:
REMARK  status: ('A' for Active; 'I' for Inactive)
REMARK    1  A    between atoms: C4_4  and  C5_5 
REMARK    2  A    between atoms: C5_5  and  C6_6 
REMARK    3  A    between atoms: C6_6  and  C7_7 
REMARK    4  A    between atoms: C7_7  and  C9_9 
REMARK    5  A    between atoms: C25_26  and  C27_28 
REMARK    6  A    between atoms: C27_28  and  O3_30 
REMARK    7  A    between atoms: C28_31  and  O4_32 
REMARK    8  A    between atoms: C30_34  and  O5_35 
ROOT
HETATM    1  C9  UNL     1      -6.134   6.902  14.308  1.00  0.00    -0.002 C 
HETATM    2  C10 UNL     1      -5.980   8.154  15.218  1.00  0.00     0.007 C 
HETATM    3  C11 UNL     1      -4.505   8.593  15.142  1.00  0.00     0.015 C 
HETATM    4  C12 UNL     1      -3.928   7.863  13.913  1.00  0.00    -0.005 C 
HETATM    5  C13 UNL     1      -4.328   8.697  12.655  1.00  0.00     0.021 C 
HETATM    6  C14 UNL     1      -2.423   7.655  13.764  1.00  0.00    -0.000 C 
HETATM    7  C15 UNL     1      -1.924   6.587  13.085  1.00  0.00    -0.058 C 
HETATM    8  C16 UNL     1      -2.874   5.520  12.512  1.00  0.00     0.036 C 
HETATM    9  C17 UNL     1      -4.383   5.674  12.784  1.00  0.00     0.015 C 
HETATM   10  C18 UNL     1      -4.656   6.465  14.064  1.00  0.00    -0.028 C 
HETATM   11  C19 UNL     1      -4.118   5.637  15.267  1.00  0.00     0.016 C 
HETATM   12  C20 UNL     1      -0.394   6.329  12.884  1.00  0.00     0.011 C 
HETATM   13  C21 UNL     1      -0.010   5.303  13.977  1.00  0.00     0.023 C 
HETATM   14  C22 UNL     1       0.371   7.689  13.013  1.00  0.00     0.029 C 
HETATM   15  C23 UNL     1      -0.014   8.438  14.289  1.00  0.00     0.090 C 
HETATM   16  C24 UNL     1      -1.500   8.672  14.364  1.00  0.00     0.157 C 
HETATM   17  O1  UNL     1      -1.933   9.660  14.959  1.00  0.00    -0.293 OA
HETATM   18  C25 UNL     1       1.929   7.649  12.763  1.00  0.00     0.072 C 
HETATM   19  C26 UNL     1       2.328   8.965  12.037  1.00  0.00     0.030 C 
HETATM   20  C28 UNL     1       2.339   6.419  11.907  1.00  0.00     0.139 C 
HETATM   21  C29 UNL     1       1.286   6.072  10.861  1.00  0.00     0.065 C 
HETATM   22  C30 UNL     1      -0.100   5.771  11.441  1.00  0.00     0.133 C 
ENDROOT
BRANCH   1  23
HETATM   23  C7  UNL     1      -7.263   5.946  14.800  1.00  0.00    -0.014 C 
HETATM   24  C8  UNL     1      -7.627   6.034  16.289  1.00  0.00     0.010 C 
BRANCH  23  25
HETATM   25  C6  UNL     1      -7.083   4.452  14.431  1.00  0.00     0.008 C 
BRANCH  25  26
HETATM   26  C5  UNL     1      -7.597   4.044  13.040  1.00  0.00     0.028 C 
BRANCH  26  27
HETATM   27  C4  UNL     1      -7.162   2.680  12.589  1.00  0.00    -0.025 C 
HETATM   28  C2  UNL     1      -6.276   2.366  11.622  1.00  0.00    -0.091 C 
HETATM   29  C1  UNL     1      -5.533   3.356  10.768  1.00  0.00     0.042 C 
HETATM   30  C3  UNL     1      -5.940   0.926  11.330  1.00  0.00     0.042 C 
ENDBRANCH  26  27
ENDBRANCH  25  26
ENDBRANCH  23  25
ENDBRANCH   1  23
BRANCH  22  31
HETATM   31  O5  UNL     1      -0.330   4.360  11.354  1.00  0.00    -0.394 OA
HETATM   32  H46 UNL     1       0.365   3.894  11.849  1.00  0.00     0.210 HD
ENDBRANCH  22  31
BRANCH  18  33
HETATM   33  C27 UNL     1       2.729   7.620  14.070  1.00  0.00     0.151 C 
HETATM   34  O2  UNL     1       3.490   8.472  14.493  1.00  0.00    -0.649 OA
BRANCH  33  35
HETATM   35  O3  UNL     1       2.496   6.535  14.831  1.00  0.00    -0.776 OA
HETATM   36  H40 UNL     1       3.079   6.677  15.609  1.00  0.00     0.167 HD
ENDBRANCH  33  35
ENDBRANCH  18  33
BRANCH  20  37
HETATM   37  O4  UNL     1       3.578   6.660  11.234  1.00  0.00    -0.394 OA
HETATM   38  H42 UNL     1       3.850   5.834  10.796  1.00  0.00     0.210 HD
ENDBRANCH  20  37
TORSDOF 8
ENDMDL
