MODEL 1
REMARK minimizedAffinity -6.63982153
REMARK CNNscore 0.537344277
REMARK CNNaffinity 6.32894087
REMARK  9 active torsions:
REMARK  status: ('A' for Active; 'I' for Inactive)
REMARK    1  A    between atoms: C2_2  and  C3_3 
REMARK    2  A    between atoms: C2_2  and  C9_12 
REMARK    3  A    between atoms: C3_3  and  C4_4 
REMARK    4  A    between atoms: C4_4  and  C5_5 
REMARK    5  A    between atoms: C5_5  and  O1_6 
REMARK    6  A    between atoms: C5_5  and  C6_7 
REMARK    7  A    between atoms: C6_7  and  O2_9 
REMARK    8  A    between atoms: C6_7  and  C8_10 
REMARK    9  A    between atoms: C8_10  and  O3_11 
ROOT
HETATM    1  C9  UNL     1      -9.305  -8.203  -3.627  1.00  0.00    -0.002 C 
HETATM    2  C10 UNL     1      -7.974  -8.043  -4.412  1.00  0.00     0.006 C 
HETATM    3  C11 UNL     1      -6.862  -8.678  -3.557  1.00  0.00     0.011 C 
HETATM    4  C12 UNL     1      -7.594  -9.458  -2.443  1.00  0.00    -0.032 C 
HETATM    5  C13 UNL     1      -7.964 -10.856  -3.032  1.00  0.00     0.016 C 
HETATM    6  C14 UNL     1      -6.769  -9.636  -1.140  1.00  0.00     0.004 C 
HETATM    7  C15 UNL     1      -5.627 -10.661  -1.244  1.00  0.00     0.007 C 
HETATM    8  C16 UNL     1      -4.811 -10.663   0.047  1.00  0.00     0.007 C 
HETATM    9  C17 UNL     1      -5.637 -11.246   1.205  1.00  0.00     0.010 C 
HETATM   10  C18 UNL     1      -4.918 -11.249   2.596  1.00  0.00     0.018 C 
HETATM   11  C19 UNL     1      -3.820 -12.327   2.623  1.00  0.00     0.023 C 
HETATM   12  C20 UNL     1      -4.286  -9.895   2.973  1.00  0.00     0.023 C 
HETATM   13  C21 UNL     1      -5.942 -11.616   3.686  1.00  0.00     0.135 C 
HETATM   14  O4  UNL     1      -5.752 -11.373   4.877  1.00  0.00    -0.297 OA
HETATM   15  C22 UNL     1      -7.185 -12.339   3.233  1.00  0.00     0.080 C 
HETATM   16  C23 UNL     1      -7.956 -11.469   2.249  1.00  0.00     0.018 C 
HETATM   17  C24 UNL     1      -7.048 -10.655   1.319  1.00  0.00    -0.026 A 
HETATM   18  C25 UNL     1      -7.248  -9.159   1.351  1.00  0.00     0.021 A 
HETATM   19  C26 UNL     1      -7.663  -9.912   0.097  1.00  0.00    -0.027 A 
HETATM   20  C27 UNL     1      -9.168 -10.088  -0.144  1.00  0.00     0.011 C 
HETATM   21  C28 UNL     1      -9.817  -9.277  -1.280  1.00  0.00     0.011 C 
HETATM   22  C29 UNL     1      -8.827  -8.516  -2.170  1.00  0.00    -0.032 C 
HETATM   23  C30 UNL     1      -8.454  -7.198  -1.438  1.00  0.00     0.016 C 
ENDROOT
BRANCH   1  24
HETATM   24  C2  UNL     1     -10.359  -7.114  -3.989  1.00  0.00    -0.014 C 
HETATM   25  C1  UNL     1     -11.688  -7.596  -4.584  1.00  0.00     0.010 C 
BRANCH  24  26
HETATM   26  C3  UNL     1      -9.743  -5.987  -4.854  1.00  0.00     0.007 C 
BRANCH  26  27
HETATM   27  C4  UNL     1     -10.294  -4.591  -4.514  1.00  0.00     0.035 C 
BRANCH  27  28
HETATM   28  C5  UNL     1      -9.612  -3.444  -5.280  1.00  0.00     0.154 C 
BRANCH  28  29
HETATM   29  O1  UNL     1      -8.292  -3.291  -4.737  1.00  0.00    -0.392 OA
HETATM   30  H10 UNL     1      -7.734  -4.013  -5.069  1.00  0.00     0.210 HD
ENDBRANCH  28  29
BRANCH  28  31
HETATM   31  C6  UNL     1     -10.360  -2.069  -5.190  1.00  0.00     0.101 C 
HETATM   32  C7  UNL     1      -9.328  -0.926  -5.124  1.00  0.00     0.051 C 
BRANCH  31  33
HETATM   33  O2  UNL     1     -11.143  -1.952  -3.988  1.00  0.00    -0.385 OA
HETATM   34  H14 UNL     1     -11.527  -2.823  -3.787  1.00  0.00     0.210 HD
ENDBRANCH  31  33
BRANCH  31  35
HETATM   35  C8  UNL     1     -11.300  -1.850  -6.396  1.00  0.00     0.204 C 
BRANCH  35  36
HETATM   36  O3  UNL     1     -10.902  -2.591  -7.547  1.00  0.00    -0.398 OA
HETATM   37  H17 UNL     1     -10.103  -2.167  -7.904  1.00  0.00     0.209 HD
ENDBRANCH  35  36
ENDBRANCH  31  35
ENDBRANCH  28  31
ENDBRANCH  27  28
ENDBRANCH  26  27
ENDBRANCH  24  26
ENDBRANCH   1  24
TORSDOF 9
ENDMDL
