MODEL 1
REMARK minimizedAffinity -7.95933676
REMARK CNNscore 0.427240789
REMARK CNNaffinity 6.42824936
REMARK  10 active torsions:
REMARK  status: ('A' for Active; 'I' for Inactive)
REMARK    1  A    between atoms: C2_2  and  C4_4 
REMARK    2  A    between atoms: C7_7  and  C8_8 
REMARK    3  A    between atoms: C8_8  and  O2_10 
REMARK    4  A    between atoms: C21_23  and  O3_24 
REMARK    5  A    between atoms: O3_24  and  C22_25 
REMARK    6  A    between atoms: C24_28  and  O5_29 
REMARK    7  A    between atoms: C25_30  and  O6_31 
REMARK    8  A    between atoms: C26_32  and  O7_33 
REMARK    9  A    between atoms: C27_34  and  C29_36 
REMARK   10  A    between atoms: C29_36  and  O8_37 
ROOT
HETATM    1  C4  UNL     1     -13.568   8.320  13.375  1.00  0.00     0.019 C 
HETATM    2  C5  UNL     1     -13.778   9.805  12.973  1.00  0.00     0.011 C 
HETATM    3  C6  UNL     1     -15.282  10.103  13.122  1.00  0.00     0.021 C 
HETATM    4  C7  UNL     1     -15.951   8.727  13.052  1.00  0.00     0.050 C 
HETATM    5  C9  UNL     1     -17.340   8.630  13.698  1.00  0.00     0.022 C 
HETATM    6  C10 UNL     1     -17.808   7.160  13.755  1.00  0.00     0.011 C 
HETATM    7  C11 UNL     1     -16.817   6.175  14.479  1.00  0.00    -0.032 C 
HETATM    8  C12 UNL     1     -16.865   6.571  15.988  1.00  0.00     0.016 C 
HETATM    9  C13 UNL     1     -15.360   6.393  13.892  1.00  0.00     0.000 C 
HETATM   10  C14 UNL     1     -14.332   5.467  14.553  1.00  0.00     0.006 C 
HETATM   11  C15 UNL     1     -14.712   3.996  14.386  1.00  0.00     0.006 C 
HETATM   12  C16 UNL     1     -16.121   3.680  14.935  1.00  0.00     0.003 C 
HETATM   13  C17 UNL     1     -16.449   2.119  15.031  1.00  0.00    -0.035 C 
HETATM   14  C18 UNL     1     -16.381   1.431  13.647  1.00  0.00     0.016 C 
HETATM   15  C19 UNL     1     -15.373   1.444  15.950  1.00  0.00     0.012 C 
HETATM   16  C20 UNL     1     -15.881   0.347  16.894  1.00  0.00     0.034 C 
HETATM   17  C21 UNL     1     -17.074  -0.445  16.367  1.00  0.00     0.135 C 
HETATM   18  C27 UNL     1     -18.301   0.491  16.079  1.00  0.00     0.008 C 
HETATM   19  C28 UNL     1     -19.207  -0.143  14.998  1.00  0.00     0.020 C 
HETATM   20  C30 UNL     1     -17.849   1.967  15.724  1.00  0.00     0.007 C 
HETATM   21  C31 UNL     1     -18.941   2.794  15.010  1.00  0.00     0.007 C 
HETATM   22  C32 UNL     1     -18.589   4.286  14.970  1.00  0.00     0.011 C 
HETATM   23  C33 UNL     1     -17.232   4.607  14.281  1.00  0.00    -0.032 C 
HETATM   24  C34 UNL     1     -17.412   4.304  12.763  1.00  0.00     0.016 C 
HETATM   25  C35 UNL     1     -14.962   7.888  13.899  1.00  0.00     0.017 C 
ENDROOT
BRANCH  17  26
HETATM   26  O3  UNL     1     -16.733  -1.179  15.187  1.00  0.00    -0.352 OA
BRANCH  26  27
HETATM   27  C22 UNL     1     -16.358  -2.541  15.398  1.00  0.00     0.291 C 
HETATM   28  O4  UNL     1     -15.204  -2.650  16.231  1.00  0.00    -0.356 OA
HETATM   29  C23 UNL     1     -13.979  -2.517  15.512  1.00  0.00     0.205 C 
HETATM   30  C24 UNL     1     -13.778  -3.658  14.506  1.00  0.00     0.173 C 
HETATM   31  C25 UNL     1     -15.118  -4.258  14.059  1.00  0.00     0.182 C 
HETATM   32  C26 UNL     1     -16.178  -3.167  13.995  1.00  0.00     0.204 C 
BRANCH  30  33
HETATM   33  O5  UNL     1     -13.061  -3.161  13.366  1.00  0.00    -0.391 OA
HETATM   34  H37 UNL     1     -13.286  -3.786  12.641  1.00  0.00     0.210 HD
ENDBRANCH  30  33
BRANCH  31  35
HETATM   35  O6  UNL     1     -14.954  -4.875  12.769  1.00  0.00    -0.390 OA
HETATM   36  H39 UNL     1     -15.869  -5.091  12.484  1.00  0.00     0.210 HD
ENDBRANCH  31  35
BRANCH  32  37
HETATM   37  O7  UNL     1     -17.414  -3.728  13.505  1.00  0.00    -0.388 OA
HETATM   38  H41 UNL     1     -18.099  -3.060  13.687  1.00  0.00     0.210 HD
ENDBRANCH  32  37
ENDBRANCH  26  27
ENDBRANCH  17  26
BRANCH  18  39
HETATM   39  C29 UNL     1     -19.150   0.582  17.393  1.00  0.00     0.176 C 
BRANCH  39  40
HETATM   40  O8  UNL     1     -19.117  -0.634  18.137  1.00  0.00    -0.400 OA
HETATM   41  H47 UNL     1     -19.875  -1.171  17.846  1.00  0.00     0.209 HD
ENDBRANCH  39  40
ENDBRANCH  18  39
BRANCH   1  42
HETATM   42  C2  UNL     1     -12.352   8.176  14.280  1.00  0.00    -0.088 C 
HETATM   43  C1  UNL     1     -11.217   7.530  13.956  1.00  0.00     0.014 C 
HETATM   44  C3  UNL     1     -12.484   8.854  15.622  1.00  0.00     0.043 C 
ENDBRANCH   1  42
BRANCH   4  45
HETATM   45  C8  UNL     1     -16.041   8.350  11.566  1.00  0.00     0.149 C 
HETATM   46  O1  UNL     1     -16.422   9.044  10.638  1.00  0.00    -0.649 OA
BRANCH  45  47
HETATM   47  O2  UNL     1     -15.686   7.068  11.324  1.00  0.00    -0.776 OA
HETATM   48  H11 UNL     1     -15.815   6.974  10.359  1.00  0.00     0.167 HD
ENDBRANCH  45  47
ENDBRANCH   4  45
TORSDOF 10
ENDMDL
