MODEL 1
REMARK minimizedAffinity -7.20223236
REMARK CNNscore 0.792023182
REMARK CNNaffinity 7.10606337
REMARK  6 active torsions:
REMARK  status: ('A' for Active; 'I' for Inactive)
REMARK    1  A    between atoms: C2_2  and  C30_31 
REMARK    2  A    between atoms: C3_3  and  C4_4 
REMARK    3  A    between atoms: C4_4  and  C5_5 
REMARK    4  A    between atoms: C5_5  and  C6_6 
REMARK    5  A    between atoms: C6_6  and  C8_8 
REMARK    6  A    between atoms: C30_31  and  O2_32 
ROOT
HETATM    1  C8  UNL     1       3.971  55.142  -8.613  1.00  0.00    -0.002 C 
HETATM    2  C9  UNL     1       4.168  56.126  -9.814  1.00  0.00     0.006 C 
HETATM    3  C10 UNL     1       2.926  56.018 -10.718  1.00  0.00     0.011 C 
HETATM    4  C11 UNL     1       2.431  54.595 -10.454  1.00  0.00    -0.032 C 
HETATM    5  C12 UNL     1       3.422  53.639 -11.217  1.00  0.00     0.016 C 
HETATM    6  C13 UNL     1       1.028  54.209 -10.991  1.00  0.00     0.004 C 
HETATM    7  C14 UNL     1      -0.182  55.165 -10.705  1.00  0.00     0.007 C 
HETATM    8  C15 UNL     1      -1.463  54.465 -10.142  1.00  0.00     0.007 C 
HETATM    9  C16 UNL     1      -1.805  53.213 -10.961  1.00  0.00     0.010 C 
HETATM   10  C17 UNL     1      -2.923  52.228 -10.615  1.00  0.00     0.018 C 
HETATM   11  C18 UNL     1      -4.286  52.931 -10.584  1.00  0.00     0.023 C 
HETATM   12  C19 UNL     1      -2.686  51.527  -9.274  1.00  0.00     0.023 C 
HETATM   13  C20 UNL     1      -2.938  51.180 -11.763  1.00  0.00     0.135 C 
HETATM   14  O1  UNL     1      -3.584  50.133 -11.661  1.00  0.00    -0.297 OA
HETATM   15  C21 UNL     1      -2.221  51.515 -13.091  1.00  0.00     0.080 C 
HETATM   16  C22 UNL     1      -0.839  52.203 -12.939  1.00  0.00     0.018 C 
HETATM   17  C23 UNL     1      -0.595  52.445 -11.458  1.00  0.00    -0.026 A 
HETATM   18  C24 UNL     1       0.474  51.470 -11.080  1.00  0.00     0.021 A 
HETATM   19  C25 UNL     1       0.642  52.821 -10.503  1.00  0.00    -0.027 A 
HETATM   20  C26 UNL     1       0.836  52.618  -8.980  1.00  0.00     0.011 C 
HETATM   21  C27 UNL     1       2.233  53.058  -8.478  1.00  0.00     0.011 C 
HETATM   22  C28 UNL     1       2.552  54.507  -8.888  1.00  0.00    -0.032 C 
HETATM   23  C29 UNL     1       1.585  55.421  -8.069  1.00  0.00     0.016 C 
ENDROOT
BRANCH   1  24
HETATM   24  C6  UNL     1       5.150  54.172  -8.297  1.00  0.00    -0.014 C 
HETATM   25  C7  UNL     1       6.269  54.272  -9.349  1.00  0.00     0.010 C 
BRANCH  24  26
HETATM   26  C5  UNL     1       5.756  54.490  -6.899  1.00  0.00     0.008 C 
BRANCH  26  27
HETATM   27  C4  UNL     1       6.489  55.836  -6.811  1.00  0.00     0.028 C 
BRANCH  27  28
HETATM   28  C3  UNL     1       7.866  55.754  -6.216  1.00  0.00    -0.022 C 
HETATM   29  C2  UNL     1       8.370  56.505  -5.215  1.00  0.00    -0.064 C 
HETATM   30  C1  UNL     1       7.633  57.628  -4.534  1.00  0.00     0.045 C 
BRANCH  29  31
HETATM   31  C30 UNL     1       9.774  56.282  -4.713  1.00  0.00     0.197 C 
BRANCH  31  32
HETATM   32  O2  UNL     1      10.651  56.146  -5.821  1.00  0.00    -0.397 OA
HETATM   33  H48 UNL     1      10.455  56.887  -6.420  1.00  0.00     0.209 HD
ENDBRANCH  31  32
ENDBRANCH  29  31
ENDBRANCH  27  28
ENDBRANCH  26  27
ENDBRANCH  24  26
ENDBRANCH   1  24
TORSDOF 6
ENDMDL
