MODEL 1
REMARK minimizedAffinity -3.64752889
REMARK  3 active torsions:
REMARK  status: ('A' for Active; 'I' for Inactive)
REMARK    1  A    between atoms: N1_2  and  C4_5 
REMARK    2  A    between atoms: C4_5  and  C5_6 
REMARK    3  A    between atoms: C5_6  and  O2_8 
ROOT
HETATM    1  C4  UNL     1       3.835   5.550   9.917  1.00  0.00     0.345 C 
ENDROOT
BRANCH   1   2
HETATM    2  N1  UNL     1       2.857   6.581   9.258  1.00  0.00    -0.069 N 
HETATM    3  C1  UNL     1       2.561   6.189   7.815  1.00  0.00     0.272 C 
HETATM    4  C2  UNL     1       3.455   7.983   9.293  1.00  0.00     0.272 C 
HETATM    5  C3  UNL     1       1.556   6.576  10.051  1.00  0.00     0.272 C 
ENDBRANCH   1   2
BRANCH   1   6
HETATM    6  C5  UNL     1       3.836   4.133   9.348  1.00  0.00     0.166 C 
HETATM    7  O1  UNL     1       4.549   3.705   8.457  1.00  0.00    -0.649 OA
BRANCH   6   8
HETATM    8  O2  UNL     1       2.926   3.345   9.951  1.00  0.00    -0.775 OA
HETATM    9  H12 UNL     1       2.996   2.461   9.525  1.00  0.00     0.167 HD
ENDBRANCH   6   8
ENDBRANCH   1   6
TORSDOF 3
ENDMDL
