MODEL 1
REMARK minimizedAffinity -8.29194069
REMARK CNNscore 0.889709175
REMARK CNNaffinity 6.80239868
REMARK  8 active torsions:
REMARK  status: ('A' for Active; 'I' for Inactive)
REMARK    1  A    between atoms: C2_2  and  C30_35 
REMARK    2  A    between atoms: C3_3  and  C4_4 
REMARK    3  A    between atoms: C4_4  and  O1_5 
REMARK    4  A    between atoms: C4_4  and  C5_6 
REMARK    5  A    between atoms: C5_6  and  C6_7 
REMARK    6  A    between atoms: C6_7  and  C8_9 
REMARK    7  A    between atoms: C10_11  and  O2_12 
REMARK    8  A    between atoms: C30_35  and  O7_37 
ROOT
HETATM    1  C8  UNL     1       5.002  56.016  -8.366  1.00  0.00     0.001 C 
HETATM    2  C9  UNL     1       5.809  55.071  -9.301  1.00  0.00     0.038 C 
HETATM    3  C10 UNL     1       4.799  54.290 -10.165  1.00  0.00     0.132 C 
HETATM    4  C11 UNL     1       3.428  54.964  -9.890  1.00  0.00     0.021 C 
HETATM    5  C12 UNL     1       3.342  56.170 -10.882  1.00  0.00     0.024 C 
HETATM    6  C13 UNL     1       2.109  54.225 -10.078  1.00  0.00     0.010 C 
HETATM    7  C14 UNL     1       0.972  54.576  -9.427  1.00  0.00     0.007 C 
HETATM    8  C15 UNL     1       1.072  55.693  -8.395  1.00  0.00     0.157 C 
HETATM    9  O3  UNL     1       0.060  56.132  -7.848  1.00  0.00    -0.293 OA
HETATM   10  C16 UNL     1       2.421  56.298  -8.025  1.00  0.00     0.094 C 
HETATM   11  C17 UNL     1       3.582  55.368  -8.375  1.00  0.00    -0.019 C 
HETATM   12  C18 UNL     1       3.547  54.163  -7.386  1.00  0.00     0.017 C 
HETATM   13  C19 UNL     1      -0.415  53.918  -9.650  1.00  0.00    -0.007 C 
HETATM   14  C20 UNL     1      -0.689  53.039  -8.407  1.00  0.00     0.021 C 
HETATM   15  C21 UNL     1      -1.557  54.981  -9.781  1.00  0.00     0.022 C 
HETATM   16  C22 UNL     1      -2.735  54.603 -10.674  1.00  0.00     0.080 C 
HETATM   17  C23 UNL     1      -2.920  53.110 -10.761  1.00  0.00     0.135 C 
HETATM   18  O4  UNL     1      -3.995  52.587 -10.476  1.00  0.00    -0.297 OA
HETATM   19  C24 UNL     1      -1.730  52.310 -11.301  1.00  0.00     0.018 C 
HETATM   20  C25 UNL     1      -1.772  50.877 -10.735  1.00  0.00     0.023 C 
HETATM   21  C26 UNL     1      -1.924  52.209 -12.830  1.00  0.00     0.023 C 
HETATM   22  C27 UNL     1      -0.407  53.090 -10.985  1.00  0.00     0.021 C 
HETATM   23  C28 UNL     1       0.842  52.219 -11.086  1.00  0.00     0.090 C 
HETATM   24  C29 UNL     1       2.071  53.084 -11.044  1.00  0.00     0.157 C 
HETATM   25  O5  UNL     1       3.042  52.819 -11.751  1.00  0.00    -0.293 OA
ENDROOT
BRANCH   1  26
HETATM   26  C6  UNL     1       5.732  56.266  -7.016  1.00  0.00    -0.011 C 
HETATM   27  C7  UNL     1       5.636  57.722  -6.548  1.00  0.00     0.010 C 
BRANCH  26  28
HETATM   28  C5  UNL     1       7.224  55.811  -7.013  1.00  0.00     0.040 C 
BRANCH  28  29
HETATM   29  C4  UNL     1       7.890  55.633  -5.636  1.00  0.00     0.142 C 
BRANCH  29  30
HETATM   30  C3  UNL     1       8.869  56.741  -5.366  1.00  0.00     0.018 C 
HETATM   31  C2  UNL     1      10.172  56.635  -5.033  1.00  0.00     0.010 C 
HETATM   32  C1  UNL     1      10.945  55.364  -4.859  1.00  0.00     0.055 C 
BRANCH  31  33
HETATM   33  C30 UNL     1      10.890  57.914  -4.795  1.00  0.00     0.171 C 
HETATM   34  O6  UNL     1      11.966  58.052  -4.239  1.00  0.00    -0.646 OA
BRANCH  33  35
HETATM   35  O7  UNL     1      10.226  58.973  -5.281  1.00  0.00    -0.773 OA
HETATM   36  H42 UNL     1      10.810  59.730  -5.066  1.00  0.00     0.167 HD
ENDBRANCH  33  35
ENDBRANCH  31  33
ENDBRANCH  29  30
BRANCH  29  37
HETATM   37  O1  UNL     1       6.914  55.679  -4.601  1.00  0.00    -0.392 OA
HETATM   38  H6  UNL     1       6.642  56.605  -4.488  1.00  0.00     0.210 HD
ENDBRANCH  29  37
ENDBRANCH  28  29
ENDBRANCH  26  28
ENDBRANCH   1  26
BRANCH   3  39
HETATM   39  O2  UNL     1       4.828  52.922  -9.774  1.00  0.00    -0.394 OA
HETATM   40  H17 UNL     1       4.472  52.430 -10.542  1.00  0.00     0.210 HD
ENDBRANCH   3  39
TORSDOF 8
ENDMDL
