MODEL 1
REMARK minimizedAffinity -9.38834763
REMARK  4 active torsions:
REMARK  status: ('A' for Active; 'I' for Inactive)
REMARK    1  A    between atoms: C4_4  and  C5_5 
REMARK    2  A    between atoms: C5_5  and  C6_6 
REMARK    3  A    between atoms: C6_6  and  C7_7 
REMARK    4  A    between atoms: C7_7  and  C9_9 
ROOT
HETATM    1  C9  UNL     1       0.706   5.971  11.750  1.00  0.00    -0.002 C 
HETATM    2  C10 UNL     1       0.857   4.443  11.521  1.00  0.00     0.006 C 
HETATM    3  C11 UNL     1      -0.458   3.777  11.956  1.00  0.00     0.011 C 
HETATM    4  C12 UNL     1      -1.451   4.934  12.175  1.00  0.00    -0.032 C 
HETATM    5  C13 UNL     1      -2.083   5.261  10.785  1.00  0.00     0.016 C 
HETATM    6  C14 UNL     1      -2.565   4.632  13.213  1.00  0.00     0.004 C 
HETATM    7  C15 UNL     1      -3.505   3.487  12.787  1.00  0.00     0.007 C 
HETATM    8  C16 UNL     1      -4.966   3.879  12.600  1.00  0.00     0.007 C 
HETATM    9  C17 UNL     1      -5.501   4.499  13.904  1.00  0.00     0.010 C 
HETATM   10  C18 UNL     1      -7.059   4.588  13.991  1.00  0.00     0.018 C 
HETATM   11  C19 UNL     1      -7.501   4.790  15.457  1.00  0.00     0.023 C 
HETATM   12  C20 UNL     1      -7.740   3.291  13.501  1.00  0.00     0.023 C 
HETATM   13  C21 UNL     1      -7.603   5.754  13.157  1.00  0.00     0.135 C 
HETATM   14  O1  UNL     1      -8.766   5.773  12.745  1.00  0.00    -0.297 OA
HETATM   15  C22 UNL     1      -6.674   6.896  12.834  1.00  0.00     0.080 C 
HETATM   16  C23 UNL     1      -5.667   7.078  13.949  1.00  0.00     0.018 C 
HETATM   17  C24 UNL     1      -4.783   5.849  14.101  1.00  0.00    -0.026 A 
HETATM   18  C25 UNL     1      -3.713   5.917  15.160  1.00  0.00     0.021 A 
HETATM   19  C26 UNL     1      -3.276   5.923  13.705  1.00  0.00    -0.027 A 
HETATM   20  C27 UNL     1      -2.748   7.264  13.165  1.00  0.00     0.011 C 
HETATM   21  C28 UNL     1      -1.275   7.373  12.742  1.00  0.00     0.011 C 
HETATM   22  C29 UNL     1      -0.503   6.054  12.739  1.00  0.00    -0.032 C 
HETATM   23  C30 UNL     1      -0.005   5.792  14.192  1.00  0.00     0.016 C 
ENDROOT
BRANCH   1  24
HETATM   24  C7  UNL     1       2.057   6.647  12.119  1.00  0.00    -0.014 C 
HETATM   25  C8  UNL     1       1.910   7.676  13.247  1.00  0.00     0.010 C 
BRANCH  24  26
HETATM   26  C6  UNL     1       2.760   7.303  10.900  1.00  0.00     0.008 C 
BRANCH  26  27
HETATM   27  C5  UNL     1       3.438   6.328   9.931  1.00  0.00     0.028 C 
BRANCH  27  28
HETATM   28  C4  UNL     1       2.704   6.279   8.618  1.00  0.00    -0.025 C 
HETATM   29  C2  UNL     1       2.519   7.285   7.741  1.00  0.00    -0.091 C 
HETATM   30  C1  UNL     1       1.724   7.069   6.480  1.00  0.00     0.042 C 
HETATM   31  C3  UNL     1       3.067   8.678   7.895  1.00  0.00     0.042 C 
ENDBRANCH  27  28
ENDBRANCH  26  27
ENDBRANCH  24  26
ENDBRANCH   1  24
TORSDOF 4
ENDMDL
