MODEL 1
REMARK minimizedAffinity -6.62547255
REMARK CNNscore 0.483046651
REMARK CNNaffinity 6.220541
REMARK  10 active torsions:
REMARK  status: ('A' for Active; 'I' for Inactive)
REMARK    1  A    between atoms: C2_2  and  C3_3 
REMARK    2  A    between atoms: C4_4  and  O1_5 
REMARK    3  A    between atoms: C12_13  and  C13_14 
REMARK    4  A    between atoms: C13_14  and  C15_16 
REMARK    5  A    between atoms: C15_16  and  C16_17 
REMARK    6  A    between atoms: C16_17  and  C17_18 
REMARK    7  A    between atoms: C26_27  and  C27_28 
REMARK    8  A    between atoms: C27_28  and  C28_29 
REMARK    9  A    between atoms: C28_29  and  C29_30 
REMARK   10  A    between atoms: C29_30  and  O3_32 
ROOT
HETATM    1  C3  UNL     1      -9.960  47.084 -37.156  1.00  0.00     0.045 C 
HETATM    2  C4  UNL     1      -8.462  47.357 -36.884  1.00  0.00     0.127 C 
HETATM    3  C5  UNL     1      -8.222  47.707 -35.422  1.00  0.00     0.038 C 
HETATM    4  C6  UNL     1      -8.475  46.480 -34.542  1.00  0.00     0.006 C 
HETATM    5  C7  UNL     1      -9.920  45.956 -34.714  1.00  0.00    -0.027 A 
HETATM    6  C8  UNL     1     -10.754  45.822 -33.435  1.00  0.00     0.011 C 
HETATM    7  C9  UNL     1     -10.029  45.370 -32.153  1.00  0.00     0.011 C 
HETATM    8  C10 UNL     1      -8.498  45.416 -32.223  1.00  0.00    -0.032 C 
HETATM    9  C11 UNL     1      -8.005  44.071 -32.841  1.00  0.00     0.016 C 
HETATM   10  C12 UNL     1      -7.740  45.660 -30.873  1.00  0.00    -0.002 C 
HETATM   11  C21 UNL     1      -6.380  46.225 -31.361  1.00  0.00     0.006 C 
HETATM   12  C22 UNL     1      -6.566  46.733 -32.800  1.00  0.00     0.011 C 
HETATM   13  C23 UNL     1      -8.084  46.686 -33.053  1.00  0.00    -0.032 C 
HETATM   14  C24 UNL     1      -8.657  48.035 -32.513  1.00  0.00     0.016 C 
HETATM   15  C25 UNL     1     -10.106  44.863 -35.748  1.00  0.00     0.022 A 
HETATM   16  C26 UNL     1     -10.659  46.235 -36.066  1.00  0.00    -0.022 A 
ENDROOT
BRANCH  10  17
HETATM   17  C13 UNL     1      -7.584  44.502 -29.838  1.00  0.00    -0.014 C 
HETATM   18  C14 UNL     1      -8.873  43.672 -29.722  1.00  0.00     0.010 C 
BRANCH  17  19
HETATM   19  C15 UNL     1      -7.239  45.024 -28.413  1.00  0.00     0.008 C 
BRANCH  19  20
HETATM   20  C16 UNL     1      -7.711  46.454 -28.125  1.00  0.00     0.028 C 
BRANCH  20  21
HETATM   21  C17 UNL     1      -6.870  47.102 -27.057  1.00  0.00    -0.025 C 
HETATM   22  C18 UNL     1      -5.716  47.777 -27.221  1.00  0.00    -0.091 C 
HETATM   23  C19 UNL     1      -4.974  48.332 -26.033  1.00  0.00     0.042 C 
HETATM   24  C20 UNL     1      -5.065  48.060 -28.547  1.00  0.00     0.042 C 
ENDBRANCH  20  21
ENDBRANCH  19  20
ENDBRANCH  17  19
ENDBRANCH  10  17
BRANCH  16  25
HETATM   25  C27 UNL     1     -12.188  46.419 -36.070  1.00  0.00     0.021 C 
BRANCH  25  26
HETATM   26  C28 UNL     1     -12.759  46.808 -37.435  1.00  0.00     0.111 C 
BRANCH  26  27
HETATM   27  C29 UNL     1     -13.644  48.020 -37.330  1.00  0.00     0.139 C 
HETATM   28  O2  UNL     1     -14.843  48.052 -37.117  1.00  0.00    -0.650 OA
BRANCH  27  29
HETATM   29  O3  UNL     1     -12.951  49.164 -37.503  1.00  0.00    -0.776 OA
HETATM   30  H46 UNL     1     -13.626  49.866 -37.407  1.00  0.00     0.167 HD
ENDBRANCH  27  29
ENDBRANCH  26  27
ENDBRANCH  25  26
ENDBRANCH  16  25
BRANCH   2  31
HETATM   31  O1  UNL     1      -8.008  48.474 -37.662  1.00  0.00    -0.395 OA
HETATM   32  H6  UNL     1      -8.206  48.272 -38.593  1.00  0.00     0.210 HD
ENDBRANCH   2  31
BRANCH   1  33
HETATM   33  C2  UNL     1     -10.112  46.497 -38.551  1.00  0.00    -0.029 C 
HETATM   34  C1  UNL     1      -9.761  45.250 -38.893  1.00  0.00     0.007 C 
ENDBRANCH   1  33
TORSDOF 10
ENDMDL
