MODEL 1
REMARK minimizedAffinity -9.32088375
REMARK  8 active torsions:
REMARK  status: ('A' for Active; 'I' for Inactive)
REMARK    1  A    between atoms: C4_4  and  C5_5 
REMARK    2  A    between atoms: C5_5  and  C6_6 
REMARK    3  A    between atoms: C6_6  and  C7_7 
REMARK    4  A    between atoms: C7_7  and  C9_9 
REMARK    5  A    between atoms: C22_22  and  O1_23 
REMARK    6  A    between atoms: C24_25  and  O2_26 
REMARK    7  A    between atoms: C25_27  and  C27_29 
REMARK    8  A    between atoms: C27_29  and  O4_31 
ROOT
HETATM    1  C9  UNL     1      -5.500   6.683  15.076  1.00  0.00    -0.002 C 
HETATM    2  C10 UNL     1      -5.840   5.436  14.232  1.00  0.00     0.007 C 
HETATM    3  C11 UNL     1      -4.625   5.183  13.304  1.00  0.00     0.015 C 
HETATM    4  C12 UNL     1      -3.475   6.020  13.904  1.00  0.00    -0.005 C 
HETATM    5  C13 UNL     1      -2.870   5.183  15.076  1.00  0.00     0.021 C 
HETATM    6  C14 UNL     1      -2.261   6.427  13.072  1.00  0.00    -0.000 C 
HETATM    7  C15 UNL     1      -1.600   7.594  13.308  1.00  0.00    -0.058 C 
HETATM    8  C16 UNL     1      -2.100   8.572  14.391  1.00  0.00     0.036 C 
HETATM    9  C17 UNL     1      -3.376   8.190  15.171  1.00  0.00     0.015 C 
HETATM   10  C18 UNL     1      -4.293   7.310  14.320  1.00  0.00    -0.028 C 
HETATM   11  C19 UNL     1      -4.765   8.141  13.087  1.00  0.00     0.016 C 
HETATM   12  C20 UNL     1      -0.374   8.065  12.461  1.00  0.00     0.011 C 
HETATM   13  C21 UNL     1      -0.977   8.986  11.375  1.00  0.00     0.023 C 
HETATM   14  C22 UNL     1       0.679   8.824  13.348  1.00  0.00     0.133 C 
HETATM   15  C23 UNL     1       2.127   8.842  12.841  1.00  0.00     0.065 C 
HETATM   16  C24 UNL     1       2.280   8.471  11.372  1.00  0.00     0.139 C 
HETATM   17  C25 UNL     1       1.654   7.091  11.023  1.00  0.00     0.072 C 
HETATM   18  C26 UNL     1       2.676   5.959  11.318  1.00  0.00     0.030 C 
HETATM   19  C28 UNL     1       0.347   6.811  11.867  1.00  0.00     0.029 C 
HETATM   20  C29 UNL     1      -0.630   5.889  11.137  1.00  0.00     0.090 C 
HETATM   21  C30 UNL     1      -1.821   5.506  11.979  1.00  0.00     0.157 C 
HETATM   22  O5  UNL     1      -2.440   4.473  11.719  1.00  0.00    -0.293 OA
ENDROOT
BRANCH   1  23
HETATM   23  C7  UNL     1      -6.684   7.534  15.610  1.00  0.00    -0.014 C 
HETATM   24  C8  UNL     1      -7.374   6.787  16.766  1.00  0.00     0.010 C 
BRANCH  23  25
HETATM   25  C6  UNL     1      -7.735   8.154  14.658  1.00  0.00     0.008 C 
BRANCH  25  26
HETATM   26  C5  UNL     1      -8.915   8.972  15.199  1.00  0.00     0.028 C 
BRANCH  26  27
HETATM   27  C4  UNL     1     -10.258   8.318  15.046  1.00  0.00    -0.025 C 
HETATM   28  C2  UNL     1     -10.569   7.224  14.318  1.00  0.00    -0.091 C 
HETATM   29  C1  UNL     1     -11.980   6.695  14.291  1.00  0.00     0.042 C 
HETATM   30  C3  UNL     1      -9.605   6.432  13.476  1.00  0.00     0.042 C 
ENDBRANCH  26  27
ENDBRANCH  25  26
ENDBRANCH  23  25
ENDBRANCH   1  23
BRANCH  14  31
HETATM   31  O1  UNL     1       0.274  10.176  13.607  1.00  0.00    -0.394 OA
HETATM   32  H35 UNL     1       0.449  10.714  12.820  1.00  0.00     0.210 HD
ENDBRANCH  14  31
BRANCH  17  33
HETATM   33  C27 UNL     1       1.349   7.127   9.521  1.00  0.00     0.151 C 
HETATM   34  O3  UNL     1       0.641   7.946   8.959  1.00  0.00    -0.649 OA
BRANCH  33  35
HETATM   35  O4  UNL     1       1.869   6.102   8.819  1.00  0.00    -0.776 OA
HETATM   36  H43 UNL     1       1.566   6.237   7.894  1.00  0.00     0.167 HD
ENDBRANCH  33  35
ENDBRANCH  17  33
BRANCH  16  37
HETATM   37  O2  UNL     1       3.678   8.507  11.062  1.00  0.00    -0.394 OA
HETATM   38  H39 UNL     1       3.773   8.802  10.141  1.00  0.00     0.210 HD
ENDBRANCH  16  37
TORSDOF 8
ENDMDL
