MODEL 1
REMARK minimizedAffinity -9.62365723
REMARK  5 active torsions:
REMARK  status: ('A' for Active; 'I' for Inactive)
REMARK    1  A    between atoms: O1_1  and  C1_2 
REMARK    2  A    between atoms: C4_5  and  C5_6 
REMARK    3  A    between atoms: C9_10  and  O2_11 
REMARK    4  A    between atoms: C13_16  and  C14_17 
REMARK    5  A    between atoms: C18_21  and  O4_22 
ROOT
HETATM    1  C5  UNL     1      -1.880  50.769 -23.064  1.00  0.00     0.065 C 
HETATM    2  C6  UNL     1      -0.995  51.683 -22.224  1.00  0.00    -0.015 A 
HETATM    3  C7  UNL     1      -1.353  52.009 -20.904  1.00  0.00     0.013 A 
HETATM    4  C8  UNL     1      -0.534  52.830 -20.126  1.00  0.00     0.037 A 
HETATM    5  C9  UNL     1       0.642  53.335 -20.664  1.00  0.00     0.068 A 
HETATM    6  C10 UNL     1       1.005  53.046 -21.973  1.00  0.00     0.073 A 
HETATM    7  C11 UNL     1       0.174  52.241 -22.756  1.00  0.00     0.078 A 
HETATM    8  O3  UNL     1       0.595  52.030 -24.042  1.00  0.00    -0.350 OA
HETATM    9  C12 UNL     1      -0.466  51.667 -24.930  1.00  0.00     0.186 C 
HETATM   10  C13 UNL     1      -1.215  50.432 -24.425  1.00  0.00     0.056 C 
ENDROOT
BRANCH   1  11
HETATM   11  C4  UNL     1      -2.292  49.486 -22.340  1.00  0.00    -0.049 A 
HETATM   12  C3  UNL     1      -3.647  49.243 -22.063  1.00  0.00     0.011 A 
HETATM   13  C2  UNL     1      -4.040  48.071 -21.415  1.00  0.00     0.037 A 
HETATM   14  C1  UNL     1      -3.085  47.136 -21.041  1.00  0.00     0.065 A 
HETATM   15  C21 UNL     1      -1.736  47.350 -21.308  1.00  0.00     0.037 A 
HETATM   16  C20 UNL     1      -1.342  48.522 -21.957  1.00  0.00     0.011 A 
BRANCH  14  17
HETATM   17  O1  UNL     1      -3.512  46.007 -20.409  1.00  0.00    -0.361 OA
HETATM   18  H1  UNL     1      -2.741  45.446 -20.227  1.00  0.00     0.217 HD
ENDBRANCH  14  17
ENDBRANCH   1  11
BRANCH  10  19
HETATM   19  C14 UNL     1      -2.204  49.915 -25.461  1.00  0.00    -0.048 A 
HETATM   20  C15 UNL     1      -2.974  48.761 -25.244  1.00  0.00     0.008 A 
HETATM   21  C16 UNL     1      -3.867  48.308 -26.219  1.00  0.00     0.003 A 
HETATM   22  C17 UNL     1      -4.003  48.998 -27.423  1.00  0.00     0.036 A 
HETATM   23  C18 UNL     1      -3.240  50.138 -27.642  1.00  0.00     0.066 A 
HETATM   24  C19 UNL     1      -2.348  50.598 -26.678  1.00  0.00     0.044 A 
BRANCH  23  25
HETATM   25  O4  UNL     1      -3.338  50.845 -28.805  1.00  0.00    -0.361 OA
HETATM   26  H15 UNL     1      -3.960  50.388 -29.393  1.00  0.00     0.217 HD
ENDBRANCH  23  25
ENDBRANCH  10  19
BRANCH   5  27
HETATM   27  O2  UNL     1       1.418  54.124 -19.867  1.00  0.00    -0.361 OA
HETATM   28  H7  UNL     1       2.204  54.392 -20.372  1.00  0.00     0.217 HD
ENDBRANCH   5  27
TORSDOF 5
ENDMDL
