MODEL 1
REMARK minimizedAffinity -7.9965148
REMARK CNNscore 0.656196415
REMARK CNNaffinity 7.05032873
REMARK  6 active torsions:
REMARK  status: ('A' for Active; 'I' for Inactive)
REMARK    1  A    between atoms: C2_2  and  C30_32 
REMARK    2  A    between atoms: C3_3  and  C4_4 
REMARK    3  A    between atoms: C4_4  and  C5_5 
REMARK    4  A    between atoms: C5_5  and  C6_6 
REMARK    5  A    between atoms: C6_6  and  C8_8 
REMARK    6  A    between atoms: C30_32  and  O4_34 
ROOT
HETATM    1  C8  UNL     1      -1.575  52.367 -10.559  1.00  0.00    -0.002 C 
HETATM    2  C9  UNL     1      -0.991  50.927 -10.488  1.00  0.00     0.007 C 
HETATM    3  C10 UNL     1       0.541  51.066 -10.375  1.00  0.00     0.015 C 
HETATM    4  C11 UNL     1       0.839  52.520 -10.786  1.00  0.00    -0.005 C 
HETATM    5  C12 UNL     1       0.858  52.565 -12.347  1.00  0.00     0.021 C 
HETATM    6  C13 UNL     1       2.142  53.185 -10.366  1.00  0.00    -0.000 C 
HETATM    7  C14 UNL     1       2.212  54.530 -10.164  1.00  0.00    -0.060 C 
HETATM    8  C15 UNL     1       0.967  55.408 -10.275  1.00  0.00     0.036 C 
HETATM    9  C16 UNL     1      -0.372  54.710 -10.599  1.00  0.00     0.015 C 
HETATM   10  C17 UNL     1      -0.382  53.257 -10.102  1.00  0.00    -0.028 C 
HETATM   11  C18 UNL     1      -0.291  53.272  -8.546  1.00  0.00     0.016 C 
HETATM   12  C19 UNL     1       3.563  55.222  -9.859  1.00  0.00    -0.014 C 
HETATM   13  C20 UNL     1       4.221  55.449 -11.245  1.00  0.00     0.020 C 
HETATM   14  C21 UNL     1       3.478  56.618  -9.168  1.00  0.00     0.021 C 
HETATM   15  C22 UNL     1       3.566  56.546  -7.652  1.00  0.00     0.080 C 
HETATM   16  C23 UNL     1       4.928  56.010  -7.259  1.00  0.00     0.135 C 
HETATM   17  O1  UNL     1       5.542  56.503  -6.312  1.00  0.00    -0.297 OA
HETATM   18  C24 UNL     1       5.493  54.832  -8.077  1.00  0.00     0.018 C 
HETATM   19  C25 UNL     1       6.674  55.348  -8.908  1.00  0.00     0.023 C 
HETATM   20  C26 UNL     1       6.028  53.791  -7.071  1.00  0.00     0.023 C 
HETATM   21  C27 UNL     1       4.324  54.224  -8.916  1.00  0.00     0.020 C 
HETATM   22  C28 UNL     1       4.640  52.928  -9.665  1.00  0.00     0.090 C 
HETATM   23  C29 UNL     1       3.387  52.344 -10.291  1.00  0.00     0.157 C 
HETATM   24  O2  UNL     1       3.408  51.202 -10.747  1.00  0.00    -0.293 OA
ENDROOT
BRANCH   1  25
HETATM   25  C6  UNL     1      -3.012  52.490  -9.969  1.00  0.00    -0.014 C 
HETATM   26  C7  UNL     1      -3.992  53.411 -10.706  1.00  0.00     0.010 C 
BRANCH  25  27
HETATM   27  C5  UNL     1      -3.647  51.101  -9.729  1.00  0.00     0.008 C 
BRANCH  27  28
HETATM   28  C4  UNL     1      -4.893  50.849 -10.585  1.00  0.00     0.028 C 
BRANCH  28  29
HETATM   29  C3  UNL     1      -5.232  49.383 -10.632  1.00  0.00    -0.013 C 
HETATM   30  C2  UNL     1      -6.449  48.805 -10.657  1.00  0.00     0.008 C 
HETATM   31  C1  UNL     1      -6.613  47.318 -10.796  1.00  0.00     0.055 C 
BRANCH  30  32
HETATM   32  C30 UNL     1      -7.735  49.535 -10.573  1.00  0.00     0.171 C 
HETATM   33  O3  UNL     1      -8.684  49.376 -11.322  1.00  0.00    -0.646 OA
BRANCH  32  34
HETATM   34  O4  UNL     1      -7.820  50.350  -9.510  1.00  0.00    -0.773 OA
HETATM   35  H44 UNL     1      -8.725  50.715  -9.574  1.00  0.00     0.167 HD
ENDBRANCH  32  34
ENDBRANCH  30  32
ENDBRANCH  28  29
ENDBRANCH  27  28
ENDBRANCH  25  27
ENDBRANCH   1  25
TORSDOF 6
ENDMDL
