MODEL 1
REMARK minimizedAffinity -9.74053383
REMARK  6 active torsions:
REMARK  status: ('A' for Active; 'I' for Inactive)
REMARK    1  A    between atoms: C2_2  and  C30_32 
REMARK    2  A    between atoms: C3_3  and  C4_4 
REMARK    3  A    between atoms: C4_4  and  C5_5 
REMARK    4  A    between atoms: C5_5  and  C6_6 
REMARK    5  A    between atoms: C6_6  and  C8_8 
REMARK    6  A    between atoms: C30_32  and  O4_34 
ROOT
HETATM    1  C8  UNL     1      -0.883  51.460 -21.414  1.00  0.00    -0.002 C 
HETATM    2  C9  UNL     1      -0.126  50.129 -21.146  1.00  0.00     0.007 C 
HETATM    3  C10 UNL     1      -1.184  49.008 -21.099  1.00  0.00     0.015 C 
HETATM    4  C11 UNL     1      -2.528  49.740 -20.932  1.00  0.00    -0.005 C 
HETATM    5  C12 UNL     1      -2.684  50.074 -19.414  1.00  0.00     0.021 C 
HETATM    6  C13 UNL     1      -3.826  49.048 -21.310  1.00  0.00    -0.000 C 
HETATM    7  C14 UNL     1      -4.920  49.730 -21.734  1.00  0.00    -0.060 C 
HETATM    8  C15 UNL     1      -4.819  51.260 -21.930  1.00  0.00     0.036 C 
HETATM    9  C16 UNL     1      -3.460  51.944 -21.652  1.00  0.00     0.015 C 
HETATM   10  C17 UNL     1      -2.290  50.980 -21.879  1.00  0.00    -0.028 C 
HETATM   11  C18 UNL     1      -2.255  50.598 -23.388  1.00  0.00     0.016 C 
HETATM   12  C19 UNL     1      -6.321  49.074 -21.963  1.00  0.00    -0.014 C 
HETATM   13  C20 UNL     1      -7.244  49.695 -20.875  1.00  0.00     0.020 C 
HETATM   14  C21 UNL     1      -6.907  49.445 -23.357  1.00  0.00     0.021 C 
HETATM   15  C22 UNL     1      -6.598  48.421 -24.433  1.00  0.00     0.080 C 
HETATM   16  C23 UNL     1      -7.265  47.105 -24.108  1.00  0.00     0.135 C 
HETATM   17  O1  UNL     1      -7.664  46.373 -25.016  1.00  0.00    -0.297 OA
HETATM   18  C24 UNL     1      -7.412  46.720 -22.629  1.00  0.00     0.018 C 
HETATM   19  C25 UNL     1      -8.859  47.026 -22.196  1.00  0.00     0.023 C 
HETATM   20  C26 UNL     1      -7.245  45.186 -22.511  1.00  0.00     0.023 C 
HETATM   21  C27 UNL     1      -6.338  47.492 -21.762  1.00  0.00     0.020 C 
HETATM   22  C28 UNL     1      -4.946  46.871 -21.961  1.00  0.00     0.090 C 
HETATM   23  C29 UNL     1      -3.916  47.580 -21.137  1.00  0.00     0.157 C 
HETATM   24  O2  UNL     1      -3.150  46.966 -20.400  1.00  0.00    -0.293 OA
ENDROOT
BRANCH   1  25
HETATM   25  C6  UNL     1      -0.041  52.516 -22.189  1.00  0.00    -0.014 C 
HETATM   26  C7  UNL     1       1.142  53.148 -21.444  1.00  0.00     0.010 C 
BRANCH  25  27
HETATM   27  C5  UNL     1       0.406  51.984 -23.569  1.00  0.00     0.008 C 
BRANCH  27  28
HETATM   28  C4  UNL     1       0.828  53.093 -24.540  1.00  0.00     0.028 C 
BRANCH  28  29
HETATM   29  C3  UNL     1       0.430  52.761 -25.953  1.00  0.00    -0.013 C 
HETATM   30  C2  UNL     1       1.128  52.075 -26.880  1.00  0.00     0.008 C 
HETATM   31  C1  UNL     1       0.544  51.743 -28.223  1.00  0.00     0.055 C 
BRANCH  30  32
HETATM   32  C30 UNL     1       2.504  51.562 -26.690  1.00  0.00     0.171 C 
HETATM   33  O3  UNL     1       2.814  50.634 -25.963  1.00  0.00    -0.646 OA
BRANCH  32  34
HETATM   34  O4  UNL     1       3.408  52.156 -27.483  1.00  0.00    -0.773 OA
HETATM   35  H44 UNL     1       4.242  51.685 -27.273  1.00  0.00     0.167 HD
ENDBRANCH  32  34
ENDBRANCH  30  32
ENDBRANCH  28  29
ENDBRANCH  27  28
ENDBRANCH  25  27
ENDBRANCH   1  25
TORSDOF 6
ENDMDL
