MODEL 1
REMARK minimizedAffinity -6.7490387
REMARK CNNscore 0.792384386
REMARK CNNaffinity 6.60162115
REMARK  9 active torsions:
REMARK  status: ('A' for Active; 'I' for Inactive)
REMARK    1  A    between atoms: C4_4  and  C5_5 
REMARK    2  A    between atoms: C5_5  and  C6_6 
REMARK    3  A    between atoms: C6_6  and  C7_7 
REMARK    4  A    between atoms: C7_7  and  C9_9 
REMARK    5  A    between atoms: C16_16  and  O1_17 
REMARK    6  A    between atoms: C25_27  and  C27_29 
REMARK    7  A    between atoms: C27_29  and  O4_31 
REMARK    8  A    between atoms: C28_32  and  O5_33 
REMARK    9  A    between atoms: C30_35  and  O6_36 
ROOT
HETATM    1  C9  UNL     1      -1.813  15.185   4.185  1.00  0.00    -0.002 C 
HETATM    2  C10 UNL     1      -2.635  14.922   2.897  1.00  0.00     0.007 C 
HETATM    3  C11 UNL     1      -1.624  14.753   1.745  1.00  0.00     0.015 C 
HETATM    4  C12 UNL     1      -0.256  14.563   2.432  1.00  0.00    -0.005 C 
HETATM    5  C13 UNL     1      -0.148  13.055   2.824  1.00  0.00     0.021 C 
HETATM    6  C14 UNL     1       1.038  14.843   1.679  1.00  0.00     0.003 C 
HETATM    7  C15 UNL     1       2.183  15.202   2.327  1.00  0.00    -0.030 C 
HETATM    8  C16 UNL     1       2.136  15.520   3.843  1.00  0.00     0.149 C 
HETATM    9  C17 UNL     1       0.779  15.358   4.568  1.00  0.00     0.047 C 
HETATM   10  C18 UNL     1      -0.410  15.580   3.632  1.00  0.00    -0.026 C 
HETATM   11  C19 UNL     1      -0.399  17.066   3.167  1.00  0.00     0.016 C 
HETATM   12  C20 UNL     1       3.556  15.414   1.575  1.00  0.00     0.014 C 
HETATM   13  C21 UNL     1       3.822  16.939   1.615  1.00  0.00     0.023 C 
HETATM   14  C22 UNL     1       3.467  14.882   0.103  1.00  0.00     0.029 C 
HETATM   15  C23 UNL     1       2.168  15.317  -0.568  1.00  0.00     0.090 C 
HETATM   16  C24 UNL     1       1.027  14.701   0.190  1.00  0.00     0.157 C 
HETATM   17  O2  UNL     1       0.113  14.136  -0.402  1.00  0.00    -0.293 OA
HETATM   18  C25 UNL     1       4.776  15.022  -0.768  1.00  0.00     0.072 C 
HETATM   19  C26 UNL     1       4.731  13.900  -1.846  1.00  0.00     0.030 C 
HETATM   20  C28 UNL     1       6.059  14.796   0.092  1.00  0.00     0.139 C 
HETATM   21  C29 UNL     1       5.775  13.970   1.340  1.00  0.00     0.065 C 
HETATM   22  C30 UNL     1       4.702  14.578   2.264  1.00  0.00     0.133 C 
ENDROOT
BRANCH   1  23
HETATM   23  C7  UNL     1      -2.558  15.951   5.322  1.00  0.00    -0.014 C 
HETATM   24  C8  UNL     1      -1.591  16.233   6.490  1.00  0.00     0.010 C 
BRANCH  23  25
HETATM   25  C6  UNL     1      -3.334  17.259   5.045  1.00  0.00     0.008 C 
BRANCH  25  26
HETATM   26  C5  UNL     1      -4.745  17.421   5.618  1.00  0.00     0.028 C 
BRANCH  26  27
HETATM   27  C4  UNL     1      -4.762  17.894   7.047  1.00  0.00    -0.025 C 
HETATM   28  C2  UNL     1      -5.831  18.206   7.804  1.00  0.00    -0.091 C 
HETATM   29  C1  UNL     1      -5.649  18.632   9.238  1.00  0.00     0.042 C 
HETATM   30  C3  UNL     1      -7.259  18.176   7.339  1.00  0.00     0.042 C 
ENDBRANCH  26  27
ENDBRANCH  25  26
ENDBRANCH  23  25
ENDBRANCH   1  23
BRANCH   8  31
HETATM   31  O1  UNL     1       3.049  14.716   4.577  1.00  0.00    -0.391 OA
HETATM   32  H25 UNL     1       3.937  15.114   4.442  1.00  0.00     0.210 HD
ENDBRANCH   8  31
BRANCH  22  33
HETATM   33  O6  UNL     1       5.289  15.341   3.327  1.00  0.00    -0.394 OA
HETATM   34  H46 UNL     1       6.255  15.198   3.324  1.00  0.00     0.210 HD
ENDBRANCH  22  33
BRANCH  18  35
HETATM   35  C27 UNL     1       4.981  16.308  -1.563  1.00  0.00     0.151 C 
HETATM   36  O3  UNL     1       6.039  16.641  -2.078  1.00  0.00    -0.649 OA
BRANCH  35  37
HETATM   37  O4  UNL     1       3.917  17.109  -1.681  1.00  0.00    -0.776 OA
HETATM   38  H40 UNL     1       4.241  17.878  -2.198  1.00  0.00     0.167 HD
ENDBRANCH  35  37
ENDBRANCH  18  35
BRANCH  20  39
HETATM   39  O5  UNL     1       6.680  16.001   0.533  1.00  0.00    -0.394 OA
HETATM   40  H42 UNL     1       7.212  16.344  -0.211  1.00  0.00     0.210 HD
ENDBRANCH  20  39
TORSDOF 9
ENDMDL
