MODEL 1
REMARK minimizedAffinity -9.21945953
REMARK CNNscore 0.850853264
REMARK CNNaffinity 7.96538401
REMARK  14 active torsions:
REMARK  status: ('A' for Active; 'I' for Inactive)
REMARK    1  A    between atoms: C2_2  and  C3_3 
REMARK    2  A    between atoms: C3_3  and  C4_4 
REMARK    3  A    between atoms: C7_7  and  C9_9 
REMARK    4  A    between atoms: C10_11  and  C11_12 
REMARK    5  A    between atoms: C12_14  and  O3_15 
REMARK    6  A    between atoms: C12_14  and  C13_16 
REMARK    7  A    between atoms: C13_16  and  O4_17 
REMARK    8  A    between atoms: C26_31  and  O6_32 
REMARK    9  A    between atoms: C29_35  and  C30_36 
REMARK   10  A    between atoms: C30_36  and  C32_38 
REMARK   11  A    between atoms: C32_38  and  O7_39 
REMARK   12  A    between atoms: C32_38  and  C34_41 
REMARK   13  A    between atoms: C34_41  and  C36_43 
REMARK   14  A    between atoms: C36_43  and  O9_45 
ROOT
HETATM    1  C3  UNL     1      -1.557  50.264 -19.031  1.00  0.00     0.090 C 
HETATM    2  C22 UNL     1      -1.452  48.735 -18.973  1.00  0.00     0.046 C 
HETATM    3  C23 UNL     1      -1.092  48.465 -17.533  1.00  0.00     0.072 C 
HETATM    4  C24 UNL     1      -1.756  49.618 -16.775  1.00  0.00     0.168 C 
HETATM    5  C25 UNL     1      -3.018  49.184 -16.021  1.00  0.00     0.100 C 
HETATM    6  C26 UNL     1      -2.642  48.703 -14.630  1.00  0.00     0.129 C 
HETATM    7  C27 UNL     1      -1.907  49.806 -13.826  1.00  0.00     0.040 C 
HETATM    8  C28 UNL     1      -0.850  49.114 -12.948  1.00  0.00     0.015 C 
HETATM    9  C29 UNL     1      -1.315  50.873 -14.782  1.00  0.00     0.137 C 
HETATM   10  O10 UNL     1      -0.763  50.154 -15.895  1.00  0.00    -0.349 OA
HETATM   11  O11 UNL     1      -2.134  50.602 -17.752  1.00  0.00    -0.341 OA
ENDROOT
BRANCH   1  12
HETATM   12  C2  UNL     1      -0.140  50.896 -19.121  1.00  0.00     0.036 C 
HETATM   13  C1  UNL     1      -0.088  52.411 -18.989  1.00  0.00     0.008 C 
ENDBRANCH   1  12
BRANCH   1  14
HETATM   14  C4  UNL     1      -2.460  50.751 -20.197  1.00  0.00     0.157 C 
HETATM   15  C5  UNL     1      -3.784  51.398 -19.821  1.00  0.00     0.038 C 
HETATM   16  C6  UNL     1      -4.517  51.402 -21.147  1.00  0.00     0.043 C 
HETATM   17  C7  UNL     1      -4.000  50.131 -21.851  1.00  0.00     0.084 C 
HETATM   18  C8  UNL     1      -5.095  49.061 -21.812  1.00  0.00     0.049 C 
HETATM   19  O5  UNL     1      -2.883  49.670 -21.054  1.00  0.00    -0.370 OA
BRANCH  17  20
HETATM   20  C9  UNL     1      -3.489  50.489 -23.269  1.00  0.00     0.160 C 
HETATM   21  O1  UNL     1      -2.332  51.341 -23.236  1.00  0.00    -0.375 OA
HETATM   22  C10 UNL     1      -2.062  51.667 -24.613  1.00  0.00     0.152 C 
HETATM   23  C19 UNL     1      -3.442  51.820 -25.260  1.00  0.00     0.041 C 
HETATM   24  C20 UNL     1      -4.421  51.116 -24.315  1.00  0.00     0.016 C 
HETATM   25  C21 UNL     1      -5.464  52.106 -23.817  1.00  0.00     0.012 C 
BRANCH  22  26
HETATM   26  C11 UNL     1      -1.163  52.916 -24.744  1.00  0.00     0.158 C 
HETATM   27  O2  UNL     1      -1.166  53.450 -26.074  1.00  0.00    -0.345 OA
HETATM   28  C12 UNL     1      -0.407  52.744 -27.070  1.00  0.00     0.187 C 
HETATM   29  C14 UNL     1       1.073  52.618 -26.624  1.00  0.00     0.046 C 
HETATM   30  C15 UNL     1       1.948  51.828 -27.598  1.00  0.00     0.015 C 
HETATM   31  C16 UNL     1       1.162  51.994 -25.223  1.00  0.00     0.016 C 
HETATM   32  C17 UNL     1       0.291  52.778 -24.234  1.00  0.00     0.014 C 
HETATM   33  C18 UNL     1       0.419  52.202 -22.826  1.00  0.00     0.012 C 
BRANCH  28  34
HETATM   34  O3  UNL     1      -0.998  51.478 -27.355  1.00  0.00    -0.363 OA
HETATM   35  H17 UNL     1      -0.449  50.783 -26.963  1.00  0.00     0.213 HD
ENDBRANCH  28  34
BRANCH  28  36
HETATM   36  C13 UNL     1      -0.556  53.604 -28.353  1.00  0.00     0.232 C 
BRANCH  36  37
HETATM   37  O4  UNL     1      -1.887  54.094 -28.519  1.00  0.00    -0.396 OA
HETATM   38  H20 UNL     1      -2.457  53.304 -28.434  1.00  0.00     0.209 HD
ENDBRANCH  36  37
ENDBRANCH  28  36
ENDBRANCH  22  26
ENDBRANCH  17  20
ENDBRANCH   1  14
BRANCH   6  39
HETATM   39  O6  UNL     1      -3.814  48.311 -13.914  1.00  0.00    -0.395 OA
HETATM   40  H44 UNL     1      -4.237  47.586 -14.408  1.00  0.00     0.210 HD
ENDBRANCH   6  39
BRANCH   9  41
HETATM   41  C30 UNL     1      -0.229  51.850 -14.217  1.00  0.00     0.041 C 
HETATM   42  C31 UNL     1      -0.397  51.956 -12.686  1.00  0.00     0.015 C 
BRANCH  41  43
HETATM   43  C32 UNL     1       1.227  51.400 -14.604  1.00  0.00     0.141 C 
BRANCH  43  44
HETATM   44  O7  UNL     1       1.853  52.519 -15.244  1.00  0.00    -0.389 OA
HETATM   45  C33 UNL     1       2.523  52.219 -16.459  1.00  0.00     0.202 C 
ENDBRANCH  43  44
BRANCH  43  46
HETATM   46  C34 UNL     1       2.068  50.924 -13.383  1.00  0.00     0.109 C 
HETATM   47  C35 UNL     1       2.968  52.027 -12.821  1.00  0.00     0.024 C 
BRANCH  46  48
HETATM   48  C36 UNL     1       2.884  49.666 -13.613  1.00  0.00     0.145 C 
HETATM   49  O8  UNL     1       2.457  48.619 -14.076  1.00  0.00    -0.650 OA
BRANCH  48  50
HETATM   50  O9  UNL     1       4.203  49.777 -13.370  1.00  0.00    -0.776 OA
HETATM   51  H62 UNL     1       4.563  48.903 -13.641  1.00  0.00     0.167 HD
ENDBRANCH  48  50
ENDBRANCH  46  48
ENDBRANCH  43  46
ENDBRANCH  41  43
ENDBRANCH   9  41
TORSDOF 14
ENDMDL
