MODEL 1
REMARK minimizedAffinity -5.92126322
REMARK CNNscore 0.339314371
REMARK CNNaffinity 5.24090052
REMARK  6 active torsions:
REMARK  status: ('A' for Active; 'I' for Inactive)
REMARK    1  A    between atoms: C9_10  and  C10_11 
REMARK    2  A    between atoms: C11_13  and  O3_14 
REMARK    3  A    between atoms: C12_15  and  C13_16 
REMARK    4  A    between atoms: C14_18  and  O5_19 
REMARK    5  A    between atoms: C16_21  and  C17_22 
REMARK    6  A    between atoms: C17_22  and  C18_23 
ROOT
HETATM    1  C1  UNL     1      -8.401  48.573 -17.774  1.00  0.00     0.043 C 
HETATM    2  C2  UNL     1      -8.595  47.694 -18.990  1.00  0.00    -0.087 C 
HETATM    3  C3  UNL     1      -8.845  48.274 -20.181  1.00  0.00    -0.024 C 
HETATM    4  C4  UNL     1      -9.037  47.701 -21.557  1.00  0.00     0.030 C 
HETATM    5  C5  UNL     1      -9.675  46.322 -21.736  1.00  0.00     0.042 C 
HETATM    6  C6  UNL     1     -11.230  46.232 -21.712  1.00  0.00     0.069 C 
HETATM    7  C7  UNL     1     -11.589  44.739 -21.866  1.00  0.00     0.047 C 
HETATM    8  O1  UNL     1     -11.554  46.896 -22.989  1.00  0.00    -0.338 OA
HETATM    9  C8  UNL     1     -12.868  46.860 -23.361  1.00  0.00     0.095 A 
HETATM   10  C9  UNL     1     -13.161  46.762 -24.730  1.00  0.00     0.070 A 
HETATM   11  C11 UNL     1     -14.488  46.612 -25.156  1.00  0.00     0.097 A 
HETATM   12  C12 UNL     1     -15.511  46.552 -24.209  1.00  0.00     0.069 A 
HETATM   13  C14 UNL     1     -15.206  46.681 -22.843  1.00  0.00     0.091 A 
HETATM   14  C15 UNL     1     -13.885  46.893 -22.406  1.00  0.00     0.015 A 
HETATM   15  C16 UNL     1     -13.543  47.126 -20.946  1.00  0.00     0.032 C 
HETATM   16  C21 UNL     1     -11.996  47.024 -20.614  1.00  0.00     0.034 C 
HETATM   17  C22 UNL     1     -11.824  46.863 -19.107  1.00  0.00     0.006 A 
HETATM   18  C23 UNL     1     -10.891  46.139 -18.153  1.00  0.00    -0.001 A 
HETATM   19  C24 UNL     1      -9.694  45.357 -18.553  1.00  0.00     0.010 C 
HETATM   20  C25 UNL     1      -8.418  46.211 -18.720  1.00  0.00     0.034 C 
HETATM   21  C26 UNL     1     -12.346  45.692 -18.256  1.00  0.00    -0.039 A 
HETATM   22  C27 UNL     1     -12.649  44.314 -18.778  1.00  0.00     0.015 C 
HETATM   23  C28 UNL     1     -13.286  46.085 -17.133  1.00  0.00     0.015 C 
ENDROOT
BRANCH  15  24
HETATM   24  C17 UNL     1     -14.234  48.396 -20.343  1.00  0.00     0.014 C 
BRANCH  24  25
HETATM   25  C18 UNL     1     -14.886  48.405 -18.936  1.00  0.00    -0.022 C 
HETATM   26  C19 UNL     1     -16.181  47.597 -18.841  1.00  0.00     0.009 C 
HETATM   27  C20 UNL     1     -15.081  49.780 -18.308  1.00  0.00     0.009 C 
ENDBRANCH  24  25
ENDBRANCH  15  24
BRANCH  13  28
HETATM   28  O5  UNL     1     -16.184  46.593 -21.882  1.00  0.00    -0.359 OA
HETATM   29  H15 UNL     1     -17.055  46.469 -22.327  1.00  0.00     0.217 HD
ENDBRANCH  13  28
BRANCH  10  30
HETATM   30  C10 UNL     1     -12.058  46.791 -25.711  1.00  0.00     0.275 C 
HETATM   31  O2  UNL     1     -11.911  45.864 -26.505  1.00  0.00    -0.301 OA
ENDBRANCH  10  30
BRANCH  12  32
HETATM   32  C13 UNL     1     -16.906  46.354 -24.656  1.00  0.00     0.275 C 
HETATM   33  O4  UNL     1     -17.751  47.228 -24.469  1.00  0.00    -0.301 OA
ENDBRANCH  12  32
BRANCH  11  34
HETATM   34  O3  UNL     1     -14.813  46.501 -26.486  1.00  0.00    -0.359 OA
HETATM   35  H13 UNL     1     -13.986  46.544 -27.019  1.00  0.00     0.217 HD
ENDBRANCH  11  34
TORSDOF 6
ENDMDL
