MODEL 1
REMARK minimizedAffinity -9.52428341
REMARK  10 active torsions:
REMARK  status: ('A' for Active; 'I' for Inactive)
REMARK    1  A    between atoms: C2_2  and  C3_3 
REMARK    2  A    between atoms: C3_3  and  C5_5 
REMARK    3  A    between atoms: C5_5  and  C6_6 
REMARK    4  A    between atoms: C6_6  and  C8_8 
REMARK    5  A    between atoms: C9_9  and  C11_11 
REMARK    6  A    between atoms: C12_13  and  C13_14 
REMARK    7  A    between atoms: C14_15  and  O2_16 
REMARK    8  A    between atoms: C15_17  and  C16_18 
REMARK    9  A    between atoms: C16_18  and  O3_19 
REMARK   10  A    between atoms: C21_25  and  O5_26 
ROOT
HETATM    1  C13 UNL     1      -3.739  49.639 -26.687  1.00  0.00     0.068 C 
HETATM    2  C14 UNL     1      -3.176  50.593 -27.456  1.00  0.00     0.066 C 
HETATM    3  C15 UNL     1      -2.595  51.884 -26.904  1.00  0.00     0.098 C 
HETATM    4  C22 UNL     1      -3.303  52.181 -25.577  1.00  0.00     0.140 C 
HETATM    5  N1  UNL     1      -3.311  51.029 -24.698  1.00  0.00    -0.352 N 
HETATM    6  C23 UNL     1      -3.456  51.273 -23.274  1.00  0.00     0.152 C 
HETATM    7  C24 UNL     1      -3.689  49.782 -25.192  1.00  0.00     0.254 C 
HETATM    8  O6  UNL     1      -3.921  48.832 -24.452  1.00  0.00    -0.268 OA
ENDROOT
BRANCH   1   9
HETATM    9  C12 UNL     1      -4.402  48.403 -27.255  1.00  0.00     0.163 C 
HETATM   10  O1  UNL     1      -4.791  48.672 -28.609  1.00  0.00    -0.371 OA
HETATM   11  C11 UNL     1      -5.471  47.552 -29.190  1.00  0.00     0.154 C 
HETATM   12  C27 UNL     1      -6.891  47.467 -28.579  1.00  0.00     0.015 C 
HETATM   13  C26 UNL     1      -6.915  47.918 -27.106  1.00  0.00     0.010 C 
HETATM   14  C28 UNL     1      -7.465  46.054 -28.725  1.00  0.00     0.012 C 
HETATM   15  C25 UNL     1      -5.557  47.824 -26.417  1.00  0.00     0.037 C 
BRANCH  11  16
HETATM   16  C9  UNL     1      -5.320  47.684 -30.706  1.00  0.00    -0.058 C 
HETATM   17  C8  UNL     1      -5.239  46.643 -31.563  1.00  0.00    -0.018 C 
HETATM   18  C10 UNL     1      -5.265  49.123 -31.166  1.00  0.00     0.046 C 
BRANCH  17  19
HETATM   19  C6  UNL     1      -5.138  46.681 -33.077  1.00  0.00     0.005 C 
HETATM   20  C7  UNL     1      -3.841  47.394 -33.462  1.00  0.00     0.014 C 
BRANCH  19  21
HETATM   21  C5  UNL     1      -6.412  47.347 -33.644  1.00  0.00     0.012 C 
BRANCH  21  22
HETATM   22  C3  UNL     1      -7.746  46.818 -33.065  1.00  0.00    -0.018 C 
HETATM   23  C4  UNL     1      -8.583  46.081 -34.117  1.00  0.00     0.010 C 
BRANCH  22  24
HETATM   24  C2  UNL     1      -8.572  47.960 -32.427  1.00  0.00    -0.000 C 
HETATM   25  C1  UNL     1      -9.690  47.507 -31.496  1.00  0.00     0.005 C 
ENDBRANCH  22  24
ENDBRANCH  21  22
ENDBRANCH  19  21
ENDBRANCH  17  19
ENDBRANCH  11  16
ENDBRANCH   1   9
BRANCH   2  26
HETATM   26  O2  UNL     1      -3.130  50.458 -28.836  1.00  0.00    -0.364 OA
HETATM   27  H22 UNL     1      -2.903  51.318 -29.240  1.00  0.00     0.217 HD
ENDBRANCH   2  26
BRANCH   3  28
HETATM   28  C16 UNL     1      -1.029  51.862 -26.866  1.00  0.00     0.095 C 
HETATM   29  C17 UNL     1      -0.392  50.614 -26.236  1.00  0.00     0.048 C 
HETATM   30  C18 UNL     1       1.116  50.554 -26.482  1.00  0.00     0.081 C 
HETATM   31  C19 UNL     1       1.760  51.923 -26.525  1.00  0.00     0.129 C 
HETATM   32  O4  UNL     1       2.884  52.074 -27.003  1.00  0.00    -0.298 OA
HETATM   33  C20 UNL     1       1.044  53.061 -25.841  1.00  0.00     0.113 C 
HETATM   34  C21 UNL     1      -0.453  53.120 -26.157  1.00  0.00     0.160 C 
BRANCH  28  35
HETATM   35  O3  UNL     1      -0.577  51.955 -28.245  1.00  0.00    -0.386 OA
HETATM   36  H24 UNL     1      -0.795  51.108 -28.684  1.00  0.00     0.210 HD
ENDBRANCH  28  35
BRANCH  34  37
HETATM   37  O5  UNL     1      -0.723  54.266 -26.973  1.00  0.00    -0.392 OA
HETATM   38  H32 UNL     1      -0.432  54.014 -27.875  1.00  0.00     0.210 HD
ENDBRANCH  34  37
ENDBRANCH   3  28
TORSDOF 10
ENDMDL
