MODEL 1
REMARK minimizedAffinity -7.89791203
REMARK CNNscore 0.608285964
REMARK CNNaffinity 7.00943804
REMARK  13 active torsions:
REMARK  status: ('A' for Active; 'I' for Inactive)
REMARK    1  A    between atoms: C2_2  and  C3_3 
REMARK    2  A    between atoms: C3_3  and  C5_5 
REMARK    3  A    between atoms: C5_5  and  N1_6 
REMARK    4  A    between atoms: C5_5  and  C31_39 
REMARK       I    between atoms: N1_6  and  C6_7 
REMARK    5  A    between atoms: C6_7  and  C7_9 
REMARK    6  A    between atoms: C7_9  and  C8_10 
REMARK    7  A    between atoms: C8_10  and  C9_11 
REMARK    8  A    between atoms: C9_11  and  O3_13 
REMARK    9  A    between atoms: O3_13  and  C10_14 
REMARK   10  A    between atoms: C10_14  and  C11_15 
REMARK   11  A    between atoms: C11_15  and  C12_17 
REMARK   12  A    between atoms: C12_17  and  O5_18 
REMARK   13  A    between atoms: C31_39  and  O9_41 
ROOT
HETATM    1  C12 UNL     1      -1.885   5.929  13.777  1.00  0.00     0.128 C 
HETATM    2  C13 UNL     1      -0.720   6.312  12.837  1.00  0.00     0.047 C 
HETATM    3  C14 UNL     1      -0.361   7.775  13.166  1.00  0.00     0.009 C 
HETATM    4  C15 UNL     1      -1.222   8.127  14.376  1.00  0.00     0.002 C 
HETATM    5  C16 UNL     1      -1.496   9.608  14.676  1.00  0.00     0.003 C 
HETATM    6  C17 UNL     1      -0.185  10.388  14.848  1.00  0.00     0.010 C 
HETATM    7  C18 UNL     1      -0.453  11.849  15.184  1.00  0.00     0.035 C 
HETATM    8  C19 UNL     1      -1.346  11.997  16.393  1.00  0.00    -0.067 C 
HETATM    9  C20 UNL     1      -0.971  12.816  17.391  1.00  0.00     0.053 C 
HETATM   10  C21 UNL     1      -1.853  13.096  18.546  1.00  0.00     0.149 C 
HETATM   11  O6  UNL     1      -1.445  13.807  19.461  1.00  0.00    -0.293 OA
HETATM   12  C22 UNL     1      -3.257  12.555  18.507  1.00  0.00     0.084 C 
HETATM   13  C23 UNL     1      -3.278  11.196  17.822  1.00  0.00     0.022 C 
HETATM   14  C24 UNL     1      -2.664  11.199  16.389  1.00  0.00    -0.009 C 
HETATM   15  C25 UNL     1      -3.629  11.904  15.409  1.00  0.00     0.021 C 
HETATM   16  C26 UNL     1      -2.357   9.715  15.969  1.00  0.00     0.072 C 
HETATM   17  C27 UNL     1      -3.585   8.784  15.862  1.00  0.00     0.133 C 
HETATM   18  O7  UNL     1      -4.729   9.138  16.137  1.00  0.00    -0.297 OA
HETATM   19  C28 UNL     1      -3.314   7.336  15.468  1.00  0.00     0.091 C 
HETATM   20  C29 UNL     1      -2.515   7.298  14.159  1.00  0.00     0.005 C 
HETATM   21  C30 UNL     1      -3.404   7.841  13.011  1.00  0.00     0.019 C 
ENDROOT
BRANCH   1  22
HETATM   22  C11 UNL     1      -2.874   4.867  13.259  1.00  0.00     0.185 C 
HETATM   23  O4  UNL     1      -4.044   4.889  13.668  1.00  0.00    -0.292 OA
BRANCH  22  24
HETATM   24  C10 UNL     1      -2.377   3.794  12.294  1.00  0.00     0.260 C 
BRANCH  24  25
HETATM   25  O3  UNL     1      -3.441   2.996  11.774  1.00  0.00    -0.314 OA
BRANCH  25  26
HETATM   26  C9  UNL     1      -3.963   3.447  10.601  1.00  0.00     0.259 C 
HETATM   27  O2  UNL     1      -3.302   3.820   9.641  1.00  0.00    -0.265 OA
BRANCH  26  28
HETATM   28  C8  UNL     1      -5.461   3.446  10.657  1.00  0.00     0.120 C 
BRANCH  28  29
HETATM   29  C7  UNL     1      -5.947   2.277  11.497  1.00  0.00     0.112 C 
BRANCH  29  30
HETATM   30  C6  UNL     1      -6.916   2.729  12.566  1.00  0.00     0.218 C 
HETATM   31  N1  UNL     1      -6.810   4.070  12.853  1.00  0.00    -0.346 N 
HETATM   32  H11 UNL     1      -6.359   4.670  12.167  1.00  0.00     0.163 HD
HETATM   33  O1  UNL     1      -7.698   1.976  13.133  1.00  0.00    -0.274 OA
BRANCH  31  34
HETATM   34  C5  UNL     1      -7.765   4.749  13.741  1.00  0.00     0.186 C 
BRANCH  34  35
HETATM   35  C3  UNL     1      -7.039   5.696  14.736  1.00  0.00     0.014 C 
HETATM   36  C4  UNL     1      -6.789   7.069  14.093  1.00  0.00     0.012 C 
BRANCH  35  37
HETATM   37  C2  UNL     1      -7.835   5.855  16.055  1.00  0.00     0.002 C 
HETATM   38  C1  UNL     1      -7.732   7.239  16.685  1.00  0.00     0.005 C 
ENDBRANCH  35  37
ENDBRANCH  34  35
BRANCH  34  39
HETATM   39  C31 UNL     1      -8.743   5.533  12.844  1.00  0.00     0.163 C 
HETATM   40  O8  UNL     1      -9.710   6.185  13.203  1.00  0.00    -0.648 OA
BRANCH  39  41
HETATM   41  O9  UNL     1      -8.401   5.514  11.531  1.00  0.00    -0.775 OA
HETATM   42  H43 UNL     1      -9.097   6.056  11.103  1.00  0.00     0.167 HD
ENDBRANCH  39  41
ENDBRANCH  34  39
ENDBRANCH  31  34
ENDBRANCH  29  30
ENDBRANCH  28  29
ENDBRANCH  26  28
ENDBRANCH  25  26
ENDBRANCH  24  25
ENDBRANCH  22  24
ENDBRANCH   1  22
BRANCH   1  43
HETATM   43  O5  UNL     1      -1.287   5.338  14.950  1.00  0.00    -0.381 OA
HETATM   44  H18 UNL     1      -1.995   4.832  15.399  1.00  0.00     0.211 HD
ENDBRANCH   1  43
TORSDOF 13
ENDMDL
