MODEL 1
REMARK minimizedAffinity -8.28574181
REMARK  8 active torsions:
REMARK  status: ('A' for Active; 'I' for Inactive)
REMARK    1  A    between atoms: C2_2  and  O2_4 
REMARK    2  A    between atoms: O2_4  and  C3_5 
REMARK    3  A    between atoms: C5_7  and  O3_8 
REMARK    4  A    between atoms: C14_17  and  C15_18 
REMARK    5  A    between atoms: C15_18  and  O5_20 
REMARK    6  A    between atoms: O5_20  and  C16_21 
REMARK    7  A    between atoms: C16_21  and  C17_22 
REMARK    8  A    between atoms: C17_22  and  N1_23 
ROOT
HETATM    1  C3  UNL     1      -2.835  51.546 -24.238  1.00  0.00     0.097 C 
HETATM    2  C4  UNL     1      -2.410  52.466 -25.400  1.00  0.00     0.050 C 
HETATM    3  C5  UNL     1      -4.266  52.032 -23.788  1.00  0.00     0.153 C 
HETATM    4  C6  UNL     1      -4.611  51.757 -22.317  1.00  0.00     0.035 C 
HETATM    5  C7  UNL     1      -3.895  50.537 -21.753  1.00  0.00     0.012 C 
HETATM    6  C8  UNL     1      -2.337  50.631 -21.823  1.00  0.00    -0.033 C 
HETATM    7  C9  UNL     1      -1.813  49.185 -22.019  1.00  0.00     0.016 C 
HETATM    8  C10 UNL     1      -1.709  51.235 -20.507  1.00  0.00     0.006 C 
HETATM    9  C11 UNL     1      -2.086  50.514 -19.185  1.00  0.00     0.010 C 
HETATM   10  C12 UNL     1      -0.887  50.017 -18.372  1.00  0.00     0.035 C 
HETATM   11  C13 UNL     1       0.173  51.081 -18.144  1.00  0.00    -0.070 C 
HETATM   12  C14 UNL     1       0.804  51.116 -16.950  1.00  0.00     0.085 C 
HETATM   13  C20 UNL     1       0.430  52.016 -19.326  1.00  0.00     0.022 C 
HETATM   14  C21 UNL     1      -0.129  53.417 -19.023  1.00  0.00     0.015 C 
HETATM   15  C22 UNL     1      -0.167  51.397 -20.618  1.00  0.00     0.068 C 
HETATM   16  C23 UNL     1       0.243  52.132 -21.894  1.00  0.00     0.132 C 
HETATM   17  O6  UNL     1       1.122  52.991 -21.911  1.00  0.00    -0.298 OA
HETATM   18  C24 UNL     1      -0.409  51.665 -23.184  1.00  0.00     0.087 C 
HETATM   19  C25 UNL     1      -1.925  51.633 -22.978  1.00  0.00     0.038 C 
ENDROOT
BRANCH  12  20
HETATM   20  C15 UNL     1       1.876  52.001 -16.437  1.00  0.00     0.283 C 
HETATM   21  O4  UNL     1       2.504  52.738 -17.183  1.00  0.00    -0.260 OA
BRANCH  20  22
HETATM   22  O5  UNL     1       2.018  51.921 -15.099  1.00  0.00    -0.316 OA
BRANCH  22  23
HETATM   23  C16 UNL     1       1.141  50.997 -14.429  1.00  0.00     0.209 C 
BRANCH  23  24
HETATM   24  C17 UNL     1       0.803  51.505 -13.018  1.00  0.00     0.298 C 
BRANCH  24  25
HETATM   25  N1  UNL     1      -0.225  52.563 -12.994  1.00  0.00     0.082 N 
HETATM   26  C18 UNL     1      -0.200  53.253 -11.701  1.00  0.00     0.309 C 
HETATM   27  C19 UNL     1      -1.564  52.016 -13.233  1.00  0.00     0.309 C 
ENDBRANCH  24  25
ENDBRANCH  23  24
ENDBRANCH  22  23
ENDBRANCH  20  22
ENDBRANCH  12  20
BRANCH   1  28
HETATM   28  O2  UNL     1      -3.029  50.181 -24.720  1.00  0.00    -0.308 OA
BRANCH  28  29
HETATM   29  C2  UNL     1      -3.278  49.915 -26.029  1.00  0.00     0.255 C 
HETATM   30  C1  UNL     1      -3.505  48.445 -26.212  1.00  0.00     0.126 C 
HETATM   31  O1  UNL     1      -3.318  50.731 -26.936  1.00  0.00    -0.266 OA
ENDBRANCH  28  29
ENDBRANCH   1  28
BRANCH   3  32
HETATM   32  O3  UNL     1      -5.277  51.455 -24.621  1.00  0.00    -0.393 OA
HETATM   33  H8  UNL     1      -5.013  50.527 -24.768  1.00  0.00     0.210 HD
ENDBRANCH   3  32
TORSDOF 8
ENDMDL
