MODEL 1
REMARK minimizedAffinity -9.72847652
REMARK  7 active torsions:
REMARK  status: ('A' for Active; 'I' for Inactive)
REMARK    1  A    between atoms: C2_2  and  C30_33 
REMARK    2  A    between atoms: C3_3  and  C4_4 
REMARK    3  A    between atoms: C4_4  and  C5_5 
REMARK    4  A    between atoms: C5_5  and  C6_6 
REMARK    5  A    between atoms: C6_6  and  C8_8 
REMARK    6  A    between atoms: C19_20  and  O2_21 
REMARK    7  A    between atoms: C30_33  and  O5_35 
ROOT
HETATM    1  C8  UNL     1      -3.781   7.019  14.322  1.00  0.00    -0.002 C 
HETATM    2  C9  UNL     1      -3.566   5.863  15.337  1.00  0.00     0.007 C 
HETATM    3  C10 UNL     1      -2.100   5.395  15.165  1.00  0.00     0.018 C 
HETATM    4  C11 UNL     1      -1.619   6.080  13.873  1.00  0.00     0.025 C 
HETATM    5  C12 UNL     1      -2.055   5.153  12.715  1.00  0.00     0.024 C 
HETATM    6  C13 UNL     1      -0.115   6.328  13.737  1.00  0.00     0.147 C 
HETATM    7  O1  UNL     1       0.670   5.734  14.483  1.00  0.00    -0.296 OA
HETATM    8  C14 UNL     1       0.401   7.330  12.631  1.00  0.00     0.055 C 
HETATM    9  C15 UNL     1      -0.648   8.493  12.412  1.00  0.00     0.021 C 
HETATM   10  C16 UNL     1      -2.137   8.203  12.670  1.00  0.00     0.012 C 
HETATM   11  C17 UNL     1      -2.327   7.460  13.994  1.00  0.00    -0.026 C 
HETATM   12  C18 UNL     1      -1.763   8.339  15.151  1.00  0.00     0.016 C 
HETATM   13  C19 UNL     1       1.700   8.037  13.173  1.00  0.00     0.135 C 
HETATM   14  C20 UNL     1       2.376   8.553  11.906  1.00  0.00     0.039 C 
HETATM   15  C21 UNL     1       2.384   7.304  11.011  1.00  0.00     0.012 C 
HETATM   16  C22 UNL     1       2.849   7.526   9.543  1.00  0.00     0.018 C 
HETATM   17  C23 UNL     1       4.107   8.421   9.507  1.00  0.00     0.023 C 
HETATM   18  C24 UNL     1       3.210   6.195   8.855  1.00  0.00     0.023 C 
HETATM   19  C25 UNL     1       1.763   8.170   8.692  1.00  0.00     0.135 C 
HETATM   20  O3  UNL     1       2.028   8.807   7.670  1.00  0.00    -0.297 OA
HETATM   21  C26 UNL     1       0.328   8.026   9.124  1.00  0.00     0.080 C 
HETATM   22  C27 UNL     1       0.066   6.807  10.006  1.00  0.00     0.018 C 
HETATM   23  C28 UNL     1       0.969   6.645  11.261  1.00  0.00    -0.022 C 
HETATM   24  C29 UNL     1       1.215   5.126  11.464  1.00  0.00     0.017 C 
ENDROOT
BRANCH  13  25
HETATM   25  O2  UNL     1       2.647   7.170  13.795  1.00  0.00    -0.394 OA
HETATM   26  H29 UNL     1       2.163   6.561  14.395  1.00  0.00     0.210 HD
ENDBRANCH  13  25
BRANCH   1  27
HETATM   27  C6  UNL     1      -4.829   8.108  14.699  1.00  0.00    -0.014 C 
HETATM   28  C7  UNL     1      -4.199   9.498  14.474  1.00  0.00     0.010 C 
BRANCH  27  29
HETATM   29  C5  UNL     1      -6.177   8.031  13.947  1.00  0.00     0.008 C 
BRANCH  29  30
HETATM   30  C4  UNL     1      -6.843   6.651  14.031  1.00  0.00     0.028 C 
BRANCH  30  31
HETATM   31  C3  UNL     1      -6.138   5.652  13.152  1.00  0.00    -0.013 C 
HETATM   32  C2  UNL     1      -6.476   4.370  12.907  1.00  0.00     0.008 C 
HETATM   33  C1  UNL     1      -5.635   3.503  12.015  1.00  0.00     0.055 C 
BRANCH  32  34
HETATM   34  C30 UNL     1      -7.713   3.762  13.461  1.00  0.00     0.171 C 
HETATM   35  O4  UNL     1      -8.637   3.266  12.846  1.00  0.00    -0.646 OA
BRANCH  34  36
HETATM   36  O5  UNL     1      -7.722   3.791  14.806  1.00  0.00    -0.773 OA
HETATM   37  H46 UNL     1      -8.574   3.364  15.035  1.00  0.00     0.167 HD
ENDBRANCH  34  36
ENDBRANCH  32  34
ENDBRANCH  30  31
ENDBRANCH  29  30
ENDBRANCH  27  29
ENDBRANCH   1  27
TORSDOF 7
ENDMDL
