MODEL 1
REMARK minimizedAffinity -7.74568462
REMARK CNNscore 0.488191754
REMARK CNNaffinity 7.91191339
REMARK  9 active torsions:
REMARK  status: ('A' for Active; 'I' for Inactive)
REMARK    1  A    between atoms: C13_13  and  S1_14 
REMARK    2  A    between atoms: C25_30  and  O5_31 
REMARK    3  A    between atoms: C31_37  and  C32_38 
REMARK    4  A    between atoms: C32_38  and  O6_39 
REMARK    5  A    between atoms: C40_47  and  C41_48 
REMARK    6  A    between atoms: C40_47  and  N1_56 
REMARK    7  A    between atoms: C41_48  and  C42_49 
REMARK    8  A    between atoms: C42_49  and  C43_50 
REMARK    9  A    between atoms: C43_50  and  O7_51 
REMARK       I    between atoms: C48_58  and  N2_59 
REMARK       I    between atoms: C48_58  and  N3_60 
ROOT
HETATM    1  C1  UNL     1     -11.085  14.755   1.515  1.00  0.00     0.010 C 
HETATM    2  C2  UNL     1     -11.276  15.367   2.892  1.00  0.00    -0.010 C 
HETATM    3  C3  UNL     1     -11.634  14.264   3.923  1.00  0.00     0.009 C 
HETATM    4  C4  UNL     1     -11.369  14.626   5.392  1.00  0.00     0.039 C 
HETATM    5  C5  UNL     1     -11.311  16.108   5.629  1.00  0.00    -0.049 C 
HETATM    6  C6  UNL     1     -11.632  16.645   6.876  1.00  0.00     0.044 C 
HETATM    7  C7  UNL     1     -11.496  18.014   7.082  1.00  0.00     0.073 C 
HETATM    8  C8  UNL     1     -11.310  18.867   5.990  1.00  0.00     0.037 C 
HETATM    9  C9  UNL     1     -10.902  18.338   4.766  1.00  0.00     0.011 C 
HETATM   10  C10 UNL     1     -10.802  16.954   4.620  1.00  0.00    -0.047 C 
HETATM   11  C11 UNL     1     -10.144  16.322   3.390  1.00  0.00     0.024 C 
HETATM   12  C12 UNL     1      -8.809  15.638   3.829  1.00  0.00     0.033 C 
HETATM   13  C13 UNL     1      -7.438  15.859   3.145  1.00  0.00     0.140 C 
HETATM   14  C14 UNL     1      -6.402  16.992   3.481  1.00  0.00     0.050 C 
HETATM   15  C15 UNL     1      -5.005  16.383   3.654  1.00  0.00    -0.013 C 
HETATM   16  C16 UNL     1      -3.920  17.173   3.520  1.00  0.00    -0.050 C 
HETATM   17  C17 UNL     1      -4.179  18.650   3.391  1.00  0.00     0.043 C 
HETATM   18  C18 UNL     1      -5.044  18.981   4.611  1.00  0.00     0.013 C 
HETATM   19  C19 UNL     1      -4.332  18.630   6.000  1.00  0.00     0.039 C 
HETATM   20  C20 UNL     1      -2.820  18.260   5.957  1.00  0.00     0.130 C 
HETATM   21  O4  UNL     1      -2.725  16.924   5.452  1.00  0.00    -0.371 OA
HETATM   22  C21 UNL     1      -2.556  16.841   4.031  1.00  0.00     0.185 C 
HETATM   23  C22 UNL     1      -1.843  15.538   3.699  1.00  0.00    -0.006 A 
HETATM   24  C23 UNL     1      -2.297  14.659   2.702  1.00  0.00     0.014 A 
HETATM   25  C24 UNL     1      -1.572  13.504   2.387  1.00  0.00     0.037 A 
HETATM   26  C25 UNL     1      -0.380  13.232   3.052  1.00  0.00     0.067 A 
HETATM   27  C26 UNL     1       0.109  14.089   4.031  1.00  0.00     0.057 A 
HETATM   28  C27 UNL     1      -0.619  15.233   4.357  1.00  0.00     0.029 A 
HETATM   29  C28 UNL     1      -0.143  16.114   5.395  1.00  0.00    -0.066 C 
HETATM   30  C29 UNL     1      -0.132  16.965   6.248  1.00  0.00    -0.101 C 
HETATM   31  C30 UNL     1      -0.519  18.083   7.147  1.00  0.00     0.103 C 
HETATM   32  C31 UNL     1      -2.073  18.250   7.323  1.00  0.00     0.049 C 
HETATM   33  C33 UNL     1      -6.497  18.300   4.399  1.00  0.00     0.102 A 
HETATM   34  C34 UNL     1      -7.305  18.511   5.663  1.00  0.00     0.081 A 
HETATM   35  C35 UNL     1      -7.713  19.834   5.933  1.00  0.00     0.006 C 
HETATM   36  C36 UNL     1      -8.531  20.143   7.016  1.00  0.00     0.010 C 
HETATM   37  C37 UNL     1      -9.036  19.130   7.846  1.00  0.00    -0.003 C 
HETATM   38  C38 UNL     1      -8.485  17.838   7.675  1.00  0.00     0.010 C 
HETATM   39  C39 UNL     1      -7.623  17.536   6.601  1.00  0.00     0.006 C 
HETATM   40  C40 UNL     1     -10.339  19.406   8.679  1.00  0.00     0.170 C 
HETATM   41  O8  UNL     1     -11.366  18.404   8.404  1.00  0.00    -0.316 OA
HETATM   42 NA1  UNL     1      -7.632  17.210   6.392  1.00  0.00    -0.223 Na
ENDROOT
BRANCH  40  43
HETATM   43  C41 UNL     1      -9.971  19.378  10.209  1.00  0.00     0.070 C 
BRANCH  43  44
HETATM   44  C42 UNL     1      -8.951  18.363  10.753  1.00  0.00     0.043 C 
BRANCH  44  45
HETATM   45  C43 UNL     1      -7.600  18.922  11.245  1.00  0.00     0.058 C 
HETATM   46  C44 UNL     1      -6.387  18.589  10.378  1.00  0.00     0.038 C 
HETATM   47  C45 UNL     1      -5.193  18.823  11.300  1.00  0.00     0.003 C 
HETATM   48  C46 UNL     1      -5.703  18.576  12.722  1.00  0.00     0.003 C 
HETATM   49  C47 UNL     1      -7.203  18.309  12.596  1.00  0.00     0.038 C 
BRANCH  45  50
HETATM   50  O7  UNL     1      -7.645  20.344  11.406  1.00  0.00    -0.390 OA
HETATM   51  H44 UNL     1      -8.577  20.595  11.577  1.00  0.00     0.210 HD
ENDBRANCH  45  50
ENDBRANCH  44  45
ENDBRANCH  43  44
ENDBRANCH  40  43
BRANCH  40  52
HETATM   52  N1  UNL     1     -10.769  20.824   8.480  1.00  0.00    -0.336 N 
HETATM   53  C48 UNL     1     -11.941  21.212   8.794  1.00  0.00     0.124 C 
HETATM   54  N2  UNL     1     -12.995  20.517   9.267  1.00  0.00    -0.279 NA
HETATM   55  N3  UNL     1     -12.281  22.509   8.629  1.00  0.00    -0.279 NA
HETATM   56  H53 UNL     1     -12.801  19.538   9.471  1.00  0.00     0.126 HD
HETATM   57  H54 UNL     1     -13.479  20.969  10.032  1.00  0.00     0.126 HD
HETATM   58  H55 UNL     1     -11.579  22.978   8.063  1.00  0.00     0.126 HD
HETATM   59  H56 UNL     1     -13.196  22.600   8.209  1.00  0.00     0.126 HD
ATOM     60  H1  UNL     1     -10.111  21.494   8.085  1.00  0.00     0.165 HD
ENDBRANCH  40  52
BRANCH  13  61
HETATM   61  S1  UNL     1      -7.509  15.605   1.335  1.00  0.00     0.106 S 
HETATM   62  O1  UNL     1      -8.171  14.312   1.191  1.00  0.00    -0.595 OA
HETATM   63  O2  UNL     1      -6.115  15.583   0.888  1.00  0.00    -0.595 OA
HETATM   64  O3  UNL     1      -8.267  16.763   0.854  1.00  0.00    -0.595 OA
ENDBRANCH  13  61
BRANCH  32  65
HETATM   65  C32 UNL     1      -2.613  17.167   8.272  1.00  0.00     0.172 C 
BRANCH  65  66
HETATM   66  O6  UNL     1      -2.218  17.460   9.616  1.00  0.00    -0.400 OA
HETATM   67  H34 UNL     1      -2.813  18.164   9.945  1.00  0.00     0.209 HD
ENDBRANCH  65  66
ENDBRANCH  32  65
BRANCH  26  68
HETATM   68  O5  UNL     1       0.348  12.112   2.756  1.00  0.00    -0.361 OA
HETATM   69  H27 UNL     1      -0.218  11.527   2.220  1.00  0.00     0.217 HD
ENDBRANCH  26  68
TORSDOF 9
ENDMDL
