MODEL 1
REMARK minimizedAffinity -6.70905781
REMARK CNNscore 0.618000269
REMARK CNNaffinity 6.72391939
REMARK  4 active torsions:
REMARK  status: ('A' for Active; 'I' for Inactive)
REMARK    1  A    between atoms: C4_4  and  C5_5 
REMARK    2  A    between atoms: C5_5  and  C6_6 
REMARK    3  A    between atoms: C6_6  and  C7_7 
REMARK    4  A    between atoms: C7_7  and  C9_9 
ROOT
HETATM    1  C9  UNL     1     -14.125 -11.748  27.056  1.00  0.00    -0.002 C 
HETATM    2  C10 UNL     1     -15.685 -11.734  27.052  1.00  0.00     0.007 C 
HETATM    3  C11 UNL     1     -16.143 -10.597  27.982  1.00  0.00     0.015 C 
HETATM    4  C12 UNL     1     -14.878 -10.187  28.758  1.00  0.00    -0.013 C 
HETATM    5  C13 UNL     1     -14.750 -11.195  29.946  1.00  0.00     0.021 C 
HETATM    6  C14 UNL     1     -14.844  -8.795  29.384  1.00  0.00    -0.070 C 
HETATM    7  C15 UNL     1     -15.950  -8.197  29.858  1.00  0.00    -0.022 C 
HETATM    8  C16 UNL     1     -15.964  -6.888  30.582  1.00  0.00     0.034 C 
HETATM    9  C17 UNL     1     -14.631  -6.108  30.540  1.00  0.00     0.013 C 
HETATM   10  C18 UNL     1     -14.633  -4.853  31.490  1.00  0.00     0.018 C 
HETATM   11  C19 UNL     1     -15.361  -5.057  32.833  1.00  0.00     0.023 C 
HETATM   12  C20 UNL     1     -15.323  -3.670  30.775  1.00  0.00     0.023 C 
HETATM   13  C21 UNL     1     -13.190  -4.416  31.764  1.00  0.00     0.135 C 
HETATM   14  O1  UNL     1     -12.868  -3.762  32.756  1.00  0.00    -0.297 OA
HETATM   15  C22 UNL     1     -12.178  -4.749  30.705  1.00  0.00     0.080 C 
HETATM   16  C23 UNL     1     -12.055  -6.252  30.514  1.00  0.00     0.017 C 
HETATM   17  C24 UNL     1     -13.383  -7.063  30.670  1.00  0.00    -0.031 C 
HETATM   18  C25 UNL     1     -13.353  -7.771  32.046  1.00  0.00     0.016 C 
HETATM   19  C26 UNL     1     -13.474  -8.121  29.492  1.00  0.00     0.024 C 
HETATM   20  C27 UNL     1     -12.310  -9.141  29.438  1.00  0.00     0.010 C 
HETATM   21  C28 UNL     1     -12.388 -10.189  28.299  1.00  0.00     0.011 C 
HETATM   22  C29 UNL     1     -13.779 -10.336  27.645  1.00  0.00    -0.029 C 
HETATM   23  C30 UNL     1     -13.909  -9.289  26.493  1.00  0.00     0.016 C 
ENDROOT
BRANCH   1  24
HETATM   24  C7  UNL     1     -13.549 -12.175  25.673  1.00  0.00    -0.014 C 
HETATM   25  C8  UNL     1     -14.086 -13.555  25.250  1.00  0.00     0.010 C 
BRANCH  24  26
HETATM   26  C6  UNL     1     -12.004 -12.161  25.577  1.00  0.00     0.008 C 
BRANCH  26  27
HETATM   27  C5  UNL     1     -11.427 -12.571  24.219  1.00  0.00     0.028 C 
BRANCH  27  28
HETATM   28  C4  UNL     1     -10.031 -12.133  23.840  1.00  0.00    -0.025 C 
HETATM   29  C2  UNL     1      -8.842 -12.192  24.473  1.00  0.00    -0.091 C 
HETATM   30  C1  UNL     1      -7.610 -11.622  23.814  1.00  0.00     0.042 C 
HETATM   31  C3  UNL     1      -8.592 -12.800  25.822  1.00  0.00     0.042 C 
ENDBRANCH  27  28
ENDBRANCH  26  27
ENDBRANCH  24  26
ENDBRANCH   1  24
TORSDOF 4
ENDMDL
