MODEL 1
REMARK minimizedAffinity -8.45984459
REMARK CNNscore 0.481093287
REMARK CNNaffinity 7.07337713
REMARK  11 active torsions:
REMARK  status: ('A' for Active; 'I' for Inactive)
REMARK    1  A    between atoms: C2_2  and  C4_4 
REMARK    2  A    between atoms: C4_4  and  C6_6 
REMARK    3  A    between atoms: C7_7  and  C8_8 
REMARK    4  A    between atoms: C8_8  and  C10_10 
REMARK    5  A    between atoms: C24_24  and  O1_25 
REMARK    6  A    between atoms: O1_25  and  C25_26 
REMARK    7  A    between atoms: C26_28  and  C27_29 
REMARK    8  A    between atoms: C27_29  and  O3_30 
REMARK    9  A    between atoms: C28_31  and  O4_32 
REMARK   10  A    between atoms: C29_33  and  O5_34 
REMARK   11  A    between atoms: C30_35  and  O6_36 
ROOT
HETATM    1  C10 UNL     1      -1.193   6.855  12.413  1.00  0.00     0.001 C 
HETATM    2  C11 UNL     1      -0.909   5.392  12.845  1.00  0.00     0.006 C 
HETATM    3  C12 UNL     1      -2.215   4.864  13.472  1.00  0.00     0.009 C 
HETATM    4  C13 UNL     1      -3.214   5.999  13.266  1.00  0.00     0.036 C 
HETATM    5  C14 UNL     1      -2.358   7.287  13.359  1.00  0.00    -0.033 C 
HETATM    6  C15 UNL     1      -1.870   7.626  14.782  1.00  0.00     0.016 C 
HETATM    7  C16 UNL     1      -3.212   8.449  12.822  1.00  0.00     0.010 C 
HETATM    8  C17 UNL     1      -4.539   8.587  13.593  1.00  0.00     0.010 C 
HETATM    9  C18 UNL     1      -5.362   7.278  13.618  1.00  0.00     0.039 C 
HETATM   10  C19 UNL     1      -4.535   6.012  14.043  1.00  0.00     0.123 C 
HETATM   11  C20 UNL     1      -4.465   5.825  15.536  1.00  0.00     0.014 C 
HETATM   12  C21 UNL     1      -5.667   5.744  16.124  1.00  0.00     0.014 C 
HETATM   13  C22 UNL     1      -6.827   5.932  15.164  1.00  0.00     0.124 C 
HETATM   14  C23 UNL     1      -8.182   5.713  15.849  1.00  0.00     0.078 C 
HETATM   15  C24 UNL     1      -9.382   6.087  14.967  1.00  0.00     0.128 C 
HETATM   16  C31 UNL     1      -9.016   6.502  13.542  1.00  0.00     0.033 C 
HETATM   17  C32 UNL     1      -7.923   7.575  13.494  1.00  0.00     0.015 C 
HETATM   18  C33 UNL     1      -6.714   7.324  14.450  1.00  0.00     0.001 C 
HETATM   19  C34 UNL     1      -6.724   8.471  15.499  1.00  0.00     0.019 C 
HETATM   20  O7  UNL     1      -6.691   4.906  14.143  1.00  0.00    -0.223 OA
HETATM   21  O8  UNL     1      -5.305   4.864  13.588  1.00  0.00    -0.224 OA
ENDROOT
BRANCH  15  22
HETATM   22  O1  UNL     1     -10.059   7.202  15.569  1.00  0.00    -0.353 OA
BRANCH  22  23
HETATM   23  C25 UNL     1     -10.937   7.887  14.668  1.00  0.00     0.292 C 
HETATM   24  O2  UNL     1     -10.965   9.274  15.020  1.00  0.00    -0.348 OA
HETATM   25  C26 UNL     1     -11.813  10.051  14.172  1.00  0.00     0.179 C 
HETATM   26  C28 UNL     1     -13.267   9.591  14.338  1.00  0.00     0.180 C 
HETATM   27  C29 UNL     1     -13.378   8.101  14.027  1.00  0.00     0.183 C 
HETATM   28  C30 UNL     1     -12.349   7.271  14.800  1.00  0.00     0.204 C 
BRANCH  25  29
HETATM   29  C27 UNL     1     -11.668  11.534  14.553  1.00  0.00     0.198 C 
BRANCH  29  30
HETATM   30  O3  UNL     1     -10.482  12.109  14.011  1.00  0.00    -0.398 OA
HETATM   31  H41 UNL     1     -10.372  11.747  13.103  1.00  0.00     0.209 HD
ENDBRANCH  29  30
ENDBRANCH  25  29
BRANCH  26  32
HETATM   32  O4  UNL     1     -14.141  10.330  13.476  1.00  0.00    -0.390 OA
HETATM   33  H43 UNL     1     -14.993   9.844  13.471  1.00  0.00     0.210 HD
ENDBRANCH  26  32
BRANCH  27  34
HETATM   34  O5  UNL     1     -14.712   7.647  14.336  1.00  0.00    -0.390 OA
HETATM   35  H45 UNL     1     -14.829   7.674  15.304  1.00  0.00     0.210 HD
ENDBRANCH  27  34
BRANCH  28  36
HETATM   36  O6  UNL     1     -12.390   5.925  14.302  1.00  0.00    -0.388 OA
HETATM   37  H47 UNL     1     -13.331   5.674  14.243  1.00  0.00     0.210 HD
ENDBRANCH  28  36
ENDBRANCH  22  23
ENDBRANCH  15  22
BRANCH   1  38
HETATM   38  C8  UNL     1       0.050   7.766  12.250  1.00  0.00     0.008 C 
HETATM   39  C9  UNL     1      -0.312   9.216  12.610  1.00  0.00     0.014 C 
BRANCH  38  40
HETATM   40  C7  UNL     1       0.782   7.686  10.923  1.00  0.00    -0.026 C 
HETATM   41  C6  UNL     1       1.991   8.199  10.637  1.00  0.00    -0.026 C 
BRANCH  41  42
HETATM   42  C4  UNL     1       2.690   8.032   9.300  1.00  0.00     0.007 C 
HETATM   43  C5  UNL     1       4.200   7.949   9.554  1.00  0.00     0.014 C 
BRANCH  42  44
HETATM   44  C2  UNL     1       2.150   6.792   8.534  1.00  0.00    -0.015 C 
HETATM   45  C1  UNL     1       1.940   7.093   7.044  1.00  0.00     0.010 C 
HETATM   46  C3  UNL     1       3.082   5.581   8.659  1.00  0.00     0.010 C 
ENDBRANCH  42  44
ENDBRANCH  41  42
ENDBRANCH  38  40
ENDBRANCH   1  38
TORSDOF 11
ENDMDL
