MODEL 1
REMARK minimizedAffinity -7.00376177
REMARK CNNscore 0.701265574
REMARK CNNaffinity 5.92243052
REMARK  8 active torsions:
REMARK  status: ('A' for Active; 'I' for Inactive)
REMARK    1  A    between atoms: C2_2  and  C30_35 
REMARK    2  A    between atoms: C3_3  and  C4_4 
REMARK    3  A    between atoms: C4_4  and  O1_5 
REMARK    4  A    between atoms: C4_4  and  C5_6 
REMARK    5  A    between atoms: C5_6  and  C6_7 
REMARK    6  A    between atoms: C6_7  and  C8_9 
REMARK    7  A    between atoms: C10_11  and  O2_12 
REMARK    8  A    between atoms: C30_35  and  O7_37 
ROOT
HETATM    1  C8  UNL     1     -14.071   7.118  23.286  1.00  0.00     0.001 C 
HETATM    2  C9  UNL     1     -14.748   7.508  24.631  1.00  0.00     0.038 C 
HETATM    3  C10 UNL     1     -14.469   9.004  24.880  1.00  0.00     0.132 C 
HETATM    4  C11 UNL     1     -13.838   9.521  23.560  1.00  0.00     0.021 C 
HETATM    5  C12 UNL     1     -15.040   9.901  22.635  1.00  0.00     0.024 C 
HETATM    6  C13 UNL     1     -12.929  10.744  23.521  1.00  0.00     0.010 C 
HETATM    7  C14 UNL     1     -12.010  10.943  22.543  1.00  0.00     0.007 C 
HETATM    8  C15 UNL     1     -11.830   9.835  21.513  1.00  0.00     0.157 C 
HETATM    9  O3  UNL     1     -11.092   9.997  20.541  1.00  0.00    -0.293 OA
HETATM   10  C16 UNL     1     -12.564   8.508  21.657  1.00  0.00     0.094 C 
HETATM   11  C17 UNL     1     -13.022   8.256  23.093  1.00  0.00    -0.019 C 
HETATM   12  C18 UNL     1     -11.757   7.959  23.955  1.00  0.00     0.017 C 
HETATM   13  C19 UNL     1     -11.126  12.212  22.405  1.00  0.00    -0.007 C 
HETATM   14  C20 UNL     1      -9.697  11.800  22.833  1.00  0.00     0.021 C 
HETATM   15  C21 UNL     1     -11.082  12.740  20.933  1.00  0.00     0.022 C 
HETATM   16  C22 UNL     1     -10.914  14.247  20.758  1.00  0.00     0.080 C 
HETATM   17  C23 UNL     1     -10.206  14.874  21.931  1.00  0.00     0.135 C 
HETATM   18  O4  UNL     1      -9.189  15.545  21.773  1.00  0.00    -0.297 OA
HETATM   19  C24 UNL     1     -10.873  14.696  23.299  1.00  0.00     0.018 C 
HETATM   20  C25 UNL     1      -9.804  14.762  24.407  1.00  0.00     0.023 C 
HETATM   21  C26 UNL     1     -11.813  15.906  23.493  1.00  0.00     0.023 C 
HETATM   22  C27 UNL     1     -11.711  13.371  23.289  1.00  0.00     0.021 C 
HETATM   23  C28 UNL     1     -12.064  12.873  24.688  1.00  0.00     0.090 C 
HETATM   24  C29 UNL     1     -13.085  11.773  24.594  1.00  0.00     0.157 C 
HETATM   25  O5  UNL     1     -13.993  11.696  25.420  1.00  0.00    -0.293 OA
ENDROOT
BRANCH   1  26
HETATM   26  C6  UNL     1     -13.614   5.631  23.272  1.00  0.00    -0.011 C 
HETATM   27  C7  UNL     1     -13.951   4.918  21.957  1.00  0.00     0.010 C 
BRANCH  26  28
HETATM   28  C5  UNL     1     -14.151   4.796  24.474  1.00  0.00     0.040 C 
BRANCH  28  29
HETATM   29  C4  UNL     1     -13.835   3.289  24.465  1.00  0.00     0.142 C 
BRANCH  29  30
HETATM   30  C3  UNL     1     -13.451   2.811  25.838  1.00  0.00     0.018 C 
HETATM   31  C2  UNL     1     -12.461   1.960  26.173  1.00  0.00     0.010 C 
HETATM   32  C1  UNL     1     -11.504   1.291  25.233  1.00  0.00     0.055 C 
BRANCH  31  33
HETATM   33  C30 UNL     1     -12.334   1.645  27.620  1.00  0.00     0.171 C 
HETATM   34  O6  UNL     1     -11.325   1.729  28.299  1.00  0.00    -0.646 OA
BRANCH  33  35
HETATM   35  O7  UNL     1     -13.496   1.246  28.161  1.00  0.00    -0.773 OA
HETATM   36  H42 UNL     1     -13.269   1.087  29.101  1.00  0.00     0.167 HD
ENDBRANCH  33  35
ENDBRANCH  31  33
ENDBRANCH  29  30
BRANCH  29  37
HETATM   37  O1  UNL     1     -14.980   2.542  24.070  1.00  0.00    -0.392 OA
HETATM   38  H6  UNL     1     -15.603   2.533  24.817  1.00  0.00     0.210 HD
ENDBRANCH  29  37
ENDBRANCH  28  29
ENDBRANCH  26  28
ENDBRANCH   1  26
BRANCH   3  39
HETATM   39  O2  UNL     1     -13.591   9.123  25.994  1.00  0.00    -0.394 OA
HETATM   40  H17 UNL     1     -13.726  10.034  26.328  1.00  0.00     0.210 HD
ENDBRANCH   3  39
TORSDOF 8
ENDMDL
