MODEL 1
REMARK minimizedAffinity -7.17722273
REMARK CNNscore 0.438389391
REMARK CNNaffinity 5.72138977
REMARK  8 active torsions:
REMARK  status: ('A' for Active; 'I' for Inactive)
REMARK    1  A    between atoms: C12_14  and  C13_15 
REMARK    2  A    between atoms: C13_15  and  C15_17 
REMARK    3  A    between atoms: C15_17  and  C16_18 
REMARK    4  A    between atoms: C16_18  and  C17_19 
REMARK    5  A    between atoms: C26_28  and  C27_29 
REMARK    6  A    between atoms: C27_29  and  C28_30 
REMARK    7  A    between atoms: C28_30  and  C29_31 
REMARK    8  A    between atoms: C29_31  and  O4_33 
ROOT
HETATM    1  C1  UNL     1     -18.112  43.501 -25.895  1.00  0.00     0.025 C 
HETATM    2  C2  UNL     1     -17.076  43.785 -26.691  1.00  0.00     0.015 C 
HETATM    3  C3  UNL     1     -16.322  42.742 -27.422  1.00  0.00     0.289 C 
HETATM    4  O1  UNL     1     -16.401  41.540 -27.253  1.00  0.00    -0.260 OA
HETATM    5  O2  UNL     1     -15.503  43.368 -28.308  1.00  0.00    -0.311 OA
HETATM    6  C4  UNL     1     -15.835  44.762 -28.366  1.00  0.00     0.142 C 
HETATM    7  C5  UNL     1     -14.609  45.600 -28.701  1.00  0.00     0.039 C 
HETATM    8  C6  UNL     1     -13.521  45.461 -27.626  1.00  0.00     0.006 C 
HETATM    9  C7  UNL     1     -14.057  45.936 -26.255  1.00  0.00    -0.027 A 
HETATM   10  C8  UNL     1     -13.308  47.097 -25.597  1.00  0.00     0.011 C 
HETATM   11  C9  UNL     1     -11.770  47.064 -25.692  1.00  0.00     0.011 C 
HETATM   12  C10 UNL     1     -11.207  46.115 -26.762  1.00  0.00    -0.032 C 
HETATM   13  C11 UNL     1     -11.043  44.705 -26.119  1.00  0.00     0.016 C 
HETATM   14  C12 UNL     1      -9.843  46.527 -27.412  1.00  0.00    -0.002 C 
HETATM   15  C21 UNL     1      -9.885  45.785 -28.780  1.00  0.00     0.006 C 
HETATM   16  C22 UNL     1     -11.342  45.367 -29.044  1.00  0.00     0.011 C 
HETATM   17  C23 UNL     1     -12.173  46.141 -28.003  1.00  0.00    -0.032 C 
HETATM   18  C24 UNL     1     -12.417  47.559 -28.611  1.00  0.00     0.016 C 
HETATM   19  C25 UNL     1     -14.550  44.857 -25.314  1.00  0.00     0.022 A 
HETATM   20  C26 UNL     1     -15.579  45.747 -25.978  1.00  0.00    -0.021 A 
HETATM   21  C30 UNL     1     -16.499  45.116 -27.042  1.00  0.00     0.063 C 
ENDROOT
BRANCH  14  22
HETATM   22  C13 UNL     1      -8.504  46.287 -26.647  1.00  0.00    -0.014 C 
HETATM   23  C14 UNL     1      -8.689  46.373 -25.128  1.00  0.00     0.010 C 
BRANCH  22  24
HETATM   24  C15 UNL     1      -7.425  47.307 -27.119  1.00  0.00     0.008 C 
BRANCH  24  25
HETATM   25  C16 UNL     1      -6.445  47.732 -26.019  1.00  0.00     0.028 C 
BRANCH  25  26
HETATM   26  C17 UNL     1      -5.017  48.056 -26.384  1.00  0.00    -0.025 C 
HETATM   27  C18 UNL     1      -3.961  48.483 -25.663  1.00  0.00    -0.091 C 
HETATM   28  C19 UNL     1      -2.651  48.784 -26.351  1.00  0.00     0.042 C 
HETATM   29  C20 UNL     1      -3.928  48.690 -24.176  1.00  0.00     0.042 C 
ENDBRANCH  25  26
ENDBRANCH  24  25
ENDBRANCH  22  24
ENDBRANCH  14  22
BRANCH  20  30
HETATM   30  C27 UNL     1     -16.321  46.709 -25.043  1.00  0.00     0.021 C 
BRANCH  30  31
HETATM   31  C28 UNL     1     -17.127  45.996 -23.958  1.00  0.00     0.111 C 
BRANCH  31  32
HETATM   32  C29 UNL     1     -18.533  46.525 -23.896  1.00  0.00     0.139 C 
HETATM   33  O3  UNL     1     -19.060  47.319 -24.655  1.00  0.00    -0.650 OA
BRANCH  32  34
HETATM   34  O4  UNL     1     -19.211  46.031 -22.842  1.00  0.00    -0.776 OA
HETATM   35  H43 UNL     1     -20.094  46.452 -22.907  1.00  0.00     0.167 HD
ENDBRANCH  32  34
ENDBRANCH  31  32
ENDBRANCH  30  31
ENDBRANCH  20  30
TORSDOF 8
ENDMDL
