MODEL 1
REMARK minimizedAffinity -9.35338402
REMARK CNNscore 0.624207616
REMARK CNNaffinity 7.6949172
REMARK  14 active torsions:
REMARK  status: ('A' for Active; 'I' for Inactive)
REMARK    1  A    between atoms: C19_20  and  O2_21 
REMARK    2  A    between atoms: C19_20  and  C20_22 
REMARK    3  A    between atoms: C20_22  and  C21_24 
REMARK    4  A    between atoms: C21_24  and  O4_25 
REMARK    5  A    between atoms: O4_25  and  C22_26 
REMARK    6  A    between atoms: C22_26  and  C23_28 
REMARK    7  A    between atoms: C23_28  and  C24_29 
REMARK    8  A    between atoms: C24_29  and  C25_30 
REMARK       I    between atoms: C25_30  and  N1_32 
REMARK    9  A    between atoms: N1_32  and  C26_33 
REMARK   10  A    between atoms: C26_33  and  C27_34 
REMARK   11  A    between atoms: C27_34  and  C28_35 
REMARK   12  A    between atoms: C27_34  and  C30_39 
REMARK   13  A    between atoms: C28_35  and  C29_36 
REMARK   14  A    between atoms: C29_36  and  O8_38 
ROOT
HETATM    1  C20 UNL     1      -5.767   4.744  13.640  1.00  0.00     0.185 C 
HETATM    2  O3  UNL     1      -6.012   3.747  12.943  1.00  0.00    -0.292 OA
ENDROOT
BRANCH   1   3
HETATM    3  C19 UNL     1      -6.833   5.228  14.641  1.00  0.00     0.128 C 
HETATM    4  C14 UNL     1      -7.871   6.233  14.050  1.00  0.00    -0.002 C 
HETATM    5  C13 UNL     1      -8.946   5.646  13.120  1.00  0.00     0.013 C 
HETATM    6  C15 UNL     1      -7.147   7.398  13.325  1.00  0.00     0.019 C 
HETATM    7  C16 UNL     1      -8.582   6.670  15.354  1.00  0.00     0.002 C 
HETATM    8  C12 UNL     1     -10.092   6.642  12.852  1.00  0.00     0.007 C 
HETATM    9  C11 UNL     1     -10.728   7.209  14.146  1.00  0.00     0.002 C 
HETATM   10  C2  UNL     1     -11.876   8.258  13.907  1.00  0.00    -0.016 C 
HETATM   11  C10 UNL     1      -9.634   7.761  15.129  1.00  0.00    -0.004 C 
HETATM   12  C1  UNL     1     -11.355   9.526  13.182  1.00  0.00     0.020 C 
HETATM   13  C3  UNL     1     -13.032   7.719  13.015  1.00  0.00     0.022 C 
HETATM   14  C7  UNL     1     -12.412   8.619  15.302  1.00  0.00    -0.068 C 
HETATM   15  C4  UNL     1     -13.965   6.763  13.736  1.00  0.00     0.084 C 
HETATM   16  C5  UNL     1     -14.552   7.458  14.939  1.00  0.00     0.149 C 
HETATM   17  O1  UNL     1     -15.709   7.282  15.309  1.00  0.00    -0.293 OA
HETATM   18  C6  UNL     1     -13.644   8.309  15.744  1.00  0.00     0.053 C 
HETATM   19  C8  UNL     1     -11.404   9.225  16.246  1.00  0.00     0.035 C 
HETATM   20  C9  UNL     1     -10.257   8.235  16.458  1.00  0.00     0.010 C 
HETATM   21  C17 UNL     1      -7.430   6.949  16.314  1.00  0.00     0.009 C 
HETATM   22  C18 UNL     1      -6.335   5.934  15.923  1.00  0.00     0.047 C 
BRANCH   3  23
HETATM   23  O2  UNL     1      -7.515   4.034  15.075  1.00  0.00    -0.381 OA
HETATM   24  H27 UNL     1      -7.590   3.461  14.285  1.00  0.00     0.211 HD
ENDBRANCH   3  23
ENDBRANCH   1   3
BRANCH   1  25
HETATM   25  C21 UNL     1      -4.453   5.510  13.516  1.00  0.00     0.260 C 
BRANCH  25  26
HETATM   26  O4  UNL     1      -3.321   4.636  13.538  1.00  0.00    -0.314 OA
BRANCH  26  27
HETATM   27  C22 UNL     1      -2.179   5.186  13.039  1.00  0.00     0.259 C 
HETATM   28  O5  UNL     1      -1.602   6.157  13.514  1.00  0.00    -0.265 OA
BRANCH  27  29
HETATM   29  C23 UNL     1      -1.715   4.410  11.831  1.00  0.00     0.120 C 
BRANCH  29  30
HETATM   30  C24 UNL     1      -0.827   5.268  10.937  1.00  0.00     0.112 C 
BRANCH  30  31
HETATM   31  C25 UNL     1       0.641   5.091  11.271  1.00  0.00     0.218 C 
HETATM   32  O6  UNL     1       1.185   3.994  11.347  1.00  0.00    -0.274 OA
HETATM   33  N1  UNL     1       1.291   6.282  11.511  1.00  0.00    -0.360 N 
HETATM   34  H34 UNL     1       0.730   7.119  11.629  1.00  0.00     0.162 HD
BRANCH  33  35
HETATM   35  C26 UNL     1       2.695   6.348  11.862  1.00  0.00     0.132 C 
BRANCH  35  36
HETATM   36  C27 UNL     1       3.670   6.400  10.659  1.00  0.00     0.046 C 
BRANCH  36  37
HETATM   37  C28 UNL     1       5.003   7.096  11.004  1.00  0.00     0.120 C 
BRANCH  37  38
HETATM   38  C29 UNL     1       6.287   6.311  10.904  1.00  0.00     0.140 C 
HETATM   39  O7  UNL     1       7.399   6.802  11.051  1.00  0.00    -0.650 OA
BRANCH  38  40
HETATM   40  O8  UNL     1       6.181   4.996  10.649  1.00  0.00    -0.776 OA
HETATM   41  H40 UNL     1       7.107   4.679  10.729  1.00  0.00     0.167 HD
ENDBRANCH  38  40
ENDBRANCH  37  38
ENDBRANCH  36  37
BRANCH  36  42
HETATM   42  C30 UNL     1       3.093   6.796   9.299  1.00  0.00    -0.052 A 
HETATM   43  C31 UNL     1       2.892   5.796   8.329  1.00  0.00     0.007 A 
HETATM   44  C32 UNL     1       2.355   6.099   7.075  1.00  0.00     0.001 A 
HETATM   45  C33 UNL     1       2.000   7.409   6.770  1.00  0.00     0.000 A 
HETATM   46  C34 UNL     1       2.184   8.412   7.717  1.00  0.00     0.001 A 
HETATM   47  C35 UNL     1       2.722   8.108   8.972  1.00  0.00     0.007 A 
ENDBRANCH  36  42
ENDBRANCH  35  36
ENDBRANCH  33  35
ENDBRANCH  30  31
ENDBRANCH  29  30
ENDBRANCH  27  29
ENDBRANCH  26  27
ENDBRANCH  25  26
ENDBRANCH   1  25
TORSDOF 14
ENDMDL
