MODEL 1
REMARK minimizedAffinity -9.86379623
REMARK  4 active torsions:
REMARK  status: ('A' for Active; 'I' for Inactive)
REMARK    1  A    between atoms: C14_16  and  C15_17 
REMARK    2  A    between atoms: C15_17  and  C17_19 
REMARK    3  A    between atoms: C17_19  and  C18_20 
REMARK    4  A    between atoms: C18_20  and  C19_21 
ROOT
HETATM    1  C1  UNL     1      -2.616  49.970 -27.396  1.00  0.00     0.017 C 
HETATM    2  C2  UNL     1      -2.782  50.631 -26.234  1.00  0.00    -0.060 C 
HETATM    3  C3  UNL     1      -3.439  51.998 -26.226  1.00  0.00     0.212 C 
HETATM    4  O1  UNL     1      -2.581  52.968 -25.631  1.00  0.00    -0.317 OA
HETATM    5  C4  UNL     1      -1.367  53.054 -26.238  1.00  0.00     0.259 C 
HETATM    6  O2  UNL     1      -1.183  53.122 -27.445  1.00  0.00    -0.265 OA
HETATM    7  C5  UNL     1      -0.283  52.933 -25.204  1.00  0.00     0.112 C 
HETATM    8  C6  UNL     1      -0.168  51.492 -24.688  1.00  0.00     0.020 C 
HETATM    9  C7  UNL     1      -1.435  50.941 -23.991  1.00  0.00    -0.024 A 
HETATM   10  C8  UNL     1      -2.090  51.838 -22.963  1.00  0.00     0.022 A 
HETATM   11  C9  UNL     1      -1.417  50.578 -22.463  1.00  0.00    -0.027 A 
HETATM   12  C10 UNL     1      -0.092  50.754 -21.708  1.00  0.00     0.011 C 
HETATM   13  C11 UNL     1      -0.064  50.487 -20.192  1.00  0.00     0.011 C 
HETATM   14  C12 UNL     1      -1.356  49.899 -19.617  1.00  0.00    -0.032 C 
HETATM   15  C13 UNL     1      -2.338  51.075 -19.370  1.00  0.00     0.016 C 
HETATM   16  C14 UNL     1      -1.197  49.051 -18.311  1.00  0.00    -0.002 C 
HETATM   17  C23 UNL     1      -2.389  48.056 -18.367  1.00  0.00     0.006 C 
HETATM   18  C24 UNL     1      -2.976  48.131 -19.786  1.00  0.00     0.011 C 
HETATM   19  C25 UNL     1      -1.887  48.820 -20.630  1.00  0.00    -0.032 C 
HETATM   20  C26 UNL     1      -0.848  47.718 -21.014  1.00  0.00     0.016 C 
HETATM   21  C27 UNL     1      -2.414  49.522 -21.909  1.00  0.00     0.004 C 
HETATM   22  C28 UNL     1      -2.899  48.554 -22.995  1.00  0.00     0.007 C 
HETATM   23  C29 UNL     1      -3.433  49.318 -24.202  1.00  0.00     0.010 C 
HETATM   24  C30 UNL     1      -2.279  50.029 -24.923  1.00  0.00     0.025 C 
ENDROOT
BRANCH  16  25
HETATM   25  C15 UNL     1      -0.971  49.680 -16.904  1.00  0.00    -0.014 C 
HETATM   26  C16 UNL     1      -1.996  50.722 -16.436  1.00  0.00     0.010 C 
BRANCH  25  27
HETATM   27  C17 UNL     1       0.471  50.219 -16.753  1.00  0.00     0.008 C 
BRANCH  27  28
HETATM   28  C18 UNL     1       0.594  51.750 -16.711  1.00  0.00     0.028 C 
BRANCH  28  29
HETATM   29  C19 UNL     1       2.021  52.218 -16.804  1.00  0.00    -0.025 C 
HETATM   30  C20 UNL     1       2.973  52.203 -15.850  1.00  0.00    -0.091 C 
HETATM   31  C21 UNL     1       4.358  52.723 -16.146  1.00  0.00     0.042 C 
HETATM   32  C22 UNL     1       2.798  51.697 -14.446  1.00  0.00     0.042 C 
ENDBRANCH  28  29
ENDBRANCH  27  28
ENDBRANCH  25  27
ENDBRANCH  16  25
TORSDOF 4
ENDMDL
