MODEL 1
REMARK minimizedAffinity -8.19250965
REMARK CNNscore 0.478879571
REMARK CNNaffinity 6.49949074
REMARK  12 active torsions:
REMARK  status: ('A' for Active; 'I' for Inactive)
REMARK    1  A    between atoms: C3_4  and  O2_5 
REMARK    2  A    between atoms: O2_5  and  C4_6 
REMARK    3  A    between atoms: C7_9  and  C8_10 
REMARK    4  A    between atoms: N1_11  and  C9_13 
REMARK    5  A    between atoms: C9_13  and  C10_14 
REMARK    6  A    between atoms: C10_14  and  C11_15 
REMARK    7  A    between atoms: C11_15  and  O3_16 
REMARK    8  A    between atoms: C17_22  and  C18_23 
REMARK    9  A    between atoms: C24_31  and  O6_32 
REMARK   10  A    between atoms: C28_36  and  O7_37 
REMARK   11  A    between atoms: C31_40  and  O8_41 
REMARK   12  A    between atoms: C32_42  and  O9_43 
ROOT
HETATM    1  C4  UNL     1      -0.696   8.520  12.183  1.00  0.00     0.127 C 
HETATM    2  C5  UNL     1      -2.207   8.259  12.203  1.00  0.00     0.033 C 
HETATM    3  C6  UNL     1      -2.911   9.109  13.254  1.00  0.00     0.021 C 
HETATM    4  C7  UNL     1      -2.383   8.904  14.715  1.00  0.00     0.026 C 
HETATM    5  C12 UNL     1      -2.276  10.328  15.399  1.00  0.00     0.009 C 
HETATM    6  C13 UNL     1      -3.614  11.097  15.461  1.00  0.00     0.007 C 
HETATM    7  C14 UNL     1      -3.434  12.505  16.018  1.00  0.00     0.013 C 
HETATM    8  C15 UNL     1      -2.780  12.538  17.430  1.00  0.00    -0.005 C 
HETATM    9  C16 UNL     1      -3.806  12.006  18.450  1.00  0.00     0.019 C 
HETATM   10  C17 UNL     1      -2.323  14.015  17.715  1.00  0.00     0.028 C 
HETATM   11  C22 UNL     1      -0.864  14.095  17.205  1.00  0.00     0.013 C 
HETATM   12  C23 UNL     1      -0.476  12.698  16.716  1.00  0.00     0.040 C 
HETATM   13  C24 UNL     1      -1.448  11.739  17.420  1.00  0.00     0.070 C 
HETATM   14  C25 UNL     1      -1.561  10.323  16.776  1.00  0.00     0.026 C 
HETATM   15  C26 UNL     1      -0.189   9.635  16.652  1.00  0.00     0.011 C 
HETATM   16  C27 UNL     1      -0.309   8.230  16.083  1.00  0.00     0.039 C 
HETATM   17  C28 UNL     1      -0.995   8.166  14.710  1.00  0.00     0.073 C 
HETATM   18  C29 UNL     1      -0.095   8.725  13.589  1.00  0.00     0.071 C 
ENDROOT
BRANCH   1  19
HETATM   19  O2  UNL     1       0.021   7.448  11.551  1.00  0.00    -0.356 OA
BRANCH  19  20
HETATM   20  C3  UNL     1       1.434   7.507  11.733  1.00  0.00     0.263 C 
HETATM   21  O1  UNL     1       2.069   8.363  10.780  1.00  0.00    -0.354 OA
HETATM   22  C2  UNL     1       2.112   7.896   9.420  1.00  0.00     0.151 C 
HETATM   23  C1  UNL     1       0.770   8.010   8.705  1.00  0.00     0.042 C 
HETATM   24  C32 UNL     1       2.719   6.490   9.338  1.00  0.00     0.175 C 
HETATM   25  C31 UNL     1       2.010   5.528  10.296  1.00  0.00     0.154 C 
HETATM   26  C30 UNL     1       2.004   6.094  11.709  1.00  0.00     0.095 C 
BRANCH  24  27
HETATM   27  O9  UNL     1       4.112   6.538   9.715  1.00  0.00    -0.390 OA
HETATM   28  H49 UNL     1       4.220   7.294  10.326  1.00  0.00     0.210 HD
ENDBRANCH  24  27
BRANCH  25  29
HETATM   29  O8  UNL     1       2.693   4.272  10.303  1.00  0.00    -0.393 OA
HETATM   30  H47 UNL     1       3.650   4.485  10.273  1.00  0.00     0.210 HD
ENDBRANCH  25  29
ENDBRANCH  19  20
ENDBRANCH   1  19
BRANCH  17  31
HETATM   31  O7  UNL     1      -1.173   6.763  14.441  1.00  0.00    -0.389 OA
HETATM   32  H41 UNL     1      -0.301   6.383  14.231  1.00  0.00     0.210 HD
ENDBRANCH  17  31
BRANCH   4  33
HETATM   33  C8  UNL     1      -3.375   7.955  15.405  1.00  0.00     0.068 C 
HETATM   34  N1  UNL     1      -4.355   7.398  14.785  1.00  0.00    -0.401 N 
ATOM     35  H1  UNL     1      -4.515   7.529  13.786  1.00  0.00     0.158 HD
BRANCH  34  36
HETATM   36  C9  UNL     1      -5.227   6.561  15.617  1.00  0.00     0.121 C 
BRANCH  36  37
HETATM   37  C10 UNL     1      -6.470   6.191  14.811  1.00  0.00     0.045 C 
BRANCH  37  38
HETATM   38  C11 UNL     1      -7.372   5.225  15.571  1.00  0.00     0.165 C 
BRANCH  38  39
HETATM   39  O3  UNL     1      -8.614   5.832  15.897  1.00  0.00    -0.401 OA
HETATM   40  H18 UNL     1      -9.032   6.104  15.060  1.00  0.00     0.209 HD
ENDBRANCH  38  39
ENDBRANCH  37  38
ENDBRANCH  36  37
ENDBRANCH  34  36
ENDBRANCH   4  33
BRANCH  13  41
HETATM   41  O6  UNL     1      -0.994  11.596  18.772  1.00  0.00    -0.389 OA
HETATM   42  H35 UNL     1      -0.098  11.220  18.766  1.00  0.00     0.210 HD
ENDBRANCH  13  41
BRANCH  10  43
HETATM   43  C18 UNL     1      -2.472  14.572  19.108  1.00  0.00    -0.045 A 
HETATM   44  C19 UNL     1      -3.630  14.928  19.667  1.00  0.00     0.087 A 
HETATM   45  C20 UNL     1      -3.330  15.458  20.993  1.00  0.00     0.283 A 
HETATM   46  O4  UNL     1      -4.164  15.873  21.778  1.00  0.00    -0.260 OA
HETATM   47  O5  UNL     1      -1.988  15.423  21.193  1.00  0.00    -0.314 OA
HETATM   48  C21 UNL     1      -1.356  14.842  20.048  1.00  0.00     0.213 A 
ENDBRANCH  10  43
TORSDOF 12
ENDMDL
