MODEL 1
REMARK minimizedAffinity -9.5015955
REMARK  0 active torsions:
REMARK  status: ('A' for Active; 'I' for Inactive)
ROOT
HETATM    1  C1  UNL     1       3.056  10.753  16.042  1.00  0.00     0.023 C 
HETATM    2  C2  UNL     1       2.813  10.161  14.644  1.00  0.00     0.017 C 
HETATM    3  C3  UNL     1       3.077  11.293  13.616  1.00  0.00     0.023 C 
HETATM    4  C4  UNL     1       3.870   9.069  14.403  1.00  0.00     0.135 C 
HETATM    5  O1  UNL     1       4.951   9.310  13.859  1.00  0.00    -0.297 OA
HETATM    6  C5  UNL     1       3.613   7.694  14.968  1.00  0.00     0.080 C 
HETATM    7  C6  UNL     1       2.203   7.218  14.646  1.00  0.00     0.017 C 
HETATM    8  C7  UNL     1       1.067   8.191  15.089  1.00  0.00    -0.035 C 
HETATM    9  C8  UNL     1       1.100   8.247  16.643  1.00  0.00     0.016 C 
HETATM   10  C9  UNL     1       1.374   9.572  14.412  1.00  0.00     0.009 C 
HETATM   11  C10 UNL     1       0.242  10.580  14.687  1.00  0.00     0.007 C 
HETATM   12  C11 UNL     1      -1.067  10.090  14.078  1.00  0.00     0.011 C 
HETATM   13  C12 UNL     1      -1.578   8.727  14.613  1.00  0.00    -0.032 C 
HETATM   14  C13 UNL     1      -2.021   8.948  16.089  1.00  0.00     0.016 C 
HETATM   15  C14 UNL     1      -0.389   7.648  14.632  1.00  0.00     0.003 C 
HETATM   16  C15 UNL     1      -0.362   6.849  13.316  1.00  0.00     0.006 C 
HETATM   17  C16 UNL     1      -1.662   6.093  13.028  1.00  0.00     0.006 C 
HETATM   18  C17 UNL     1      -2.898   6.641  13.748  1.00  0.00    -0.000 C 
HETATM   19  C18 UNL     1      -4.218   6.050  13.184  1.00  0.00     0.009 C 
HETATM   20  C19 UNL     1      -4.457   4.524  13.191  1.00  0.00     0.067 A 
HETATM   21  C20 UNL     1      -6.014   4.399  13.219  1.00  0.00     0.140 A 
HETATM   22  C21 UNL     1      -6.574   5.823  13.300  1.00  0.00     0.042 C 
HETATM   23  C22 UNL     1      -5.437   6.607  13.959  1.00  0.00    -0.037 C 
HETATM   24  C23 UNL     1      -5.441   6.290  15.478  1.00  0.00     0.015 C 
HETATM   25  C24 UNL     1      -5.507   8.120  13.731  1.00  0.00     0.010 C 
HETATM   26  C25 UNL     1      -4.238   8.807  14.263  1.00  0.00     0.011 C 
HETATM   27  C26 UNL     1      -2.878   8.218  13.728  1.00  0.00    -0.032 C 
HETATM   28  C27 UNL     1      -2.807   8.715  12.243  1.00  0.00     0.016 C 
HETATM   29  O2  UNL     1      -6.476   3.773  12.014  1.00  0.00    -0.313 OA
HETATM   30  C28 UNL     1      -5.416   3.382  11.255  1.00  0.00     0.297 A 
HETATM   31  O3  UNL     1      -5.484   2.780  10.197  1.00  0.00    -0.262 OA
HETATM   32  C29 UNL     1      -4.173   3.757  11.946  1.00  0.00     0.175 A 
HETATM   33  C30 UNL     1      -2.928   2.916  11.801  1.00  0.00     0.218 A 
HETATM   34  O4  UNL     1      -3.074   4.180  11.138  1.00  0.00    -0.364 OA
ENDROOT
TORSDOF 0
ENDMDL
