MODEL 1
REMARK minimizedAffinity -7.61265659
REMARK CNNscore 0.717548847
REMARK CNNaffinity 6.3308053
REMARK  9 active torsions:
REMARK  status: ('A' for Active; 'I' for Inactive)
REMARK    1  A    between atoms: C2_2  and  C33_38 
REMARK    2  A    between atoms: C3_3  and  C4_4 
REMARK    3  A    between atoms: C4_4  and  O1_5 
REMARK    4  A    between atoms: C4_4  and  C5_6 
REMARK    5  A    between atoms: C5_6  and  C6_7 
REMARK    6  A    between atoms: C6_7  and  C8_9 
REMARK    7  A    between atoms: C10_11  and  O2_12 
REMARK    8  A    between atoms: C32_36  and  O5_37 
REMARK    9  A    between atoms: C33_38  and  O7_40 
ROOT
HETATM    1  C8  UNL     1      10.629  11.088  15.322  1.00  0.00     0.002 C 
HETATM    2  C9  UNL     1      10.259  10.736  16.782  1.00  0.00     0.038 C 
HETATM    3  C10 UNL     1       8.947   9.917  16.706  1.00  0.00     0.132 C 
HETATM    4  C11 UNL     1       8.776   9.546  15.197  1.00  0.00     0.017 C 
HETATM    5  C12 UNL     1       9.625   8.275  14.874  1.00  0.00     0.023 C 
HETATM    6  C13 UNL     1       7.372   9.252  14.646  1.00  0.00    -0.029 C 
HETATM    7  C14 UNL     1       7.044   9.605  13.374  1.00  0.00     0.003 C 
HETATM    8  C15 UNL     1       8.155  10.153  12.463  1.00  0.00     0.157 C 
HETATM    9  O3  UNL     1       8.011  10.224  11.244  1.00  0.00    -0.293 OA
HETATM   10  C16 UNL     1       9.457  10.659  13.065  1.00  0.00     0.094 C 
HETATM   11  C17 UNL     1       9.282  10.916  14.553  1.00  0.00    -0.016 C 
HETATM   12  C18 UNL     1       8.238  12.087  14.869  1.00  0.00     0.011 C 
HETATM   13  C19 UNL     1       7.731  12.989  13.720  1.00  0.00     0.001 C 
HETATM   14  C20 UNL     1       6.230  13.309  13.783  1.00  0.00     0.000 C 
HETATM   15  C21 UNL     1       5.267  12.111  13.799  1.00  0.00     0.001 C 
HETATM   16  C22 UNL     1       5.296  11.186  12.558  1.00  0.00     0.015 C 
HETATM   17  C23 UNL     1       5.585   9.647  12.833  1.00  0.00    -0.004 C 
HETATM   18  C24 UNL     1       5.456   8.858  11.486  1.00  0.00     0.022 C 
HETATM   19  C25 UNL     1       4.972   7.425  11.629  1.00  0.00     0.080 C 
HETATM   20  C26 UNL     1       3.578   7.390  12.201  1.00  0.00     0.135 C 
HETATM   21  O4  UNL     1       2.785   6.512  11.855  1.00  0.00    -0.297 OA
HETATM   22  C27 UNL     1       3.198   8.472  13.214  1.00  0.00     0.018 C 
HETATM   23  C28 UNL     1       2.277   7.832  14.279  1.00  0.00     0.023 C 
HETATM   24  C29 UNL     1       2.347   9.527  12.481  1.00  0.00     0.023 C 
HETATM   25  C30 UNL     1       4.498   9.090  13.868  1.00  0.00     0.017 C 
HETATM   26  C31 UNL     1       5.134   8.110  14.873  1.00  0.00     0.043 C 
HETATM   27  C32 UNL     1       6.355   8.668  15.591  1.00  0.00     0.149 C 
ENDROOT
BRANCH   1  28
HETATM   28  C6  UNL     1      11.569  12.309  15.097  1.00  0.00    -0.011 C 
HETATM   29  C7  UNL     1      11.107  13.054  13.829  1.00  0.00     0.010 C 
BRANCH  28  30
HETATM   30  C5  UNL     1      13.081  12.020  15.027  1.00  0.00     0.040 C 
BRANCH  30  31
HETATM   31  C4  UNL     1      13.865  12.133  16.350  1.00  0.00     0.142 C 
BRANCH  31  32
HETATM   32  C3  UNL     1      13.003  11.899  17.553  1.00  0.00     0.018 C 
HETATM   33  C2  UNL     1      13.221  12.296  18.824  1.00  0.00     0.010 C 
HETATM   34  C1  UNL     1      14.421  13.038  19.327  1.00  0.00     0.055 C 
BRANCH  33  35
HETATM   35  C33 UNL     1      12.167  11.941  19.810  1.00  0.00     0.171 C 
HETATM   36  O6  UNL     1      11.488  12.714  20.464  1.00  0.00    -0.646 OA
BRANCH  35  37
HETATM   37  O7  UNL     1      12.021  10.613  19.948  1.00  0.00    -0.773 OA
HETATM   38  H48 UNL     1      11.309  10.533  20.615  1.00  0.00     0.167 HD
ENDBRANCH  35  37
ENDBRANCH  33  35
ENDBRANCH  31  32
BRANCH  31  39
HETATM   39  O1  UNL     1      14.852  11.103  16.370  1.00  0.00    -0.392 OA
HETATM   40  H6  UNL     1      15.477  11.284  15.648  1.00  0.00     0.210 HD
ENDBRANCH  31  39
ENDBRANCH  30  31
ENDBRANCH  28  30
ENDBRANCH   1  28
BRANCH   3  41
HETATM   41  O2  UNL     1       8.986   8.775  17.548  1.00  0.00    -0.394 OA
HETATM   42  H17 UNL     1       9.279   9.067  18.431  1.00  0.00     0.210 HD
ENDBRANCH   3  41
BRANCH  27  43
HETATM   43  O5  UNL     1       6.887   7.566  16.316  1.00  0.00    -0.391 OA
HETATM   44  H47 UNL     1       7.638   7.879  16.859  1.00  0.00     0.210 HD
ENDBRANCH  27  43
TORSDOF 9
ENDMDL
