MODEL 1
REMARK minimizedAffinity -8.0353632
REMARK CNNscore 0.802521884
REMARK CNNaffinity 7.41380501
REMARK  13 active torsions:
REMARK  status: ('A' for Active; 'I' for Inactive)
REMARK    1  A    between atoms: C2_2  and  C3_3 
REMARK    2  A    between atoms: C3_3  and  C4_4 
REMARK    3  A    between atoms: C6_7  and  C7_8 
REMARK    4  A    between atoms: C7_8  and  O2_9 
REMARK    5  A    between atoms: C7_8  and  C8_10 
REMARK    6  A    between atoms: C8_10  and  O3_12 
REMARK    7  A    between atoms: C8_10  and  C10_13 
REMARK    8  A    between atoms: C13_16  and  O4_17 
REMARK    9  A    between atoms: C19_24  and  O6_25 
REMARK   10  A    between atoms: O6_25  and  C20_26 
REMARK   11  A    between atoms: C20_26  and  C21_27 
REMARK   12  A    between atoms: C21_27  and  C22_28 
REMARK   13  A    between atoms: C22_28  and  O7_29 
ROOT
HETATM    1  C10 UNL     1      -1.426  50.159 -16.987  1.00  0.00     0.034 C 
HETATM    2  C11 UNL     1      -0.396  51.336 -17.052  1.00  0.00     0.012 C 
HETATM    3  C12 UNL     1      -0.376  51.855 -18.506  1.00  0.00     0.044 C 
HETATM    4  C13 UNL     1      -1.610  51.216 -19.145  1.00  0.00     0.089 C 
HETATM    5  C14 UNL     1      -1.783  51.103 -20.641  1.00  0.00    -0.037 C 
HETATM    6  C15 UNL     1      -0.833  51.436 -21.526  1.00  0.00     0.057 C 
HETATM    7  C16 UNL     1      -0.974  51.113 -22.962  1.00  0.00     0.154 C 
HETATM    8  O5  UNL     1      -0.098  51.506 -23.730  1.00  0.00    -0.293 OA
HETATM    9  C17 UNL     1      -2.144  50.234 -23.408  1.00  0.00     0.071 C 
HETATM   10  C18 UNL     1      -2.375  50.395 -24.917  1.00  0.00     0.045 C 
HETATM   11  C19 UNL     1      -2.896  51.788 -25.292  1.00  0.00     0.122 C 
HETATM   12  C24 UNL     1      -4.125  52.168 -24.465  1.00  0.00     0.033 C 
HETATM   13  C25 UNL     1      -3.931  51.960 -22.962  1.00  0.00     0.013 C 
HETATM   14  C26 UNL     1      -3.423  50.531 -22.588  1.00  0.00    -0.026 C 
HETATM   15  C27 UNL     1      -4.540  49.514 -22.946  1.00  0.00     0.016 C 
HETATM   16  C28 UNL     1      -3.119  50.472 -21.043  1.00  0.00     0.026 C 
HETATM   17  C29 UNL     1      -3.197  49.064 -20.402  1.00  0.00     0.011 C 
HETATM   18  C30 UNL     1      -2.925  49.064 -18.882  1.00  0.00     0.014 C 
HETATM   19  C31 UNL     1      -1.608  49.784 -18.502  1.00  0.00    -0.002 C 
HETATM   20  C32 UNL     1      -0.420  48.913 -19.009  1.00  0.00     0.019 C 
ENDROOT
BRANCH   1  21
HETATM   21  C8  UNL     1      -1.052  49.072 -15.915  1.00  0.00     0.087 C 
HETATM   22  C9  UNL     1       0.374  49.356 -15.397  1.00  0.00     0.049 C 
BRANCH  21  23
HETATM   23  C7  UNL     1      -2.063  49.046 -14.728  1.00  0.00     0.181 C 
BRANCH  23  24
HETATM   24  C6  UNL     1      -1.776  50.068 -13.603  1.00  0.00     0.157 C 
HETATM   25  O1  UNL     1      -0.590  50.830 -13.887  1.00  0.00    -0.382 OA
HETATM   26  C5  UNL     1      -0.680  52.089 -13.201  1.00  0.00     0.173 C 
HETATM   27  C4  UNL     1      -2.069  52.187 -12.563  1.00  0.00     0.016 C 
HETATM   28  C33 UNL     1      -2.860  51.130 -13.343  1.00  0.00     0.019 C 
HETATM   29  C34 UNL     1      -3.476  51.757 -14.597  1.00  0.00     0.013 C 
BRANCH  27  30
HETATM   30  C3  UNL     1      -2.059  51.894 -11.048  1.00  0.00     0.007 C 
BRANCH  30  31
HETATM   31  C2  UNL     1      -3.363  52.315 -10.362  1.00  0.00    -0.004 C 
HETATM   32  C1  UNL     1      -3.840  53.674 -10.844  1.00  0.00     0.005 C 
ENDBRANCH  30  31
ENDBRANCH  27  30
ENDBRANCH  23  24
BRANCH  23  33
HETATM   33  O2  UNL     1      -3.394  49.169 -15.238  1.00  0.00    -0.390 OA
HETATM   34  H13 UNL     1      -3.939  49.612 -14.559  1.00  0.00     0.210 HD
ENDBRANCH  23  33
ENDBRANCH  21  23
BRANCH  21  35
HETATM   35  O3  UNL     1      -1.058  47.768 -16.516  1.00  0.00    -0.387 OA
HETATM   36  H17 UNL     1      -0.186  47.617 -16.928  1.00  0.00     0.210 HD
ENDBRANCH  21  35
ENDBRANCH   1  21
BRANCH   4  37
HETATM   37  O4  UNL     1      -2.696  52.052 -18.710  1.00  0.00    -0.384 OA
HETATM   38  H23 UNL     1      -3.368  51.513 -18.267  1.00  0.00     0.211 HD
ENDBRANCH   4  37
BRANCH  11  39
HETATM   39  O6  UNL     1      -3.312  51.799 -26.659  1.00  0.00    -0.386 OA
BRANCH  39  40
HETATM   40  C20 UNL     1      -2.230  51.879 -27.590  1.00  0.00     0.170 C 
BRANCH  40  41
HETATM   41  C21 UNL     1      -1.228  52.922 -27.099  1.00  0.00     0.052 C 
BRANCH  41  42
HETATM   42  C22 UNL     1       0.177  52.713 -27.678  1.00  0.00     0.169 C 
BRANCH  42  43
HETATM   43  O7  UNL     1       0.757  51.441 -27.400  1.00  0.00    -0.396 OA
HETATM   44  C23 UNL     1       1.949  51.529 -26.630  1.00  0.00     0.201 C 
ENDBRANCH  42  43
ENDBRANCH  41  42
ENDBRANCH  40  41
ENDBRANCH  39  40
ENDBRANCH  11  39
TORSDOF 13
ENDMDL
