MODEL 1
REMARK minimizedAffinity -7.47769117
REMARK CNNscore 0.692137539
REMARK CNNaffinity 6.72450113
REMARK  11 active torsions:
REMARK  status: ('A' for Active; 'I' for Inactive)
REMARK    1  A    between atoms: C12_13  and  O2_14 
REMARK    2  A    between atoms: C19_21  and  O3_22 
REMARK    3  A    between atoms: C19_21  and  C20_23 
REMARK    4  A    between atoms: C20_23  and  C21_25 
REMARK    5  A    between atoms: C21_25  and  O5_26 
REMARK    6  A    between atoms: O5_26  and  C22_27 
REMARK    7  A    between atoms: C22_27  and  C23_29 
REMARK    8  A    between atoms: C23_29  and  C24_30 
REMARK    9  A    between atoms: C24_30  and  C25_31 
REMARK       I    between atoms: C25_31  and  N1_33 
REMARK   10  A    between atoms: N1_33  and  C26_34 
REMARK   11  A    between atoms: C26_34  and  C27_35 
ROOT
HETATM    1  C1  UNL     1      -3.412  50.366  -9.533  1.00  0.00     0.020 C 
HETATM    2  C2  UNL     1      -3.401  49.547 -10.856  1.00  0.00    -0.014 C 
HETATM    3  C3  UNL     1      -4.849  49.577 -11.431  1.00  0.00     0.022 C 
HETATM    4  C4  UNL     1      -5.849  48.742 -10.638  1.00  0.00     0.084 C 
HETATM    5  C5  UNL     1      -5.360  47.320 -10.570  1.00  0.00     0.149 C 
HETATM    6  O1  UNL     1      -6.121  46.357 -10.580  1.00  0.00    -0.293 OA
HETATM    7  C6  UNL     1      -3.904  47.100 -10.405  1.00  0.00     0.053 C 
HETATM    8  C7  UNL     1      -3.018  48.111 -10.478  1.00  0.00    -0.068 C 
HETATM    9  C8  UNL     1      -1.574  47.818 -10.144  1.00  0.00     0.035 C 
HETATM   10  C9  UNL     1      -0.579  48.814 -10.728  1.00  0.00     0.010 C 
HETATM   11  C10 UNL     1      -1.064  49.372 -12.072  1.00  0.00    -0.002 C 
HETATM   12  C11 UNL     1      -2.335  50.229 -11.833  1.00  0.00     0.031 C 
HETATM   13  C12 UNL     1      -2.855  50.753 -13.188  1.00  0.00     0.124 C 
HETATM   14  C13 UNL     1      -1.794  51.601 -13.896  1.00  0.00     0.045 C 
HETATM   15  C14 UNL     1      -0.368  51.006 -14.029  1.00  0.00     0.001 C 
HETATM   16  C15 UNL     1       0.599  52.216 -14.189  1.00  0.00     0.019 C 
HETATM   17  C16 UNL     1       0.058  50.197 -12.764  1.00  0.00     0.002 C 
HETATM   18  C17 UNL     1       1.201  49.280 -13.254  1.00  0.00     0.009 C 
HETATM   19  C18 UNL     1       1.180  49.294 -14.783  1.00  0.00     0.047 C 
HETATM   20  C19 UNL     1      -0.142  49.979 -15.189  1.00  0.00     0.128 C 
ENDROOT
BRANCH  20  21
HETATM   21  O3  UNL     1      -1.135  48.955 -15.154  1.00  0.00    -0.381 OA
HETATM   22  H27 UNL     1      -0.916  48.329 -15.883  1.00  0.00     0.211 HD
ENDBRANCH  20  21
BRANCH  20  23
HETATM   23  C20 UNL     1      -0.015  50.611 -16.605  1.00  0.00     0.185 C 
HETATM   24  O4  UNL     1       1.039  51.143 -16.977  1.00  0.00    -0.292 OA
BRANCH  23  25
HETATM   25  C21 UNL     1      -1.248  50.692 -17.516  1.00  0.00     0.260 C 
BRANCH  25  26
HETATM   26  O5  UNL     1      -1.474  51.797 -18.376  1.00  0.00    -0.314 OA
BRANCH  26  27
HETATM   27  C22 UNL     1      -0.909  51.694 -19.605  1.00  0.00     0.259 C 
HETATM   28  O6  UNL     1      -1.112  50.766 -20.381  1.00  0.00    -0.265 OA
BRANCH  27  29
HETATM   29  C23 UNL     1      -0.102  52.919 -19.970  1.00  0.00     0.120 C 
BRANCH  29  30
HETATM   30  C24 UNL     1       1.084  52.663 -20.891  1.00  0.00     0.112 C 
BRANCH  30  31
HETATM   31  C25 UNL     1       1.171  53.658 -22.030  1.00  0.00     0.218 C 
HETATM   32  O7  UNL     1       1.740  54.741 -21.943  1.00  0.00    -0.274 OA
HETATM   33  N1  UNL     1       0.520  53.236 -23.166  1.00  0.00    -0.357 N 
HETATM   34  H34 UNL     1       0.245  52.265 -23.238  1.00  0.00     0.162 HD
BRANCH  33  35
HETATM   35  C26 UNL     1       0.535  54.027 -24.376  1.00  0.00     0.162 C 
BRANCH  35  36
HETATM   36  C27 UNL     1       0.539  53.161 -25.601  1.00  0.00    -0.025 A 
HETATM   37  C28 UNL     1       1.048  51.859 -25.582  1.00  0.00     0.011 A 
HETATM   38  C29 UNL     1       1.032  51.096 -26.746  1.00  0.00     0.018 A 
HETATM   39  C30 UNL     1       0.511  51.665 -27.897  1.00  0.00     0.087 A 
HETATM   40  N2  UNL     1       0.023  52.920 -27.958  1.00  0.00    -0.375 N 
HETATM   41  C31 UNL     1       0.050  53.642 -26.814  1.00  0.00     0.096 A 
ATOM     42  H2  UNL     1      -0.350  53.307 -28.825  1.00  0.00     0.164 HD
ENDBRANCH  35  36
ENDBRANCH  33  35
ENDBRANCH  30  31
ENDBRANCH  29  30
ENDBRANCH  27  29
ENDBRANCH  26  27
ENDBRANCH  25  26
ENDBRANCH  23  25
ENDBRANCH  20  23
BRANCH  13  43
HETATM   43  O2  UNL     1      -3.308  49.719 -14.051  1.00  0.00    -0.395 OA
HETATM   44  H16 UNL     1      -2.516  49.246 -14.386  1.00  0.00     0.210 HD
ENDBRANCH  13  43
TORSDOF 11
ENDMDL
