MODEL 1
REMARK minimizedAffinity -8.82459068
REMARK CNNscore 0.591105044
REMARK CNNaffinity 7.30174637
REMARK  13 active torsions:
REMARK  status: ('A' for Active; 'I' for Inactive)
REMARK    1  A    between atoms: C19_21  and  O3_22 
REMARK    2  A    between atoms: C19_21  and  C20_23 
REMARK    3  A    between atoms: C20_23  and  C21_25 
REMARK    4  A    between atoms: C21_25  and  O5_26 
REMARK    5  A    between atoms: O5_26  and  C22_27 
REMARK    6  A    between atoms: C22_27  and  C23_29 
REMARK    7  A    between atoms: C23_29  and  C24_30 
REMARK    8  A    between atoms: C24_30  and  C25_31 
REMARK       I    between atoms: C25_31  and  N1_33 
REMARK    9  A    between atoms: N1_33  and  C26_34 
REMARK   10  A    between atoms: C26_34  and  C27_35 
REMARK   11  A    between atoms: C26_34  and  C34_42 
REMARK   12  A    between atoms: C27_35  and  C28_36 
REMARK   13  A    between atoms: C34_42  and  O9_44 
ROOT
HETATM    1  C20 UNL     1      -5.960   4.531  13.573  1.00  0.00     0.185 C 
HETATM    2  O4  UNL     1      -6.459   4.057  12.545  1.00  0.00    -0.292 OA
ENDROOT
BRANCH   1   3
HETATM    3  C19 UNL     1      -6.904   5.080  14.657  1.00  0.00     0.128 C 
HETATM    4  C14 UNL     1      -7.924   6.133  14.128  1.00  0.00     0.005 C 
HETATM    5  C13 UNL     1      -9.066   5.606  13.250  1.00  0.00     0.091 C 
HETATM    6  C15 UNL     1      -7.185   7.269  13.369  1.00  0.00     0.019 C 
HETATM    7  C16 UNL     1      -8.548   6.590  15.473  1.00  0.00     0.002 C 
HETATM    8  C12 UNL     1     -10.103   6.707  13.074  1.00  0.00     0.133 C 
HETATM    9  C11 UNL     1     -10.700   7.303  14.365  1.00  0.00     0.072 C 
HETATM   10  O2  UNL     1     -10.439   7.061  11.945  1.00  0.00    -0.297 OA
HETATM   11  C2  UNL     1     -11.792   8.415  14.159  1.00  0.00    -0.009 C 
HETATM   12  C10 UNL     1      -9.549   7.745  15.317  1.00  0.00     0.003 C 
HETATM   13  C1  UNL     1     -11.270   9.622  13.345  1.00  0.00     0.021 C 
HETATM   14  C3  UNL     1     -13.016   7.780  13.432  1.00  0.00     0.022 C 
HETATM   15  C7  UNL     1     -12.232   8.944  15.536  1.00  0.00    -0.067 C 
HETATM   16  C4  UNL     1     -14.279   8.626  13.499  1.00  0.00     0.084 C 
HETATM   17  C5  UNL     1     -14.628   8.932  14.929  1.00  0.00     0.149 C 
HETATM   18  O1  UNL     1     -15.786   9.090  15.308  1.00  0.00    -0.293 OA
HETATM   19  C6  UNL     1     -13.517   9.132  15.886  1.00  0.00     0.053 C 
HETATM   20  C8  UNL     1     -11.138   9.294  16.515  1.00  0.00     0.035 C 
HETATM   21  C9  UNL     1     -10.129   8.165  16.674  1.00  0.00     0.010 C 
HETATM   22  C17 UNL     1      -7.341   6.798  16.381  1.00  0.00     0.009 C 
HETATM   23  C18 UNL     1      -6.289   5.782  15.886  1.00  0.00     0.047 C 
BRANCH   3  24
HETATM   24  O3  UNL     1      -7.618   3.930  15.152  1.00  0.00    -0.381 OA
HETATM   25  H25 UNL     1      -7.816   3.369  14.374  1.00  0.00     0.211 HD
ENDBRANCH   3  24
ENDBRANCH   1   3
BRANCH   1  26
HETATM   26  C21 UNL     1      -4.445   4.644  13.728  1.00  0.00     0.260 C 
BRANCH  26  27
HETATM   27  O5  UNL     1      -3.719   5.200  12.638  1.00  0.00    -0.314 OA
BRANCH  27  28
HETATM   28  C22 UNL     1      -2.367   5.069  12.712  1.00  0.00     0.259 C 
HETATM   29  O6  UNL     1      -1.737   4.143  12.221  1.00  0.00    -0.265 OA
BRANCH  28  30
HETATM   30  C23 UNL     1      -1.737   6.147  13.566  1.00  0.00     0.120 C 
BRANCH  30  31
HETATM   31  C24 UNL     1      -0.225   6.031  13.729  1.00  0.00     0.112 C 
BRANCH  31  32
HETATM   32  C25 UNL     1       0.522   6.573  12.528  1.00  0.00     0.218 C 
HETATM   33  O7  UNL     1      -0.009   7.230  11.642  1.00  0.00    -0.274 OA
HETATM   34  N1  UNL     1       1.856   6.248  12.525  1.00  0.00    -0.346 N 
HETATM   35  H32 UNL     1       2.288   5.852  13.355  1.00  0.00     0.163 HD
BRANCH  34  36
HETATM   36  C26 UNL     1       2.779   6.773  11.506  1.00  0.00     0.186 C 
BRANCH  36  37
HETATM   37  C27 UNL     1       3.019   5.748  10.387  1.00  0.00     0.074 C 
BRANCH  37  38
HETATM   38  C28 UNL     1       2.564   6.248   9.036  1.00  0.00    -0.056 A 
HETATM   39  C29 UNL     1       2.893   5.559   7.863  1.00  0.00     0.007 A 
HETATM   40  C30 UNL     1       2.478   6.042   6.620  1.00  0.00     0.001 A 
HETATM   41  C31 UNL     1       1.730   7.216   6.539  1.00  0.00     0.000 A 
HETATM   42  C32 UNL     1       1.404   7.912   7.700  1.00  0.00     0.001 A 
HETATM   43  C33 UNL     1       1.819   7.433   8.944  1.00  0.00     0.007 A 
ENDBRANCH  37  38
ENDBRANCH  36  37
BRANCH  36  44
HETATM   44  C34 UNL     1       4.112   7.137  12.178  1.00  0.00     0.163 C 
HETATM   45  O8  UNL     1       4.334   8.068  12.933  1.00  0.00    -0.648 OA
BRANCH  44  46
HETATM   46  O9  UNL     1       5.125   6.293  11.851  1.00  0.00    -0.775 OA
HETATM   47  H41 UNL     1       5.888   6.664  12.345  1.00  0.00     0.167 HD
ENDBRANCH  44  46
ENDBRANCH  36  44
ENDBRANCH  34  36
ENDBRANCH  31  32
ENDBRANCH  30  31
ENDBRANCH  28  30
ENDBRANCH  27  28
ENDBRANCH  26  27
ENDBRANCH   1  26
TORSDOF 13
ENDMDL
