MODEL 1
REMARK minimizedAffinity -6.74524069
REMARK CNNscore 0.626250327
REMARK CNNaffinity 6.74377966
REMARK  8 active torsions:
REMARK  status: ('A' for Active; 'I' for Inactive)
REMARK    1  A    between atoms: C2_2  and  C3_3 
REMARK    2  A    between atoms: C2_2  and  C9_11 
REMARK    3  A    between atoms: C3_3  and  C4_4 
REMARK    4  A    between atoms: C4_4  and  C5_5 
REMARK    5  A    between atoms: C6_6  and  C7_7 
REMARK    6  A    between atoms: C6_6  and  C8_9 
REMARK    7  A    between atoms: C7_7  and  O1_8 
REMARK    8  A    between atoms: C8_9  and  O2_10 
ROOT
HETATM    1  C9  UNL     1       2.447  55.686 -10.036  1.00  0.00     0.018 C 
HETATM    2  C10 UNL     1       2.069  55.971  -8.561  1.00  0.00     0.010 C 
HETATM    3  C11 UNL     1       0.652  55.387  -8.381  1.00  0.00     0.011 C 
HETATM    4  C12 UNL     1       0.639  54.128  -9.281  1.00  0.00    -0.032 C 
HETATM    5  C13 UNL     1       1.487  53.048  -8.541  1.00  0.00     0.016 C 
HETATM    6  C14 UNL     1       1.358  54.702 -10.533  1.00  0.00     0.002 C 
HETATM    7  C15 UNL     1       1.654  53.642 -11.580  1.00  0.00     0.006 C 
HETATM    8  C16 UNL     1       0.339  52.973 -12.026  1.00  0.00     0.006 C 
HETATM    9  C17 UNL     1      -0.514  52.431 -10.843  1.00  0.00     0.003 C 
HETATM   10  C18 UNL     1      -1.752  51.533 -11.277  1.00  0.00    -0.035 C 
HETATM   11  C19 UNL     1      -2.727  52.282 -12.214  1.00  0.00     0.016 C 
HETATM   12  C20 UNL     1      -1.204  50.309 -12.093  1.00  0.00     0.017 C 
HETATM   13  C21 UNL     1      -1.976  49.003 -11.935  1.00  0.00     0.080 C 
HETATM   14  C22 UNL     1      -3.414  49.229 -11.550  1.00  0.00     0.135 C 
HETATM   15  O3  UNL     1      -4.326  48.731 -12.211  1.00  0.00    -0.297 OA
HETATM   16  C23 UNL     1      -3.668  50.015 -10.257  1.00  0.00     0.017 C 
HETATM   17  C24 UNL     1      -5.033  50.722 -10.355  1.00  0.00     0.023 C 
HETATM   18  C25 UNL     1      -3.767  48.972  -9.124  1.00  0.00     0.023 C 
HETATM   19  C26 UNL     1      -2.456  50.980  -9.985  1.00  0.00     0.009 C 
HETATM   20  C27 UNL     1      -2.781  52.086  -8.962  1.00  0.00     0.007 C 
HETATM   21  C28 UNL     1      -1.532  52.872  -8.550  1.00  0.00     0.011 C 
HETATM   22  C29 UNL     1      -0.786  53.537  -9.736  1.00  0.00    -0.032 C 
HETATM   23  C30 UNL     1      -1.703  54.677 -10.266  1.00  0.00     0.016 C 
ENDROOT
BRANCH   1  24
HETATM   24  C2  UNL     1       3.912  55.398 -10.361  1.00  0.00    -0.084 C 
HETATM   25  C1  UNL     1       4.446  55.966 -11.459  1.00  0.00     0.014 C 
BRANCH  24  26
HETATM   26  C3  UNL     1       4.694  54.467  -9.444  1.00  0.00     0.037 C 
BRANCH  26  27
HETATM   27  C4  UNL     1       6.232  54.578  -9.379  1.00  0.00     0.032 C 
BRANCH  27  28
HETATM   28  C5  UNL     1       6.702  55.506  -8.285  1.00  0.00    -0.019 C 
HETATM   29  C6  UNL     1       6.993  55.196  -7.004  1.00  0.00    -0.037 C 
BRANCH  29  30
HETATM   30  C7  UNL     1       7.409  56.272  -6.034  1.00  0.00     0.200 C 
BRANCH  30  31
HETATM   31  O1  UNL     1       8.767  56.048  -5.672  1.00  0.00    -0.397 OA
HETATM   32  H10 UNL     1       8.961  56.662  -4.943  1.00  0.00     0.209 HD
ENDBRANCH  30  31
ENDBRANCH  29  30
BRANCH  29  33
HETATM   33  C8  UNL     1       6.954  53.809  -6.416  1.00  0.00     0.200 C 
BRANCH  33  34
HETATM   34  O2  UNL     1       5.613  53.455  -6.115  1.00  0.00    -0.397 OA
HETATM   35  H13 UNL     1       5.197  54.271  -5.765  1.00  0.00     0.209 HD
ENDBRANCH  33  34
ENDBRANCH  29  33
ENDBRANCH  27  28
ENDBRANCH  26  27
ENDBRANCH  24  26
ENDBRANCH   1  24
TORSDOF 8
ENDMDL
