MODEL 1
REMARK minimizedAffinity -9.13013363
REMARK CNNscore 0.603200436
REMARK CNNaffinity 6.60911751
REMARK  9 active torsions:
REMARK  status: ('A' for Active; 'I' for Inactive)
REMARK    1  A    between atoms: C6_6  and  C8_8 
REMARK    2  A    between atoms: C8_8  and  O2_10 
REMARK    3  A    between atoms: O2_10  and  C9_11 
REMARK    4  A    between atoms: C9_11  and  C10_12 
REMARK    5  A    between atoms: C10_12  and  O3_13 
REMARK    6  A    between atoms: C27_33  and  O7_34 
REMARK    7  A    between atoms: C38_45  and  O8_46 
REMARK    8  A    between atoms: C38_45  and  C39_47 
REMARK    9  A    between atoms: C39_47  and  O9_48 
ROOT
HETATM    1  O2  UNL     1     -11.174  44.447 -25.994  1.00  0.00    -0.317 OA
ENDROOT
BRANCH   1   2
HETATM    2  C8  UNL     1     -10.363  45.529 -25.862  1.00  0.00     0.267 C 
HETATM    3  O1  UNL     1     -10.707  46.573 -25.320  1.00  0.00    -0.264 OA
BRANCH   2   4
HETATM    4  C6  UNL     1      -8.999  45.314 -26.531  1.00  0.00     0.049 C 
HETATM    5  C5  UNL     1      -7.866  46.223 -25.976  1.00  0.00     0.020 C 
HETATM    6  C4  UNL     1      -7.922  47.672 -26.453  1.00  0.00     0.002 C 
HETATM    7  C3  UNL     1      -8.035  47.792 -27.976  1.00  0.00     0.010 C 
HETATM    8  C2  UNL     1      -9.216  46.985 -28.576  1.00  0.00    -0.035 C 
HETATM    9  C1  UNL     1     -10.534  47.649 -28.086  1.00  0.00     0.016 C 
HETATM   10  C29 UNL     1      -9.043  45.504 -28.082  1.00  0.00     0.012 C 
HETATM   11  C37 UNL     1      -9.295  47.037 -30.167  1.00  0.00     0.010 C 
HETATM   12  C30 UNL     1      -9.956  44.563 -28.873  1.00  0.00     0.008 C 
HETATM   13  C31 UNL     1      -9.498  44.458 -30.332  1.00  0.00     0.018 C 
HETATM   14  C32 UNL     1      -8.874  45.737 -30.905  1.00  0.00     0.028 C 
HETATM   15  C33 UNL     1      -9.249  45.870 -32.403  1.00  0.00     0.026 C 
HETATM   16  C40 UNL     1      -7.345  45.679 -31.063  1.00  0.00     0.172 C 
HETATM   17  C34 UNL     1      -8.222  46.884 -32.914  1.00  0.00     0.031 C 
HETATM   18  C35 UNL     1      -8.587  48.260 -32.332  1.00  0.00     0.009 C 
HETATM   19  C38 UNL     1      -6.902  46.268 -32.403  1.00  0.00     0.143 C 
HETATM   20  C36 UNL     1      -8.644  48.293 -30.798  1.00  0.00     0.007 C 
HETATM   21  O10 UNL     1      -6.560  45.197 -30.254  1.00  0.00    -0.294 OA
HETATM   22  C7  UNL     1      -8.614  43.860 -26.161  1.00  0.00     0.026 C 
BRANCH  19  23
HETATM   23  O8  UNL     1      -6.545  45.183 -33.278  1.00  0.00    -0.379 OA
HETATM   24  H53 UNL     1      -5.869  44.656 -32.809  1.00  0.00     0.211 HD
ENDBRANCH  19  23
BRANCH  19  25
HETATM   25  C39 UNL     1      -5.695  47.198 -32.301  1.00  0.00     0.210 C 
BRANCH  25  26
HETATM   26  O9  UNL     1      -4.604  46.672 -33.059  1.00  0.00    -0.397 OA
HETATM   27  H56 UNL     1      -4.551  45.722 -32.836  1.00  0.00     0.209 HD
ENDBRANCH  25  26
ENDBRANCH  19  25
ENDBRANCH   2   4
ENDBRANCH   1   2
BRANCH   1  28
HETATM   28  C9  UNL     1     -12.335  44.400 -25.146  1.00  0.00     0.227 C 
BRANCH  28  29
HETATM   29  C10 UNL     1     -13.318  43.370 -25.700  1.00  0.00     0.171 C 
HETATM   30  C11 UNL     1     -14.690  43.414 -25.025  1.00  0.00     0.175 C 
HETATM   31  O4  UNL     1     -14.836  43.481 -23.810  1.00  0.00    -0.294 OA
HETATM   32  C12 UNL     1     -15.841  43.341 -26.052  1.00  0.00     0.037 C 
HETATM   33  C13 UNL     1     -16.969  42.393 -25.609  1.00  0.00     0.019 C 
HETATM   34  C23 UNL     1     -16.325  44.793 -26.403  1.00  0.00     0.003 C 
HETATM   35  C28 UNL     1     -15.039  42.701 -27.205  1.00  0.00     0.059 C 
HETATM   36  C14 UNL     1     -18.198  43.079 -25.001  1.00  0.00     0.010 C 
HETATM   37  C15 UNL     1     -17.826  44.360 -24.263  1.00  0.00     0.040 C 
HETATM   38  C16 UNL     1     -18.990  45.199 -23.718  1.00  0.00     0.051 C 
HETATM   39  C21 UNL     1     -17.146  45.403 -25.170  1.00  0.00     0.084 C 
HETATM   40  C17 UNL     1     -20.168  44.407 -23.164  1.00  0.00     0.026 C 
HETATM   41  C18 UNL     1     -18.486  46.249 -22.705  1.00  0.00     0.020 C 
HETATM   42  C22 UNL     1     -19.378  45.978 -24.950  1.00  0.00     0.268 C 
HETATM   43  C19 UNL     1     -17.000  46.593 -22.858  1.00  0.00     0.004 C 
HETATM   44  C20 UNL     1     -16.394  46.413 -24.263  1.00  0.00     0.040 C 
HETATM   45  O5  UNL     1     -18.266  46.148 -25.720  1.00  0.00    -0.308 OA
HETATM   46  O6  UNL     1     -20.476  46.434 -25.219  1.00  0.00    -0.264 OA
HETATM   47  C24 UNL     1     -17.235  44.747 -27.680  1.00  0.00     0.019 C 
HETATM   48  C25 UNL     1     -15.106  45.679 -26.824  1.00  0.00     0.016 C 
HETATM   49  C26 UNL     1     -14.054  44.942 -27.671  1.00  0.00     0.042 C 
HETATM   50  C27 UNL     1     -13.743  43.515 -27.185  1.00  0.00     0.099 C 
BRANCH  29  51
HETATM   51  O3  UNL     1     -12.778  42.043 -25.520  1.00  0.00    -0.377 OA
HETATM   52  H15 UNL     1     -12.644  41.917 -24.560  1.00  0.00     0.211 HD
ENDBRANCH  29  51
BRANCH  50  53
HETATM   53  O7  UNL     1     -12.797  42.917 -28.067  1.00  0.00    -0.386 OA
HETATM   54  H37 UNL     1     -12.394  42.175 -27.568  1.00  0.00     0.210 HD
ENDBRANCH  50  53
ENDBRANCH  28  29
ENDBRANCH   1  28
TORSDOF 9
ENDMDL
