MODEL 1
REMARK minimizedAffinity -9.11280441
REMARK CNNscore 0.575583458
REMARK CNNaffinity 7.64554787
REMARK  14 active torsions:
REMARK  status: ('A' for Active; 'I' for Inactive)
REMARK    1  A    between atoms: C2_2  and  O2_4 
REMARK    2  A    between atoms: O2_4  and  C3_5 
REMARK    3  A    between atoms: C3_5  and  C4_6 
REMARK    4  A    between atoms: C4_6  and  C5_8 
REMARK    5  A    between atoms: C5_8  and  O4_9 
REMARK    6  A    between atoms: O4_9  and  C6_10 
REMARK    7  A    between atoms: C6_10  and  C7_12 
REMARK    8  A    between atoms: C7_12  and  C8_13 
REMARK    9  A    between atoms: C8_13  and  C9_14 
REMARK       I    between atoms: C9_14  and  N1_16 
REMARK   10  A    between atoms: N1_16  and  C10_17 
REMARK   11  A    between atoms: C10_17  and  C11_18 
REMARK   12  A    between atoms: C10_17  and  C18_25 
REMARK   13  A    between atoms: C11_18  and  C12_19 
REMARK   14  A    between atoms: C18_25  and  O8_27 
ROOT
HETATM    1  C3  UNL     1      -1.961   6.286  13.253  1.00  0.00     0.140 C 
HETATM    2  C19 UNL     1      -2.031   4.912  12.507  1.00  0.00     0.048 C 
HETATM    3  C20 UNL     1      -3.504   4.453  12.531  1.00  0.00     0.009 C 
HETATM    4  C21 UNL     1      -4.261   5.613  13.169  1.00  0.00     0.002 C 
HETATM    5  C22 UNL     1      -5.643   5.352  13.788  1.00  0.00    -0.004 C 
HETATM    6  C23 UNL     1      -6.641   4.660  12.837  1.00  0.00     0.010 C 
HETATM    7  C24 UNL     1      -7.846   5.515  12.455  1.00  0.00     0.035 C 
HETATM    8  C25 UNL     1      -8.524   6.201  13.623  1.00  0.00    -0.068 C 
HETATM    9  C26 UNL     1      -9.815   6.564  13.508  1.00  0.00     0.053 C 
HETATM   10  C27 UNL     1     -10.497   7.373  14.545  1.00  0.00     0.149 C 
HETATM   11  O9  UNL     1     -11.704   7.581  14.443  1.00  0.00    -0.293 OA
HETATM   12  C28 UNL     1      -9.689   7.904  15.705  1.00  0.00     0.084 C 
HETATM   13  C29 UNL     1      -8.189   7.905  15.420  1.00  0.00     0.022 C 
HETATM   14  C30 UNL     1      -7.668   6.563  14.840  1.00  0.00    -0.016 C 
HETATM   15  C31 UNL     1      -7.807   5.461  15.917  1.00  0.00     0.020 C 
HETATM   16  C32 UNL     1      -6.189   6.705  14.347  1.00  0.00     0.002 C 
HETATM   17  C33 UNL     1      -5.197   7.317  15.364  1.00  0.00     0.007 C 
HETATM   18  C34 UNL     1      -3.796   7.501  14.746  1.00  0.00     0.013 C 
HETATM   19  C35 UNL     1      -3.228   6.184  14.187  1.00  0.00    -0.001 C 
HETATM   20  C36 UNL     1      -2.978   5.208  15.381  1.00  0.00     0.019 C 
ENDROOT
BRANCH   1  21
HETATM   21  O2  UNL     1      -2.183   7.266  12.203  1.00  0.00    -0.301 OA
BRANCH  21  22
HETATM   22  C2  UNL     1      -1.614   8.495  12.283  1.00  0.00     0.256 C 
HETATM   23  C1  UNL     1      -0.649   8.681  11.155  1.00  0.00     0.126 C 
HETATM   24  O1  UNL     1      -1.840   9.337  13.137  1.00  0.00    -0.266 OA
ENDBRANCH  21  22
ENDBRANCH   1  21
BRANCH   1  25
HETATM   25  C4  UNL     1      -0.582   6.414  13.964  1.00  0.00     0.186 C 
HETATM   26  O3  UNL     1      -0.405   7.143  14.945  1.00  0.00    -0.292 OA
BRANCH  25  27
HETATM   27  C5  UNL     1       0.568   5.541  13.466  1.00  0.00     0.260 C 
BRANCH  27  28
HETATM   28  O4  UNL     1       1.344   6.160  12.446  1.00  0.00    -0.314 OA
BRANCH  28  29
HETATM   29  C6  UNL     1       1.442   5.436  11.296  1.00  0.00     0.259 C 
HETATM   30  O5  UNL     1       0.967   4.322  11.122  1.00  0.00    -0.265 OA
BRANCH  29  31
HETATM   31  C7  UNL     1       2.258   6.204  10.285  1.00  0.00     0.120 C 
BRANCH  31  32
HETATM   32  C8  UNL     1       3.596   5.522  10.031  1.00  0.00     0.112 C 
BRANCH  32  33
HETATM   33  C9  UNL     1       4.733   6.244  10.724  1.00  0.00     0.218 C 
HETATM   34  O6  UNL     1       5.912   6.094  10.418  1.00  0.00    -0.274 OA
HETATM   35  N1  UNL     1       4.310   7.121  11.688  1.00  0.00    -0.346 N 
HETATM   36  H10 UNL     1       3.342   7.116  11.995  1.00  0.00     0.163 HD
BRANCH  35  37
HETATM   37  C10 UNL     1       5.240   7.884  12.523  1.00  0.00     0.186 C 
BRANCH  37  38
HETATM   38  C11 UNL     1       6.504   7.091  12.895  1.00  0.00     0.074 C 
BRANCH  38  39
HETATM   39  C12 UNL     1       7.340   7.723  13.989  1.00  0.00    -0.056 A 
HETATM   40  C13 UNL     1       8.727   7.854  13.837  1.00  0.00     0.007 A 
HETATM   41  C14 UNL     1       9.495   8.458  14.833  1.00  0.00     0.001 A 
HETATM   42  C15 UNL     1       8.884   8.937  15.990  1.00  0.00     0.000 A 
HETATM   43  C16 UNL     1       7.507   8.806  16.156  1.00  0.00     0.001 A 
HETATM   44  C17 UNL     1       6.737   8.201  15.161  1.00  0.00     0.007 A 
ENDBRANCH  38  39
ENDBRANCH  37  38
BRANCH  37  45
HETATM   45  C18 UNL     1       5.612   9.208  11.848  1.00  0.00     0.163 C 
HETATM   46  O7  UNL     1       6.254   9.344  10.818  1.00  0.00    -0.648 OA
BRANCH  45  47
HETATM   47  O8  UNL     1       5.155  10.300  12.508  1.00  0.00    -0.775 OA
HETATM   48  H19 UNL     1       5.467  11.050  11.959  1.00  0.00     0.167 HD
ENDBRANCH  45  47
ENDBRANCH  37  45
ENDBRANCH  35  37
ENDBRANCH  32  33
ENDBRANCH  31  32
ENDBRANCH  29  31
ENDBRANCH  28  29
ENDBRANCH  27  28
ENDBRANCH  25  27
ENDBRANCH   1  25
TORSDOF 14
ENDMDL
