MODEL 1
REMARK minimizedAffinity -8.58426476
REMARK  10 active torsions:
REMARK  status: ('A' for Active; 'I' for Inactive)
REMARK    1  A    between atoms: C2_2  and  C3_3 
REMARK    2  A    between atoms: C4_4  and  O1_5 
REMARK    3  A    between atoms: C12_13  and  C13_14 
REMARK    4  A    between atoms: C13_14  and  C15_16 
REMARK    5  A    between atoms: C15_16  and  C16_17 
REMARK    6  A    between atoms: C16_17  and  C17_18 
REMARK    7  A    between atoms: C26_27  and  C27_28 
REMARK    8  A    between atoms: C27_28  and  C28_29 
REMARK    9  A    between atoms: C28_29  and  C29_30 
REMARK   10  A    between atoms: C29_30  and  O3_32 
ROOT
HETATM    1  C3  UNL     1      -3.465   6.177  15.203  1.00  0.00     0.045 C 
HETATM    2  C4  UNL     1      -2.576   7.383  15.591  1.00  0.00     0.127 C 
HETATM    3  C5  UNL     1      -1.152   7.202  15.084  1.00  0.00     0.038 C 
HETATM    4  C6  UNL     1      -1.126   7.280  13.556  1.00  0.00     0.006 C 
HETATM    5  C7  UNL     1      -2.036   6.201  12.924  1.00  0.00    -0.027 A 
HETATM    6  C8  UNL     1      -1.377   5.263  11.906  1.00  0.00     0.011 C 
HETATM    7  C9  UNL     1      -0.306   5.861  10.974  1.00  0.00     0.011 C 
HETATM    8  C10 UNL     1       0.212   7.245  11.383  1.00  0.00    -0.032 C 
HETATM    9  C11 UNL     1      -0.748   8.315  10.780  1.00  0.00     0.016 C 
HETATM   10  C12 UNL     1       1.683   7.594  10.971  1.00  0.00    -0.002 C 
HETATM   11  C21 UNL     1       2.054   8.701  11.993  1.00  0.00     0.006 C 
HETATM   12  C22 UNL     1       1.078   8.599  13.176  1.00  0.00     0.011 C 
HETATM   13  C23 UNL     1       0.306   7.286  12.953  1.00  0.00    -0.032 C 
HETATM   14  C24 UNL     1       1.177   6.155  13.586  1.00  0.00     0.016 C 
HETATM   15  C25 UNL     1      -3.454   6.636  12.610  1.00  0.00     0.022 A 
HETATM   16  C26 UNL     1      -3.251   5.669  13.756  1.00  0.00    -0.022 A 
ENDROOT
BRANCH  10  17
HETATM   17  C13 UNL     1       2.014   7.988   9.497  1.00  0.00    -0.014 C 
HETATM   18  C14 UNL     1       0.756   8.443   8.739  1.00  0.00     0.010 C 
BRANCH  17  19
HETATM   19  C15 UNL     1       2.639   6.810   8.694  1.00  0.00     0.008 C 
BRANCH  19  20
HETATM   20  C16 UNL     1       2.170   6.711   7.238  1.00  0.00     0.028 C 
BRANCH  20  21
HETATM   21  C17 UNL     1       2.748   5.495   6.562  1.00  0.00    -0.025 C 
HETATM   22  C18 UNL     1       3.390   4.463   7.142  1.00  0.00    -0.091 C 
HETATM   23  C19 UNL     1       3.945   3.337   6.309  1.00  0.00     0.042 C 
HETATM   24  C20 UNL     1       3.610   4.307   8.621  1.00  0.00     0.042 C 
ENDBRANCH  20  21
ENDBRANCH  19  20
ENDBRANCH  17  19
ENDBRANCH  10  17
BRANCH  16  25
HETATM   25  C27 UNL     1      -3.718   4.214  13.571  1.00  0.00     0.021 C 
BRANCH  25  26
HETATM   26  C28 UNL     1      -4.737   4.031  12.444  1.00  0.00     0.111 C 
BRANCH  26  27
HETATM   27  C29 UNL     1      -4.367   2.872  11.559  1.00  0.00     0.139 C 
HETATM   28  O2  UNL     1      -3.439   2.094  11.697  1.00  0.00    -0.650 OA
BRANCH  27  29
HETATM   29  O3  UNL     1      -5.212   2.748  10.515  1.00  0.00    -0.776 OA
HETATM   30  H46 UNL     1      -4.873   1.970  10.028  1.00  0.00     0.167 HD
ENDBRANCH  27  29
ENDBRANCH  26  27
ENDBRANCH  25  26
ENDBRANCH  16  25
BRANCH   2  31
HETATM   31  O1  UNL     1      -2.500   7.510  17.018  1.00  0.00    -0.395 OA
HETATM   32  H6  UNL     1      -3.414   7.576  17.347  1.00  0.00     0.210 HD
ENDBRANCH   2  31
BRANCH   1  33
HETATM   33  C2  UNL     1      -4.917   6.516  15.503  1.00  0.00    -0.029 C 
HETATM   34  C1  UNL     1      -5.481   7.709  15.277  1.00  0.00     0.007 C 
ENDBRANCH   1  33
TORSDOF 10
ENDMDL
