MODEL 1
REMARK minimizedAffinity -7.48148489
REMARK CNNscore 0.612175465
REMARK CNNaffinity 7.33391047
REMARK  10 active torsions:
REMARK  status: ('A' for Active; 'I' for Inactive)
REMARK    1  A    between atoms: C2_2  and  C3_3 
REMARK    2  A    between atoms: C3_3  and  C4_4 
REMARK    3  A    between atoms: C4_4  and  O1_5 
REMARK    4  A    between atoms: O1_5  and  C5_6 
REMARK    5  A    between atoms: C5_6  and  C6_7 
REMARK    6  A    between atoms: C10_11  and  C12_13 
REMARK    7  A    between atoms: C12_13  and  C13_15 
REMARK    8  A    between atoms: C13_15  and  S1_16 
REMARK    9  A    between atoms: S1_16  and  C14_17 
REMARK   10  A    between atoms: C15_20  and  C16_21 
ROOT
HETATM    1  C12 UNL     1      -3.876   2.431  11.609  1.00  0.00     0.171 C 
HETATM    2  O2  UNL     1      -3.718   1.230  11.856  1.00  0.00    -0.294 OA
ENDROOT
BRANCH   1   3
HETATM    3  C10 UNL     1      -5.300   2.994  11.420  1.00  0.00     0.129 C 
HETATM    4  C9  UNL     1      -5.451   4.270  12.251  1.00  0.00     0.076 C 
HETATM    5  C8  UNL     1      -6.878   4.234  12.763  1.00  0.00     0.141 C 
HETATM    6  C7  UNL     1      -7.005   4.735  14.192  1.00  0.00     0.065 C 
HETATM    7  C22 UNL     1      -7.255   2.796  12.613  1.00  0.00     0.279 C 
HETATM    8  C23 UNL     1      -7.826   5.138  12.035  1.00  0.00     0.278 C 
HETATM    9  C6  UNL     1      -8.427   5.262  14.231  1.00  0.00     0.157 C 
HETATM   10  O6  UNL     1      -8.668   5.761  12.912  1.00  0.00    -0.313 OA
HETATM   11  O3  UNL     1      -6.295   2.110  11.934  1.00  0.00    -0.301 OA
HETATM   12  O4  UNL     1      -8.264   2.274  13.058  1.00  0.00    -0.264 OA
HETATM   13  O5  UNL     1      -7.851   5.324  10.830  1.00  0.00    -0.264 OA
HETATM   14  C11 UNL     1      -5.548   3.217   9.928  1.00  0.00     0.055 C 
BRANCH   9  15
HETATM   15  C5  UNL     1      -8.631   6.374  15.260  1.00  0.00     0.200 C 
BRANCH  15  16
HETATM   16  O1  UNL     1      -9.413   7.418  14.683  1.00  0.00    -0.389 OA
BRANCH  16  17
HETATM   17  C4  UNL     1     -10.820   7.205  14.812  1.00  0.00     0.167 C 
BRANCH  17  18
HETATM   18  C3  UNL     1     -11.555   7.570  13.523  1.00  0.00     0.026 C 
BRANCH  18  19
HETATM   19  C2  UNL     1     -13.027   7.156  13.528  1.00  0.00    -0.002 C 
HETATM   20  C1  UNL     1     -13.971   8.301  13.861  1.00  0.00     0.005 C 
ENDBRANCH  18  19
ENDBRANCH  17  18
ENDBRANCH  16  17
ENDBRANCH  15  16
ENDBRANCH   9  15
ENDBRANCH   1   3
BRANCH   1  21
HETATM   21  C13 UNL     1      -2.686   3.356  11.422  1.00  0.00     0.164 C 
BRANCH  21  22
HETATM   22  S1  UNL     1      -2.406   4.442  12.844  1.00  0.00    -0.085 SA
BRANCH  22  23
HETATM   23  C14 UNL     1      -1.182   5.479  12.236  1.00  0.00     0.161 A 
HETATM   24  N1  UNL     1      -0.725   5.559  11.015  1.00  0.00    -0.320 N 
HETATM   25  C15 UNL     1       0.233   6.551  11.098  1.00  0.00     0.134 A 
ATOM     26  H1  UNL     1      -1.007   5.019  10.198  1.00  0.00     0.169 HD
HETATM   27  N2  UNL     1       0.396   7.043  12.339  1.00  0.00    -0.283 N 
HETATM   28  N3  UNL     1      -0.534   6.366  13.032  1.00  0.00    -0.278 N 
ATOM     29  H2  UNL     1       1.056   7.748  12.669  1.00  0.00     0.188 HD
HETATM   30  H26 UNL     1      -0.661   6.548  14.021  1.00  0.00     0.189 HD
BRANCH  25  31
HETATM   31  C16 UNL     1       1.022   6.936   9.934  1.00  0.00     0.031 A 
HETATM   32  C17 UNL     1       0.592   8.052   9.189  1.00  0.00     0.017 A 
HETATM   33  C18 UNL     1       1.290   8.479   8.057  1.00  0.00     0.001 A 
HETATM   34  C19 UNL     1       2.434   7.802   7.651  1.00  0.00     0.002 A 
HETATM   35  C20 UNL     1       2.884   6.704   8.385  1.00  0.00     0.025 A 
HETATM   36  C21 UNL     1       2.188   6.270   9.523  1.00  0.00     0.048 A 
HETATM   37 CL1  UNL     1       2.885   4.943  10.389  1.00  0.00    -0.083 Cl
ENDBRANCH  25  31
ENDBRANCH  22  23
ENDBRANCH  21  22
ENDBRANCH   1  21
TORSDOF 10
ENDMDL
