MODEL 1
REMARK minimizedAffinity -7.52968407
REMARK CNNscore 0.417027622
REMARK CNNaffinity 7.47182083
REMARK  10 active torsions:
REMARK  status: ('A' for Active; 'I' for Inactive)
REMARK    1  A    between atoms: C15_16  and  C16_17 
REMARK    2  A    between atoms: C16_17  and  O2_18 
REMARK    3  A    between atoms: C29_32  and  C30_33 
REMARK    4  A    between atoms: C30_33  and  O5_35 
REMARK    5  A    between atoms: O5_35  and  C31_36 
REMARK    6  A    between atoms: C32_38  and  C33_39 
REMARK    7  A    between atoms: C33_39  and  O7_40 
REMARK    8  A    between atoms: C34_41  and  O8_42 
REMARK    9  A    between atoms: C35_43  and  O9_44 
REMARK   10  A    between atoms: C36_45  and  O10_46 
ROOT
HETATM    1  C1  UNL     1      -5.380   2.694  12.512  1.00  0.00     0.043 C 
HETATM    2  C2  UNL     1      -5.561   4.126  12.945  1.00  0.00    -0.081 C 
HETATM    3  C3  UNL     1      -6.753   4.773  12.987  1.00  0.00    -0.072 C 
HETATM    4  C4  UNL     1      -8.034   4.100  12.551  1.00  0.00     0.044 C 
HETATM    5  C5  UNL     1      -6.771   6.287  13.329  1.00  0.00     0.062 C 
HETATM    6  C6  UNL     1      -8.182   6.875  13.551  1.00  0.00    -0.065 C 
HETATM    7  C7  UNL     1      -8.940   7.157  12.470  1.00  0.00    -0.022 C 
HETATM    8  C8  UNL     1     -10.363   7.637  12.485  1.00  0.00     0.033 C 
HETATM    9  C9  UNL     1     -11.019   7.539  13.880  1.00  0.00     0.007 C 
HETATM   10  C10 UNL     1     -12.542   8.013  13.942  1.00  0.00    -0.035 C 
HETATM   11  C11 UNL     1     -12.737   9.457  13.417  1.00  0.00     0.016 C 
HETATM   12  C12 UNL     1     -13.393   7.072  13.026  1.00  0.00     0.012 C 
HETATM   13  C13 UNL     1     -14.907   7.142  13.266  1.00  0.00     0.034 C 
HETATM   14  C14 UNL     1     -15.244   6.906  14.735  1.00  0.00     0.135 C 
HETATM   15  O1  UNL     1     -16.652   6.916  14.942  1.00  0.00    -0.353 OA
HETATM   16  C15 UNL     1     -16.952   6.482  16.273  1.00  0.00     0.283 C 
HETATM   17  O3  UNL     1     -16.372   7.351  17.250  1.00  0.00    -0.358 OA
HETATM   18  C17 UNL     1     -14.950   7.445  17.108  1.00  0.00     0.183 C 
HETATM   19  C18 UNL     1     -14.560   7.920  15.681  1.00  0.00     0.008 C 
HETATM   20  C19 UNL     1     -15.126   9.350  15.521  1.00  0.00     0.020 C 
HETATM   21  C20 UNL     1     -13.017   7.818  15.434  1.00  0.00     0.007 C 
HETATM   22  C21 UNL     1     -12.141   8.630  16.401  1.00  0.00     0.007 C 
HETATM   23  C22 UNL     1     -10.710   8.089  16.381  1.00  0.00     0.011 C 
HETATM   24  C23 UNL     1     -10.027   8.092  14.980  1.00  0.00    -0.028 C 
HETATM   25  C24 UNL     1      -9.632   9.569  14.673  1.00  0.00     0.016 C 
HETATM   26  C25 UNL     1      -8.688   7.142  14.979  1.00  0.00    -0.012 C 
HETATM   27  C26 UNL     1      -8.974   5.762  15.642  1.00  0.00     0.021 C 
HETATM   28  C27 UNL     1      -7.546   7.831  15.771  1.00  0.00     0.016 C 
HETATM   29  C28 UNL     1      -6.243   7.042  15.782  1.00  0.00     0.022 C 
HETATM   30  C29 UNL     1      -5.679   6.753  14.369  1.00  0.00     0.059 C 
HETATM   31  C37 UNL     1      -4.555   5.688  14.557  1.00  0.00     0.025 C 
HETATM   32  C38 UNL     1      -4.299   4.860  13.311  1.00  0.00     0.035 C 
ENDROOT
BRANCH  30  33
HETATM   33  C30 UNL     1      -5.082   8.085  13.859  1.00  0.00     0.271 C 
HETATM   34  O4  UNL     1      -5.161   8.499  12.710  1.00  0.00    -0.264 OA
BRANCH  33  35
HETATM   35  O5  UNL     1      -4.548   8.823  14.873  1.00  0.00    -0.286 OA
BRANCH  35  36
HETATM   36  C31 UNL     1      -3.714   9.916  14.468  1.00  0.00     0.301 C 
HETATM   37  O6  UNL     1      -2.416   9.431  14.106  1.00  0.00    -0.348 OA
HETATM   38  C32 UNL     1      -1.567   9.027  15.182  1.00  0.00     0.179 C 
HETATM   39  C34 UNL     1      -1.507  10.045  16.335  1.00  0.00     0.180 C 
HETATM   40  C35 UNL     1      -2.237  11.344  15.975  1.00  0.00     0.183 C 
HETATM   41  C36 UNL     1      -3.672  11.026  15.549  1.00  0.00     0.205 C 
BRANCH  38  42
HETATM   42  C33 UNL     1      -1.879   7.601  15.672  1.00  0.00     0.198 C 
BRANCH  42  43
HETATM   43  O7  UNL     1      -2.603   7.572  16.894  1.00  0.00    -0.398 OA
HETATM   44  H48 UNL     1      -2.395   8.373  17.410  1.00  0.00     0.209 HD
ENDBRANCH  42  43
ENDBRANCH  38  42
BRANCH  39  45
HETATM   45  O8  UNL     1      -0.129  10.302  16.663  1.00  0.00    -0.390 OA
HETATM   46  H50 UNL     1       0.248  10.869  15.968  1.00  0.00     0.210 HD
ENDBRANCH  39  45
BRANCH  40  47
HETATM   47  O9  UNL     1      -2.274  12.188  17.136  1.00  0.00    -0.390 OA
HETATM   48  H52 UNL     1      -1.869  13.037  16.889  1.00  0.00     0.210 HD
ENDBRANCH  40  47
BRANCH  41  49
HETATM   49  O10 UNL     1      -4.296  12.224  15.047  1.00  0.00    -0.388 OA
HETATM   50  H54 UNL     1      -5.253  12.012  14.964  1.00  0.00     0.210 HD
ENDBRANCH  41  49
ENDBRANCH  35  36
ENDBRANCH  33  35
ENDBRANCH  30  33
BRANCH  16  51
HETATM   51  C16 UNL     1     -18.479   6.499  16.478  1.00  0.00     0.224 C 
BRANCH  51  52
HETATM   52  O2  UNL     1     -19.181   6.325  15.240  1.00  0.00    -0.396 OA
HETATM   53  H23 UNL     1     -18.618   6.754  14.564  1.00  0.00     0.209 HD
ENDBRANCH  51  52
ENDBRANCH  16  51
TORSDOF 10
ENDMDL
