MODEL 1
REMARK minimizedAffinity -7.03496408
REMARK CNNscore 0.49284333
REMARK CNNaffinity 6.17285347
REMARK  11 active torsions:
REMARK  status: ('A' for Active; 'I' for Inactive)
REMARK    1  A    between atoms: C3_4  and  O2_5 
REMARK    2  A    between atoms: O2_5  and  C4_6 
REMARK    3  A    between atoms: C7_9  and  C8_10 
REMARK    4  A    between atoms: N1_11  and  C9_13 
REMARK    5  A    between atoms: C9_13  and  C10_14 
REMARK    6  A    between atoms: C10_14  and  O3_15 
REMARK    7  A    between atoms: C16_21  and  C17_22 
REMARK    8  A    between atoms: C23_30  and  O6_31 
REMARK    9  A    between atoms: C27_35  and  O7_36 
REMARK   10  A    between atoms: C30_39  and  O8_40 
REMARK   11  A    between atoms: C31_41  and  O9_42 
ROOT
HETATM    1  C4  UNL     1     -10.089  45.469 -30.307  1.00  0.00     0.127 C 
HETATM    2  C5  UNL     1     -10.778  45.217 -31.650  1.00  0.00     0.033 C 
HETATM    3  C6  UNL     1     -10.027  45.873 -32.806  1.00  0.00     0.021 C 
HETATM    4  C7  UNL     1      -8.538  45.428 -32.918  1.00  0.00     0.026 C 
HETATM    5  C11 UNL     1      -8.403  43.906 -33.315  1.00  0.00     0.009 C 
HETATM    6  C12 UNL     1      -9.029  43.526 -34.655  1.00  0.00     0.007 C 
HETATM    7  C13 UNL     1      -9.213  42.014 -34.779  1.00  0.00     0.013 C 
HETATM    8  C14 UNL     1      -8.093  41.134 -34.167  1.00  0.00    -0.005 C 
HETATM    9  C15 UNL     1      -7.866  39.962 -35.159  1.00  0.00     0.019 C 
HETATM   10  C16 UNL     1      -8.431  40.585 -32.736  1.00  0.00     0.028 C 
HETATM   11  C21 UNL     1      -7.068  40.188 -32.133  1.00  0.00     0.013 C 
HETATM   12  C22 UNL     1      -6.009  40.915 -32.962  1.00  0.00     0.040 C 
HETATM   13  C23 UNL     1      -6.765  41.908 -33.866  1.00  0.00     0.070 C 
HETATM   14  C24 UNL     1      -6.936  43.374 -33.298  1.00  0.00     0.026 C 
HETATM   15  C25 UNL     1      -6.279  43.645 -31.940  1.00  0.00     0.011 C 
HETATM   16  C26 UNL     1      -6.390  45.113 -31.539  1.00  0.00     0.039 C 
HETATM   17  C27 UNL     1      -7.829  45.656 -31.532  1.00  0.00     0.073 C 
HETATM   18  C28 UNL     1      -8.626  45.012 -30.361  1.00  0.00     0.071 C 
ENDROOT
BRANCH   1  19
HETATM   19  O2  UNL     1     -10.078  46.850 -29.935  1.00  0.00    -0.356 OA
BRANCH  19  20
HETATM   20  C3  UNL     1     -10.707  47.123 -28.681  1.00  0.00     0.263 C 
HETATM   21  O1  UNL     1     -11.094  45.882 -28.101  1.00  0.00    -0.354 OA
HETATM   22  C2  UNL     1     -11.711  46.042 -26.823  1.00  0.00     0.151 C 
HETATM   23  C1  UNL     1     -12.015  44.642 -26.298  1.00  0.00     0.042 C 
HETATM   24  C31 UNL     1     -12.995  46.886 -26.940  1.00  0.00     0.175 C 
HETATM   25  C30 UNL     1     -12.702  48.213 -27.658  1.00  0.00     0.154 C 
HETATM   26  C29 UNL     1     -11.945  47.975 -28.953  1.00  0.00     0.095 C 
BRANCH  24  27
HETATM   27  O9  UNL     1     -13.537  47.187 -25.650  1.00  0.00    -0.390 OA
HETATM   28  H47 UNL     1     -14.053  46.409 -25.375  1.00  0.00     0.210 HD
ENDBRANCH  24  27
BRANCH  25  29
HETATM   29  O8  UNL     1     -11.924  49.063 -26.807  1.00  0.00    -0.393 OA
HETATM   30  H45 UNL     1     -12.354  48.989 -25.930  1.00  0.00     0.210 HD
ENDBRANCH  25  29
ENDBRANCH  19  20
ENDBRANCH   1  19
BRANCH  17  31
HETATM   31  O7  UNL     1      -7.687  47.059 -31.248  1.00  0.00    -0.389 OA
HETATM   32  H39 UNL     1      -8.567  47.398 -30.979  1.00  0.00     0.210 HD
ENDBRANCH  17  31
BRANCH   4  33
HETATM   33  C8  UNL     1      -7.864  46.321 -33.971  1.00  0.00     0.068 C 
HETATM   34  N1  UNL     1      -6.909  47.136 -33.657  1.00  0.00    -0.399 N 
ATOM     35  H1  UNL     1      -6.657  47.328 -32.687  1.00  0.00     0.158 HD
BRANCH  34  36
HETATM   36  C9  UNL     1      -6.214  47.767 -34.784  1.00  0.00     0.144 C 
BRANCH  36  37
HETATM   37  C10 UNL     1      -4.817  48.160 -34.303  1.00  0.00     0.183 C 
BRANCH  37  38
HETATM   38  O3  UNL     1      -4.086  46.979 -33.947  1.00  0.00    -0.399 OA
HETATM   39  H16 UNL     1      -4.623  46.544 -33.245  1.00  0.00     0.209 HD
ENDBRANCH  37  38
ENDBRANCH  36  37
ENDBRANCH  34  36
ENDBRANCH   4  33
BRANCH  13  40
HETATM   40  O6  UNL     1      -6.020  42.036 -35.085  1.00  0.00    -0.389 OA
HETATM   41  H33 UNL     1      -5.161  42.443 -34.881  1.00  0.00     0.210 HD
ENDBRANCH  13  40
BRANCH  10  42
HETATM   42  C17 UNL     1      -9.508  39.545 -32.585  1.00  0.00    -0.045 A 
HETATM   43  C18 UNL     1      -9.328  38.321 -32.084  1.00  0.00     0.087 A 
HETATM   44  C19 UNL     1     -10.610  37.627 -32.150  1.00  0.00     0.283 A 
HETATM   45  O4  UNL     1     -10.801  36.493 -31.760  1.00  0.00    -0.260 OA
HETATM   46  O5  UNL     1     -11.530  38.452 -32.718  1.00  0.00    -0.314 OA
HETATM   47  C20 UNL     1     -10.912  39.697 -33.042  1.00  0.00     0.213 A 
ENDBRANCH  10  42
TORSDOF 11
ENDMDL
