MODEL 1
REMARK minimizedAffinity -8.67385483
REMARK CNNscore 0.508180261
REMARK CNNaffinity 6.51129007
REMARK  5 active torsions:
REMARK  status: ('A' for Active; 'I' for Inactive)
REMARK    1  A    between atoms: C2_2  and  C4_4 
REMARK    2  A    between atoms: C10_11  and  O2_12 
REMARK    3  A    between atoms: C13_15  and  O3_16 
REMARK    4  A    between atoms: C33_39  and  O6_40 
REMARK    5  A    between atoms: C38_46  and  O8_47 
ROOT
HETATM    1  C4  UNL     1     -14.006   5.858  23.119  1.00  0.00     0.181 C 
HETATM    2  O1  UNL     1     -12.771   6.416  23.582  1.00  0.00    -0.370 OA
HETATM    3  C5  UNL     1     -12.838   7.807  23.975  1.00  0.00     0.163 C 
HETATM    4  C6  UNL     1     -11.370   8.237  24.050  1.00  0.00     0.036 C 
HETATM    5  C7  UNL     1     -11.155   9.745  24.121  1.00  0.00     0.016 C 
HETATM    6  C8  UNL     1     -11.888  10.529  22.985  1.00  0.00     0.008 C 
HETATM    7  C9  UNL     1     -11.366   9.977  21.617  1.00  0.00     0.020 C 
HETATM    8  C10 UNL     1     -13.415  10.193  23.116  1.00  0.00     0.103 C 
HETATM    9  C11 UNL     1     -14.246  11.012  22.114  1.00  0.00     0.047 C 
HETATM   10  C12 UNL     1     -14.064  12.517  22.303  1.00  0.00     0.073 C 
HETATM   11  C13 UNL     1     -12.605  12.990  22.142  1.00  0.00     0.180 C 
HETATM   12  O4  UNL     1     -12.283  12.805  20.755  1.00  0.00    -0.320 OA
HETATM   13  C15 UNL     1     -10.963  13.236  20.353  1.00  0.00     0.302 C 
HETATM   14  O5  UNL     1     -10.674  12.466  19.184  1.00  0.00    -0.346 OA
HETATM   15  C16 UNL     1     -10.254  13.143  17.996  1.00  0.00     0.064 C 
HETATM   16  C17 UNL     1     -11.178  14.296  17.589  1.00  0.00     0.046 C 
HETATM   17  C18 UNL     1     -10.372  12.069  16.893  1.00  0.00     0.046 C 
HETATM   18  C19 UNL     1      -8.767  13.509  18.114  1.00  0.00     0.060 C 
HETATM   19  C20 UNL     1      -8.070  14.327  17.003  1.00  0.00     0.023 C 
HETATM   20  C21 UNL     1      -7.150  14.971  18.066  1.00  0.00     0.054 C 
HETATM   21  C22 UNL     1      -5.778  14.417  18.320  1.00  0.00    -0.078 C 
HETATM   22  C23 UNL     1      -5.024  13.950  17.311  1.00  0.00     0.015 C 
HETATM   23  C24 UNL     1      -5.279  14.493  19.750  1.00  0.00     0.073 C 
HETATM   24  C25 UNL     1      -6.239  13.899  20.759  1.00  0.00    -0.044 A 
HETATM   25  C26 UNL     1      -5.764  13.398  21.974  1.00  0.00     0.010 A 
HETATM   26  C27 UNL     1      -6.637  12.859  22.920  1.00  0.00     0.031 A 
HETATM   27  C28 UNL     1      -7.998  12.812  22.600  1.00  0.00     0.044 A 
HETATM   28  N1  UNL     1      -9.055  12.338  23.345  1.00  0.00    -0.357 N 
HETATM   29  C29 UNL     1     -10.216  12.468  22.639  1.00  0.00     0.036 A 
HETATM   30  C30 UNL     1      -9.916  13.004  21.403  1.00  0.00     0.033 A 
HETATM   31  C31 UNL     1      -8.514  13.291  21.392  1.00  0.00     0.013 A 
HETATM   32  C32 UNL     1      -7.624  13.903  20.472  1.00  0.00    -0.003 A 
HETATM   33  C33 UNL     1      -8.227  14.549  19.161  1.00  0.00     0.100 C 
HETATM   34  C34 UNL     1     -11.627  12.127  23.108  1.00  0.00     0.066 C 
HETATM   35  C35 UNL     1     -11.779  12.676  24.559  1.00  0.00     0.029 C 
HETATM   36  C36 UNL     1     -13.666   8.679  23.035  1.00  0.00     0.147 A 
HETATM   37  O7  UNL     1     -15.099   8.412  23.156  1.00  0.00    -0.360 OA
HETATM   38  C37 UNL     1     -14.473   8.009  21.941  1.00  0.00     0.194 A 
HETATM   39  C38 UNL     1     -14.351   6.532  21.759  1.00  0.00     0.183 C 
HETATM   40  H40 UNL     1      -8.973  11.970  24.282  1.00  0.00     0.166 HD
ENDROOT
BRANCH   1  41
HETATM   41  C2  UNL     1     -13.873   4.339  23.014  1.00  0.00    -0.062 C 
HETATM   42  C1  UNL     1     -14.461   3.594  22.060  1.00  0.00     0.016 C 
HETATM   43  C3  UNL     1     -12.986   3.688  24.043  1.00  0.00     0.045 C 
ENDBRANCH   1  41
BRANCH  39  44
HETATM   44  O8  UNL     1     -13.333   6.323  20.775  1.00  0.00    -0.390 OA
HETATM   45  H47 UNL     1     -12.803   5.558  21.073  1.00  0.00     0.210 HD
ENDBRANCH  39  44
BRANCH   8  46
HETATM   46  O2  UNL     1     -13.877  10.579  24.421  1.00  0.00    -0.386 OA
HETATM   47  H15 UNL     1     -14.798  10.261  24.489  1.00  0.00     0.210 HD
ENDBRANCH   8  46
BRANCH  11  48
HETATM   48  O3  UNL     1     -12.512  14.388  22.497  1.00  0.00    -0.359 OA
HETATM   49  C14 UNL     1     -11.201  14.906  22.661  1.00  0.00     0.205 C 
ENDBRANCH  11  48
BRANCH  33  50
HETATM   50  O6  UNL     1      -9.113  15.658  19.475  1.00  0.00    -0.384 OA
HETATM   51  H41 UNL     1      -8.653  16.137  20.189  1.00  0.00     0.211 HD
ENDBRANCH  33  50
TORSDOF 5
ENDMDL
