MODEL 1
REMARK minimizedAffinity -9.98025894
REMARK CNNscore 0.288322121
REMARK CNNaffinity 7.90013695
REMARK  14 active torsions:
REMARK  status: ('A' for Active; 'I' for Inactive)
REMARK    1  A    between atoms: C2_2  and  C3_3 
REMARK    2  A    between atoms: C6_6  and  C7_7 
REMARK    3  A    between atoms: C7_7  and  C8_8 
REMARK    4  A    between atoms: C14_17  and  C15_18 
REMARK    5  A    between atoms: C15_18  and  O3_20 
REMARK    6  A    between atoms: C19_24  and  C20_25 
REMARK    7  A    between atoms: C20_25  and  C21_26 
REMARK    8  A    between atoms: C22_27  and  C23_28 
REMARK    9  A    between atoms: C25_30  and  C26_31 
REMARK   10  A    between atoms: C27_33  and  C28_34 
REMARK   11  A    between atoms: C29_38  and  C30_39 
REMARK   12  A    between atoms: C30_39  and  C31_40 
REMARK   13  A    between atoms: C31_40  and  C32_41 
REMARK   14  A    between atoms: C32_41  and  O7_43 
ROOT
HETATM    1  C8  UNL     1      -0.420   7.476  12.296  1.00  0.00     0.016 C 
HETATM    2  N1  UNL     1      -0.964   6.368  11.908  1.00  0.00    -0.362 N 
ATOM      3  H1  UNL     1      -0.610   5.744  11.182  1.00  0.00     0.165 HD
HETATM    4  C9  UNL     1      -2.107   6.185  12.654  1.00  0.00     0.024 C 
HETATM    5  C10 UNL     1      -3.018   5.274  12.280  1.00  0.00     0.014 A 
HETATM    6  C11 UNL     1      -4.267   5.003  12.875  1.00  0.00     0.056 A 
HETATM    7  C12 UNL     1      -4.957   4.009  12.250  1.00  0.00     0.046 A 
HETATM    8  C13 UNL     1      -4.173   3.518  11.130  1.00  0.00     0.180 A 
HETATM    9  O1  UNL     1      -4.509   2.617  10.376  1.00  0.00    -0.291 OA
HETATM   10  C14 UNL     1      -2.841   4.312  11.067  1.00  0.00     0.197 A 
HETATM   11  C17 UNL     1      -6.170   3.806  12.935  1.00  0.00    -0.023 A 
HETATM   12  C18 UNL     1      -7.200   2.794  12.580  1.00  0.00     0.051 C 
HETATM   13  C19 UNL     1      -6.162   4.724  14.000  1.00  0.00     0.022 A 
HETATM   14  N3  UNL     1      -4.979   5.462  13.922  1.00  0.00    -0.357 N 
HETATM   15  C29 UNL     1      -2.171   7.149  13.819  1.00  0.00     0.046 C 
HETATM   16  C33 UNL     1      -1.150   8.217  13.392  1.00  0.00     0.041 C 
HETATM   17  C34 UNL     1      -1.825   9.460  12.822  1.00  0.00     0.017 C 
HETATM   18  H25 UNL     1      -4.721   6.197  14.564  1.00  0.00     0.166 HD
ENDROOT
BRANCH  10  19
HETATM   19  C15 UNL     1      -1.671   3.386  11.265  1.00  0.00     0.274 C 
HETATM   20  O2  UNL     1      -0.490   3.699  11.165  1.00  0.00    -0.264 OA
BRANCH  19  21
HETATM   21  O3  UNL     1      -2.112   2.143  11.616  1.00  0.00    -0.326 OA
HETATM   22  C16 UNL     1      -1.388   1.078  10.999  1.00  0.00     0.213 C 
ENDBRANCH  19  21
ENDBRANCH  10  19
BRANCH  15  23
HETATM   23  C30 UNL     1      -1.793   6.433  15.130  1.00  0.00     0.022 C 
BRANCH  23  24
HETATM   24  C31 UNL     1      -0.822   7.238  15.992  1.00  0.00     0.110 C 
BRANCH  24  25
HETATM   25  C32 UNL     1      -1.504   8.401  16.655  1.00  0.00     0.139 C 
HETATM   26  O6  UNL     1      -1.029   9.511  16.830  1.00  0.00    -0.650 OA
BRANCH  25  27
HETATM   27  O7  UNL     1      -2.734   8.098  17.097  1.00  0.00    -0.776 OA
HETATM   28  H31 UNL     1      -3.069   8.920  17.508  1.00  0.00     0.167 HD
ENDBRANCH  25  27
ENDBRANCH  24  25
ENDBRANCH  23  24
ENDBRANCH  15  23
BRANCH   1  29
HETATM   29  C7  UNL     1       0.764   8.066  11.642  1.00  0.00     0.055 C 
BRANCH  29  30
HETATM   30  C6  UNL     1       1.448   7.557  10.613  1.00  0.00     0.043 A 
HETATM   31  C4  UNL     1       1.263   7.584   9.173  1.00  0.00    -0.019 A 
HETATM   32  C3  UNL     1       2.202   6.831   8.552  1.00  0.00     0.039 A 
HETATM   33  C5  UNL     1       0.187   8.381   8.522  1.00  0.00     0.052 C 
HETATM   34  C35 UNL     1       3.079   6.304   9.644  1.00  0.00     0.256 A 
HETATM   35  N4  UNL     1       2.567   6.806  10.814  1.00  0.00    -0.322 N 
HETATM   36  O8  UNL     1       4.042   5.569   9.549  1.00  0.00    -0.267 OA
HETATM   37  H36 UNL     1       2.992   6.597  11.705  1.00  0.00     0.169 HD
BRANCH  32  38
HETATM   38  C2  UNL     1       2.355   6.567   7.140  1.00  0.00     0.007 C 
HETATM   39  C1  UNL     1       1.670   7.143   6.146  1.00  0.00     0.012 C 
ENDBRANCH  32  38
ENDBRANCH  29  30
ENDBRANCH   1  29
BRANCH  13  40
HETATM   40  C20 UNL     1      -7.099   4.993  15.148  1.00  0.00     0.115 C 
BRANCH  40  41
HETATM   41  C21 UNL     1      -7.945   6.220  15.020  1.00  0.00     0.022 A 
HETATM   42  C22 UNL     1      -7.689   7.554  15.306  1.00  0.00    -0.020 A 
HETATM   43  C25 UNL     1      -8.894   8.288  15.009  1.00  0.00     0.040 A 
HETATM   44  C27 UNL     1      -9.838   7.371  14.563  1.00  0.00     0.084 A 
HETATM   45  N2  UNL     1      -9.246   6.132  14.587  1.00  0.00    -0.356 N 
HETATM   46  H24 UNL     1      -9.719   5.281  14.302  1.00  0.00     0.166 HD
BRANCH  42  47
HETATM   47  C23 UNL     1      -6.399   8.116  15.827  1.00  0.00     0.037 C 
HETATM   48  C24 UNL     1      -5.541   8.709  14.718  1.00  0.00     0.010 C 
ENDBRANCH  42  47
BRANCH  43  49
HETATM   49  C26 UNL     1      -9.103   9.722  15.153  1.00  0.00     0.273 C 
HETATM   50  O4  UNL     1     -10.129  10.302  14.810  1.00  0.00    -0.301 OA
ENDBRANCH  43  49
BRANCH  44  51
HETATM   51  C28 UNL     1     -11.205   7.539  14.132  1.00  0.00     0.288 C 
HETATM   52  O5  UNL     1     -11.504   7.820  12.974  1.00  0.00    -0.300 OA
ENDBRANCH  44  51
ENDBRANCH  40  41
ENDBRANCH  13  40
TORSDOF 14
ENDMDL
