MODEL 1
REMARK minimizedAffinity -6.17668962
REMARK CNNscore 0.659012675
REMARK CNNaffinity 6.62338305
REMARK  13 active torsions:
REMARK  status: ('A' for Active; 'I' for Inactive)
REMARK    1  A    between atoms: C2_2  and  C3_3 
REMARK    2  A    between atoms: C2_2  and  C14_14 
REMARK    3  A    between atoms: C4_4  and  C5_5 
REMARK    4  A    between atoms: C6_6  and  C8_8 
REMARK    5  A    between atoms: C8_8  and  C9_9 
REMARK    6  A    between atoms: C9_9  and  C10_10 
REMARK    7  A    between atoms: C18_18  and  C19_19 
REMARK    8  A    between atoms: C19_19  and  C20_20 
REMARK    9  A    between atoms: C20_20  and  C21_21 
REMARK   10  A    between atoms: C21_21  and  O1_22 
REMARK   11  A    between atoms: C23_24  and  C25_26 
REMARK   12  A    between atoms: C28_30  and  O3_32 
REMARK   13  A    between atoms: C30_33  and  O4_34 
ROOT
HETATM    1  C14 UNL     1       0.280  11.155  18.773  1.00  0.00     0.047 C 
HETATM    2  C15 UNL     1       1.127  10.397  17.738  1.00  0.00     0.013 C 
HETATM    3  C16 UNL     1       2.496  10.289  18.385  1.00  0.00     0.017 C 
HETATM    4  C17 UNL     1       2.715  11.622  19.178  1.00  0.00     0.024 C 
HETATM    5  C18 UNL     1       3.284  11.227  20.623  1.00  0.00     0.029 C 
HETATM    6  C22 UNL     1       4.207  12.312  21.205  1.00  0.00    -0.066 C 
HETATM    7  C23 UNL     1       4.014  13.203  22.205  1.00  0.00    -0.021 C 
HETATM    8  C24 UNL     1       5.083  14.066  22.826  1.00  0.00     0.052 C 
HETATM    9  C26 UNL     1       5.501  12.363  20.390  1.00  0.00     0.038 C 
HETATM   10  C27 UNL     1       5.241  12.167  18.881  1.00  0.00     0.042 C 
HETATM   11  C28 UNL     1       3.804  12.555  18.453  1.00  0.00     0.065 C 
HETATM   12  C29 UNL     1       3.741  12.565  16.914  1.00  0.00     0.047 C 
HETATM   13  C30 UNL     1       1.274  12.265  19.212  1.00  0.00     0.138 C 
ENDROOT
BRANCH   5  14
HETATM   14  C19 UNL     1       2.493  10.284  21.584  1.00  0.00     0.012 C 
BRANCH  14  15
HETATM   15  C20 UNL     1       3.093   9.723  22.868  1.00  0.00     0.027 C 
BRANCH  15  16
HETATM   16  C21 UNL     1       2.419   8.419  23.297  1.00  0.00     0.164 C 
BRANCH  16  17
HETATM   17  O1  UNL     1       1.793   7.783  22.192  1.00  0.00    -0.401 OA
HETATM   18  H32 UNL     1       2.495   7.517  21.570  1.00  0.00     0.209 HD
ENDBRANCH  16  17
ENDBRANCH  15  16
ENDBRANCH  14  15
ENDBRANCH   5  14
BRANCH  11  19
HETATM   19  O3  UNL     1       3.588  13.924  18.867  1.00  0.00    -0.389 OA
HETATM   20  H44 UNL     1       4.294  14.468  18.470  1.00  0.00     0.210 HD
ENDBRANCH  11  19
BRANCH  13  21
HETATM   21  O4  UNL     1       1.146  13.374  18.321  1.00  0.00    -0.394 OA
HETATM   22  H46 UNL     1       1.862  13.996  18.568  1.00  0.00     0.210 HD
ENDBRANCH  13  21
BRANCH   1  23
HETATM   23  C2  UNL     1      -1.108  11.595  18.283  1.00  0.00    -0.061 C 
HETATM   24  C1  UNL     1      -1.837  12.535  18.912  1.00  0.00     0.019 C 
BRANCH  23  25
HETATM   25  C3  UNL     1      -1.697  11.027  17.067  1.00  0.00     0.007 C 
HETATM   26  C4  UNL     1      -2.951  10.593  16.869  1.00  0.00     0.001 C 
BRANCH  26  27
HETATM   27  C5  UNL     1      -3.377  10.020  15.608  1.00  0.00     0.002 C 
HETATM   28  C6  UNL     1      -3.214   8.749  15.184  1.00  0.00    -0.084 C 
HETATM   29  C7  UNL     1      -2.577   7.631  15.961  1.00  0.00     0.043 C 
BRANCH  28  30
HETATM   30  C8  UNL     1      -3.709   8.360  13.801  1.00  0.00     0.037 C 
BRANCH  30  31
HETATM   31  C9  UNL     1      -5.239   8.421  13.705  1.00  0.00     0.031 C 
BRANCH  31  32
HETATM   32  C10 UNL     1      -5.892   7.721  14.869  1.00  0.00    -0.024 C 
HETATM   33  C11 UNL     1      -6.231   6.422  14.970  1.00  0.00    -0.091 C 
HETATM   34  C12 UNL     1      -6.897   5.899  16.218  1.00  0.00     0.042 C 
HETATM   35  C13 UNL     1      -5.998   5.378  13.910  1.00  0.00     0.042 C 
ENDBRANCH  31  32
ENDBRANCH  30  31
ENDBRANCH  28  30
ENDBRANCH  26  27
ENDBRANCH  23  25
ENDBRANCH   1  23
BRANCH   7  36
HETATM   36  C25 UNL     1       2.667  13.504  22.753  1.00  0.00     0.265 C 
HETATM   37  O2  UNL     1       2.384  13.396  23.940  1.00  0.00    -0.302 OA
ENDBRANCH   7  36
TORSDOF 13
ENDMDL
