MODEL 1
REMARK minimizedAffinity -7.38158226
REMARK CNNscore 0.843699753
REMARK CNNaffinity 7.41798353
REMARK  9 active torsions:
REMARK  status: ('A' for Active; 'I' for Inactive)
REMARK    1  A    between atoms: C2_2  and  C3_3 
REMARK    2  A    between atoms: C2_2  and  C9_12 
REMARK    3  A    between atoms: C3_3  and  C4_4 
REMARK    4  A    between atoms: C4_4  and  C5_5 
REMARK    5  A    between atoms: C5_5  and  O1_6 
REMARK    6  A    between atoms: C5_5  and  C6_7 
REMARK    7  A    between atoms: C6_7  and  O2_9 
REMARK    8  A    between atoms: C6_7  and  C8_10 
REMARK    9  A    between atoms: C8_10  and  O3_11 
ROOT
HETATM    1  C9  UNL     1      -1.903  52.142 -10.198  1.00  0.00    -0.002 C 
HETATM    2  C10 UNL     1      -1.231  50.752 -10.368  1.00  0.00     0.007 C 
HETATM    3  C11 UNL     1       0.273  50.942 -10.087  1.00  0.00     0.015 C 
HETATM    4  C12 UNL     1       0.379  52.300  -9.366  1.00  0.00    -0.005 C 
HETATM    5  C13 UNL     1       0.030  52.045  -7.866  1.00  0.00     0.021 C 
HETATM    6  C14 UNL     1       1.697  53.062  -9.320  1.00  0.00    -0.000 C 
HETATM    7  C15 UNL     1       1.717  54.419  -9.237  1.00  0.00    -0.060 C 
HETATM    8  C16 UNL     1       0.414  55.226  -9.259  1.00  0.00     0.036 C 
HETATM    9  C17 UNL     1      -0.909  54.454  -9.449  1.00  0.00     0.015 C 
HETATM   10  C18 UNL     1      -0.695  53.127 -10.184  1.00  0.00    -0.028 C 
HETATM   11  C19 UNL     1      -0.239  53.443 -11.638  1.00  0.00     0.016 C 
HETATM   12  C20 UNL     1       3.037  55.236  -9.171  1.00  0.00    -0.014 C 
HETATM   13  C21 UNL     1       3.371  55.607 -10.635  1.00  0.00     0.020 C 
HETATM   14  C22 UNL     1       2.873  56.533  -8.336  1.00  0.00     0.021 C 
HETATM   15  C23 UNL     1       4.177  57.284  -8.115  1.00  0.00     0.080 C 
HETATM   16  C24 UNL     1       5.174  56.396  -7.416  1.00  0.00     0.135 C 
HETATM   17  O4  UNL     1       5.757  56.799  -6.410  1.00  0.00    -0.297 OA
HETATM   18  C25 UNL     1       5.471  55.030  -8.054  1.00  0.00     0.018 C 
HETATM   19  C26 UNL     1       6.186  54.157  -6.990  1.00  0.00     0.023 C 
HETATM   20  C27 UNL     1       6.467  55.239  -9.204  1.00  0.00     0.023 C 
HETATM   21  C28 UNL     1       4.116  54.347  -8.457  1.00  0.00     0.020 C 
HETATM   22  C29 UNL     1       4.291  53.030  -9.218  1.00  0.00     0.090 C 
HETATM   23  C30 UNL     1       2.980  52.285  -9.322  1.00  0.00     0.157 C 
HETATM   24  O5  UNL     1       2.987  51.060  -9.431  1.00  0.00    -0.293 OA
ENDROOT
BRANCH   1  25
HETATM   25  C2  UNL     1      -3.164  52.345 -11.095  1.00  0.00    -0.014 C 
HETATM   26  C1  UNL     1      -4.141  53.444 -10.668  1.00  0.00     0.010 C 
BRANCH  25  27
HETATM   27  C3  UNL     1      -3.897  51.007 -11.348  1.00  0.00     0.007 C 
BRANCH  27  28
HETATM   28  C4  UNL     1      -4.979  50.654 -10.309  1.00  0.00     0.035 C 
BRANCH  28  29
HETATM   29  C5  UNL     1      -5.537  49.230 -10.438  1.00  0.00     0.154 C 
BRANCH  29  30
HETATM   30  O1  UNL     1      -5.445  48.819 -11.811  1.00  0.00    -0.392 OA
HETATM   31  H10 UNL     1      -5.971  47.992 -11.854  1.00  0.00     0.210 HD
ENDBRANCH  29  30
BRANCH  29  32
HETATM   32  C6  UNL     1      -7.008  49.064  -9.971  1.00  0.00     0.101 C 
HETATM   33  C7  UNL     1      -7.129  48.412  -8.588  1.00  0.00     0.051 C 
BRANCH  32  34
HETATM   34  O2  UNL     1      -7.546  50.403  -9.835  1.00  0.00    -0.385 OA
HETATM   35  H14 UNL     1      -8.516  50.304  -9.938  1.00  0.00     0.210 HD
ENDBRANCH  32  34
BRANCH  32  36
HETATM   36  C8  UNL     1      -7.859  48.320 -11.020  1.00  0.00     0.204 C 
BRANCH  36  37
HETATM   37  O3  UNL     1      -8.764  49.235 -11.647  1.00  0.00    -0.398 OA
HETATM   38  H17 UNL     1      -9.549  49.309 -11.075  1.00  0.00     0.209 HD
ENDBRANCH  36  37
ENDBRANCH  32  36
ENDBRANCH  29  32
ENDBRANCH  28  29
ENDBRANCH  27  28
ENDBRANCH  25  27
ENDBRANCH   1  25
TORSDOF 9
ENDMDL
