MODEL 1
REMARK minimizedAffinity -6.20028162
REMARK CNNscore 0.574364364
REMARK CNNaffinity 6.00728607
REMARK  3 active torsions:
REMARK  status: ('A' for Active; 'I' for Inactive)
REMARK    1  A    between atoms: C7_7  and  C8_8 
REMARK    2  A    between atoms: C8_8  and  O2_10 
REMARK    3  A    between atoms: C21_23  and  O3_24 
ROOT
HETATM    1  C1  UNL     1     -18.768  -5.252  17.222  1.00  0.00     0.011 C 
HETATM    2  C2  UNL     1     -18.886  -3.821  16.658  1.00  0.00    -0.005 C 
HETATM    3  C3  UNL     1     -19.405  -2.855  17.752  1.00  0.00    -0.014 C 
HETATM    4  C4  UNL     1     -20.781  -3.253  18.301  1.00  0.00     0.010 C 
HETATM    5  C5  UNL     1     -19.475  -1.412  17.235  1.00  0.00     0.006 C 
HETATM    6  C6  UNL     1     -18.328  -1.012  16.309  1.00  0.00     0.021 C 
HETATM    7  C7  UNL     1     -17.091  -1.930  16.387  1.00  0.00     0.053 C 
HETATM    8  C9  UNL     1     -15.943  -1.346  15.521  1.00  0.00     0.022 C 
HETATM    9  C10 UNL     1     -15.298  -2.372  14.590  1.00  0.00     0.016 C 
HETATM   10  C11 UNL     1     -16.317  -3.057  13.644  1.00  0.00    -0.013 C 
HETATM   11  C12 UNL     1     -17.021  -1.934  12.815  1.00  0.00     0.021 C 
HETATM   12  C13 UNL     1     -17.410  -3.744  14.481  1.00  0.00    -0.069 C 
HETATM   13  C14 UNL     1     -18.132  -4.732  13.906  1.00  0.00    -0.022 C 
HETATM   14  C15 UNL     1     -17.907  -5.327  12.542  1.00  0.00     0.033 C 
HETATM   15  C16 UNL     1     -16.705  -4.774  11.744  1.00  0.00     0.007 C 
HETATM   16  C17 UNL     1     -16.199  -5.710  10.562  1.00  0.00    -0.035 C 
HETATM   17  C18 UNL     1     -15.646  -7.059  11.084  1.00  0.00     0.016 C 
HETATM   18  C19 UNL     1     -17.403  -6.020   9.623  1.00  0.00     0.012 C 
HETATM   19  C20 UNL     1     -17.009  -6.650   8.290  1.00  0.00     0.033 C 
HETATM   20  C21 UNL     1     -15.979  -5.815   7.535  1.00  0.00     0.126 C 
HETATM   21  C22 UNL     1     -14.700  -5.495   8.366  1.00  0.00    -0.017 C 
HETATM   22  C23 UNL     1     -13.792  -6.733   8.500  1.00  0.00     0.018 C 
HETATM   23  C24 UNL     1     -13.881  -4.449   7.559  1.00  0.00     0.018 C 
HETATM   24  C25 UNL     1     -15.145  -4.874   9.741  1.00  0.00     0.004 C 
HETATM   25  C26 UNL     1     -13.992  -4.390  10.646  1.00  0.00     0.007 C 
HETATM   26  C27 UNL     1     -14.504  -3.503  11.790  1.00  0.00     0.011 C 
HETATM   27  C28 UNL     1     -15.600  -4.152  12.680  1.00  0.00    -0.028 C 
HETATM   28  C29 UNL     1     -14.900  -5.232  13.556  1.00  0.00     0.016 C 
HETATM   29  C30 UNL     1     -17.512  -3.392  15.997  1.00  0.00     0.038 C 
ENDROOT
BRANCH   7  30
HETATM   30  C8  UNL     1     -16.508  -1.937  17.811  1.00  0.00     0.149 C 
HETATM   31  O1  UNL     1     -16.251  -2.915  18.493  1.00  0.00    -0.649 OA
BRANCH  30  32
HETATM   32  O2  UNL     1     -16.209  -0.709  18.282  1.00  0.00    -0.776 OA
HETATM   33  H13 UNL     1     -15.821  -0.886  19.166  1.00  0.00     0.167 HD
ENDBRANCH  30  32
ENDBRANCH   7  30
BRANCH  20  34
HETATM   34  O3  UNL     1     -15.634  -6.494   6.328  1.00  0.00    -0.395 OA
HETATM   35  H33 UNL     1     -16.454  -6.635   5.824  1.00  0.00     0.210 HD
ENDBRANCH  20  34
TORSDOF 3
ENDMDL
