MODEL 1
REMARK minimizedAffinity -6.66740465
REMARK CNNscore 0.708165407
REMARK CNNaffinity 6.70025253
REMARK  4 active torsions:
REMARK  status: ('A' for Active; 'I' for Inactive)
REMARK    1  A    between atoms: C4_4  and  C5_5 
REMARK    2  A    between atoms: C5_5  and  C6_6 
REMARK    3  A    between atoms: C6_6  and  C7_7 
REMARK    4  A    between atoms: C9_9  and  O1_10 
ROOT
HETATM    1  C7  UNL     1     -14.146   7.393  23.318  1.00  0.00    -0.007 C 
HETATM    2  C8  UNL     1     -13.616   7.944  24.643  1.00  0.00     0.038 C 
HETATM    3  C9  UNL     1     -13.160   9.409  24.607  1.00  0.00     0.131 C 
HETATM    4  C10 UNL     1     -12.150   9.733  23.432  1.00  0.00     0.013 C 
HETATM    5  C11 UNL     1     -10.816   8.991  23.760  1.00  0.00     0.023 C 
HETATM    6  C12 UNL     1     -11.764  11.248  23.305  1.00  0.00    -0.067 C 
HETATM    7  C13 UNL     1     -11.758  12.101  24.351  1.00  0.00    -0.022 C 
HETATM    8  C14 UNL     1     -11.336  13.541  24.315  1.00  0.00     0.034 C 
HETATM    9  C15 UNL     1     -11.077  14.092  22.900  1.00  0.00     0.013 C 
HETATM   10  C16 UNL     1     -10.519  15.559  22.886  1.00  0.00     0.018 C 
HETATM   11  C17 UNL     1     -11.625  16.521  23.387  1.00  0.00     0.023 C 
HETATM   12  C18 UNL     1      -9.280  15.813  23.759  1.00  0.00     0.023 C 
HETATM   13  C19 UNL     1     -10.161  15.957  21.449  1.00  0.00     0.135 C 
HETATM   14  O2  UNL     1     -10.382  17.086  21.002  1.00  0.00    -0.297 OA
HETATM   15  C20 UNL     1      -9.408  14.954  20.610  1.00  0.00     0.080 C 
HETATM   16  C21 UNL     1     -10.124  13.615  20.601  1.00  0.00     0.017 C 
HETATM   17  C22 UNL     1     -10.343  13.018  22.015  1.00  0.00    -0.031 C 
HETATM   18  C23 UNL     1      -8.979  12.567  22.590  1.00  0.00     0.016 C 
HETATM   19  C24 UNL     1     -11.333  11.775  21.927  1.00  0.00     0.024 C 
HETATM   20  C25 UNL     1     -10.855  10.660  20.991  1.00  0.00     0.010 C 
HETATM   21  C26 UNL     1     -11.801   9.458  20.886  1.00  0.00     0.011 C 
HETATM   22  C27 UNL     1     -12.803   9.242  22.064  1.00  0.00    -0.027 C 
HETATM   23  C28 UNL     1     -14.106  10.043  21.733  1.00  0.00     0.016 C 
HETATM   24  C29 UNL     1     -13.178   7.700  22.140  1.00  0.00    -0.005 C 
HETATM   25  C30 UNL     1     -13.744   7.139  20.821  1.00  0.00     0.011 C 
ENDROOT
BRANCH   1  26
HETATM   26  C6  UNL     1     -14.536   5.899  23.470  1.00  0.00     0.009 C 
BRANCH  26  27
HETATM   27  C5  UNL     1     -13.378   4.932  23.743  1.00  0.00     0.028 C 
BRANCH  27  28
HETATM   28  C4  UNL     1     -13.892   3.609  24.250  1.00  0.00    -0.025 C 
HETATM   29  C2  UNL     1     -13.178   2.501  24.529  1.00  0.00    -0.091 C 
HETATM   30  C1  UNL     1     -13.854   1.270  25.076  1.00  0.00     0.042 C 
HETATM   31  C3  UNL     1     -11.692   2.359  24.342  1.00  0.00     0.042 C 
ENDBRANCH  27  28
ENDBRANCH  26  27
ENDBRANCH   1  26
BRANCH   3  32
HETATM   32  O1  UNL     1     -12.580   9.645  25.899  1.00  0.00    -0.394 OA
HETATM   33  H16 UNL     1     -13.286   9.532  26.559  1.00  0.00     0.210 HD
ENDBRANCH   3  32
TORSDOF 4
ENDMDL
