MODEL 1
REMARK minimizedAffinity -10.0344343
REMARK  9 active torsions:
REMARK  status: ('A' for Active; 'I' for Inactive)
REMARK    1  A    between atoms: C2_2  and  O2_4 
REMARK    2  A    between atoms: O2_4  and  C3_5 
REMARK    3  A    between atoms: C3_5  and  C4_6 
REMARK    4  A    between atoms: C4_6  and  C5_7 
REMARK    5  A    between atoms: C5_7  and  C6_8 
REMARK    6  A    between atoms: C20_22  and  C21_23 
REMARK    7  A    between atoms: C21_23  and  C23_25 
REMARK    8  A    between atoms: C23_25  and  C24_26 
REMARK    9  A    between atoms: C24_26  and  C25_27 
ROOT
HETATM    1  C6  UNL     1      -1.656  50.051 -25.641  1.00  0.00     0.023 C 
HETATM    2  C7  UNL     1      -2.866  49.195 -26.102  1.00  0.00    -0.073 C 
HETATM    3  C8  UNL     1      -3.573  49.258 -27.262  1.00  0.00    -0.085 C 
HETATM    4  C9  UNL     1      -4.636  48.244 -27.631  1.00  0.00     0.043 C 
HETATM    5  C10 UNL     1      -3.461  50.333 -28.314  1.00  0.00     0.043 C 
HETATM    6  C11 UNL     1      -3.269  48.238 -24.983  1.00  0.00     0.035 C 
HETATM    7  C12 UNL     1      -3.680  49.023 -23.729  1.00  0.00     0.010 C 
HETATM    8  C13 UNL     1      -2.557  49.976 -23.275  1.00  0.00     0.003 C 
HETATM    9  C14 UNL     1      -2.099  50.971 -24.421  1.00  0.00    -0.032 C 
HETATM   10  C15 UNL     1      -3.206  51.936 -24.915  1.00  0.00     0.016 C 
HETATM   11  C16 UNL     1      -0.924  51.852 -23.896  1.00  0.00     0.011 C 
HETATM   12  C17 UNL     1      -1.088  52.437 -22.470  1.00  0.00     0.011 C 
HETATM   13  C18 UNL     1      -1.437  51.356 -21.424  1.00  0.00    -0.032 C 
HETATM   14  C19 UNL     1      -0.197  50.409 -21.318  1.00  0.00     0.016 C 
HETATM   15  C20 UNL     1      -1.836  51.778 -19.965  1.00  0.00    -0.002 C 
HETATM   16  C29 UNL     1      -2.616  50.507 -19.476  1.00  0.00     0.006 C 
HETATM   17  C30 UNL     1      -3.021  49.691 -20.720  1.00  0.00     0.011 C 
HETATM   18  C31 UNL     1      -2.780  50.653 -21.893  1.00  0.00    -0.032 C 
HETATM   19  C32 UNL     1      -4.027  51.596 -21.915  1.00  0.00     0.016 C 
ENDROOT
BRANCH  15  20
HETATM   20  C21 UNL     1      -0.749  52.210 -18.923  1.00  0.00    -0.014 C 
HETATM   21  C22 UNL     1       0.317  53.084 -19.613  1.00  0.00     0.010 C 
BRANCH  20  22
HETATM   22  C23 UNL     1      -0.070  50.999 -18.240  1.00  0.00     0.008 C 
BRANCH  22  23
HETATM   23  C24 UNL     1       0.510  51.264 -16.839  1.00  0.00     0.028 C 
BRANCH  23  24
HETATM   24  C25 UNL     1       1.804  52.028 -16.826  1.00  0.00    -0.025 C 
HETATM   25  C26 UNL     1       2.746  52.054 -15.861  1.00  0.00    -0.091 C 
HETATM   26  C27 UNL     1       3.994  52.881 -16.033  1.00  0.00     0.042 C 
HETATM   27  C28 UNL     1       2.678  51.315 -14.553  1.00  0.00     0.042 C 
ENDBRANCH  23  24
ENDBRANCH  22  23
ENDBRANCH  20  22
ENDBRANCH  15  20
BRANCH   1  28
HETATM   28  C5  UNL     1      -0.775  50.746 -26.711  1.00  0.00     0.012 C 
BRANCH  28  29
HETATM   29  C4  UNL     1       0.679  50.936 -26.257  1.00  0.00     0.028 C 
BRANCH  29  30
HETATM   30  C3  UNL     1       1.289  52.204 -26.847  1.00  0.00     0.178 C 
BRANCH  30  31
HETATM   31  O2  UNL     1       1.040  53.315 -25.972  1.00  0.00    -0.322 OA
BRANCH  31  32
HETATM   32  C2  UNL     1       0.303  54.329 -26.501  1.00  0.00     0.254 C 
HETATM   33  C1  UNL     1      -0.291  53.899 -27.810  1.00  0.00     0.126 C 
HETATM   34  O1  UNL     1       0.139  55.432 -26.000  1.00  0.00    -0.266 OA
ENDBRANCH  31  32
ENDBRANCH  30  31
ENDBRANCH  29  30
ENDBRANCH  28  29
ENDBRANCH   1  28
TORSDOF 9
ENDMDL
