MODEL 1
REMARK minimizedAffinity -8.84274483
REMARK CNNscore 0.723562777
REMARK CNNaffinity 7.66394043
REMARK  19 active torsions:
REMARK  status: ('A' for Active; 'I' for Inactive)
REMARK    1  A    between atoms: C2_2  and  C3_3 
REMARK    2  A    between atoms: C3_3  and  C5_5 
REMARK    3  A    between atoms: C5_5  and  N1_6 
REMARK    4  A    between atoms: C5_5  and  C37_46 
REMARK       I    between atoms: N1_6  and  C6_7 
REMARK    5  A    between atoms: C6_7  and  C7_9 
REMARK    6  A    between atoms: C7_9  and  C8_10 
REMARK    7  A    between atoms: C8_10  and  C9_11 
REMARK    8  A    between atoms: C9_11  and  C10_12 
REMARK    9  A    between atoms: C10_12  and  C11_13 
REMARK   10  A    between atoms: C11_13  and  N2_14 
REMARK       I    between atoms: N2_14  and  C12_15 
REMARK   11  A    between atoms: C12_15  and  C13_17 
REMARK   12  A    between atoms: C13_17  and  C14_18 
REMARK   13  A    between atoms: C14_18  and  C15_19 
REMARK   14  A    between atoms: C15_19  and  O4_21 
REMARK   15  A    between atoms: O4_21  and  C16_22 
REMARK   16  A    between atoms: C16_22  and  C17_23 
REMARK   17  A    between atoms: C17_23  and  C18_25 
REMARK   18  A    between atoms: C18_25  and  O6_26 
REMARK   19  A    between atoms: C37_46  and  O9_48 
ROOT
HETATM    1  C15 UNL     1       1.209  54.014 -21.853  1.00  0.00     0.259 C 
HETATM    2  O3  UNL     1       2.172  54.762 -21.748  1.00  0.00    -0.265 OA
ENDROOT
BRANCH   1   3
HETATM    3  C14 UNL     1       0.933  52.861 -20.917  1.00  0.00     0.120 C 
BRANCH   3   4
HETATM    4  C13 UNL     1      -0.025  53.192 -19.774  1.00  0.00     0.112 C 
BRANCH   4   5
HETATM    5  C12 UNL     1       0.359  52.493 -18.484  1.00  0.00     0.217 C 
HETATM    6  N2  UNL     1       1.514  52.989 -17.911  1.00  0.00    -0.361 N 
HETATM    7  H22 UNL     1       1.816  53.914 -18.193  1.00  0.00     0.162 HD
HETATM    8  O2  UNL     1      -0.278  51.558 -18.013  1.00  0.00    -0.274 OA
BRANCH   6   9
HETATM    9  C11 UNL     1       1.911  52.536 -16.591  1.00  0.00     0.122 C 
BRANCH   9  10
HETATM   10  C10 UNL     1       3.422  52.370 -16.438  1.00  0.00     0.020 C 
BRANCH  10  11
HETATM   11  C9  UNL     1       3.859  51.639 -15.164  1.00  0.00     0.002 C 
BRANCH  11  12
HETATM   12  C8  UNL     1       3.071  52.029 -13.908  1.00  0.00     0.009 C 
BRANCH  12  13
HETATM   13  C7  UNL     1       2.463  50.807 -13.212  1.00  0.00     0.103 C 
BRANCH  13  14
HETATM   14  C6  UNL     1       1.957  51.096 -11.809  1.00  0.00     0.218 C 
HETATM   15  N1  UNL     1       1.793  52.444 -11.567  1.00  0.00    -0.346 N 
HETATM   16  H11 UNL     1       1.663  53.027 -12.386  1.00  0.00     0.163 HD
HETATM   17  O1  UNL     1       1.703  50.224 -10.985  1.00  0.00    -0.274 OA
BRANCH  15  18
HETATM   18  C5  UNL     1       1.137  52.907 -10.335  1.00  0.00     0.186 C 
BRANCH  18  19
HETATM   19  C3  UNL     1       1.979  54.014  -9.649  1.00  0.00     0.014 C 
HETATM   20  C4  UNL     1       1.677  54.068  -8.146  1.00  0.00     0.012 C 
BRANCH  19  21
HETATM   21  C2  UNL     1       1.823  55.401 -10.314  1.00  0.00     0.002 C 
HETATM   22  C1  UNL     1       3.142  55.997 -10.794  1.00  0.00     0.005 C 
ENDBRANCH  19  21
ENDBRANCH  18  19
BRANCH  18  23
HETATM   23  C37 UNL     1      -0.279  53.368 -10.698  1.00  0.00     0.163 C 
HETATM   24  O8  UNL     1      -1.182  53.606  -9.910  1.00  0.00    -0.648 OA
BRANCH  23  25
HETATM   25  O9  UNL     1      -0.485  53.463 -12.027  1.00  0.00    -0.775 OA
HETATM   26  H56 UNL     1      -1.408  53.785 -12.106  1.00  0.00     0.167 HD
ENDBRANCH  23  25
ENDBRANCH  18  23
ENDBRANCH  15  18
ENDBRANCH  13  14
ENDBRANCH  12  13
ENDBRANCH  11  12
ENDBRANCH  10  11
ENDBRANCH   9  10
ENDBRANCH   6   9
ENDBRANCH   4   5
ENDBRANCH   3   4
ENDBRANCH   1   3
BRANCH   1  27
HETATM   27  O4  UNL     1       0.324  54.034 -22.882  1.00  0.00    -0.314 OA
BRANCH  27  28
HETATM   28  C16 UNL     1       0.832  53.543 -24.116  1.00  0.00     0.260 C 
BRANCH  28  29
HETATM   29  C17 UNL     1       0.073  53.772 -25.430  1.00  0.00     0.185 C 
HETATM   30  O5  UNL     1       0.154  54.868 -25.998  1.00  0.00    -0.292 OA
BRANCH  29  31
HETATM   31  C18 UNL     1      -0.889  52.666 -25.928  1.00  0.00     0.128 C 
HETATM   32  C19 UNL     1      -0.091  51.597 -26.725  1.00  0.00     0.047 C 
HETATM   33  C20 UNL     1      -0.810  50.255 -26.499  1.00  0.00     0.009 C 
HETATM   34  C21 UNL     1      -2.028  50.588 -25.631  1.00  0.00     0.002 C 
HETATM   35  C22 UNL     1      -2.619  49.435 -24.792  1.00  0.00    -0.004 C 
HETATM   36  C35 UNL     1      -1.570  51.809 -24.800  1.00  0.00    -0.002 C 
HETATM   37  C23 UNL     1      -3.263  48.376 -25.716  1.00  0.00     0.010 C 
HETATM   38  C32 UNL     1      -3.592  49.990 -23.680  1.00  0.00     0.002 C 
HETATM   39  C24 UNL     1      -4.750  48.614 -25.938  1.00  0.00     0.035 C 
HETATM   40  C25 UNL     1      -5.527  48.613 -24.646  1.00  0.00    -0.068 C 
HETATM   41  C26 UNL     1      -6.829  48.271 -24.653  1.00  0.00     0.053 C 
HETATM   42  C30 UNL     1      -4.789  49.015 -23.370  1.00  0.00    -0.016 C 
HETATM   43  C27 UNL     1      -7.652  48.277 -23.416  1.00  0.00     0.149 C 
HETATM   44  O7  UNL     1      -8.812  47.870 -23.465  1.00  0.00    -0.293 OA
HETATM   45  C28 UNL     1      -7.026  48.755 -22.127  1.00  0.00     0.084 C 
HETATM   46  C29 UNL     1      -5.824  49.657 -22.399  1.00  0.00     0.022 C 
HETATM   47  C31 UNL     1      -4.223  47.747 -22.670  1.00  0.00     0.020 C 
HETATM   48  C33 UNL     1      -4.000  51.458 -23.976  1.00  0.00     0.007 C 
HETATM   49  C34 UNL     1      -2.807  52.424 -24.110  1.00  0.00     0.013 C 
HETATM   50  C36 UNL     1      -0.551  51.408 -23.697  1.00  0.00     0.019 C 
BRANCH  31  51
HETATM   51  O6  UNL     1      -1.826  53.190 -26.874  1.00  0.00    -0.381 OA
HETATM   52  H29 UNL     1      -2.733  53.134 -26.526  1.00  0.00     0.211 HD
ENDBRANCH  31  51
ENDBRANCH  29  31
ENDBRANCH  28  29
ENDBRANCH  27  28
ENDBRANCH   1  27
TORSDOF 19
ENDMDL
