MODEL 1
REMARK minimizedAffinity -7.17411947
REMARK CNNscore 0.730693102
REMARK CNNaffinity 6.89565802
REMARK  6 active torsions:
REMARK  status: ('A' for Active; 'I' for Inactive)
REMARK    1  A    between atoms: C4_4  and  C5_5 
REMARK    2  A    between atoms: C5_5  and  C6_6 
REMARK    3  A    between atoms: C6_6  and  C7_7 
REMARK    4  A    between atoms: C7_7  and  C9_9 
REMARK    5  A    between atoms: C12_12  and  C13_13 
REMARK    6  A    between atoms: C13_13  and  O2_15 
ROOT
HETATM    1  C9  UNL     1      -1.890  51.973 -10.413  1.00  0.00    -0.001 C 
HETATM    2  C10 UNL     1      -1.167  50.605 -10.565  1.00  0.00     0.007 C 
HETATM    3  C11 UNL     1       0.322  50.854 -10.256  1.00  0.00     0.026 C 
HETATM    4  C12 UNL     1       0.344  52.229  -9.554  1.00  0.00     0.076 C 
HETATM    5  C14 UNL     1       1.650  53.013  -9.468  1.00  0.00    -0.057 C 
HETATM    6  C15 UNL     1       1.629  54.370  -9.420  1.00  0.00    -0.067 C 
HETATM    7  C16 UNL     1       0.317  55.157  -9.526  1.00  0.00     0.036 C 
HETATM    8  C17 UNL     1      -0.984  54.375  -9.804  1.00  0.00     0.015 C 
HETATM    9  C18 UNL     1      -0.718  53.000 -10.429  1.00  0.00    -0.018 C 
HETATM   10  C19 UNL     1      -0.223  53.253 -11.887  1.00  0.00     0.017 C 
HETATM   11  C20 UNL     1       2.938  55.198  -9.293  1.00  0.00    -0.015 C 
HETATM   12  C21 UNL     1       3.303  55.621 -10.736  1.00  0.00     0.020 C 
HETATM   13  C22 UNL     1       2.735  56.463  -8.420  1.00  0.00     0.021 C 
HETATM   14  C23 UNL     1       4.014  57.247  -8.188  1.00  0.00     0.080 C 
HETATM   15  C24 UNL     1       5.080  56.392  -7.550  1.00  0.00     0.135 C 
HETATM   16  O3  UNL     1       5.761  56.855  -6.632  1.00  0.00    -0.297 OA
HETATM   17  C25 UNL     1       5.367  55.012  -8.165  1.00  0.00     0.018 C 
HETATM   18  C26 UNL     1       6.381  55.197  -9.301  1.00  0.00     0.023 C 
HETATM   19  C27 UNL     1       6.061  54.159  -7.070  1.00  0.00     0.023 C 
HETATM   20  C28 UNL     1       4.025  54.316  -8.573  1.00  0.00     0.013 C 
HETATM   21  C29 UNL     1       4.215  52.998  -9.342  1.00  0.00     0.011 C 
HETATM   22  C30 UNL     1       2.916  52.194  -9.380  1.00  0.00     0.036 C 
ENDROOT
BRANCH   1  23
HETATM   23  C7  UNL     1      -3.165  52.119 -11.297  1.00  0.00    -0.014 C 
HETATM   24  C8  UNL     1      -4.182  53.172 -10.846  1.00  0.00     0.010 C 
BRANCH  23  25
HETATM   25  C6  UNL     1      -3.836  50.743 -11.537  1.00  0.00     0.008 C 
BRANCH  25  26
HETATM   26  C5  UNL     1      -4.887  50.337 -10.492  1.00  0.00     0.028 C 
BRANCH  26  27
HETATM   27  C4  UNL     1      -5.869  49.306 -10.972  1.00  0.00    -0.025 C 
HETATM   28  C2  UNL     1      -7.138  49.109 -10.563  1.00  0.00    -0.091 C 
HETATM   29  C1  UNL     1      -7.839  49.890  -9.486  1.00  0.00     0.042 C 
HETATM   30  C3  UNL     1      -7.987  48.034 -11.193  1.00  0.00     0.042 C 
ENDBRANCH  26  27
ENDBRANCH  25  26
ENDBRANCH  23  25
ENDBRANCH   1  23
BRANCH   4  31
HETATM   31  C13 UNL     1      -0.058  52.025  -8.059  1.00  0.00     0.153 C 
HETATM   32  O1  UNL     1      -1.161  51.770  -7.605  1.00  0.00    -0.649 OA
BRANCH  31  33
HETATM   33  O2  UNL     1       0.952  52.234  -7.186  1.00  0.00    -0.776 OA
HETATM   34  H21 UNL     1       0.520  52.122  -6.312  1.00  0.00     0.167 HD
ENDBRANCH  31  33
ENDBRANCH   4  31
TORSDOF 6
ENDMDL
