MODEL 1
REMARK minimizedAffinity -8.50347805
REMARK CNNscore 0.609490037
REMARK CNNaffinity 7.46078253
REMARK  18 active torsions:
REMARK  status: ('A' for Active; 'I' for Inactive)
REMARK    1  A    between atoms: C14_15  and  O2_16 
REMARK    2  A    between atoms: C14_15  and  C15_17 
REMARK    3  A    between atoms: C15_17  and  C16_19 
REMARK    4  A    between atoms: C16_19  and  O4_20 
REMARK    5  A    between atoms: O4_20  and  C17_21 
REMARK    6  A    between atoms: C17_21  and  C18_23 
REMARK    7  A    between atoms: C18_23  and  C19_24 
REMARK    8  A    between atoms: C19_24  and  C20_25 
REMARK       I    between atoms: C20_25  and  N1_27 
REMARK    9  A    between atoms: N1_27  and  C21_28 
REMARK   10  A    between atoms: C21_28  and  C22_29 
REMARK   11  A    between atoms: C22_29  and  C23_30 
REMARK   12  A    between atoms: C23_30  and  C24_31 
REMARK   13  A    between atoms: C24_31  and  C25_32 
REMARK   14  A    between atoms: C25_32  and  C26_33 
REMARK       I    between atoms: C26_33  and  N2_35 
REMARK   15  A    between atoms: N2_35  and  C27_36 
REMARK   16  A    between atoms: C27_36  and  C28_37 
REMARK   17  A    between atoms: C31_40  and  C32_41 
REMARK   18  A    between atoms: C32_41  and  O9_43 
ROOT
HETATM    1  C17 UNL     1      -4.093   3.634  11.766  1.00  0.00     0.259 C 
HETATM    2  O5  UNL     1      -4.074   3.513  10.549  1.00  0.00    -0.265 OA
ENDROOT
BRANCH   1   3
HETATM    3  O4  UNL     1      -3.027   3.939  12.542  1.00  0.00    -0.314 OA
BRANCH   3   4
HETATM    4  C16 UNL     1      -3.119   4.983  13.508  1.00  0.00     0.260 C 
BRANCH   4   5
HETATM    5  C15 UNL     1      -2.660   6.447  13.328  1.00  0.00     0.185 C 
HETATM    6  O3  UNL     1      -3.486   7.309  13.006  1.00  0.00    -0.292 OA
BRANCH   5   7
HETATM    7  C14 UNL     1      -1.177   6.801  13.653  1.00  0.00     0.128 C 
HETATM    8  C13 UNL     1      -0.291   5.580  13.369  1.00  0.00     0.047 C 
HETATM    9  C12 UNL     1       0.096   5.691  11.906  1.00  0.00     0.009 C 
HETATM   10  C11 UNL     1       0.144   7.191  11.576  1.00  0.00     0.002 C 
HETATM   11  C10 UNL     1       1.561   7.745  11.281  1.00  0.00    -0.004 C 
HETATM   12  C35 UNL     1      -0.557   7.937  12.761  1.00  0.00    -0.002 C 
HETATM   13  C9  UNL     1       2.212   7.075  10.059  1.00  0.00     0.010 C 
HETATM   14  C39 UNL     1       2.495   7.652  12.514  1.00  0.00     0.002 C 
HETATM   15  C8  UNL     1       3.554   7.720   9.735  1.00  0.00     0.035 C 
HETATM   16  C7  UNL     1       4.488   7.708  10.922  1.00  0.00    -0.068 C 
HETATM   17  C2  UNL     1       3.931   8.249  12.248  1.00  0.00    -0.016 C 
HETATM   18  C6  UNL     1       5.749   7.262  10.774  1.00  0.00     0.053 C 
HETATM   19  C1  UNL     1       3.910   9.792  12.155  1.00  0.00     0.020 C 
HETATM   20  C3  UNL     1       4.857   7.811  13.425  1.00  0.00     0.022 C 
HETATM   21  C4  UNL     1       6.338   8.025  13.149  1.00  0.00     0.084 C 
HETATM   22  C5  UNL     1       6.743   7.341  11.871  1.00  0.00     0.149 C 
HETATM   23  O1  UNL     1       7.882   6.916  11.688  1.00  0.00    -0.293 OA
HETATM   24  C38 UNL     1       1.813   8.199  13.792  1.00  0.00     0.007 C 
HETATM   25  C37 UNL     1       0.453   8.838  13.532  1.00  0.00     0.013 C 
HETATM   26  C36 UNL     1      -1.618   8.902  12.187  1.00  0.00     0.019 C 
BRANCH   7  27
HETATM   27  O2  UNL     1      -1.055   7.104  15.042  1.00  0.00    -0.381 OA
HETATM   28  H19 UNL     1      -1.198   6.257  15.511  1.00  0.00     0.211 HD
ENDBRANCH   7  27
ENDBRANCH   5   7
ENDBRANCH   4   5
ENDBRANCH   3   4
ENDBRANCH   1   3
BRANCH   1  29
HETATM   29  C18 UNL     1      -5.304   3.408  12.636  1.00  0.00     0.120 C 
BRANCH  29  30
HETATM   30  C19 UNL     1      -6.586   3.774  11.897  1.00  0.00     0.112 C 
BRANCH  30  31
HETATM   31  C20 UNL     1      -7.617   4.363  12.834  1.00  0.00     0.217 C 
HETATM   32  O6  UNL     1      -8.776   4.594  12.502  1.00  0.00    -0.274 OA
HETATM   33  N1  UNL     1      -7.121   4.598  14.099  1.00  0.00    -0.361 N 
HETATM   34  H26 UNL     1      -6.114   4.584  14.216  1.00  0.00     0.162 HD
BRANCH  33  35
HETATM   35  C21 UNL     1      -7.897   5.323  15.087  1.00  0.00     0.122 C 
BRANCH  35  36
HETATM   36  C22 UNL     1      -7.010   6.032  16.103  1.00  0.00     0.020 C 
BRANCH  36  37
HETATM   37  C23 UNL     1      -6.440   7.382  15.648  1.00  0.00     0.002 C 
BRANCH  37  38
HETATM   38  C24 UNL     1      -7.486   8.379  15.135  1.00  0.00     0.009 C 
BRANCH  38  39
HETATM   39  C25 UNL     1      -8.883   8.146  15.708  1.00  0.00     0.103 C 
BRANCH  39  40
HETATM   40  C26 UNL     1      -9.962   8.749  14.826  1.00  0.00     0.217 C 
HETATM   41  O7  UNL     1     -10.380   9.894  14.946  1.00  0.00    -0.274 OA
HETATM   42  N2  UNL     1     -10.421   7.865  13.874  1.00  0.00    -0.357 N 
HETATM   43  H37 UNL     1     -10.122   6.901  13.921  1.00  0.00     0.162 HD
BRANCH  42  44
HETATM   44  C27 UNL     1     -11.521   8.191  12.999  1.00  0.00     0.161 C 
BRANCH  44  45
HETATM   45  C28 UNL     1     -12.758   7.420  13.385  1.00  0.00    -0.040 A 
HETATM   46  C29 UNL     1     -12.667   6.368  14.308  1.00  0.00     0.010 A 
HETATM   47  C30 UNL     1     -13.801   5.631  14.657  1.00  0.00     0.019 A 
HETATM   48  C31 UNL     1     -15.042   5.937  14.085  1.00  0.00     0.037 A 
HETATM   49  C33 UNL     1     -15.137   6.979  13.156  1.00  0.00     0.019 A 
HETATM   50  C34 UNL     1     -14.000   7.714  12.805  1.00  0.00     0.010 A 
BRANCH  48  51
HETATM   51  C32 UNL     1     -16.217   5.129  14.487  1.00  0.00     0.176 C 
HETATM   52  O8  UNL     1     -16.519   4.821  15.626  1.00  0.00    -0.646 OA
BRANCH  51  53
HETATM   53  O9  UNL     1     -16.967   4.739  13.441  1.00  0.00    -0.773 OA
HETATM   54  H42 UNL     1     -17.694   4.229  13.857  1.00  0.00     0.167 HD
ENDBRANCH  51  53
ENDBRANCH  48  51
ENDBRANCH  44  45
ENDBRANCH  42  44
ENDBRANCH  39  40
ENDBRANCH  38  39
ENDBRANCH  37  38
ENDBRANCH  36  37
ENDBRANCH  35  36
ENDBRANCH  33  35
ENDBRANCH  30  31
ENDBRANCH  29  30
ENDBRANCH   1  29
TORSDOF 18
ENDMDL
