MODEL 1
REMARK minimizedAffinity -9.31694603
REMARK  6 active torsions:
REMARK  status: ('A' for Active; 'I' for Inactive)
REMARK    1  A    between atoms: C2_2  and  C30_31 
REMARK    2  A    between atoms: C3_3  and  C4_4 
REMARK    3  A    between atoms: C4_4  and  C5_5 
REMARK    4  A    between atoms: C5_5  and  C6_6 
REMARK    5  A    between atoms: C6_6  and  C8_8 
REMARK    6  A    between atoms: C30_31  and  O3_33 
ROOT
HETATM    1  C8  UNL     1      -2.206  49.904 -21.280  1.00  0.00    -0.002 C 
HETATM    2  C9  UNL     1      -1.514  51.215 -21.756  1.00  0.00     0.007 C 
HETATM    3  C10 UNL     1      -0.745  51.794 -20.551  1.00  0.00     0.015 C 
HETATM    4  C11 UNL     1      -1.254  50.989 -19.338  1.00  0.00    -0.013 C 
HETATM    5  C12 UNL     1      -2.588  51.674 -18.895  1.00  0.00     0.021 C 
HETATM    6  C13 UNL     1      -0.373  50.934 -18.092  1.00  0.00    -0.070 C 
HETATM    7  C14 UNL     1       0.381  51.985 -17.706  1.00  0.00    -0.022 C 
HETATM    8  C15 UNL     1       1.201  52.033 -16.445  1.00  0.00     0.034 C 
HETATM    9  C16 UNL     1       1.303  50.655 -15.773  1.00  0.00     0.013 C 
HETATM   10  C17 UNL     1       2.150  50.592 -14.463  1.00  0.00     0.018 C 
HETATM   11  C18 UNL     1       1.544  51.328 -13.263  1.00  0.00     0.023 C 
HETATM   12  C19 UNL     1       3.564  51.161 -14.716  1.00  0.00     0.023 C 
HETATM   13  C20 UNL     1       2.314  49.110 -14.075  1.00  0.00     0.135 C 
HETATM   14  O1  UNL     1       3.147  48.743 -13.243  1.00  0.00    -0.297 OA
HETATM   15  C21 UNL     1       1.423  48.098 -14.767  1.00  0.00     0.080 C 
HETATM   16  C22 UNL     1       0.006  48.642 -14.869  1.00  0.00     0.017 C 
HETATM   17  C23 UNL     1      -0.104  49.940 -15.723  1.00  0.00    -0.031 C 
HETATM   18  C24 UNL     1      -1.228  50.808 -15.096  1.00  0.00     0.016 C 
HETATM   19  C25 UNL     1      -0.461  49.649 -17.239  1.00  0.00     0.024 C 
HETATM   20  C26 UNL     1      -1.786  48.886 -17.480  1.00  0.00     0.010 C 
HETATM   21  C27 UNL     1      -2.152  48.646 -18.966  1.00  0.00     0.011 C 
HETATM   22  C28 UNL     1      -1.421  49.563 -19.971  1.00  0.00    -0.029 C 
HETATM   23  C29 UNL     1      -0.066  48.897 -20.374  1.00  0.00     0.016 C 
ENDROOT
BRANCH   1  24
HETATM   24  C6  UNL     1      -2.311  48.844 -22.411  1.00  0.00    -0.014 C 
HETATM   25  C7  UNL     1      -2.282  47.409 -21.876  1.00  0.00     0.010 C 
BRANCH  24  26
HETATM   26  C5  UNL     1      -3.558  49.041 -23.315  1.00  0.00     0.008 C 
BRANCH  26  27
HETATM   27  C4  UNL     1      -3.479  48.374 -24.693  1.00  0.00     0.028 C 
BRANCH  27  28
HETATM   28  C3  UNL     1      -3.087  49.372 -25.749  1.00  0.00    -0.013 C 
HETATM   29  C2  UNL     1      -3.442  49.371 -27.050  1.00  0.00     0.008 C 
HETATM   30  C1  UNL     1      -4.281  48.333 -27.734  1.00  0.00     0.055 C 
BRANCH  29  31
HETATM   31  C30 UNL     1      -2.927  50.495 -27.875  1.00  0.00     0.171 C 
HETATM   32  O2  UNL     1      -2.036  51.271 -27.579  1.00  0.00    -0.646 OA
BRANCH  31  33
HETATM   33  O3  UNL     1      -3.569  50.600 -29.050  1.00  0.00    -0.773 OA
HETATM   34  H46 UNL     1      -3.136  51.369 -29.476  1.00  0.00     0.167 HD
ENDBRANCH  31  33
ENDBRANCH  29  31
ENDBRANCH  27  28
ENDBRANCH  26  27
ENDBRANCH  24  26
ENDBRANCH   1  24
TORSDOF 6
ENDMDL
