MODEL 1
REMARK minimizedAffinity -7.03985786
REMARK CNNscore 0.567595303
REMARK CNNaffinity 5.42121172
REMARK  12 active torsions:
REMARK  status: ('A' for Active; 'I' for Inactive)
REMARK    1  A    between atoms: C2_2  and  C3_3 
REMARK    2  A    between atoms: C2_2  and  C26_31 
REMARK    3  A    between atoms: C3_3  and  C4_4 
REMARK    4  A    between atoms: C4_4  and  C5_5 
REMARK    5  A    between atoms: C5_5  and  C7_7 
REMARK    6  A    between atoms: C8_8  and  O1_9 
REMARK    7  A    between atoms: C9_10  and  O2_11 
REMARK    8  A    between atoms: C20_22  and  O3_23 
REMARK    9  A    between atoms: C23_26  and  O4_27 
REMARK   10  A    between atoms: C25_29  and  O5_30 
REMARK   11  A    between atoms: C26_31  and  C28_33 
REMARK   12  A    between atoms: C28_33  and  O6_34 
ROOT
HETATM    1  C7  UNL     1     -13.258   8.513  22.895  1.00  0.00     0.029 C 
HETATM    2  C8  UNL     1     -13.832   8.820  24.316  1.00  0.00     0.152 C 
HETATM    3  C9  UNL     1     -13.245  10.189  24.746  1.00  0.00     0.155 C 
HETATM    4  C10 UNL     1     -12.396  10.647  23.558  1.00  0.00     0.060 C 
HETATM    5  C11 UNL     1     -11.923   9.339  22.864  1.00  0.00    -0.029 C 
HETATM    6  C12 UNL     1     -10.787   8.596  23.605  1.00  0.00     0.016 C 
HETATM    7  C13 UNL     1     -11.435   9.720  21.443  1.00  0.00     0.011 C 
HETATM    8  C14 UNL     1     -11.033  11.199  21.280  1.00  0.00     0.009 C 
HETATM    9  C15 UNL     1     -10.362  11.813  22.531  1.00  0.00     0.029 C 
HETATM   10  C16 UNL     1      -9.748  13.255  22.271  1.00  0.00    -0.031 C 
HETATM   11  C17 UNL     1      -8.345  13.011  21.628  1.00  0.00     0.016 C 
HETATM   12  C18 UNL     1     -10.581  14.118  21.281  1.00  0.00     0.012 C 
HETATM   13  C19 UNL     1     -10.003  15.515  21.045  1.00  0.00     0.032 C 
HETATM   14  C20 UNL     1      -9.754  16.282  22.336  1.00  0.00     0.118 C 
HETATM   15  C21 UNL     1      -8.987  15.460  23.375  1.00  0.00     0.039 C 
HETATM   16  C22 UNL     1      -9.565  14.047  23.608  1.00  0.00     0.025 C 
HETATM   17  C23 UNL     1     -10.820  14.071  24.522  1.00  0.00     0.126 C 
HETATM   18  C24 UNL     1     -11.879  13.025  24.194  1.00  0.00     0.071 C 
HETATM   19  C25 UNL     1     -11.273  11.686  23.794  1.00  0.00     0.071 C 
ENDROOT
BRANCH   1  20
HETATM   20  C5  UNL     1     -13.231   6.997  22.529  1.00  0.00    -0.011 C 
HETATM   21  C6  UNL     1     -13.956   6.691  21.213  1.00  0.00     0.010 C 
BRANCH  20  22
HETATM   22  C4  UNL     1     -13.870   6.160  23.675  1.00  0.00     0.009 C 
BRANCH  22  23
HETATM   23  C3  UNL     1     -14.622   4.913  23.178  1.00  0.00     0.034 C 
BRANCH  23  24
HETATM   24  C2  UNL     1     -13.816   3.625  23.027  1.00  0.00    -0.083 C 
HETATM   25  C1  UNL     1     -13.483   3.102  21.831  1.00  0.00     0.015 C 
BRANCH  24  26
HETATM   26  C26 UNL     1     -13.390   2.996  24.365  1.00  0.00     0.033 C 
HETATM   27  C27 UNL     1     -11.936   2.498  24.416  1.00  0.00     0.017 C 
BRANCH  26  28
HETATM   28  C28 UNL     1     -14.349   1.875  24.825  1.00  0.00     0.172 C 
BRANCH  28  29
HETATM   29  O6  UNL     1     -13.822   0.570  24.613  1.00  0.00    -0.400 OA
HETATM   30  H48 UNL     1     -12.916   0.551  24.963  1.00  0.00     0.209 HD
ENDBRANCH  28  29
ENDBRANCH  26  28
ENDBRANCH  24  26
ENDBRANCH  23  24
ENDBRANCH  22  23
ENDBRANCH  20  22
ENDBRANCH   1  20
BRANCH   2  31
HETATM   31  O1  UNL     1     -13.466   7.854  25.305  1.00  0.00    -0.393 OA
HETATM   32  H13 UNL     1     -13.961   7.034  25.128  1.00  0.00     0.210 HD
ENDBRANCH   2  31
BRANCH   3  33
HETATM   33  O2  UNL     1     -12.474  10.074  25.942  1.00  0.00    -0.392 OA
HETATM   34  H15 UNL     1     -12.614   9.142  26.233  1.00  0.00     0.210 HD
ENDBRANCH   3  33
BRANCH  19  35
HETATM   35  O5  UNL     1     -10.426  11.284  24.880  1.00  0.00    -0.389 OA
HETATM   36  H41 UNL     1     -11.009  10.876  25.561  1.00  0.00     0.210 HD
ENDBRANCH  19  35
BRANCH  17  37
HETATM   37  O4  UNL     1     -11.470  15.342  24.536  1.00  0.00    -0.395 OA
HETATM   38  H38 UNL     1     -12.119  15.325  25.260  1.00  0.00     0.210 HD
ENDBRANCH  17  37
BRANCH  14  39
HETATM   39  O3  UNL     1      -9.003  17.457  22.023  1.00  0.00    -0.396 OA
HETATM   40  H33 UNL     1      -8.910  17.956  22.853  1.00  0.00     0.210 HD
ENDBRANCH  14  39
TORSDOF 12
ENDMDL
