MODEL 1
REMARK minimizedAffinity -7.83382797
REMARK CNNscore 0.721427381
REMARK CNNaffinity 6.9323535
REMARK  4 active torsions:
REMARK  status: ('A' for Active; 'I' for Inactive)
REMARK    1  A    between atoms: C2_2  and  C3_3 
REMARK    2  A    between atoms: C2_2  and  C9_9 
REMARK    3  A    between atoms: C3_3  and  C4_4 
REMARK    4  A    between atoms: C4_4  and  C5_5 
ROOT
HETATM    1  C9  UNL     1       4.386  56.006  -8.622  1.00  0.00     0.018 C 
HETATM    2  C10 UNL     1       5.165  55.143  -9.669  1.00  0.00     0.010 C 
HETATM    3  C11 UNL     1       4.192  54.079 -10.200  1.00  0.00     0.011 C 
HETATM    4  C12 UNL     1       2.804  54.711 -10.034  1.00  0.00    -0.032 C 
HETATM    5  C13 UNL     1       2.677  55.815 -11.144  1.00  0.00     0.016 C 
HETATM    6  C14 UNL     1       2.977  55.338  -8.618  1.00  0.00     0.002 C 
HETATM    7  C15 UNL     1       1.752  56.189  -8.289  1.00  0.00     0.006 C 
HETATM    8  C16 UNL     1       0.483  55.324  -8.305  1.00  0.00     0.006 C 
HETATM    9  C17 UNL     1       0.268  54.521  -9.618  1.00  0.00     0.003 C 
HETATM   10  C18 UNL     1      -1.126  53.731  -9.689  1.00  0.00    -0.035 C 
HETATM   11  C19 UNL     1      -1.500  53.164  -8.298  1.00  0.00     0.016 C 
HETATM   12  C20 UNL     1      -2.199  54.796 -10.086  1.00  0.00     0.017 C 
HETATM   13  C21 UNL     1      -3.569  54.242 -10.416  1.00  0.00     0.080 C 
HETATM   14  C22 UNL     1      -3.461  53.220 -11.521  1.00  0.00     0.135 C 
HETATM   15  O1  UNL     1      -4.192  53.296 -12.511  1.00  0.00    -0.297 OA
HETATM   16  C23 UNL     1      -2.493  52.055 -11.303  1.00  0.00     0.017 C 
HETATM   17  C24 UNL     1      -2.362  51.261 -12.626  1.00  0.00     0.023 C 
HETATM   18  C25 UNL     1      -3.159  51.078 -10.305  1.00  0.00     0.023 C 
HETATM   19  C26 UNL     1      -1.089  52.575 -10.779  1.00  0.00     0.009 C 
HETATM   20  C27 UNL     1      -0.130  53.003 -11.911  1.00  0.00     0.007 C 
HETATM   21  C28 UNL     1       1.332  53.102 -11.456  1.00  0.00     0.011 C 
HETATM   22  C29 UNL     1       1.551  53.711 -10.042  1.00  0.00    -0.032 C 
HETATM   23  C30 UNL     1       1.791  52.525  -9.062  1.00  0.00     0.016 C 
ENDROOT
BRANCH   1  24
HETATM   24  C2  UNL     1       5.082  56.177  -7.261  1.00  0.00    -0.084 C 
HETATM   25  C1  UNL     1       4.433  56.438  -6.109  1.00  0.00     0.014 C 
BRANCH  24  26
HETATM   26  C3  UNL     1       6.588  55.985  -7.180  1.00  0.00     0.037 C 
BRANCH  26  27
HETATM   27  C4  UNL     1       7.185  56.542  -5.884  1.00  0.00     0.031 C 
BRANCH  27  28
HETATM   28  C5  UNL     1       8.581  56.025  -5.653  1.00  0.00    -0.024 C 
HETATM   29  C6  UNL     1       9.660  56.715  -5.235  1.00  0.00    -0.091 C 
HETATM   30  C7  UNL     1       9.684  58.190  -4.943  1.00  0.00     0.042 C 
HETATM   31  C8  UNL     1      10.983  56.024  -5.039  1.00  0.00     0.042 C 
ENDBRANCH  27  28
ENDBRANCH  26  27
ENDBRANCH  24  26
ENDBRANCH   1  24
TORSDOF 4
ENDMDL
