MODEL 1
REMARK minimizedAffinity -8.53245831
REMARK CNNscore 0.383282572
REMARK CNNaffinity 6.43368721
REMARK  12 active torsions:
REMARK  status: ('A' for Active; 'I' for Inactive)
REMARK    1  A    between atoms: C2_2  and  C3_4 
REMARK    2  A    between atoms: C3_4  and  O2_5 
REMARK    3  A    between atoms: N1_15  and  O3_17 
REMARK    4  A    between atoms: O3_17  and  C13_18 
REMARK    5  A    between atoms: C13_18  and  C14_19 
REMARK       I    between atoms: C14_19  and  N2_21 
REMARK    6  A    between atoms: N2_21  and  C15_22 
REMARK    7  A    between atoms: C15_22  and  C16_23 
REMARK       I    between atoms: C16_23  and  N3_25 
REMARK    8  A    between atoms: N3_25  and  C17_26 
REMARK    9  A    between atoms: C17_26  and  C18_27 
REMARK   10  A    between atoms: C17_26  and  C27_37 
REMARK   11  A    between atoms: C18_27  and  C19_28 
REMARK   12  A    between atoms: C27_37  and  O7_39 
ROOT
HETATM    1  O3  UNL     1      -4.573 -10.112   3.991  1.00  0.00    -0.271 OA
ENDROOT
BRANCH   1   2
HETATM    2  N1  UNL     1      -3.966 -10.526   2.797  1.00  0.00    -0.271 N 
HETATM    3  C12 UNL     1      -4.805 -10.622   1.809  1.00  0.00     0.032 C 
HETATM    4  C11 UNL     1      -6.273 -10.387   1.871  1.00  0.00     0.030 C 
HETATM    5  C28 UNL     1      -4.238 -11.065   0.478  1.00  0.00     0.060 C 
HETATM    6  C10 UNL     1      -7.035 -10.392   0.758  1.00  0.00    -0.069 C 
HETATM    7  C9  UNL     1      -8.536 -10.262   0.876  1.00  0.00     0.035 C 
HETATM    8  C30 UNL     1      -6.479 -10.549  -0.665  1.00  0.00    -0.016 C 
HETATM    9  C8  UNL     1      -9.082  -9.170  -0.035  1.00  0.00     0.010 C 
HETATM   10  C7  UNL     1      -8.667  -9.394  -1.496  1.00  0.00    -0.004 C 
HETATM   11  C6  UNL     1      -9.313  -8.344  -2.429  1.00  0.00     0.002 C 
HETATM   12  C32 UNL     1      -7.123  -9.462  -1.615  1.00  0.00     0.002 C 
HETATM   13  C5  UNL     1      -9.069  -6.875  -2.045  1.00  0.00     0.009 C 
HETATM   14  C35 UNL     1      -8.854  -8.430  -3.902  1.00  0.00    -0.002 C 
HETATM   15  C4  UNL     1      -9.113  -6.065  -3.346  1.00  0.00     0.047 C 
HETATM   16  C3  UNL     1      -9.368  -7.073  -4.485  1.00  0.00     0.125 C 
HETATM   17  C34 UNL     1      -7.306  -8.527  -3.983  1.00  0.00     0.013 C 
HETATM   18  C36 UNL     1      -9.464  -9.652  -4.614  1.00  0.00     0.019 C 
HETATM   19  C33 UNL     1      -6.709  -9.619  -3.092  1.00  0.00     0.007 C 
HETATM   20  C29 UNL     1      -4.938 -10.338  -0.657  1.00  0.00     0.020 C 
HETATM   21  C31 UNL     1      -6.781 -11.990  -1.142  1.00  0.00     0.020 C 
ATOM     22  H1  UNL     1      -2.971 -10.729   2.712  1.00  0.00     0.194 HD
BRANCH  16  23
HETATM   23  C2  UNL     1     -10.882  -7.082  -4.834  1.00  0.00     0.158 C 
HETATM   24  C1  UNL     1     -11.266  -7.359  -6.268  1.00  0.00     0.094 C 
HETATM   25  O1  UNL     1     -11.756  -6.882  -3.987  1.00  0.00    -0.295 OA
ENDBRANCH  16  23
BRANCH  16  26
HETATM   26  O2  UNL     1      -8.607  -6.695  -5.629  1.00  0.00    -0.381 OA
HETATM   27  H4  UNL     1      -8.737  -5.740  -5.776  1.00  0.00     0.211 HD
ENDBRANCH  16  26
ENDBRANCH   1   2
BRANCH   1  28
HETATM   28  C13 UNL     1      -3.581 -10.147   5.014  1.00  0.00     0.303 C 
BRANCH  28  29
HETATM   29  C14 UNL     1      -4.019  -9.377   6.253  1.00  0.00     0.244 C 
HETATM   30  O4  UNL     1      -3.215  -8.816   6.992  1.00  0.00    -0.271 OA
HETATM   31  N2  UNL     1      -5.370  -9.429   6.531  1.00  0.00    -0.350 N 
HETATM   32  H18 UNL     1      -5.969  -9.688   5.755  1.00  0.00     0.163 HD
BRANCH  31  33
HETATM   33  C15 UNL     1      -5.932  -8.576   7.574  1.00  0.00     0.225 C 
BRANCH  33  34
HETATM   34  C16 UNL     1      -6.089  -9.258   8.940  1.00  0.00     0.236 C 
HETATM   35  O5  UNL     1      -5.611 -10.364   9.177  1.00  0.00    -0.272 OA
HETATM   36  N3  UNL     1      -6.726  -8.502   9.892  1.00  0.00    -0.345 N 
HETATM   37  H21 UNL     1      -7.138  -7.620   9.606  1.00  0.00     0.163 HD
BRANCH  36  38
HETATM   38  C17 UNL     1      -7.107  -9.027  11.209  1.00  0.00     0.186 C 
BRANCH  38  39
HETATM   39  C18 UNL     1      -8.620  -9.289  11.263  1.00  0.00     0.077 C 
BRANCH  39  40
HETATM   40  C19 UNL     1      -8.982 -10.647  11.784  1.00  0.00    -0.028 A 
HETATM   41  C20 UNL     1      -8.818 -11.841  11.106  1.00  0.00     0.096 A 
HETATM   42  N4  UNL     1      -9.287 -12.853  11.896  1.00  0.00    -0.365 N 
HETATM   43  C21 UNL     1      -9.767 -12.349  13.081  1.00  0.00     0.042 A 
HETATM   44  H26 UNL     1      -9.291 -13.833  11.648  1.00  0.00     0.165 HD
HETATM   45  C22 UNL     1     -10.346 -13.009  14.172  1.00  0.00     0.030 A 
HETATM   46  C26 UNL     1      -9.585 -10.966  13.044  1.00  0.00    -0.002 A 
HETATM   47  C23 UNL     1     -10.747 -12.231  15.262  1.00  0.00     0.002 A 
HETATM   48  C24 UNL     1     -10.579 -10.849  15.257  1.00  0.00     0.001 A 
HETATM   49  C25 UNL     1     -10.002 -10.204  14.156  1.00  0.00     0.014 A 
ENDBRANCH  39  40
ENDBRANCH  38  39
BRANCH  38  50
HETATM   50  C27 UNL     1      -6.718  -8.001  12.277  1.00  0.00     0.163 C 
HETATM   51  O6  UNL     1      -6.690  -6.786  12.168  1.00  0.00    -0.648 OA
BRANCH  50  52
HETATM   52  O7  UNL     1      -6.315  -8.561  13.448  1.00  0.00    -0.775 OA
HETATM   53  H31 UNL     1      -6.099  -7.781  14.001  1.00  0.00     0.167 HD
ENDBRANCH  50  52
ENDBRANCH  38  50
ENDBRANCH  36  38
ENDBRANCH  33  34
ENDBRANCH  31  33
ENDBRANCH  28  29
ENDBRANCH   1  28
TORSDOF 12
ENDMDL
