MODEL 1
REMARK minimizedAffinity -9.42664814
REMARK CNNscore 0.478588998
REMARK CNNaffinity 6.74679375
REMARK  11 active torsions:
REMARK  status: ('A' for Active; 'I' for Inactive)
REMARK    1  A    between atoms: C3_3  and  O1_4 
REMARK    2  A    between atoms: N1_14  and  O2_16 
REMARK    3  A    between atoms: O2_16  and  C13_17 
REMARK    4  A    between atoms: C13_17  and  C14_18 
REMARK       I    between atoms: C14_18  and  N2_20 
REMARK    5  A    between atoms: N2_20  and  C15_21 
REMARK    6  A    between atoms: C15_21  and  C16_22 
REMARK       I    between atoms: C16_22  and  N3_24 
REMARK    7  A    between atoms: N3_24  and  C17_25 
REMARK    8  A    between atoms: C17_25  and  C18_26 
REMARK    9  A    between atoms: C17_25  and  C27_36 
REMARK   10  A    between atoms: C18_26  and  C19_27 
REMARK   11  A    between atoms: C27_36  and  O6_38 
ROOT
HETATM    1  C1  UNL     1       0.250  51.834 -28.002  1.00  0.00     0.015 C 
HETATM    2  C2  UNL     1      -0.824  51.785 -27.466  1.00  0.00    -0.078 C 
HETATM    3  C3  UNL     1      -2.149  51.699 -26.809  1.00  0.00     0.128 C 
HETATM    4  C4  UNL     1      -3.009  50.647 -27.521  1.00  0.00     0.052 C 
HETATM    5  C5  UNL     1      -2.491  49.330 -26.960  1.00  0.00     0.010 C 
HETATM    6  C6  UNL     1      -2.186  49.616 -25.476  1.00  0.00     0.002 C 
HETATM    7  C7  UNL     1      -3.101  48.876 -24.451  1.00  0.00    -0.004 C 
HETATM    8  C8  UNL     1      -4.571  48.632 -24.858  1.00  0.00     0.010 C 
HETATM    9  C9  UNL     1      -5.349  47.847 -23.793  1.00  0.00     0.035 C 
HETATM   10  C10 UNL     1      -5.209  48.467 -22.420  1.00  0.00    -0.069 C 
HETATM   11  C11 UNL     1      -6.309  48.784 -21.717  1.00  0.00     0.030 C 
HETATM   12  C12 UNL     1      -6.205  49.501 -20.421  1.00  0.00     0.032 C 
HETATM   13  N1  UNL     1      -7.117  49.549 -19.498  1.00  0.00    -0.271 N 
ATOM     14  H1  UNL     1      -7.030  50.087 -18.636  1.00  0.00     0.194 HD
HETATM   15  C28 UNL     1      -4.935  50.284 -20.190  1.00  0.00     0.060 C 
HETATM   16  C29 UNL     1      -3.726  49.431 -20.543  1.00  0.00     0.020 C 
HETATM   17  C30 UNL     1      -3.783  48.726 -21.940  1.00  0.00    -0.016 C 
HETATM   18  C31 UNL     1      -3.056  47.366 -21.732  1.00  0.00     0.020 C 
HETATM   19  C32 UNL     1      -3.035  49.557 -23.055  1.00  0.00     0.002 C 
HETATM   20  C33 UNL     1      -3.513  51.025 -23.153  1.00  0.00     0.007 C 
HETATM   21  C34 UNL     1      -3.310  51.702 -24.513  1.00  0.00     0.014 C 
HETATM   22  C35 UNL     1      -2.105  51.175 -25.329  1.00  0.00     0.003 C 
HETATM   23  C36 UNL     1      -0.817  51.619 -24.593  1.00  0.00     0.020 C 
ENDROOT
BRANCH   3  24
HETATM   24  O1  UNL     1      -2.766  52.977 -26.898  1.00  0.00    -0.377 OA
HETATM   25  H2  UNL     1      -2.726  53.245 -27.829  1.00  0.00     0.211 HD
ENDBRANCH   3  24
BRANCH  13  26
HETATM   26  O2  UNL     1      -8.238  48.771 -19.831  1.00  0.00    -0.271 OA
BRANCH  26  27
HETATM   27  C13 UNL     1      -8.200  48.525 -21.232  1.00  0.00     0.303 C 
BRANCH  27  28
HETATM   28  C14 UNL     1      -8.948  47.250 -21.580  1.00  0.00     0.244 C 
HETATM   29  O3  UNL     1      -9.172  46.366 -20.756  1.00  0.00    -0.271 OA
HETATM   30  N2  UNL     1      -9.298  47.118 -22.902  1.00  0.00    -0.350 N 
HETATM   31  H16 UNL     1      -9.322  47.966 -23.457  1.00  0.00     0.163 HD
BRANCH  30  32
HETATM   32  C15 UNL     1     -10.030  45.964 -23.381  1.00  0.00     0.225 C 
BRANCH  32  33
HETATM   33  C16 UNL     1     -11.357  46.400 -24.000  1.00  0.00     0.236 C 
HETATM   34  O4  UNL     1     -11.468  47.416 -24.683  1.00  0.00    -0.272 OA
HETATM   35  N3  UNL     1     -12.417  45.600 -23.646  1.00  0.00    -0.345 N 
HETATM   36  H19 UNL     1     -12.279  44.888 -22.919  1.00  0.00     0.163 HD
BRANCH  35  37
HETATM   37  C17 UNL     1     -13.773  45.800 -24.145  1.00  0.00     0.186 C 
BRANCH  37  38
HETATM   38  C18 UNL     1     -14.529  46.925 -23.425  1.00  0.00     0.077 C 
BRANCH  38  39
HETATM   39  C19 UNL     1     -15.953  46.631 -23.036  1.00  0.00    -0.028 A 
HETATM   40  C20 UNL     1     -16.998  46.257 -23.861  1.00  0.00     0.096 A 
HETATM   41  N4  UNL     1     -18.116  46.089 -23.093  1.00  0.00    -0.365 N 
HETATM   42  C21 UNL     1     -17.831  46.332 -21.769  1.00  0.00     0.042 A 
HETATM   43  H24 UNL     1     -19.026  45.815 -23.440  1.00  0.00     0.165 HD
HETATM   44  C22 UNL     1     -18.667  46.278 -20.643  1.00  0.00     0.030 A 
HETATM   45  C26 UNL     1     -16.480  46.673 -21.698  1.00  0.00    -0.002 A 
HETATM   46  C23 UNL     1     -18.096  46.565 -19.400  1.00  0.00     0.002 A 
HETATM   47  C24 UNL     1     -16.749  46.902 -19.295  1.00  0.00     0.001 A 
HETATM   48  C25 UNL     1     -15.930  46.961 -20.430  1.00  0.00     0.014 A 
ENDBRANCH  38  39
ENDBRANCH  37  38
BRANCH  37  49
HETATM   49  C27 UNL     1     -13.792  46.020 -25.658  1.00  0.00     0.163 C 
HETATM   50  O5  UNL     1     -14.348  46.935 -26.248  1.00  0.00    -0.648 OA
BRANCH  49  51
HETATM   51  O6  UNL     1     -13.123  45.075 -26.354  1.00  0.00    -0.775 OA
HETATM   52  H29 UNL     1     -13.224  45.341 -27.294  1.00  0.00     0.167 HD
ENDBRANCH  49  51
ENDBRANCH  37  49
ENDBRANCH  35  37
ENDBRANCH  32  33
ENDBRANCH  30  32
ENDBRANCH  27  28
ENDBRANCH  26  27
ENDBRANCH  13  26
TORSDOF 11
ENDMDL
