MODEL 1
REMARK minimizedAffinity -5.76580191
REMARK CNNscore 0.443940461
REMARK CNNaffinity 5.21899366
REMARK  8 active torsions:
REMARK  status: ('A' for Active; 'I' for Inactive)
REMARK    1  A    between atoms: C4_4  and  C5_5 
REMARK    2  A    between atoms: C5_5  and  C6_6 
REMARK    3  A    between atoms: C6_6  and  C7_7 
REMARK    4  A    between atoms: C7_7  and  C9_9 
REMARK    5  A    between atoms: C21_21  and  C22_22 
REMARK    6  A    between atoms: C22_22  and  C23_23 
REMARK    7  A    between atoms: C23_23  and  C24_24 
REMARK    8  A    between atoms: C24_24  and  O1_25 
ROOT
HETATM    1  C9  UNL     1      -5.514 -10.682   8.363  1.00  0.00    -0.002 C 
HETATM    2  C10 UNL     1      -4.128 -10.002   8.619  1.00  0.00     0.006 C 
HETATM    3  C11 UNL     1      -3.522  -9.645   7.245  1.00  0.00     0.011 C 
HETATM    4  C12 UNL     1      -4.374 -10.431   6.230  1.00  0.00    -0.032 C 
HETATM    5  C13 UNL     1      -3.801 -11.881   6.266  1.00  0.00     0.016 C 
HETATM    6  C14 UNL     1      -4.397  -9.848   4.778  1.00  0.00     0.003 C 
HETATM    7  C15 UNL     1      -3.026  -9.748   4.071  1.00  0.00     0.010 C 
HETATM    8  C16 UNL     1      -2.522 -11.008   3.360  1.00  0.00     0.035 C 
HETATM    9  C17 UNL     1      -3.631 -11.978   2.978  1.00  0.00    -0.073 C 
HETATM   10  C18 UNL     1      -3.426 -13.322   3.034  1.00  0.00    -0.085 C 
HETATM   11  C19 UNL     1      -4.475 -14.392   2.880  1.00  0.00     0.043 C 
HETATM   12  C20 UNL     1      -2.061 -13.932   3.287  1.00  0.00     0.043 C 
HETATM   13  C21 UNL     1      -4.888 -11.188   2.575  1.00  0.00     0.023 C 
HETATM   14  C25 UNL     1      -5.531 -10.474   3.849  1.00  0.00    -0.032 C 
HETATM   15  C26 UNL     1      -6.409  -9.305   3.306  1.00  0.00     0.016 C 
HETATM   16  C27 UNL     1      -6.474 -11.445   4.620  1.00  0.00     0.011 C 
HETATM   17  C28 UNL     1      -6.812 -11.149   6.098  1.00  0.00     0.011 C 
HETATM   18  C29 UNL     1      -5.805 -10.278   6.876  1.00  0.00    -0.032 C 
HETATM   19  C30 UNL     1      -6.351  -8.814   6.912  1.00  0.00     0.016 C 
ENDROOT
BRANCH   1  20
HETATM   20  C7  UNL     1      -6.545 -10.353   9.489  1.00  0.00    -0.014 C 
HETATM   21  C8  UNL     1      -7.971 -10.355   8.910  1.00  0.00     0.010 C 
BRANCH  20  22
HETATM   22  C6  UNL     1      -6.250  -8.994  10.169  1.00  0.00     0.008 C 
BRANCH  22  23
HETATM   23  C5  UNL     1      -5.931  -9.047  11.671  1.00  0.00     0.028 C 
BRANCH  23  24
HETATM   24  C4  UNL     1      -7.149  -9.316  12.513  1.00  0.00    -0.025 C 
HETATM   25  C2  UNL     1      -7.574 -10.490  13.019  1.00  0.00    -0.091 C 
HETATM   26  C1  UNL     1      -6.901 -11.821  12.829  1.00  0.00     0.042 C 
HETATM   27  C3  UNL     1      -8.825 -10.549  13.859  1.00  0.00     0.042 C 
ENDBRANCH  23  24
ENDBRANCH  22  23
ENDBRANCH  20  22
ENDBRANCH   1  20
BRANCH  13  28
HETATM   28  C22 UNL     1      -5.904 -11.871   1.616  1.00  0.00     0.012 C 
BRANCH  28  29
HETATM   29  C23 UNL     1      -6.064 -11.199   0.238  1.00  0.00     0.027 C 
BRANCH  29  30
HETATM   30  C24 UNL     1      -4.771 -10.607  -0.317  1.00  0.00     0.164 C 
BRANCH  30  31
HETATM   31  O1  UNL     1      -4.914 -10.255  -1.683  1.00  0.00    -0.401 OA
HETATM   32  H42 UNL     1      -4.088  -9.821  -1.954  1.00  0.00     0.209 HD
ENDBRANCH  30  31
ENDBRANCH  29  30
ENDBRANCH  28  29
ENDBRANCH  13  28
TORSDOF 8
ENDMDL
