MODEL 1
REMARK minimizedAffinity -9.96383953
REMARK  8 active torsions:
REMARK  status: ('A' for Active; 'I' for Inactive)
REMARK    1  A    between atoms: C4_4  and  C5_5 
REMARK    2  A    between atoms: C5_5  and  C6_6 
REMARK    3  A    between atoms: C6_6  and  C7_7 
REMARK    4  A    between atoms: C7_7  and  C9_9 
REMARK    5  A    between atoms: C22_22  and  O1_23 
REMARK    6  A    between atoms: C24_25  and  O2_26 
REMARK    7  A    between atoms: C25_27  and  C27_29 
REMARK    8  A    between atoms: C27_29  and  O4_31 
ROOT
HETATM    1  C9  UNL     1      -2.226  48.777 -18.520  1.00  0.00    -0.002 C 
HETATM    2  C10 UNL     1      -3.263  47.811 -19.130  1.00  0.00     0.007 C 
HETATM    3  C11 UNL     1      -3.274  48.079 -20.657  1.00  0.00     0.015 C 
HETATM    4  C12 UNL     1      -1.987  48.883 -20.937  1.00  0.00    -0.005 C 
HETATM    5  C13 UNL     1      -0.820  47.850 -21.035  1.00  0.00     0.021 C 
HETATM    6  C14 UNL     1      -1.833  49.739 -22.193  1.00  0.00    -0.000 C 
HETATM    7  C15 UNL     1      -1.084  50.875 -22.188  1.00  0.00    -0.058 C 
HETATM    8  C16 UNL     1      -0.414  51.366 -20.888  1.00  0.00     0.036 C 
HETATM    9  C17 UNL     1      -0.642  50.540 -19.605  1.00  0.00     0.015 C 
HETATM   10  C18 UNL     1      -1.987  49.814 -19.656  1.00  0.00    -0.028 C 
HETATM   11  C19 UNL     1      -3.122  50.884 -19.696  1.00  0.00     0.016 C 
HETATM   12  C20 UNL     1      -0.926  51.797 -23.440  1.00  0.00     0.011 C 
HETATM   13  C21 UNL     1      -2.014  52.882 -23.269  1.00  0.00     0.023 C 
HETATM   14  C22 UNL     1       0.515  52.424 -23.514  1.00  0.00     0.133 C 
HETATM   15  C23 UNL     1       1.011  52.858 -24.899  1.00  0.00     0.065 C 
HETATM   16  C24 UNL     1      -0.089  52.990 -25.944  1.00  0.00     0.139 C 
HETATM   17  C25 UNL     1      -0.933  51.695 -26.108  1.00  0.00     0.072 C 
HETATM   18  C26 UNL     1      -0.233  50.731 -27.105  1.00  0.00     0.030 C 
HETATM   19  C28 UNL     1      -1.118  50.938 -24.733  1.00  0.00     0.029 C 
HETATM   20  C29 UNL     1      -2.411  50.125 -24.685  1.00  0.00     0.090 C 
HETATM   21  C30 UNL     1      -2.540  49.294 -23.433  1.00  0.00     0.157 C 
HETATM   22  O5  UNL     1      -3.264  48.297 -23.440  1.00  0.00    -0.293 OA
ENDROOT
BRANCH   1  23
HETATM   23  C7  UNL     1      -2.421  49.195 -17.036  1.00  0.00    -0.014 C 
HETATM   24  C8  UNL     1      -2.605  50.721 -16.952  1.00  0.00     0.010 C 
BRANCH  23  25
HETATM   25  C6  UNL     1      -1.470  48.699 -15.920  1.00  0.00     0.008 C 
BRANCH  25  26
HETATM   26  C5  UNL     1       0.033  49.006 -15.961  1.00  0.00     0.028 C 
BRANCH  26  27
HETATM   27  C4  UNL     1       0.393  50.300 -16.633  1.00  0.00    -0.025 C 
HETATM   28  C2  UNL     1       1.279  51.231 -16.217  1.00  0.00    -0.091 C 
HETATM   29  C1  UNL     1       1.525  52.475 -17.033  1.00  0.00     0.042 C 
HETATM   30  C3  UNL     1       2.092  51.161 -14.952  1.00  0.00     0.042 C 
ENDBRANCH  26  27
ENDBRANCH  25  26
ENDBRANCH  23  25
ENDBRANCH   1  23
BRANCH  14  31
HETATM   31  O1  UNL     1       0.653  53.534 -22.616  1.00  0.00    -0.394 OA
HETATM   32  H35 UNL     1       0.222  54.310 -23.005  1.00  0.00     0.210 HD
ENDBRANCH  14  31
BRANCH  17  33
HETATM   33  C27 UNL     1      -2.284  52.135 -26.686  1.00  0.00     0.151 C 
HETATM   34  O3  UNL     1      -3.030  52.965 -26.194  1.00  0.00    -0.649 OA
BRANCH  33  35
HETATM   35  O4  UNL     1      -2.668  51.464 -27.788  1.00  0.00    -0.776 OA
HETATM   36  H43 UNL     1      -3.553  51.823 -28.020  1.00  0.00     0.167 HD
ENDBRANCH  33  35
ENDBRANCH  17  33
BRANCH  16  37
HETATM   37  O2  UNL     1       0.533  53.370 -27.178  1.00  0.00    -0.394 OA
HETATM   38  H39 UNL     1      -0.085  53.946 -27.659  1.00  0.00     0.210 HD
ENDBRANCH  16  37
TORSDOF 8
ENDMDL
