MODEL 1
REMARK minimizedAffinity -10.4398155
REMARK CNNscore 0.693044245
REMARK CNNaffinity 7.89451742
REMARK  11 active torsions:
REMARK  status: ('A' for Active; 'I' for Inactive)
REMARK    1  A    between atoms: C2_2  and  O2_4 
REMARK    2  A    between atoms: O2_4  and  C3_5 
REMARK    3  A    between atoms: C4_6  and  O3_7 
REMARK    4  A    between atoms: O3_7  and  C5_8 
REMARK    5  A    between atoms: C15_18  and  C16_19 
REMARK    6  A    between atoms: C20_23  and  C21_24 
REMARK    7  A    between atoms: C21_24  and  O4_27 
REMARK    8  A    between atoms: C24_29  and  O6_30 
REMARK    9  A    between atoms: C30_36  and  O7_37 
REMARK   10  A    between atoms: C36_44  and  O9_45 
REMARK   11  A    between atoms: C37_46  and  O10_47 
ROOT
HETATM    1  C5  UNL     1       2.420   7.982  11.028  1.00  0.00     0.133 C 
HETATM    2  C6  UNL     1       2.018   9.084  12.011  1.00  0.00     0.034 C 
HETATM    3  C7  UNL     1       0.888   8.651  12.930  1.00  0.00     0.013 C 
HETATM    4  C8  UNL     1      -0.304   8.095  12.183  1.00  0.00    -0.025 A 
HETATM    5  C9  UNL     1      -1.520   8.941  11.931  1.00  0.00     0.021 A 
HETATM    6  C10 UNL     1      -1.600   7.848  12.991  1.00  0.00    -0.027 A 
HETATM    7  C11 UNL     1      -1.805   8.380  14.401  1.00  0.00     0.011 C 
HETATM    8  C12 UNL     1      -3.279   8.368  14.872  1.00  0.00     0.011 C 
HETATM    9  C13 UNL     1      -4.201   7.433  14.060  1.00  0.00    -0.028 C 
HETATM   10  C14 UNL     1      -4.706   8.187  12.797  1.00  0.00     0.016 C 
HETATM   11  C15 UNL     1      -5.441   6.843  14.820  1.00  0.00     0.057 C 
HETATM   12  C24 UNL     1      -5.742   5.524  14.027  1.00  0.00     0.126 C 
HETATM   13  C25 UNL     1      -4.499   5.231  13.150  1.00  0.00     0.042 C 
HETATM   14  C26 UNL     1      -3.384   6.125  13.724  1.00  0.00    -0.029 C 
HETATM   15  C27 UNL     1      -2.831   5.371  14.985  1.00  0.00     0.016 C 
HETATM   16  C28 UNL     1      -2.226   6.455  12.711  1.00  0.00     0.006 C 
HETATM   17  C29 UNL     1      -1.091   5.396  12.700  1.00  0.00     0.038 C 
HETATM   18  C30 UNL     1       0.026   5.647  11.669  1.00  0.00     0.124 C 
HETATM   19  C31 UNL     1       0.009   7.072  11.077  1.00  0.00     0.034 C 
HETATM   20  C32 UNL     1       1.210   7.506  10.174  1.00  0.00    -0.015 C 
HETATM   21  C33 UNL     1       0.725   8.645   9.230  1.00  0.00     0.018 C 
HETATM   22  C34 UNL     1       1.660   6.353   9.249  1.00  0.00     0.018 C 
ENDROOT
BRANCH   1  23
HETATM   23  O3  UNL     1       3.424   8.498  10.143  1.00  0.00    -0.352 OA
BRANCH  23  24
HETATM   24  C4  UNL     1       4.761   8.409  10.654  1.00  0.00     0.292 C 
HETATM   25  C3  UNL     1       4.640   8.370  12.200  1.00  0.00     0.218 C 
HETATM   26  C37 UNL     1       5.844   7.673  12.860  1.00  0.00     0.183 C 
HETATM   27  C36 UNL     1       6.255   6.378  12.133  1.00  0.00     0.173 C 
HETATM   28  C35 UNL     1       5.431   6.142  10.869  1.00  0.00     0.205 C 
HETATM   29  O8  UNL     1       5.443   7.310  10.061  1.00  0.00    -0.356 OA
BRANCH  25  30
HETATM   30  O2  UNL     1       4.526   9.765  12.621  1.00  0.00    -0.309 OA
BRANCH  30  31
HETATM   31  C2  UNL     1       5.660  10.433  12.939  1.00  0.00     0.255 C 
HETATM   32  C1  UNL     1       6.278  11.051  11.722  1.00  0.00     0.126 C 
HETATM   33  O1  UNL     1       6.116  10.530  14.070  1.00  0.00    -0.266 OA
ENDBRANCH  30  31
ENDBRANCH  25  30
BRANCH  26  34
HETATM   34  O10 UNL     1       5.550   7.290  14.221  1.00  0.00    -0.390 OA
HETATM   35  H60 UNL     1       4.933   7.942  14.616  1.00  0.00     0.210 HD
ENDBRANCH  26  34
BRANCH  27  36
HETATM   36  O9  UNL     1       7.647   6.489  11.789  1.00  0.00    -0.391 OA
HETATM   37  H58 UNL     1       7.923   5.642  11.398  1.00  0.00     0.210 HD
ENDBRANCH  27  36
ENDBRANCH  23  24
ENDBRANCH   1  23
BRANCH  18  38
HETATM   38  O7  UNL     1       1.282   5.315  12.256  1.00  0.00    -0.395 OA
HETATM   39  H47 UNL     1       1.374   5.818  13.082  1.00  0.00     0.210 HD
ENDBRANCH  18  38
BRANCH  11  40
HETATM   40  C16 UNL     1      -6.654   7.715  15.268  1.00  0.00     0.065 C 
HETATM   41  C17 UNL     1      -6.408   9.214  15.516  1.00  0.00     0.046 C 
HETATM   42  C18 UNL     1      -7.375   7.095  16.466  1.00  0.00     0.041 C 
HETATM   43  C19 UNL     1      -8.819   7.508  16.287  1.00  0.00     0.038 C 
HETATM   44  C20 UNL     1      -8.977   7.708  14.780  1.00  0.00     0.156 C 
HETATM   45  O5  UNL     1      -7.647   7.605  14.214  1.00  0.00    -0.372 OA
BRANCH  44  46
HETATM   46  C21 UNL     1      -9.895   6.695  14.051  1.00  0.00     0.076 C 
HETATM   47  C22 UNL     1      -9.124   5.409  13.719  1.00  0.00     0.048 C 
HETATM   48  C23 UNL     1     -10.494   7.273  12.768  1.00  0.00     0.048 C 
BRANCH  46  49
HETATM   49  O4  UNL     1     -10.977   6.329  14.921  1.00  0.00    -0.388 OA
HETATM   50  H35 UNL     1     -10.543   6.081  15.762  1.00  0.00     0.210 HD
ENDBRANCH  46  49
ENDBRANCH  44  46
ENDBRANCH  11  40
BRANCH  12  51
HETATM   51  O6  UNL     1      -6.877   5.592  13.185  1.00  0.00    -0.395 OA
HETATM   52  H37 UNL     1      -7.015   4.706  12.807  1.00  0.00     0.210 HD
ENDBRANCH  12  51
TORSDOF 11
ENDMDL
