MODEL 1
REMARK minimizedAffinity -9.51919365
REMARK  14 active torsions:
REMARK  status: ('A' for Active; 'I' for Inactive)
REMARK    1  A    between atoms: C2_2  and  O1_3 
REMARK    2  A    between atoms: O1_3  and  C3_4 
REMARK    3  A    between atoms: C4_6  and  C5_7 
REMARK    4  A    between atoms: C5_7  and  O3_8 
REMARK    5  A    between atoms: C5_7  and  C6_9 
REMARK    6  A    between atoms: C6_9  and  O4_10 
REMARK    7  A    between atoms: O4_10  and  C7_11 
REMARK    8  A    between atoms: C12_16  and  C13_17 
REMARK    9  A    between atoms: C13_17  and  O5_19 
REMARK   10  A    between atoms: C13_17  and  C15_20 
REMARK   11  A    between atoms: C15_20  and  O6_21 
REMARK   12  A    between atoms: C18_24  and  O7_26 
REMARK   13  A    between atoms: C22_29  and  O8_30 
REMARK   14  A    between atoms: C23_31  and  O9_32 
ROOT
HETATM    1  C7  UNL     1      -1.517   5.296  11.545  1.00  0.00     0.126 C 
HETATM    2  C8  UNL     1      -1.223   5.602  13.004  1.00  0.00     0.040 C 
HETATM    3  C9  UNL     1      -2.546   5.304  13.743  1.00  0.00     0.026 C 
HETATM    4  C10 UNL     1      -3.278   4.249  12.860  1.00  0.00    -0.001 C 
HETATM    5  C11 UNL     1      -4.741   4.490  12.464  1.00  0.00     0.013 C 
HETATM    6  C12 UNL     1      -5.739   4.516  13.640  1.00  0.00     0.022 C 
HETATM    7  C16 UNL     1      -5.781   5.909  14.301  1.00  0.00     0.010 C 
HETATM    8  C17 UNL     1      -4.516   6.293  15.057  1.00  0.00     0.038 C 
HETATM    9  C18 UNL     1      -3.262   6.593  14.219  1.00  0.00     0.058 C 
HETATM   10  C19 UNL     1      -3.516   7.643  13.130  1.00  0.00     0.046 C 
HETATM   11  C20 UNL     1      -2.315   3.999  11.662  1.00  0.00     0.015 C 
HETATM   12  C21 UNL     1      -2.927   3.580  10.330  1.00  0.00     0.013 C 
ENDROOT
BRANCH   1  13
HETATM   13  O4  UNL     1      -0.328   5.077  10.797  1.00  0.00    -0.383 OA
BRANCH  13  14
HETATM   14  C6  UNL     1       0.730   4.529  11.599  1.00  0.00     0.202 C 
BRANCH  14  15
HETATM   15  C5  UNL     1       2.057   5.022  11.011  1.00  0.00     0.173 C 
BRANCH  15  16
HETATM   16  C4  UNL     1       1.880   6.285  10.155  1.00  0.00     0.187 C 
HETATM   17  O2  UNL     1       2.601   7.388  10.764  1.00  0.00    -0.348 OA
HETATM   18  C3  UNL     1       3.543   7.894   9.803  1.00  0.00     0.291 C 
HETATM   19  C23 UNL     1       2.909   7.588   8.442  1.00  0.00     0.204 C 
HETATM   20  C22 UNL     1       2.334   6.200   8.686  1.00  0.00     0.183 C 
BRANCH  18  21
HETATM   21  O1  UNL     1       4.800   7.237   9.917  1.00  0.00    -0.359 OA
BRANCH  21  22
HETATM   22  C2  UNL     1       5.217   7.111  11.274  1.00  0.00     0.166 C 
HETATM   23  C1  UNL     1       6.693   6.764  11.285  1.00  0.00     0.033 C 
ENDBRANCH  21  22
ENDBRANCH  18  21
BRANCH  19  24
HETATM   24  O9  UNL     1       1.850   8.511   8.142  1.00  0.00    -0.388 OA
HETATM   25  H42 UNL     1       1.409   8.743   8.980  1.00  0.00     0.210 HD
ENDBRANCH  19  24
BRANCH  20  26
HETATM   26  O8  UNL     1       3.317   5.195   8.442  1.00  0.00    -0.390 OA
HETATM   27  H40 UNL     1       3.918   5.191   9.223  1.00  0.00     0.210 HD
ENDBRANCH  20  26
ENDBRANCH  15  16
BRANCH  15  28
HETATM   28  O3  UNL     1       2.652   3.956  10.246  1.00  0.00    -0.391 OA
HETATM   29  H9  UNL     1       2.577   3.168  10.823  1.00  0.00     0.210 HD
ENDBRANCH  15  28
ENDBRANCH  14  15
ENDBRANCH  13  14
ENDBRANCH   1  13
BRANCH   9  30
HETATM   30  O7  UNL     1      -2.327   7.213  15.135  1.00  0.00    -0.390 OA
HETATM   31  H34 UNL     1      -2.741   8.019  15.492  1.00  0.00     0.210 HD
ENDBRANCH   9  30
BRANCH   6  32
HETATM   32  C13 UNL     1      -7.182   4.053  13.210  1.00  0.00     0.079 C 
HETATM   33  C14 UNL     1      -8.022   5.180  12.601  1.00  0.00     0.048 C 
BRANCH  32  34
HETATM   34  O5  UNL     1      -7.871   3.607  14.394  1.00  0.00    -0.388 OA
HETATM   35  H23 UNL     1      -7.473   2.740  14.612  1.00  0.00     0.210 HD
ENDBRANCH  32  34
BRANCH  32  36
HETATM   36  C15 UNL     1      -7.176   2.838  12.248  1.00  0.00     0.201 C 
BRANCH  36  37
HETATM   37  O6  UNL     1      -8.008   1.804  12.779  1.00  0.00    -0.398 OA
HETATM   38  H26 UNL     1      -8.004   1.079  12.129  1.00  0.00     0.209 HD
ENDBRANCH  36  37
ENDBRANCH  32  36
ENDBRANCH   6  32
TORSDOF 14
ENDMDL
