MODEL 1
REMARK minimizedAffinity -7.86790657
REMARK  9 active torsions:
REMARK  status: ('A' for Active; 'I' for Inactive)
REMARK    1  A    between atoms: C1_2  and  C2_3 
REMARK       I    between atoms: C1_2  and  N1_6 
REMARK    2  A    between atoms: N1_6  and  C3_7 
REMARK    3  A    between atoms: N1_6  and  C5_10 
REMARK    4  A    between atoms: C3_7  and  C4_8 
REMARK    5  A    between atoms: C4_8  and  O2_9 
REMARK    6  A    between atoms: C5_10  and  C6_11 
REMARK    7  A    between atoms: C9_14  and  O3_15 
REMARK    8  A    between atoms: O3_15  and  C10_16 
REMARK    9  A    between atoms: C13_19  and  N2_20 
ROOT
HETATM    1  C6  UNL     1       0.350   6.488  11.766  1.00  0.00    -0.040 A 
HETATM    2  C7  UNL     1      -0.986   6.659  12.159  1.00  0.00     0.011 A 
HETATM    3  C8  UNL     1      -1.847   5.563  12.246  1.00  0.00     0.038 A 
HETATM    4  C9  UNL     1      -1.379   4.287  11.927  1.00  0.00     0.076 A 
HETATM    5  C16 UNL     1      -0.049   4.098  11.559  1.00  0.00     0.038 A 
HETATM    6  C17 UNL     1       0.811   5.195  11.471  1.00  0.00     0.011 A 
ENDROOT
BRANCH   1   7
HETATM    7  C5  UNL     1       1.291   7.668  11.687  1.00  0.00     0.164 C 
BRANCH   7   8
HETATM    8  N1  UNL     1       1.985   7.728  10.396  1.00  0.00    -0.344 N 
HETATM    9  C1  UNL     1       1.208   7.914   9.243  1.00  0.00     0.253 C 
HETATM   10  O1  UNL     1      -0.008   8.112   9.344  1.00  0.00    -0.270 OA
BRANCH   9  11
HETATM   11  C2  UNL     1       1.896   7.861   7.869  1.00  0.00     0.270 C 
HETATM   12 CL1  UNL     1       2.428   6.196   7.553  1.00  0.00    -0.098 Cl
HETATM   13 CL2  UNL     1       3.299   8.961   7.822  1.00  0.00    -0.098 Cl
ENDBRANCH   9  11
BRANCH   8  14
HETATM   14  C3  UNL     1       3.449   7.602  10.426  1.00  0.00     0.152 C 
BRANCH  14  15
HETATM   15  C4  UNL     1       3.926   6.168  10.682  1.00  0.00     0.184 C 
BRANCH  15  16
HETATM   16  O2  UNL     1       4.913   6.178  11.705  1.00  0.00    -0.399 OA
HETATM   17  H6  UNL     1       5.150   5.250  11.884  1.00  0.00     0.209 HD
ENDBRANCH  15  16
ENDBRANCH  14  15
ENDBRANCH   8  14
ENDBRANCH   7   8
ENDBRANCH   1   7
BRANCH   4  18
HETATM   18  O3  UNL     1      -2.170   3.165  12.027  1.00  0.00    -0.311 OA
BRANCH  18  19
HETATM   19  C10 UNL     1      -3.515   3.362  12.247  1.00  0.00     0.076 A 
HETATM   20  C11 UNL     1      -4.008   4.384  13.064  1.00  0.00     0.040 A 
HETATM   21  C12 UNL     1      -5.386   4.553  13.215  1.00  0.00     0.039 A 
HETATM   22  C13 UNL     1      -6.266   3.702  12.530  1.00  0.00     0.103 A 
HETATM   23  C14 UNL     1      -5.774   2.691  11.693  1.00  0.00     0.039 A 
HETATM   24  C15 UNL     1      -4.394   2.530  11.549  1.00  0.00     0.040 A 
BRANCH  22  25
HETATM   25  N2  UNL     1      -7.716   3.876  12.687  1.00  0.00    -0.116 N 
HETATM   26  O4  UNL     1      -8.415   2.856  12.755  1.00  0.00    -0.532 OA
HETATM   27  O5  UNL     1      -8.154   5.035  12.738  1.00  0.00    -0.532 OA
ENDBRANCH  22  25
ENDBRANCH  18  19
ENDBRANCH   4  18
TORSDOF 9
ENDMDL
