MODEL 1
REMARK minimizedAffinity -7.17468596
REMARK CNNscore 0.444582254
REMARK CNNaffinity 7.02586365
REMARK  14 active torsions:
REMARK  status: ('A' for Active; 'I' for Inactive)
REMARK    1  A    between atoms: O1_2  and  C2_3 
REMARK    2  A    between atoms: C8_9  and  O2_10 
REMARK    3  A    between atoms: O2_10  and  C9_11 
REMARK    4  A    between atoms: C10_13  and  C11_14 
REMARK    5  A    between atoms: C11_14  and  O4_15 
REMARK    6  A    between atoms: C12_16  and  O5_17 
REMARK    7  A    between atoms: C13_18  and  O6_19 
REMARK    8  A    between atoms: C14_20  and  O7_21 
REMARK    9  A    between atoms: C18_25  and  C19_26 
REMARK   10  A    between atoms: C24_32  and  C25_33 
REMARK   11  A    between atoms: C25_33  and  C27_35 
REMARK   12  A    between atoms: C27_35  and  C28_36 
REMARK   13  A    between atoms: C29_37  and  C30_38 
REMARK   14  A    between atoms: C30_38  and  O9_41 
ROOT
HETATM    1  C2  UNL     1       0.677  52.147 -10.896  1.00  0.00     0.149 C 
HETATM    2  C3  UNL     1      -0.738  52.133 -11.353  1.00  0.00     0.009 C 
HETATM    3  C4  UNL     1      -1.787  51.959 -10.534  1.00  0.00    -0.066 C 
HETATM    4  C5  UNL     1      -1.581  51.808  -9.041  1.00  0.00     0.031 C 
HETATM    5  C6  UNL     1      -1.982  50.364  -8.647  1.00  0.00     0.013 C 
HETATM    6  C7  UNL     1      -3.255  49.857  -9.348  1.00  0.00     0.034 C 
HETATM    7  C8  UNL     1      -4.090  50.985  -9.968  1.00  0.00     0.136 C 
HETATM    8  C15 UNL     1      -3.240  51.781 -11.029  1.00  0.00     0.002 C 
HETATM    9  C16 UNL     1      -3.876  53.172 -11.216  1.00  0.00     0.022 C 
HETATM   10  C17 UNL     1      -3.289  51.057 -12.399  1.00  0.00     0.022 C 
HETATM   11  C18 UNL     1      -0.209  52.353  -8.434  1.00  0.00     0.027 C 
HETATM   12  C20 UNL     1      -0.592  53.516  -7.439  1.00  0.00     0.018 C 
HETATM   13  C21 UNL     1       0.418  54.628  -7.107  1.00  0.00     0.011 C 
HETATM   14  C22 UNL     1       1.614  54.751  -8.054  1.00  0.00    -0.032 C 
HETATM   15  C23 UNL     1       2.773  53.909  -7.441  1.00  0.00     0.016 C 
HETATM   16  C24 UNL     1       2.158  56.200  -8.327  1.00  0.00    -0.002 C 
HETATM   17  C34 UNL     1       2.912  56.025  -9.680  1.00  0.00     0.006 C 
HETATM   18  C35 UNL     1       2.417  54.715 -10.318  1.00  0.00     0.011 C 
HETATM   19  C36 UNL     1       1.177  54.305  -9.502  1.00  0.00    -0.029 C 
HETATM   20  C37 UNL     1      -0.018  55.101 -10.115  1.00  0.00     0.016 C 
HETATM   21  C38 UNL     1       0.878  52.778  -9.501  1.00  0.00     0.043 C 
ENDROOT
BRANCH   7  22
HETATM   22  O2  UNL     1      -5.271  50.444 -10.583  1.00  0.00    -0.352 OA
BRANCH  22  23
HETATM   23  C9  UNL     1      -5.982  49.509  -9.762  1.00  0.00     0.292 C 
HETATM   24  O3  UNL     1      -5.291  48.263  -9.751  1.00  0.00    -0.348 OA
HETATM   25  C10 UNL     1      -5.730  47.279 -10.695  1.00  0.00     0.179 C 
HETATM   26  C12 UNL     1      -7.177  46.883 -10.368  1.00  0.00     0.180 C 
HETATM   27  C13 UNL     1      -8.076  48.077  -9.991  1.00  0.00     0.183 C 
HETATM   28  C14 UNL     1      -7.443  49.435 -10.276  1.00  0.00     0.204 C 
BRANCH  25  29
HETATM   29  C11 UNL     1      -5.512  47.673 -12.162  1.00  0.00     0.198 C 
BRANCH  29  30
HETATM   30  O4  UNL     1      -6.422  46.975 -13.007  1.00  0.00    -0.398 OA
HETATM   31  H16 UNL     1      -5.996  46.122 -13.229  1.00  0.00     0.209 HD
ENDBRANCH  29  30
ENDBRANCH  25  29
BRANCH  26  32
HETATM   32  O5  UNL     1      -7.186  45.976  -9.241  1.00  0.00    -0.390 OA
HETATM   33  H18 UNL     1      -6.464  46.265  -8.648  1.00  0.00     0.210 HD
ENDBRANCH  26  32
BRANCH  27  34
HETATM   34  O6  UNL     1      -8.437  48.031  -8.592  1.00  0.00    -0.390 OA
HETATM   35  H20 UNL     1      -8.453  47.075  -8.389  1.00  0.00     0.210 HD
ENDBRANCH  27  34
BRANCH  28  36
HETATM   36  O7  UNL     1      -8.238  50.473  -9.680  1.00  0.00    -0.388 OA
HETATM   37  H22 UNL     1      -8.723  50.041  -8.941  1.00  0.00     0.210 HD
ENDBRANCH  28  36
ENDBRANCH  22  23
ENDBRANCH   7  22
BRANCH  11  38
HETATM   38  C19 UNL     1       0.448  51.224  -7.622  1.00  0.00     0.241 C 
HETATM   39  O8  UNL     1       1.637  50.916  -7.678  1.00  0.00    -0.306 OA
ENDBRANCH  11  38
BRANCH   1  40
HETATM   40  O1  UNL     1       1.120  50.781 -10.799  1.00  0.00    -0.386 OA
HETATM   41  C1  UNL     1       2.502  50.607 -11.098  1.00  0.00     0.202 C 
ENDBRANCH   1  40
BRANCH  16  42
HETATM   42  C25 UNL     1       3.025  56.933  -7.252  1.00  0.00    -0.010 C 
HETATM   43  C26 UNL     1       2.333  58.203  -6.743  1.00  0.00     0.010 C 
BRANCH  42  44
HETATM   44  C27 UNL     1       4.431  57.271  -7.828  1.00  0.00     0.031 C 
BRANCH  44  45
HETATM   45  C28 UNL     1       5.489  57.512  -6.783  1.00  0.00    -0.027 C 
HETATM   46  C29 UNL     1       6.260  56.547  -6.254  1.00  0.00     0.006 C 
BRANCH  46  47
HETATM   47  C30 UNL     1       7.359  56.706  -5.218  1.00  0.00     0.070 C 
HETATM   48  C31 UNL     1       7.038  56.151  -3.819  1.00  0.00     0.050 C 
HETATM   49  C32 UNL     1       8.603  55.974  -5.740  1.00  0.00     0.050 C 
BRANCH  47  50
HETATM   50  O9  UNL     1       7.735  58.091  -5.158  1.00  0.00    -0.382 OA
HETATM   51  C33 UNL     1       9.104  58.357  -4.887  1.00  0.00     0.202 C 
ENDBRANCH  47  50
ENDBRANCH  46  47
ENDBRANCH  44  45
ENDBRANCH  42  44
ENDBRANCH  16  42
TORSDOF 14
ENDMDL
