MODEL 1
REMARK minimizedAffinity -8.45057583
REMARK CNNscore 0.563451529
REMARK CNNaffinity 7.10999298
REMARK  14 active torsions:
REMARK  status: ('A' for Active; 'I' for Inactive)
REMARK    1  A    between atoms: C19_21  and  O3_22 
REMARK    2  A    between atoms: C19_21  and  C20_23 
REMARK    3  A    between atoms: C20_23  and  C21_25 
REMARK    4  A    between atoms: C21_25  and  O5_26 
REMARK    5  A    between atoms: O5_26  and  C22_27 
REMARK    6  A    between atoms: C22_27  and  C23_29 
REMARK    7  A    between atoms: C23_29  and  C24_30 
REMARK    8  A    between atoms: C24_30  and  C25_31 
REMARK       I    between atoms: C25_31  and  N1_33 
REMARK    9  A    between atoms: N1_33  and  C26_34 
REMARK   10  A    between atoms: C26_34  and  C27_35 
REMARK   11  A    between atoms: C26_34  and  C30_40 
REMARK   12  A    between atoms: C27_35  and  C28_36 
REMARK   13  A    between atoms: C28_36  and  C29_37 
REMARK       I    between atoms: C29_37  and  N2_38 
REMARK   14  A    between atoms: C30_40  and  O10_42 
ROOT
HETATM    1  C20 UNL     1       1.087   7.372  13.537  1.00  0.00     0.185 C 
HETATM    2  O4  UNL     1       2.150   6.893  13.943  1.00  0.00    -0.292 OA
ENDROOT
BRANCH   1   3
HETATM    3  C19 UNL     1      -0.290   6.915  14.101  1.00  0.00     0.128 C 
HETATM    4  C14 UNL     1      -1.184   6.140  13.078  1.00  0.00     0.005 C 
HETATM    5  C13 UNL     1      -0.943   4.629  12.971  1.00  0.00     0.091 C 
HETATM    6  C15 UNL     1      -1.072   6.769  11.663  1.00  0.00     0.019 C 
HETATM    7  C16 UNL     1      -2.580   6.332  13.729  1.00  0.00     0.002 C 
HETATM    8  C12 UNL     1      -2.070   3.969  12.186  1.00  0.00     0.133 C 
HETATM    9  C11 UNL     1      -3.508   4.232  12.680  1.00  0.00     0.072 C 
HETATM   10  O2  UNL     1      -1.793   3.207  11.263  1.00  0.00    -0.297 OA
HETATM   11  C2  UNL     1      -4.649   3.549  11.840  1.00  0.00    -0.009 C 
HETATM   12  C10 UNL     1      -3.729   5.760  12.883  1.00  0.00     0.003 C 
HETATM   13  C1  UNL     1      -4.635   3.988  10.358  1.00  0.00     0.021 C 
HETATM   14  C3  UNL     1      -4.480   2.002  11.929  1.00  0.00     0.022 C 
HETATM   15  C7  UNL     1      -6.012   3.953  12.434  1.00  0.00    -0.067 C 
HETATM   16  C4  UNL     1      -5.716   1.221  11.502  1.00  0.00     0.084 C 
HETATM   17  C5  UNL     1      -6.907   1.653  12.314  1.00  0.00     0.149 C 
HETATM   18  O1  UNL     1      -7.815   0.885  12.619  1.00  0.00    -0.293 OA
HETATM   19  C6  UNL     1      -7.008   3.083  12.683  1.00  0.00     0.053 C 
HETATM   20  C8  UNL     1      -6.223   5.421  12.722  1.00  0.00     0.035 C 
HETATM   21  C9  UNL     1      -5.088   6.009  13.550  1.00  0.00     0.010 C 
HETATM   22  C17 UNL     1      -2.615   7.815  14.060  1.00  0.00     0.009 C 
HETATM   23  C18 UNL     1      -1.172   8.144  14.484  1.00  0.00     0.047 C 
BRANCH   3  24
HETATM   24  O3  UNL     1      -0.162   6.151  15.305  1.00  0.00    -0.381 OA
HETATM   25  H25 UNL     1       0.455   5.417  15.137  1.00  0.00     0.211 HD
ENDBRANCH   3  24
ENDBRANCH   1   3
BRANCH   1  26
HETATM   26  C21 UNL     1       1.108   8.561  12.576  1.00  0.00     0.260 C 
BRANCH  26  27
HETATM   27  O5  UNL     1       2.097   8.485  11.549  1.00  0.00    -0.314 OA
BRANCH  27  28
HETATM   28  C22 UNL     1       1.612   8.111  10.329  1.00  0.00     0.259 C 
HETATM   29  O6  UNL     1       0.756   8.721   9.708  1.00  0.00    -0.265 OA
BRANCH  28  30
HETATM   30  C23 UNL     1       2.357   6.915   9.778  1.00  0.00     0.120 C 
BRANCH  30  31
HETATM   31  C24 UNL     1       3.089   6.090  10.832  1.00  0.00     0.112 C 
BRANCH  31  32
HETATM   32  C25 UNL     1       4.501   6.591  11.064  1.00  0.00     0.218 C 
HETATM   33  O7  UNL     1       5.410   6.445  10.257  1.00  0.00    -0.274 OA
HETATM   34  N1  UNL     1       4.661   7.220  12.273  1.00  0.00    -0.347 N 
HETATM   35  H32 UNL     1       3.943   7.143  12.987  1.00  0.00     0.163 HD
BRANCH  34  36
HETATM   36  C26 UNL     1       5.959   7.737  12.717  1.00  0.00     0.182 C 
BRANCH  36  37
HETATM   37  C27 UNL     1       6.453   7.025  13.982  1.00  0.00     0.045 C 
BRANCH  37  38
HETATM   38  C28 UNL     1       7.650   7.712  14.645  1.00  0.00     0.105 C 
BRANCH  38  39
HETATM   39  C29 UNL     1       7.243   8.485  15.882  1.00  0.00     0.215 C 
HETATM   40  N2  UNL     1       8.245   8.638  16.796  1.00  0.00    -0.370 N 
HETATM   41  H38 UNL     1       9.215   8.474  16.567  1.00  0.00     0.159 HD
HETATM   42  H39 UNL     1       8.038   9.209  17.607  1.00  0.00     0.159 HD
HETATM   43  O8  UNL     1       6.129   8.947  16.084  1.00  0.00    -0.274 OA
ENDBRANCH  38  39
ENDBRANCH  37  38
ENDBRANCH  36  37
BRANCH  36  44
HETATM   44  C30 UNL     1       6.991   7.636  11.588  1.00  0.00     0.163 C 
HETATM   45  O9  UNL     1       7.767   6.715  11.387  1.00  0.00    -0.648 OA
BRANCH  44  46
HETATM   46  O10 UNL     1       6.975   8.698  10.746  1.00  0.00    -0.775 OA
HETATM   47  H40 UNL     1       7.693   8.493  10.109  1.00  0.00     0.167 HD
ENDBRANCH  44  46
ENDBRANCH  36  44
ENDBRANCH  34  36
ENDBRANCH  31  32
ENDBRANCH  30  31
ENDBRANCH  28  30
ENDBRANCH  27  28
ENDBRANCH  26  27
ENDBRANCH   1  26
TORSDOF 14
ENDMDL
