MODEL 1
REMARK minimizedAffinity -8.54039192
REMARK CNNscore 0.705437183
REMARK CNNaffinity 6.42917871
REMARK  7 active torsions:
REMARK  status: ('A' for Active; 'I' for Inactive)
REMARK    1  A    between atoms: C4_4  and  C5_5 
REMARK    2  A    between atoms: C5_5  and  C6_6 
REMARK    3  A    between atoms: C6_6  and  C7_7 
REMARK    4  A    between atoms: C7_7  and  C9_9 
REMARK    5  A    between atoms: C18_18  and  O1_19 
REMARK    6  A    between atoms: O1_19  and  C19_20 
REMARK    7  A    between atoms: C19_20  and  C20_22 
ROOT
HETATM    1  C9  UNL     1      -8.868  47.785 -28.818  1.00  0.00    -0.002 C 
HETATM    2  C10 UNL     1      -9.504  48.129 -30.190  1.00  0.00     0.006 C 
HETATM    3  C11 UNL     1     -10.985  47.731 -30.126  1.00  0.00     0.010 C 
HETATM    4  C12 UNL     1     -11.205  47.334 -28.671  1.00  0.00     0.023 C 
HETATM    5  C13 UNL     1     -12.398  46.498 -28.284  1.00  0.00    -0.070 C 
HETATM    6  C14 UNL     1     -13.504  46.357 -29.033  1.00  0.00     0.004 C 
HETATM    7  C15 UNL     1     -14.667  45.659 -28.547  1.00  0.00     0.004 C 
HETATM    8  C16 UNL     1     -14.808  45.332 -27.250  1.00  0.00    -0.069 C 
HETATM    9  C17 UNL     1     -16.159  44.972 -26.686  1.00  0.00     0.067 C 
HETATM   10  C18 UNL     1     -16.627  46.080 -25.728  1.00  0.00     0.136 C 
HETATM   11  C26 UNL     1     -15.548  46.452 -24.697  1.00  0.00     0.034 C 
HETATM   12  C27 UNL     1     -14.160  46.694 -25.317  1.00  0.00     0.017 C 
HETATM   13  C28 UNL     1     -13.685  45.530 -26.224  1.00  0.00    -0.013 C 
HETATM   14  C29 UNL     1     -13.492  44.249 -25.369  1.00  0.00     0.021 C 
HETATM   15  C30 UNL     1     -12.297  45.805 -26.931  1.00  0.00     0.027 C 
HETATM   16  C31 UNL     1     -11.248  46.515 -26.048  1.00  0.00     0.011 C 
HETATM   17  C32 UNL     1      -9.844  46.581 -26.693  1.00  0.00     0.011 C 
HETATM   18  C33 UNL     1      -9.851  46.710 -28.239  1.00  0.00    -0.033 C 
HETATM   19  C34 UNL     1      -9.592  45.327 -28.892  1.00  0.00     0.016 C 
ENDROOT
BRANCH  10  20
HETATM   20  O1  UNL     1     -17.795  45.582 -25.045  1.00  0.00    -0.312 OA
BRANCH  20  21
HETATM   21  C19 UNL     1     -18.539  46.493 -24.369  1.00  0.00     0.293 C 
HETATM   22  O2  UNL     1     -18.959  47.549 -24.812  1.00  0.00    -0.259 OA
BRANCH  21  23
HETATM   23  C20 UNL     1     -18.772  46.036 -22.973  1.00  0.00     0.039 A 
HETATM   24  C21 UNL     1     -19.465  44.833 -22.775  1.00  0.00     0.017 A 
HETATM   25  C22 UNL     1     -19.710  44.365 -21.482  1.00  0.00     0.001 A 
HETATM   26  C23 UNL     1     -19.262  45.094 -20.380  1.00  0.00     0.000 A 
HETATM   27  C24 UNL     1     -18.570  46.291 -20.567  1.00  0.00     0.001 A 
HETATM   28  C25 UNL     1     -18.324  46.762 -21.859  1.00  0.00     0.017 A 
ENDBRANCH  21  23
ENDBRANCH  20  21
ENDBRANCH  10  20
BRANCH   1  29
HETATM   29  C7  UNL     1      -7.351  47.440 -28.916  1.00  0.00    -0.014 C 
HETATM   30  C8  UNL     1      -7.120  45.926 -29.041  1.00  0.00     0.010 C 
BRANCH  29  31
HETATM   31  C6  UNL     1      -6.536  47.931 -27.684  1.00  0.00     0.008 C 
BRANCH  31  32
HETATM   32  C5  UNL     1      -5.020  48.026 -27.909  1.00  0.00     0.028 C 
BRANCH  32  33
HETATM   33  C4  UNL     1      -4.300  48.241 -26.603  1.00  0.00    -0.025 C 
HETATM   34  C2  UNL     1      -3.488  49.260 -26.258  1.00  0.00    -0.091 C 
HETATM   35  C1  UNL     1      -2.832  49.289 -24.900  1.00  0.00     0.042 C 
HETATM   36  C3  UNL     1      -3.140  50.437 -27.128  1.00  0.00     0.042 C 
ENDBRANCH  32  33
ENDBRANCH  31  32
ENDBRANCH  29  31
ENDBRANCH   1  29
TORSDOF 7
ENDMDL
