MODEL 1
REMARK minimizedAffinity -6.89378643
REMARK CNNscore 0.782181144
REMARK CNNaffinity 7.14340353
REMARK  5 active torsions:
REMARK  status: ('A' for Active; 'I' for Inactive)
REMARK    1  A    between atoms: C2_2  and  C3_3 
REMARK    2  A    between atoms: C4_5  and  C5_6 
REMARK    3  A    between atoms: C5_6  and  C6_7 
REMARK    4  A    between atoms: C6_7  and  C7_8 
REMARK    5  A    between atoms: C7_8  and  C9_10 
ROOT
HETATM    1  C9  UNL     1      -2.424  52.633 -11.052  1.00  0.00    -0.002 C 
HETATM    2  C10 UNL     1      -3.110  52.982  -9.700  1.00  0.00     0.007 C 
HETATM    3  C11 UNL     1      -2.066  53.697  -8.822  1.00  0.00     0.015 C 
HETATM    4  C12 UNL     1      -0.914  54.056  -9.780  1.00  0.00    -0.005 C 
HETATM    5  C13 UNL     1      -1.307  55.388 -10.490  1.00  0.00     0.021 C 
HETATM    6  C14 UNL     1       0.485  54.300  -9.233  1.00  0.00    -0.000 C 
HETATM    7  C15 UNL     1       1.592  54.032  -9.972  1.00  0.00    -0.060 C 
HETATM    8  C16 UNL     1       1.456  53.424 -11.378  1.00  0.00     0.036 C 
HETATM    9  C17 UNL     1       0.040  53.054 -11.871  1.00  0.00     0.015 C 
HETATM   10  C18 UNL     1      -0.912  52.775 -10.702  1.00  0.00    -0.028 C 
HETATM   11  C19 UNL     1      -0.432  51.483  -9.965  1.00  0.00     0.016 C 
HETATM   12  C20 UNL     1       3.042  54.279  -9.468  1.00  0.00    -0.014 C 
HETATM   13  C21 UNL     1       3.634  52.905  -9.081  1.00  0.00     0.020 C 
HETATM   14  C22 UNL     1       3.897  54.930 -10.584  1.00  0.00     0.021 C 
HETATM   15  C23 UNL     1       5.254  55.479 -10.156  1.00  0.00     0.080 C 
HETATM   16  C24 UNL     1       5.568  55.379  -8.684  1.00  0.00     0.135 C 
HETATM   17  O2  UNL     1       6.737  55.206  -8.328  1.00  0.00    -0.297 OA
HETATM   18  C25 UNL     1       4.446  55.605  -7.665  1.00  0.00     0.018 C 
HETATM   19  C26 UNL     1       4.761  54.762  -6.408  1.00  0.00     0.023 C 
HETATM   20  C27 UNL     1       4.515  57.090  -7.261  1.00  0.00     0.023 C 
HETATM   21  C28 UNL     1       3.039  55.297  -8.282  1.00  0.00     0.020 C 
HETATM   22  C29 UNL     1       1.987  54.916  -7.239  1.00  0.00     0.090 C 
HETATM   23  C30 UNL     1       0.621  54.899  -7.869  1.00  0.00     0.157 C 
HETATM   24  O3  UNL     1      -0.347  55.352  -7.267  1.00  0.00    -0.293 OA
ENDROOT
BRANCH   1  25
HETATM   25  C7  UNL     1      -2.962  51.305 -11.652  1.00  0.00    -0.014 C 
HETATM   26  C8  UNL     1      -2.866  51.262 -13.181  1.00  0.00     0.010 C 
BRANCH  25  27
HETATM   27  C6  UNL     1      -4.418  50.991 -11.213  1.00  0.00     0.008 C 
BRANCH  27  28
HETATM   28  C5  UNL     1      -4.586  49.724 -10.365  1.00  0.00     0.028 C 
BRANCH  28  29
HETATM   29  C4  UNL     1      -5.959  49.667  -9.756  1.00  0.00    -0.017 C 
HETATM   30  C2  UNL     1      -7.023  48.971 -10.201  1.00  0.00    -0.028 C 
HETATM   31  C1  UNL     1      -7.086  48.064 -11.389  1.00  0.00     0.051 C 
BRANCH  30  32
HETATM   32  C3  UNL     1      -8.297  49.081  -9.425  1.00  0.00     0.265 C 
HETATM   33  O1  UNL     1      -8.520  49.948  -8.590  1.00  0.00    -0.302 OA
ENDBRANCH  30  32
ENDBRANCH  28  29
ENDBRANCH  27  28
ENDBRANCH  25  27
ENDBRANCH   1  25
TORSDOF 5
ENDMDL
