MODEL 1
REMARK minimizedAffinity -8.88410664
REMARK CNNscore 0.728532374
REMARK CNNaffinity 7.39824247
REMARK  13 active torsions:
REMARK  status: ('A' for Active; 'I' for Inactive)
REMARK    1  A    between atoms: C2_2  and  O2_4 
REMARK    2  A    between atoms: O2_4  and  C3_5 
REMARK    3  A    between atoms: C3_5  and  C6_8 
REMARK    4  A    between atoms: C7_9  and  C8_10 
REMARK    5  A    between atoms: C8_10  and  C9_11 
REMARK    6  A    between atoms: C9_11  and  C11_13 
REMARK    7  A    between atoms: C20_22  and  O3_23 
REMARK    8  A    between atoms: O3_23  and  C21_24 
REMARK    9  A    between atoms: C23_27  and  O5_28 
REMARK   10  A    between atoms: C24_29  and  O6_30 
REMARK   11  A    between atoms: C25_31  and  O7_32 
REMARK   12  A    between atoms: C28_35  and  C29_36 
REMARK   13  A    between atoms: C29_36  and  O8_37 
ROOT
HETATM    1  C11 UNL     1      -7.449   7.398  15.208  1.00  0.00    -0.002 C 
HETATM    2  C12 UNL     1      -7.221   6.649  16.528  1.00  0.00     0.006 C 
HETATM    3  C13 UNL     1      -5.827   6.073  16.368  1.00  0.00     0.006 C 
HETATM    4  C14 UNL     1      -5.719   5.666  14.885  1.00  0.00    -0.001 C 
HETATM    5  C15 UNL     1      -4.325   5.932  14.262  1.00  0.00    -0.001 C 
HETATM    6  C16 UNL     1      -3.189   5.318  15.090  1.00  0.00     0.033 C 
HETATM    7  C17 UNL     1      -1.897   5.525  14.373  1.00  0.00    -0.023 C 
HETATM    8  C18 UNL     1      -1.634   6.657  13.697  1.00  0.00    -0.070 C 
HETATM    9  C19 UNL     1      -0.402   6.735  12.818  1.00  0.00     0.066 C 
HETATM   10  C20 UNL     1       0.157   8.151  12.625  1.00  0.00     0.128 C 
HETATM   11  C26 UNL     1      -0.938   9.140  12.188  1.00  0.00     0.033 C 
HETATM   12  C27 UNL     1      -2.376   8.661  12.429  1.00  0.00     0.019 C 
HETATM   13  C28 UNL     1      -2.583   7.865  13.743  1.00  0.00     0.008 C 
HETATM   14  C30 UNL     1      -4.107   7.443  13.992  1.00  0.00     0.005 C 
HETATM   15  C31 UNL     1      -5.153   7.949  12.973  1.00  0.00     0.007 C 
HETATM   16  C32 UNL     1      -6.396   7.062  12.842  1.00  0.00     0.010 C 
HETATM   17  C33 UNL     1      -6.901   6.396  14.140  1.00  0.00    -0.036 C 
HETATM   18  C34 UNL     1      -7.941   5.333  13.727  1.00  0.00     0.016 C 
ENDROOT
BRANCH  10  19
HETATM   19  O3  UNL     1       1.181   8.222  11.622  1.00  0.00    -0.353 OA
BRANCH  19  20
HETATM   20  C21 UNL     1       1.247   7.109  10.732  1.00  0.00     0.291 C 
HETATM   21  O4  UNL     1       0.633   7.369   9.472  1.00  0.00    -0.356 OA
HETATM   22  C22 UNL     1       1.303   8.392   8.732  1.00  0.00     0.205 C 
HETATM   23  C23 UNL     1       2.736   7.985   8.388  1.00  0.00     0.173 C 
HETATM   24  C24 UNL     1       3.513   7.646   9.660  1.00  0.00     0.182 C 
HETATM   25  C25 UNL     1       2.725   6.674  10.548  1.00  0.00     0.204 C 
BRANCH  23  26
HETATM   26  O5  UNL     1       3.398   9.039   7.688  1.00  0.00    -0.391 OA
HETATM   27  H35 UNL     1       3.733   9.637   8.390  1.00  0.00     0.210 HD
ENDBRANCH  23  26
BRANCH  24  28
HETATM   28  O6  UNL     1       3.809   8.870  10.359  1.00  0.00    -0.390 OA
HETATM   29  H37 UNL     1       4.012   8.592  11.276  1.00  0.00     0.210 HD
ENDBRANCH  24  28
BRANCH  25  30
HETATM   30  O7  UNL     1       3.428   6.540  11.794  1.00  0.00    -0.388 OA
HETATM   31  H39 UNL     1       2.767   6.371  12.492  1.00  0.00     0.210 HD
ENDBRANCH  25  30
ENDBRANCH  19  20
ENDBRANCH  10  19
BRANCH  13  32
HETATM   32  C29 UNL     1      -2.160   8.755  14.962  1.00  0.00     0.178 C 
BRANCH  32  33
HETATM   33  O8  UNL     1      -3.299   9.186  15.702  1.00  0.00    -0.400 OA
HETATM   34  H46 UNL     1      -2.968   9.655  16.487  1.00  0.00     0.209 HD
ENDBRANCH  32  33
ENDBRANCH  13  32
BRANCH   1  35
HETATM   35  C9  UNL     1      -8.869   8.042  15.121  1.00  0.00    -0.011 C 
HETATM   36  C10 UNL     1      -9.596   8.261  16.457  1.00  0.00     0.010 C 
BRANCH  35  37
HETATM   37  C8  UNL     1      -9.777   7.331  14.095  1.00  0.00     0.031 C 
BRANCH  37  38
HETATM   38  C7  UNL     1     -11.226   7.726  14.211  1.00  0.00    -0.027 C 
HETATM   39  C6  UNL     1     -12.251   6.873  14.034  1.00  0.00     0.007 C 
BRANCH  39  40
HETATM   40  C3  UNL     1     -13.731   7.198  14.094  1.00  0.00     0.081 C 
HETATM   41  C4  UNL     1     -14.198   8.094  15.254  1.00  0.00     0.051 C 
HETATM   42  C5  UNL     1     -14.493   5.865  14.199  1.00  0.00     0.051 C 
BRANCH  40  43
HETATM   43  O2  UNL     1     -14.147   7.757  12.819  1.00  0.00    -0.307 OA
BRANCH  43  44
HETATM   44  C2  UNL     1     -15.354   7.425  12.292  1.00  0.00     0.255 C 
HETATM   45  C1  UNL     1     -16.137   6.626  13.290  1.00  0.00     0.126 C 
HETATM   46  O1  UNL     1     -15.783   7.736  11.191  1.00  0.00    -0.266 OA
ENDBRANCH  43  44
ENDBRANCH  40  43
ENDBRANCH  39  40
ENDBRANCH  37  38
ENDBRANCH  35  37
ENDBRANCH   1  35
TORSDOF 13
ENDMDL
