MODEL 1
REMARK minimizedAffinity -9.85268021
REMARK  4 active torsions:
REMARK  status: ('A' for Active; 'I' for Inactive)
REMARK    1  A    between atoms: C4_4  and  C5_5 
REMARK    2  A    between atoms: C5_5  and  C6_6 
REMARK    3  A    between atoms: C6_6  and  C7_7 
REMARK    4  A    between atoms: C25_26  and  O2_27 
ROOT
HETATM    1  C7  UNL     1       0.593  52.664 -22.034  1.00  0.00     0.023 C 
HETATM    2  C8  UNL     1       0.183  51.702 -21.212  1.00  0.00    -0.034 C 
HETATM    3  C9  UNL     1       0.380  52.077 -19.796  1.00  0.00     0.163 C 
HETATM    4  C10 UNL     1      -0.870  51.540 -19.089  1.00  0.00     0.048 C 
HETATM    5  C11 UNL     1      -1.698  50.800 -20.202  1.00  0.00    -0.019 C 
HETATM    6  C12 UNL     1      -2.700  51.880 -20.756  1.00  0.00     0.017 C 
HETATM    7  C13 UNL     1      -0.594  50.443 -21.255  1.00  0.00     0.027 C 
HETATM    8  C14 UNL     1      -1.180  49.859 -22.531  1.00  0.00     0.010 C 
HETATM    9  C15 UNL     1      -2.000  48.599 -22.197  1.00  0.00     0.007 C 
HETATM   10  C16 UNL     1      -3.075  48.842 -21.104  1.00  0.00     0.011 C 
HETATM   11  C17 UNL     1      -4.088  47.637 -20.910  1.00  0.00    -0.032 C 
HETATM   12  C18 UNL     1      -5.161  47.795 -22.044  1.00  0.00     0.016 C 
HETATM   13  C19 UNL     1      -3.455  46.230 -21.100  1.00  0.00     0.017 C 
HETATM   14  C20 UNL     1      -4.206  45.095 -20.392  1.00  0.00     0.079 C 
HETATM   15  C21 UNL     1      -5.659  45.410 -20.083  1.00  0.00     0.131 C 
HETATM   16  O1  UNL     1      -6.542  44.582 -20.306  1.00  0.00    -0.298 OA
HETATM   17  C22 UNL     1      -5.969  46.745 -19.401  1.00  0.00     0.059 C 
HETATM   18  C23 UNL     1      -6.398  46.444 -17.967  1.00  0.00     0.018 C 
HETATM   19  C24 UNL     1      -4.725  47.660 -19.477  1.00  0.00     0.041 C 
HETATM   20  C25 UNL     1      -4.937  49.080 -18.944  1.00  0.00     0.194 C 
HETATM   21  C26 UNL     1      -3.592  49.797 -18.800  1.00  0.00     0.165 C 
HETATM   22  O3  UNL     1      -3.439  50.616 -17.890  1.00  0.00    -0.294 OA
HETATM   23  C27 UNL     1      -2.461  49.465 -19.791  1.00  0.00     0.032 C 
HETATM   24  C28 UNL     1      -1.528  48.468 -19.057  1.00  0.00     0.025 C 
HETATM   25  O4  UNL     1       0.566  53.469 -19.848  1.00  0.00    -0.308 OA
HETATM   26  C29 UNL     1       0.944  53.782 -21.129  1.00  0.00     0.290 C 
HETATM   27  O5  UNL     1       1.437  54.844 -21.470  1.00  0.00    -0.260 OA
ENDROOT
BRANCH   1  28
HETATM   28  C6  UNL     1       0.634  52.790 -23.516  1.00  0.00     0.049 C 
BRANCH  28  29
HETATM   29  C5  UNL     1      -0.101  51.691 -24.304  1.00  0.00     0.032 C 
BRANCH  29  30
HETATM   30  C4  UNL     1      -0.126  51.880 -25.799  1.00  0.00    -0.024 C 
HETATM   31  C2  UNL     1       0.885  51.677 -26.666  1.00  0.00    -0.091 C 
HETATM   32  C1  UNL     1       2.280  51.279 -26.273  1.00  0.00     0.042 C 
HETATM   33  C3  UNL     1       0.663  51.842 -28.146  1.00  0.00     0.042 C 
ENDBRANCH  29  30
ENDBRANCH  28  29
ENDBRANCH   1  28
BRANCH  20  34
HETATM   34  O2  UNL     1      -5.844  49.816 -19.743  1.00  0.00    -0.388 OA
HETATM   35  H37 UNL     1      -5.921  50.703 -19.347  1.00  0.00     0.210 HD
ENDBRANCH  20  34
TORSDOF 4
ENDMDL
