MODEL 1
REMARK minimizedAffinity -8.0277977
REMARK CNNscore 0.512763441
REMARK CNNaffinity 6.67888403
REMARK  11 active torsions:
REMARK  status: ('A' for Active; 'I' for Inactive)
REMARK    1  A    between atoms: C12_13  and  O2_14 
REMARK    2  A    between atoms: C19_21  and  O3_22 
REMARK    3  A    between atoms: C19_21  and  C20_23 
REMARK    4  A    between atoms: C20_23  and  C21_25 
REMARK    5  A    between atoms: C21_25  and  O5_26 
REMARK    6  A    between atoms: O5_26  and  C22_27 
REMARK    7  A    between atoms: C22_27  and  C23_29 
REMARK    8  A    between atoms: C23_29  and  C24_30 
REMARK    9  A    between atoms: C24_30  and  C25_31 
REMARK       I    between atoms: C25_31  and  N1_33 
REMARK   10  A    between atoms: N1_33  and  C26_34 
REMARK   11  A    between atoms: C26_34  and  C27_35 
ROOT
HETATM    1  C1  UNL     1      -5.669   5.296  13.361  1.00  0.00     0.020 C 
HETATM    2  C2  UNL     1      -5.157   6.259  14.472  1.00  0.00    -0.014 C 
HETATM    3  C3  UNL     1      -5.534   5.623  15.844  1.00  0.00     0.022 C 
HETATM    4  C4  UNL     1      -7.026   5.664  16.157  1.00  0.00     0.084 C 
HETATM    5  C5  UNL     1      -7.500   7.092  16.113  1.00  0.00     0.149 C 
HETATM    6  O1  UNL     1      -8.376   7.522  16.858  1.00  0.00    -0.293 OA
HETATM    7  C6  UNL     1      -6.931   7.973  15.067  1.00  0.00     0.053 C 
HETATM    8  C7  UNL     1      -5.908   7.583  14.284  1.00  0.00    -0.068 C 
HETATM    9  C8  UNL     1      -5.496   8.485  13.146  1.00  0.00     0.035 C 
HETATM   10  C9  UNL     1      -4.071   8.265  12.651  1.00  0.00     0.010 C 
HETATM   11  C10 UNL     1      -3.143   7.823  13.789  1.00  0.00    -0.002 C 
HETATM   12  C11 UNL     1      -3.577   6.417  14.278  1.00  0.00     0.031 C 
HETATM   13  C12 UNL     1      -2.676   5.988  15.455  1.00  0.00     0.124 C 
HETATM   14  C13 UNL     1      -1.203   5.950  15.038  1.00  0.00     0.045 C 
HETATM   15  C14 UNL     1      -0.629   7.192  14.309  1.00  0.00     0.001 C 
HETATM   16  C15 UNL     1       0.595   6.692  13.487  1.00  0.00     0.019 C 
HETATM   17  C16 UNL     1      -1.658   7.831  13.325  1.00  0.00     0.002 C 
HETATM   18  C17 UNL     1      -1.150   9.275  13.112  1.00  0.00     0.009 C 
HETATM   19  C18 UNL     1      -0.108   9.561  14.194  1.00  0.00     0.047 C 
HETATM   20  C19 UNL     1      -0.213   8.404  15.211  1.00  0.00     0.128 C 
ENDROOT
BRANCH  20  21
HETATM   21  O3  UNL     1      -1.275   8.760  16.094  1.00  0.00    -0.381 OA
HETATM   22  H27 UNL     1      -0.962   9.543  16.603  1.00  0.00     0.211 HD
ENDBRANCH  20  21
BRANCH  20  23
HETATM   23  C20 UNL     1       1.132   8.221  15.969  1.00  0.00     0.185 C 
HETATM   24  O4  UNL     1       1.341   7.223  16.672  1.00  0.00    -0.292 OA
BRANCH  23  25
HETATM   25  C21 UNL     1       2.173   9.349  15.954  1.00  0.00     0.260 C 
BRANCH  25  26
HETATM   26  O5  UNL     1       2.800   9.807  17.141  1.00  0.00    -0.314 OA
BRANCH  26  27
HETATM   27  C22 UNL     1       3.006  11.146  17.203  1.00  0.00     0.259 C 
HETATM   28  O6  UNL     1       3.521  11.806  16.306  1.00  0.00    -0.265 OA
BRANCH  27  29
HETATM   29  C23 UNL     1       2.410  11.761  18.449  1.00  0.00     0.120 C 
BRANCH  29  30
HETATM   30  C24 UNL     1       1.601  10.808  19.318  1.00  0.00     0.112 C 
BRANCH  30  31
HETATM   31  C25 UNL     1       2.334  10.391  20.577  1.00  0.00     0.218 C 
HETATM   32  O7  UNL     1       2.858   9.293  20.725  1.00  0.00    -0.274 OA
HETATM   33  N1  UNL     1       2.326  11.362  21.552  1.00  0.00    -0.357 N 
HETATM   34  H34 UNL     1       2.054  12.304  21.300  1.00  0.00     0.162 HD
BRANCH  33  35
HETATM   35  C26 UNL     1       3.018  11.170  22.807  1.00  0.00     0.162 C 
BRANCH  35  36
HETATM   36  C27 UNL     1       4.275  11.986  22.874  1.00  0.00    -0.025 A 
HETATM   37  C28 UNL     1       4.250  13.383  22.849  1.00  0.00     0.011 A 
HETATM   38  C29 UNL     1       5.444  14.095  22.911  1.00  0.00     0.018 A 
HETATM   39  C30 UNL     1       6.630  13.383  22.991  1.00  0.00     0.087 A 
HETATM   40  N2  UNL     1       6.695  12.036  23.005  1.00  0.00    -0.375 N 
HETATM   41  C31 UNL     1       5.521  11.367  22.943  1.00  0.00     0.096 A 
ATOM     42  H2  UNL     1       7.587  11.545  23.061  1.00  0.00     0.164 HD
ENDBRANCH  35  36
ENDBRANCH  33  35
ENDBRANCH  30  31
ENDBRANCH  29  30
ENDBRANCH  27  29
ENDBRANCH  26  27
ENDBRANCH  25  26
ENDBRANCH  23  25
ENDBRANCH  20  23
BRANCH  13  43
HETATM   43  O2  UNL     1      -2.836   6.805  16.608  1.00  0.00    -0.395 OA
HETATM   44  H16 UNL     1      -2.408   7.667  16.419  1.00  0.00     0.210 HD
ENDBRANCH  13  43
TORSDOF 11
ENDMDL
