MODEL 1
REMARK minimizedAffinity -10.0417452
REMARK  6 active torsions:
REMARK  status: ('A' for Active; 'I' for Inactive)
REMARK    1  A    between atoms: C2_2  and  C30_31 
REMARK    2  A    between atoms: C3_3  and  C4_4 
REMARK    3  A    between atoms: C4_4  and  C5_5 
REMARK    4  A    between atoms: C5_5  and  C6_6 
REMARK    5  A    between atoms: C6_6  and  C8_8 
REMARK    6  A    between atoms: C30_31  and  O3_33 
ROOT
HETATM    1  C8  UNL     1       0.509   6.948  11.189  1.00  0.00    -0.002 C 
HETATM    2  C9  UNL     1       0.753   5.443  11.011  1.00  0.00     0.007 C 
HETATM    3  C10 UNL     1      -0.550   4.817  11.462  1.00  0.00     0.015 C 
HETATM    4  C11 UNL     1      -0.928   5.563  12.773  1.00  0.00    -0.013 C 
HETATM    5  C12 UNL     1      -0.381   4.733  13.972  1.00  0.00     0.021 C 
HETATM    6  C13 UNL     1      -2.470   5.576  12.928  1.00  0.00    -0.070 C 
HETATM    7  C14 UNL     1      -3.184   4.430  12.868  1.00  0.00    -0.022 C 
HETATM    8  C15 UNL     1      -4.658   4.311  13.104  1.00  0.00     0.034 C 
HETATM    9  C16 UNL     1      -5.401   5.659  13.150  1.00  0.00     0.013 C 
HETATM   10  C17 UNL     1      -6.929   5.560  13.525  1.00  0.00     0.018 C 
HETATM   11  C18 UNL     1      -7.777   5.749  12.249  1.00  0.00     0.023 C 
HETATM   12  C19 UNL     1      -7.321   4.198  14.141  1.00  0.00     0.023 C 
HETATM   13  C20 UNL     1      -7.390   6.653  14.503  1.00  0.00     0.135 C 
HETATM   14  O1  UNL     1      -8.342   6.471  15.269  1.00  0.00    -0.297 OA
HETATM   15  C21 UNL     1      -6.744   8.014  14.470  1.00  0.00     0.080 C 
HETATM   16  C22 UNL     1      -5.367   8.053  13.835  1.00  0.00     0.017 C 
HETATM   17  C23 UNL     1      -4.575   6.727  13.939  1.00  0.00    -0.031 C 
HETATM   18  C24 UNL     1      -4.361   6.338  15.419  1.00  0.00     0.016 C 
HETATM   19  C25 UNL     1      -3.185   6.889  13.203  1.00  0.00     0.024 C 
HETATM   20  C26 UNL     1      -2.226   7.876  13.878  1.00  0.00     0.010 C 
HETATM   21  C27 UNL     1      -1.111   8.197  12.890  1.00  0.00     0.011 C 
HETATM   22  C28 UNL     1      -0.182   6.989  12.627  1.00  0.00    -0.029 C 
HETATM   23  C29 UNL     1       0.989   7.162  13.649  1.00  0.00     0.016 C 
ENDROOT
BRANCH   1  24
HETATM   24  C6  UNL     1      -0.278   7.626  10.014  1.00  0.00    -0.014 C 
HETATM   25  C7  UNL     1      -0.957   8.910  10.532  1.00  0.00     0.010 C 
BRANCH  24  26
HETATM   26  C5  UNL     1       0.595   7.972   8.781  1.00  0.00     0.008 C 
BRANCH  26  27
HETATM   27  C4  UNL     1       2.049   7.495   8.887  1.00  0.00     0.028 C 
BRANCH  27  28
HETATM   28  C3  UNL     1       2.374   6.512   7.793  1.00  0.00    -0.013 C 
HETATM   29  C2  UNL     1       3.045   5.346   7.886  1.00  0.00     0.008 C 
HETATM   30  C1  UNL     1       3.259   4.474   6.681  1.00  0.00     0.055 C 
BRANCH  29  31
HETATM   31  C30 UNL     1       3.652   4.885   9.159  1.00  0.00     0.171 C 
HETATM   32  O2  UNL     1       4.381   5.511   9.906  1.00  0.00    -0.646 OA
BRANCH  31  33
HETATM   33  O3  UNL     1       3.314   3.614   9.436  1.00  0.00    -0.773 OA
HETATM   34  H46 UNL     1       3.772   3.438  10.285  1.00  0.00     0.167 HD
ENDBRANCH  31  33
ENDBRANCH  29  31
ENDBRANCH  27  28
ENDBRANCH  26  27
ENDBRANCH  24  26
ENDBRANCH   1  24
TORSDOF 6
ENDMDL
