MODEL 1
REMARK minimizedAffinity -9.071208
REMARK  4 active torsions:
REMARK  status: ('A' for Active; 'I' for Inactive)
REMARK    1  A    between atoms: C4_4  and  C5_5 
REMARK    2  A    between atoms: C22_22  and  C23_23 
REMARK    3  A    between atoms: C23_23  and  O2_25 
REMARK    4  A    between atoms: C28_30  and  O3_31 
ROOT
HETATM    1  C5  UNL     1      -0.627   6.651  13.522  1.00  0.00     0.032 C 
HETATM    2  C6  UNL     1      -2.183   6.627  13.422  1.00  0.00     0.014 C 
HETATM    3  C7  UNL     1      -2.851   5.246  13.567  1.00  0.00     0.007 C 
HETATM    4  C8  UNL     1      -4.374   5.312  13.452  1.00  0.00     0.007 C 
HETATM    5  C9  UNL     1      -5.002   6.394  14.351  1.00  0.00     0.007 C 
HETATM    6  C10 UNL     1      -6.564   6.364  14.384  1.00  0.00    -0.018 C 
HETATM    7  C11 UNL     1      -7.225   6.551  12.999  1.00  0.00     0.020 C 
HETATM    8  C12 UNL     1      -7.228   5.142  14.993  1.00  0.00    -0.020 C 
HETATM    9  C13 UNL     1      -8.259   5.484  15.789  1.00  0.00    -0.021 C 
HETATM   10  C14 UNL     1      -8.388   6.986  15.966  1.00  0.00    -0.026 C 
HETATM   11  C15 UNL     1      -9.545   7.587  15.166  1.00  0.00     0.019 C 
HETATM   12  C16 UNL     1      -8.579   7.337  17.450  1.00  0.00     0.019 C 
HETATM   13  C17 UNL     1      -6.975   7.380  15.485  1.00  0.00     0.009 C 
HETATM   14  C18 UNL     1      -6.626   8.810  15.115  1.00  0.00     0.007 C 
HETATM   15  C19 UNL     1      -5.089   8.918  15.004  1.00  0.00     0.011 C 
HETATM   16  C20 UNL     1      -4.386   7.842  14.091  1.00  0.00    -0.021 C 
HETATM   17  C21 UNL     1      -4.629   8.321  12.629  1.00  0.00     0.017 C 
HETATM   18  C22 UNL     1      -2.797   7.746  14.361  1.00  0.00     0.057 C 
HETATM   19  C24 UNL     1      -2.023   9.095  14.108  1.00  0.00     0.023 C 
HETATM   20  C25 UNL     1      -1.119   9.109  12.875  1.00  0.00     0.022 C 
HETATM   21  C26 UNL     1      -0.084   7.956  12.851  1.00  0.00     0.060 C 
HETATM   22  C27 UNL     1       1.255   8.361  13.464  1.00  0.00     0.081 C 
HETATM   23  C28 UNL     1       1.974   9.012  12.309  1.00  0.00     0.267 C 
HETATM   24  O4  UNL     1       1.552   8.312  11.152  1.00  0.00    -0.289 OA
HETATM   25  C29 UNL     1       0.320   7.777  11.391  1.00  0.00     0.270 C 
HETATM   26  O5  UNL     1      -0.368   7.263  10.522  1.00  0.00    -0.264 OA
ENDROOT
BRANCH   1  27
HETATM   27  C4  UNL     1       0.041   5.390  13.004  1.00  0.00    -0.018 C 
HETATM   28  C2  UNL     1      -0.362   4.574  12.009  1.00  0.00    -0.091 C 
HETATM   29  C1  UNL     1       0.472   3.375  11.629  1.00  0.00     0.042 C 
HETATM   30  C3  UNL     1      -1.606   4.733  11.180  1.00  0.00     0.042 C 
ENDBRANCH   1  27
BRANCH  23  31
HETATM   31  O3  UNL     1       3.376   8.940  12.456  1.00  0.00    -0.371 OA
HETATM   32  H42 UNL     1       3.600   7.997  12.529  1.00  0.00     0.212 HD
ENDBRANCH  23  31
BRANCH  18  33
HETATM   33  C23 UNL     1      -2.548   7.476  15.875  1.00  0.00     0.149 C 
HETATM   34  O1  UNL     1      -1.749   8.068  16.587  1.00  0.00    -0.649 OA
BRANCH  33  35
HETATM   35  O2  UNL     1      -3.278   6.500  16.429  1.00  0.00    -0.776 OA
HETATM   36  H34 UNL     1      -3.006   6.504  17.372  1.00  0.00     0.167 HD
ENDBRANCH  33  35
ENDBRANCH  18  33
TORSDOF 4
ENDMDL
