MODEL 1
REMARK minimizedAffinity -8.02342987
REMARK  7 active torsions:
REMARK  status: ('A' for Active; 'I' for Inactive)
REMARK    1  A    between atoms: C3_3  and  C5_5 
REMARK    2  A    between atoms: C6_6  and  C7_7 
REMARK    3  A    between atoms: C8_8  and  C9_9 
REMARK    4  A    between atoms: C10_10  and  C12_12 
REMARK    5  A    between atoms: C12_12  and  C13_14 
REMARK    6  A    between atoms: C13_14  and  C15_16 
REMARK    7  A    between atoms: C15_16  and  O2_17 
ROOT
HETATM    1  C5  UNL     1      -1.928   7.336  15.365  1.00  0.00     0.058 C 
HETATM    2  C6  UNL     1      -1.650   5.991  14.595  1.00  0.00     0.024 C 
HETATM    3  C16 UNL     1      -0.892   6.237  13.261  1.00  0.00     0.003 C 
HETATM    4  C17 UNL     1      -0.703   4.947  12.430  1.00  0.00     0.041 C 
HETATM    5  C18 UNL     1       0.115   5.186  11.196  1.00  0.00     0.157 A 
HETATM    6  O3  UNL     1       1.535   5.095  11.415  1.00  0.00    -0.370 OA
HETATM    7  C19 UNL     1       1.024   6.389  11.074  1.00  0.00     0.084 A 
HETATM    8  C20 UNL     1       1.447   6.858   9.719  1.00  0.00     0.049 C 
HETATM    9  C21 UNL     1       1.083   7.394  12.191  1.00  0.00     0.048 C 
HETATM   10  C22 UNL     1       0.503   6.866  13.516  1.00  0.00     0.025 C 
HETATM   11  C23 UNL     1       0.493   7.952  14.561  1.00  0.00     0.162 A 
HETATM   12  O4  UNL     1       0.500   7.409  15.897  1.00  0.00    -0.368 OA
HETATM   13  C24 UNL     1      -0.658   8.166  15.521  1.00  0.00     0.092 A 
HETATM   14  C25 UNL     1      -0.753   9.454  16.289  1.00  0.00     0.049 C 
ENDROOT
BRANCH   2  15
HETATM   15  C7  UNL     1      -2.919   5.181  14.394  1.00  0.00    -0.021 C 
HETATM   16  C8  UNL     1      -3.749   5.343  13.351  1.00  0.00    -0.003 C 
BRANCH  16  17
HETATM   17  C9  UNL     1      -4.952   4.554  13.187  1.00  0.00     0.010 C 
HETATM   18  C10 UNL     1      -5.214   3.698  12.183  1.00  0.00    -0.016 C 
HETATM   19  C11 UNL     1      -4.310   3.359  11.029  1.00  0.00     0.052 C 
BRANCH  18  20
HETATM   20  C12 UNL     1      -6.513   2.930  12.167  1.00  0.00     0.161 C 
HETATM   21  O1  UNL     1      -6.542   1.860  11.553  1.00  0.00    -0.292 OA
BRANCH  20  22
HETATM   22  C13 UNL     1      -7.737   3.464  12.926  1.00  0.00     0.080 C 
HETATM   23  C14 UNL     1      -7.476   3.562  14.431  1.00  0.00     0.020 C 
BRANCH  22  24
HETATM   24  C15 UNL     1      -8.164   4.823  12.355  1.00  0.00     0.176 C 
BRANCH  24  25
HETATM   25  O2  UNL     1      -8.989   5.532  13.273  1.00  0.00    -0.400 OA
HETATM   26  H22 UNL     1      -8.743   6.473  13.211  1.00  0.00     0.209 HD
ENDBRANCH  24  25
ENDBRANCH  22  24
ENDBRANCH  20  22
ENDBRANCH  18  20
ENDBRANCH  16  17
ENDBRANCH   2  15
BRANCH   1  27
HETATM   27  C3  UNL     1      -3.132   8.146  14.826  1.00  0.00    -0.080 C 
HETATM   28  C2  UNL     1      -4.321   8.185  15.464  1.00  0.00    -0.028 C 
HETATM   29  C1  UNL     1      -5.566   8.914  15.062  1.00  0.00     0.036 C 
HETATM   30  C4  UNL     1      -2.872   8.810  13.494  1.00  0.00     0.043 C 
ENDBRANCH   1  27
TORSDOF 7
ENDMDL
