MODEL 1
REMARK minimizedAffinity -6.48624325
REMARK CNNscore 0.805475831
REMARK CNNaffinity 6.83858299
REMARK  10 active torsions:
REMARK  status: ('A' for Active; 'I' for Inactive)
REMARK    1  A    between atoms: C2_2  and  O1_3 
REMARK    2  A    between atoms: O1_3  and  C3_4 
REMARK    3  A    between atoms: C3_4  and  C4_6 
REMARK    4  A    between atoms: C4_6  and  C5_7 
REMARK    5  A    between atoms: C5_7  and  C6_8 
REMARK    6  A    between atoms: C6_8  and  C8_10 
REMARK    7  A    between atoms: C13_15  and  O3_16 
REMARK    8  A    between atoms: C17_21  and  O4_22 
REMARK    9  A    between atoms: C24_29  and  O5_30 
REMARK   10  A    between atoms: O5_30  and  C25_31 
ROOT
HETATM    1  C8  UNL     1       2.497  56.345  -8.678  1.00  0.00     0.000 C 
HETATM    2  C9  UNL     1       3.294  56.320 -10.021  1.00  0.00     0.006 C 
HETATM    3  C10 UNL     1       2.557  55.396 -10.988  1.00  0.00     0.006 C 
HETATM    4  C11 UNL     1       1.206  55.192 -10.323  1.00  0.00     0.003 C 
HETATM    5  C12 UNL     1       0.270  54.102 -10.896  1.00  0.00     0.025 C 
HETATM    6  C13 UNL     1       0.950  52.770 -11.298  1.00  0.00     0.137 C 
HETATM    7  C14 UNL     1       0.093  51.503 -11.167  1.00  0.00     0.092 C 
HETATM    8 BR1  UNL     1       0.545  50.145 -12.521  1.00  0.00    -0.088 Br
HETATM    9  C15 UNL     1      -1.419  51.717 -11.061  1.00  0.00     0.013 C 
HETATM   10  C16 UNL     1      -2.075  52.177 -12.390  1.00  0.00     0.038 C 
HETATM   11  C17 UNL     1      -3.524  52.660 -12.241  1.00  0.00     0.118 C 
HETATM   12  C18 UNL     1      -4.116  52.269 -10.896  1.00  0.00     0.032 C 
HETATM   13  C19 UNL     1      -3.300  52.834  -9.726  1.00  0.00     0.012 C 
HETATM   14  C20 UNL     1      -1.744  52.667  -9.865  1.00  0.00    -0.035 C 
HETATM   15  C21 UNL     1      -1.268  52.041  -8.530  1.00  0.00     0.016 C 
HETATM   16  C22 UNL     1      -1.065  54.064 -10.099  1.00  0.00     0.003 C 
HETATM   17  C23 UNL     1      -1.097  55.045  -8.903  1.00  0.00     0.039 C 
HETATM   18  C24 UNL     1       0.165  55.173  -8.014  1.00  0.00     0.141 C 
HETATM   19  C27 UNL     1       1.518  55.115  -8.802  1.00  0.00    -0.009 C 
HETATM   20  C28 UNL     1       2.263  53.819  -8.404  1.00  0.00     0.018 C 
ENDROOT
BRANCH   1  21
HETATM   21  C6  UNL     1       3.486  56.447  -7.471  1.00  0.00    -0.013 C 
HETATM   22  C7  UNL     1       4.941  56.394  -7.975  1.00  0.00     0.010 C 
BRANCH  21  23
HETATM   23  C5  UNL     1       3.284  57.708  -6.603  1.00  0.00     0.014 C 
BRANCH  23  24
HETATM   24  C4  UNL     1       3.995  57.688  -5.247  1.00  0.00     0.111 C 
BRANCH  24  25
HETATM   25  C3  UNL     1       3.548  58.827  -4.366  1.00  0.00     0.258 C 
HETATM   26  O2  UNL     1       2.417  58.953  -3.919  1.00  0.00    -0.265 OA
BRANCH  25  27
HETATM   27  O1  UNL     1       4.595  59.661  -4.108  1.00  0.00    -0.322 OA
BRANCH  27  28
HETATM   28  C2  UNL     1       4.336  60.639  -3.095  1.00  0.00     0.174 C 
HETATM   29  C1  UNL     1       4.066  61.966  -3.777  1.00  0.00     0.034 C 
ENDBRANCH  27  28
ENDBRANCH  25  27
ENDBRANCH  24  25
ENDBRANCH  23  24
ENDBRANCH  21  23
ENDBRANCH   1  21
BRANCH  18  30
HETATM   30  O5  UNL     1       0.042  56.435  -7.316  1.00  0.00    -0.316 OA
BRANCH  30  31
HETATM   31  C25 UNL     1      -0.070  56.373  -5.960  1.00  0.00     0.255 C 
HETATM   32  C26 UNL     1       0.294  55.003  -5.473  1.00  0.00     0.126 C 
HETATM   33  O6  UNL     1      -0.424  57.290  -5.231  1.00  0.00    -0.266 OA
ENDBRANCH  30  31
ENDBRANCH  18  30
BRANCH   6  34
HETATM   34  O3  UNL     1       1.470  52.967 -12.627  1.00  0.00    -0.394 OA
HETATM   35  H22 UNL     1       1.370  52.135 -13.119  1.00  0.00     0.210 HD
ENDBRANCH   6  34
BRANCH  11  36
HETATM   36  O4  UNL     1      -3.545  54.075 -12.393  1.00  0.00    -0.396 OA
HETATM   37  H28 UNL     1      -4.434  54.397 -12.144  1.00  0.00     0.210 HD
ENDBRANCH  11  36
TORSDOF 10
ENDMDL
