MODEL 1
REMARK minimizedAffinity -7.46827269
REMARK CNNscore 0.43626067
REMARK CNNaffinity 6.28371763
REMARK  4 active torsions:
REMARK  status: ('A' for Active; 'I' for Inactive)
REMARK    1  A    between atoms: C4_4  and  O1_5 
REMARK    2  A    between atoms: C4_4  and  C5_6 
REMARK    3  A    between atoms: C5_6  and  C6_7 
REMARK    4  A    between atoms: C6_7  and  C8_9 
ROOT
HETATM    1  C8  UNL     1     -10.315  -7.016  -4.439  1.00  0.00    -0.001 C 
HETATM    2  C9  UNL     1     -11.648  -7.365  -3.723  1.00  0.00     0.007 C 
HETATM    3  C10 UNL     1     -11.276  -8.242  -2.496  1.00  0.00     0.015 C 
HETATM    4  C11 UNL     1      -9.738  -8.138  -2.388  1.00  0.00    -0.013 C 
HETATM    5  C12 UNL     1      -9.442  -6.803  -1.614  1.00  0.00     0.021 C 
HETATM    6  C13 UNL     1      -8.953  -9.215  -1.630  1.00  0.00    -0.070 C 
HETATM    7  C14 UNL     1      -9.359  -9.634  -0.417  1.00  0.00    -0.022 C 
HETATM    8  C15 UNL     1      -8.475 -10.361   0.548  1.00  0.00     0.034 C 
HETATM    9  C16 UNL     1      -6.983 -10.103   0.237  1.00  0.00     0.013 C 
HETATM   10  C17 UNL     1      -6.012 -10.637   1.350  1.00  0.00     0.018 C 
HETATM   11  C18 UNL     1      -6.137  -9.724   2.599  1.00  0.00     0.023 C 
HETATM   12  C19 UNL     1      -6.276 -12.075   1.823  1.00  0.00     0.023 C 
HETATM   13  C20 UNL     1      -4.554 -10.563   0.868  1.00  0.00     0.135 C 
HETATM   14  O2  UNL     1      -3.628 -10.254   1.620  1.00  0.00    -0.297 OA
HETATM   15  C21 UNL     1      -4.258 -10.995  -0.545  1.00  0.00     0.080 C 
HETATM   16  C22 UNL     1      -5.166 -10.261  -1.519  1.00  0.00     0.017 C 
HETATM   17  C23 UNL     1      -6.671 -10.491  -1.250  1.00  0.00    -0.031 C 
HETATM   18  C24 UNL     1      -6.997 -11.983  -1.555  1.00  0.00     0.016 C 
HETATM   19  C25 UNL     1      -7.596  -9.636  -2.233  1.00  0.00     0.024 C 
HETATM   20  C26 UNL     1      -6.940  -8.443  -2.968  1.00  0.00     0.010 C 
HETATM   21  C27 UNL     1      -7.845  -7.778  -4.041  1.00  0.00     0.011 C 
HETATM   22  C28 UNL     1      -9.346  -8.117  -3.909  1.00  0.00    -0.029 C 
HETATM   23  C29 UNL     1      -9.659  -9.478  -4.608  1.00  0.00     0.016 C 
ENDROOT
BRANCH   1  24
HETATM   24  C6  UNL     1     -10.401  -6.645  -5.951  1.00  0.00    -0.008 C 
HETATM   25  C7  UNL     1     -10.167  -7.925  -6.775  1.00  0.00     0.010 C 
BRANCH  24  26
HETATM   26  C5  UNL     1      -9.493  -5.485  -6.435  1.00  0.00     0.078 C 
BRANCH  26  27
HETATM   27  C4  UNL     1      -9.608  -4.152  -5.667  1.00  0.00     0.191 A 
HETATM   28  C3  UNL     1     -11.006  -3.849  -5.289  1.00  0.00     0.054 A 
HETATM   29  C2  UNL     1     -11.424  -2.733  -5.884  1.00  0.00     0.015 A 
HETATM   30  C1  UNL     1     -12.728  -2.042  -5.833  1.00  0.00     0.054 C 
HETATM   31  C30 UNL     1     -10.293  -2.243  -6.679  1.00  0.00     0.291 A 
HETATM   32  O3  UNL     1      -9.225  -3.065  -6.498  1.00  0.00    -0.276 OA
HETATM   33  O4  UNL     1     -10.307  -1.246  -7.378  1.00  0.00    -0.260 OA
BRANCH  27  34
HETATM   34  O1  UNL     1      -8.823  -4.193  -4.491  1.00  0.00    -0.362 OA
HETATM   35  H5  UNL     1      -9.061  -3.412  -3.965  1.00  0.00     0.213 HD
ENDBRANCH  27  34
ENDBRANCH  26  27
ENDBRANCH  24  26
ENDBRANCH   1  24
TORSDOF 4
ENDMDL
