MODEL 1
REMARK minimizedAffinity -6.93625736
REMARK CNNscore 0.621698022
REMARK CNNaffinity 6.68408442
REMARK  10 active torsions:
REMARK  status: ('A' for Active; 'I' for Inactive)
REMARK    1  A    between atoms: C2_2  and  C3_3 
REMARK    2  A    between atoms: C2_2  and  C9_11 
REMARK    3  A    between atoms: C3_3  and  C4_4 
REMARK    4  A    between atoms: C4_4  and  C5_5 
REMARK    5  A    between atoms: C5_5  and  O1_6 
REMARK    6  A    between atoms: C5_5  and  C6_7 
REMARK    7  A    between atoms: C6_7  and  O2_10 
REMARK    8  A    between atoms: C10_12  and  O3_13 
REMARK    9  A    between atoms: C12_15  and  C13_16 
REMARK   10  A    between atoms: C13_16  and  O5_18 
ROOT
HETATM    1  C9  UNL     1       0.271  49.552 -13.783  1.00  0.00     0.028 C 
HETATM    2  C10 UNL     1       0.691  48.623 -12.616  1.00  0.00     0.124 C 
HETATM    3  C11 UNL     1       1.539  49.461 -11.664  1.00  0.00     0.053 C 
HETATM    4  C12 UNL     1       2.272  50.464 -12.582  1.00  0.00     0.060 C 
HETATM    5  C14 UNL     1       2.923  51.659 -11.789  1.00  0.00     0.014 C 
HETATM    6  C15 UNL     1       3.894  51.143 -10.701  1.00  0.00     0.007 C 
HETATM    7  C16 UNL     1       4.459  52.193  -9.741  1.00  0.00     0.007 C 
HETATM    8  C17 UNL     1       3.997  53.636  -9.992  1.00  0.00     0.010 C 
HETATM    9  C18 UNL     1       4.444  54.633  -8.870  1.00  0.00     0.018 C 
HETATM   10  C19 UNL     1       5.977  54.631  -8.720  1.00  0.00     0.023 C 
HETATM   11  C20 UNL     1       3.807  54.331  -7.502  1.00  0.00     0.023 C 
HETATM   12  C21 UNL     1       4.026  56.055  -9.267  1.00  0.00     0.135 C 
HETATM   13  O6  UNL     1       4.462  57.053  -8.684  1.00  0.00    -0.297 OA
HETATM   14  C22 UNL     1       3.071  56.208 -10.424  1.00  0.00     0.080 C 
HETATM   15  C23 UNL     1       1.964  55.175 -10.317  1.00  0.00     0.018 C 
HETATM   16  C24 UNL     1       2.491  53.741 -10.290  1.00  0.00    -0.026 A 
HETATM   17  C25 UNL     1       1.521  52.687  -9.779  1.00  0.00     0.021 A 
HETATM   18  C26 UNL     1       1.911  52.670 -11.239  1.00  0.00    -0.027 A 
HETATM   19  C27 UNL     1       0.863  53.085 -12.249  1.00  0.00     0.011 C 
HETATM   20  C28 UNL     1       0.156  51.878 -12.845  1.00  0.00     0.012 C 
HETATM   21  C29 UNL     1       1.116  50.874 -13.574  1.00  0.00    -0.020 C 
HETATM   22  C30 UNL     1       1.607  51.590 -14.843  1.00  0.00     0.017 C 
ENDROOT
BRANCH   1  23
HETATM   23  C2  UNL     1       0.209  48.749 -15.120  1.00  0.00    -0.011 C 
HETATM   24  C1  UNL     1       1.090  47.502 -15.228  1.00  0.00     0.010 C 
BRANCH  23  25
HETATM   25  C3  UNL     1       0.382  49.644 -16.373  1.00  0.00     0.007 C 
BRANCH  25  26
HETATM   26  C4  UNL     1      -0.907  49.812 -17.207  1.00  0.00     0.035 C 
BRANCH  26  27
HETATM   27  C5  UNL     1      -0.626  50.101 -18.698  1.00  0.00     0.151 C 
BRANCH  27  28
HETATM   28  O1  UNL     1      -1.186  49.074 -19.518  1.00  0.00    -0.393 OA
HETATM   29  H10 UNL     1      -2.123  48.972 -19.274  1.00  0.00     0.210 HD
ENDBRANCH  27  28
BRANCH  27  30
HETATM   30  C6  UNL     1      -1.106  51.507 -19.171  1.00  0.00     0.076 C 
HETATM   31  C7  UNL     1      -0.061  52.571 -18.806  1.00  0.00     0.048 C 
HETATM   32  C8  UNL     1      -1.375  51.566 -20.679  1.00  0.00     0.048 C 
BRANCH  30  33
HETATM   33  O2  UNL     1      -2.323  51.838 -18.492  1.00  0.00    -0.388 OA
HETATM   34  H17 UNL     1      -2.572  52.744 -18.743  1.00  0.00     0.210 HD
ENDBRANCH  30  33
ENDBRANCH  27  30
ENDBRANCH  26  27
ENDBRANCH  25  26
ENDBRANCH  23  25
ENDBRANCH   1  23
BRANCH   2  35
HETATM   35  O3  UNL     1      -0.464  48.132 -11.952  1.00  0.00    -0.395 OA
HETATM   36  H20 UNL     1      -0.157  47.571 -11.219  1.00  0.00     0.210 HD
ENDBRANCH   2  35
BRANCH   4  37
HETATM   37  C13 UNL     1       3.445  49.800 -13.327  1.00  0.00     0.150 C 
HETATM   38  O4  UNL     1       3.739  48.614 -13.294  1.00  0.00    -0.649 OA
BRANCH  37  39
HETATM   39  O5  UNL     1       4.130  50.613 -14.150  1.00  0.00    -0.776 OA
HETATM   40  H23 UNL     1       4.784  50.016 -14.577  1.00  0.00     0.167 HD
ENDBRANCH  37  39
ENDBRANCH   4  37
TORSDOF 10
ENDMDL
