MODEL 1
REMARK minimizedAffinity -7.48278713
REMARK CNNscore 0.38453266
REMARK CNNaffinity 6.47746468
REMARK  11 active torsions:
REMARK  status: ('A' for Active; 'I' for Inactive)
REMARK    1  A    between atoms: C3_3  and  O1_4 
REMARK    2  A    between atoms: N1_14  and  O2_16 
REMARK    3  A    between atoms: O2_16  and  C13_17 
REMARK    4  A    between atoms: C13_17  and  C14_18 
REMARK       I    between atoms: C14_18  and  N2_20 
REMARK    5  A    between atoms: N2_20  and  C15_21 
REMARK    6  A    between atoms: C15_21  and  C16_22 
REMARK    7  A    between atoms: C15_21  and  C19_27 
REMARK    8  A    between atoms: C16_22  and  O5_24 
REMARK    9  A    between atoms: O5_24  and  C17_25 
REMARK   10  A    between atoms: C19_27  and  O6_28 
REMARK   11  A    between atoms: C19_27  and  C20_29 
ROOT
HETATM    1  C1  UNL     1       4.698   8.783   9.751  1.00  0.00     0.015 C 
HETATM    2  C2  UNL     1       4.107   8.050  10.498  1.00  0.00    -0.078 C 
HETATM    3  C3  UNL     1       3.399   7.142  11.429  1.00  0.00     0.128 C 
HETATM    4  C4  UNL     1       3.144   7.884  12.745  1.00  0.00     0.052 C 
HETATM    5  C5  UNL     1       1.841   8.653  12.526  1.00  0.00     0.010 C 
HETATM    6  C6  UNL     1       1.133   8.011  11.312  1.00  0.00     0.002 C 
HETATM    7  C7  UNL     1      -0.370   7.735  11.515  1.00  0.00    -0.004 C 
HETATM    8  C8  UNL     1      -1.176   9.032  11.670  1.00  0.00     0.010 C 
HETATM    9  C9  UNL     1      -2.561   8.766  12.236  1.00  0.00     0.035 C 
HETATM   10  C10 UNL     1      -2.367   8.273  13.640  1.00  0.00    -0.069 C 
HETATM   11  C11 UNL     1      -2.766   9.031  14.679  1.00  0.00     0.030 C 
HETATM   12  C12 UNL     1      -2.489   8.637  16.091  1.00  0.00     0.032 C 
HETATM   13  N1  UNL     1      -2.896   9.264  17.153  1.00  0.00    -0.271 N 
ATOM     14  H1  UNL     1      -2.672   8.974  18.106  1.00  0.00     0.194 HD
HETATM   15  C26 UNL     1      -1.667   7.388  16.328  1.00  0.00     0.060 C 
HETATM   16  C27 UNL     1      -0.825   6.998  15.120  1.00  0.00     0.020 C 
HETATM   17  C28 UNL     1      -1.623   6.951  13.791  1.00  0.00    -0.016 C 
HETATM   18  C29 UNL     1      -2.696   5.831  13.898  1.00  0.00     0.020 C 
HETATM   19  C30 UNL     1      -0.708   6.602  12.535  1.00  0.00     0.002 C 
HETATM   20  C31 UNL     1       0.523   5.731  12.870  1.00  0.00     0.007 C 
HETATM   21  C32 UNL     1       1.391   5.465  11.643  1.00  0.00     0.014 C 
HETATM   22  C33 UNL     1       1.960   6.744  10.950  1.00  0.00     0.003 C 
HETATM   23  C34 UNL     1       1.919   6.464   9.430  1.00  0.00     0.020 C 
ENDROOT
BRANCH   3  24
HETATM   24  O1  UNL     1       4.236   6.010  11.615  1.00  0.00    -0.377 OA
HETATM   25  H2  UNL     1       4.155   5.709  12.534  1.00  0.00     0.211 HD
ENDBRANCH   3  24
BRANCH  13  26
HETATM   26  O2  UNL     1      -3.682  10.386  16.840  1.00  0.00    -0.271 OA
BRANCH  26  27
HETATM   27  C13 UNL     1      -3.119  11.514  17.488  1.00  0.00     0.303 C 
BRANCH  27  28
HETATM   28  C14 UNL     1      -4.171  12.556  17.861  1.00  0.00     0.244 C 
HETATM   29  O3  UNL     1      -5.033  12.980  17.099  1.00  0.00    -0.271 OA
HETATM   30  N2  UNL     1      -4.072  12.976  19.174  1.00  0.00    -0.343 N 
HETATM   31  H16 UNL     1      -3.161  12.905  19.617  1.00  0.00     0.163 HD
BRANCH  30  32
HETATM   32  C15 UNL     1      -4.912  14.080  19.687  1.00  0.00     0.217 C 
BRANCH  32  33
HETATM   33  C16 UNL     1      -4.222  15.439  19.477  1.00  0.00     0.284 C 
HETATM   34  O4  UNL     1      -3.029  15.648  19.661  1.00  0.00    -0.263 OA
BRANCH  33  35
HETATM   35  O5  UNL     1      -5.099  16.381  19.006  1.00  0.00    -0.320 OA
BRANCH  35  36
HETATM   36  C17 UNL     1      -5.060  16.623  17.593  1.00  0.00     0.174 C 
HETATM   37  C18 UNL     1      -5.861  17.865  17.251  1.00  0.00     0.034 C 
ENDBRANCH  35  36
ENDBRANCH  33  35
ENDBRANCH  32  33
BRANCH  32  38
HETATM   38  C19 UNL     1      -5.183  13.822  21.186  1.00  0.00     0.183 C 
BRANCH  38  39
HETATM   39  O6  UNL     1      -4.692  14.911  21.984  1.00  0.00    -0.388 OA
HETATM   40  H24 UNL     1      -4.995  14.746  22.896  1.00  0.00     0.210 HD
ENDBRANCH  38  39
BRANCH  38  41
HETATM   41  C20 UNL     1      -6.600  13.459  21.573  1.00  0.00    -0.027 A 
HETATM   42  C21 UNL     1      -6.966  13.220  22.905  1.00  0.00     0.010 A 
HETATM   43  C22 UNL     1      -8.277  12.870  23.233  1.00  0.00     0.001 A 
HETATM   44  C23 UNL     1      -9.235  12.738  22.232  1.00  0.00     0.000 A 
HETATM   45  C24 UNL     1      -8.888  12.974  20.904  1.00  0.00     0.001 A 
HETATM   46  C25 UNL     1      -7.581  13.337  20.577  1.00  0.00     0.010 A 
ENDBRANCH  38  41
ENDBRANCH  32  38
ENDBRANCH  30  32
ENDBRANCH  27  28
ENDBRANCH  26  27
ENDBRANCH  13  26
TORSDOF 11
ENDMDL
