MODEL 1
REMARK minimizedAffinity -8.18611145
REMARK CNNscore 0.35180065
REMARK CNNaffinity 7.64068604
REMARK  11 active torsions:
REMARK  status: ('A' for Active; 'I' for Inactive)
REMARK    1  A    between atoms: C13_13  and  S1_14 
REMARK    2  A    between atoms: C25_30  and  O5_31 
REMARK    3  A    between atoms: C31_37  and  C32_38 
REMARK    4  A    between atoms: C32_38  and  O6_39 
REMARK    5  A    between atoms: C40_47  and  C41_48 
REMARK    6  A    between atoms: C40_47  and  N1_59 
REMARK    7  A    between atoms: C41_48  and  C42_49 
REMARK    8  A    between atoms: C42_49  and  C43_50 
REMARK    9  A    between atoms: C42_49  and  C44_52 
REMARK   10  A    between atoms: C43_50  and  O7_51 
REMARK   11  A    between atoms: C44_52  and  C45_53 
REMARK       I    between atoms: C51_61  and  N2_62 
REMARK       I    between atoms: C51_61  and  N3_63 
ROOT
HETATM    1  C1  UNL     1       1.524  52.280  -5.025  1.00  0.00     0.011 C 
HETATM    2  C2  UNL     1       2.829  52.657  -4.332  1.00  0.00    -0.009 C 
HETATM    3  C3  UNL     1       4.018  52.016  -5.064  1.00  0.00     0.009 C 
HETATM    4  C4  UNL     1       5.329  52.239  -4.316  1.00  0.00     0.039 C 
HETATM    5  C5  UNL     1       5.510  53.650  -3.826  1.00  0.00    -0.049 C 
HETATM    6  C6  UNL     1       6.791  54.199  -3.716  1.00  0.00     0.044 C 
HETATM    7  C7  UNL     1       6.942  55.537  -3.344  1.00  0.00     0.073 C 
HETATM    8  C8  UNL     1       5.875  56.247  -2.809  1.00  0.00     0.037 C 
HETATM    9  C9  UNL     1       4.598  55.704  -2.892  1.00  0.00     0.011 C 
HETATM   10  C10 UNL     1       4.403  54.456  -3.512  1.00  0.00    -0.046 C 
HETATM   11  C11 UNL     1       3.029  54.182  -4.153  1.00  0.00     0.037 C 
HETATM   12  C12 UNL     1       3.060  55.046  -5.455  1.00  0.00     0.126 C 
HETATM   13  C13 UNL     1       1.802  55.441  -6.231  1.00  0.00     0.153 C 
HETATM   14  C14 UNL     1       2.048  56.221  -7.604  1.00  0.00     0.053 C 
HETATM   15  C15 UNL     1       1.056  55.624  -8.634  1.00  0.00    -0.013 C 
HETATM   16  C16 UNL     1       1.363  55.365  -9.922  1.00  0.00    -0.050 C 
HETATM   17  C17 UNL     1       2.650  55.888 -10.486  1.00  0.00     0.043 C 
HETATM   18  C18 UNL     1       3.757  55.472  -9.512  1.00  0.00     0.014 C 
HETATM   19  C19 UNL     1       3.823  53.915  -9.269  1.00  0.00     0.039 C 
HETATM   20  C20 UNL     1       3.030  53.018 -10.266  1.00  0.00     0.130 C 
HETATM   21  O4  UNL     1       1.641  53.091  -9.922  1.00  0.00    -0.371 OA
HETATM   22  C21 UNL     1       0.901  54.115 -10.622  1.00  0.00     0.185 C 
HETATM   23  C22 UNL     1      -0.552  53.678 -10.716  1.00  0.00    -0.006 A 
HETATM   24  C23 UNL     1      -1.619  54.544 -10.436  1.00  0.00     0.014 A 
HETATM   25  C24 UNL     1      -2.940  54.121 -10.606  1.00  0.00     0.037 A 
HETATM   26  C25 UNL     1      -3.209  52.838 -11.071  1.00  0.00     0.067 A 
HETATM   27  C26 UNL     1      -2.178  51.956 -11.378  1.00  0.00     0.057 A 
HETATM   28  C27 UNL     1      -0.855  52.372 -11.211  1.00  0.00     0.029 A 
HETATM   29  C28 UNL     1       0.218  51.464 -11.525  1.00  0.00    -0.066 C 
HETATM   30  C29 UNL     1       1.308  50.959 -11.571  1.00  0.00    -0.101 C 
HETATM   31  C30 UNL     1       2.749  50.693 -11.406  1.00  0.00     0.103 C 
HETATM   32  C31 UNL     1       3.421  51.506 -10.246  1.00  0.00     0.049 C 
HETATM   33  C33 UNL     1       3.525  56.371  -8.235  1.00  0.00     0.100 C 
HETATM   34  C34 UNL     1       4.760  56.645  -7.370  1.00  0.00    -0.040 A 
HETATM   35  C35 UNL     1       4.768  57.757  -6.512  1.00  0.00     0.009 A 
HETATM   36  C36 UNL     1       5.849  58.008  -5.651  1.00  0.00     0.012 A 
HETATM   37  C37 UNL     1       6.976  57.166  -5.621  1.00  0.00    -0.003 A 
HETATM   38  C38 UNL     1       6.995  56.099  -6.534  1.00  0.00     0.012 A 
HETATM   39  C39 UNL     1       5.913  55.848  -7.393  1.00  0.00     0.009 A 
HETATM   40  C40 UNL     1       8.080  57.323  -4.526  1.00  0.00     0.171 C 
HETATM   41  O8  UNL     1       8.144  56.123  -3.652  1.00  0.00    -0.316 OA
HETATM   42 NA1  UNL     1       4.871  55.134  -7.004  1.00  0.00    -0.240 Na
ENDROOT
BRANCH  40  43
HETATM   43  C41 UNL     1       9.510  57.351  -5.183  1.00  0.00     0.074 C 
BRANCH  43  44
HETATM   44  C42 UNL     1      10.559  56.315  -4.710  1.00  0.00     0.018 C 
BRANCH  44  45
HETATM   45  C43 UNL     1      10.101  54.855  -4.769  1.00  0.00     0.169 C 
BRANCH  45  46
HETATM   46  O7  UNL     1      11.055  53.966  -4.217  1.00  0.00    -0.400 OA
HETATM   47  H45 UNL     1      10.568  53.362  -3.624  1.00  0.00     0.209 HD
ENDBRANCH  45  46
ENDBRANCH  44  45
BRANCH  44  48
HETATM   48  C44 UNL     1      11.152  56.690  -3.325  1.00  0.00     0.045 C 
BRANCH  48  49
HETATM   49  C45 UNL     1      12.195  57.779  -3.259  1.00  0.00    -0.058 A 
HETATM   50  C46 UNL     1      12.208  58.825  -4.190  1.00  0.00     0.007 A 
HETATM   51  C47 UNL     1      13.169  59.836  -4.113  1.00  0.00     0.001 A 
HETATM   52  C48 UNL     1      14.124  59.817  -3.100  1.00  0.00     0.000 A 
HETATM   53  C49 UNL     1      14.123  58.784  -2.165  1.00  0.00     0.001 A 
HETATM   54  C50 UNL     1      13.164  57.772  -2.243  1.00  0.00     0.007 A 
ENDBRANCH  48  49
ENDBRANCH  44  48
ENDBRANCH  43  44
ENDBRANCH  40  43
BRANCH  40  55
HETATM   55  N1  UNL     1       7.937  58.618  -3.820  1.00  0.00    -0.336 N 
HETATM   56  C51 UNL     1       8.316  58.754  -2.607  1.00  0.00     0.124 C 
HETATM   57  N2  UNL     1       8.213  59.967  -2.024  1.00  0.00    -0.279 NA
HETATM   58  N3  UNL     1       8.872  57.850  -1.774  1.00  0.00    -0.279 NA
HETATM   59  H53 UNL     1       7.829  59.962  -1.089  1.00  0.00     0.126 HD
HETATM   60  H54 UNL     1       7.691  60.597  -2.626  1.00  0.00     0.126 HD
HETATM   61  H55 UNL     1       8.758  56.889  -2.084  1.00  0.00     0.126 HD
HETATM   62  H56 UNL     1       8.688  57.961  -0.788  1.00  0.00     0.126 HD
ATOM     63  H1  UNL     1       7.530  59.414  -4.311  1.00  0.00     0.165 HD
ENDBRANCH  40  55
BRANCH  13  64
HETATM   64  S1  UNL     1       0.694  56.473  -5.198  1.00  0.00     0.108 S 
HETATM   65  O1  UNL     1       1.608  57.374  -4.496  1.00  0.00    -0.595 OA
HETATM   66  O2  UNL     1      -0.004  55.521  -4.337  1.00  0.00    -0.595 OA
HETATM   67  O3  UNL     1      -0.182  57.134  -6.163  1.00  0.00    -0.595 OA
ENDBRANCH  13  64
BRANCH  32  68
HETATM   68  C32 UNL     1       3.176  50.830  -8.887  1.00  0.00     0.172 C 
BRANCH  68  69
HETATM   69  O6  UNL     1       4.037  49.732  -8.640  1.00  0.00    -0.400 OA
HETATM   70  H34 UNL     1       4.083  49.212  -9.472  1.00  0.00     0.209 HD
ENDBRANCH  68  69
ENDBRANCH  32  68
BRANCH  26  71
HETATM   71  O5  UNL     1      -4.517  52.475 -11.222  1.00  0.00    -0.361 OA
HETATM   72  H27 UNL     1      -4.545  51.549 -11.510  1.00  0.00     0.217 HD
ENDBRANCH  26  71
TORSDOF 11
ENDMDL
