MODEL 1
REMARK minimizedAffinity -9.59212399
REMARK  6 active torsions:
REMARK  status: ('A' for Active; 'I' for Inactive)
REMARK    1  A    between atoms: C2_2  and  C30_31 
REMARK    2  A    between atoms: C3_3  and  C4_4 
REMARK    3  A    between atoms: C4_4  and  C5_5 
REMARK    4  A    between atoms: C5_5  and  C6_6 
REMARK    5  A    between atoms: C6_6  and  C8_8 
REMARK    6  A    between atoms: C30_31  and  O3_33 
ROOT
HETATM    1  C8  UNL     1      -1.180  51.387 -21.396  1.00  0.00    -0.002 C 
HETATM    2  C9  UNL     1      -0.429  50.107 -20.916  1.00  0.00     0.007 C 
HETATM    3  C10 UNL     1      -1.445  48.950 -20.899  1.00  0.00     0.015 C 
HETATM    4  C11 UNL     1      -2.818  49.636 -21.041  1.00  0.00    -0.013 C 
HETATM    5  C12 UNL     1      -3.213  50.111 -19.605  1.00  0.00     0.021 C 
HETATM    6  C13 UNL     1      -3.991  48.801 -21.548  1.00  0.00    -0.070 C 
HETATM    7  C14 UNL     1      -4.107  47.489 -21.280  1.00  0.00    -0.022 C 
HETATM    8  C15 UNL     1      -5.286  46.646 -21.650  1.00  0.00     0.034 C 
HETATM    9  C16 UNL     1      -6.300  47.324 -22.601  1.00  0.00     0.013 C 
HETATM   10  C17 UNL     1      -7.626  46.493 -22.771  1.00  0.00     0.018 C 
HETATM   11  C18 UNL     1      -8.122  45.794 -21.489  1.00  0.00     0.023 C 
HETATM   12  C19 UNL     1      -7.411  45.392 -23.833  1.00  0.00     0.023 C 
HETATM   13  C20 UNL     1      -8.737  47.403 -23.303  1.00  0.00     0.135 C 
HETATM   14  O1  UNL     1      -9.933  47.167 -23.131  1.00  0.00    -0.297 OA
HETATM   15  C21 UNL     1      -8.301  48.576 -24.135  1.00  0.00     0.080 C 
HETATM   16  C22 UNL     1      -7.426  49.525 -23.330  1.00  0.00     0.017 C 
HETATM   17  C23 UNL     1      -6.493  48.852 -22.270  1.00  0.00    -0.031 C 
HETATM   18  C24 UNL     1      -7.129  49.053 -20.874  1.00  0.00     0.016 C 
HETATM   19  C25 UNL     1      -5.068  49.540 -22.345  1.00  0.00     0.024 C 
HETATM   20  C26 UNL     1      -5.065  51.062 -22.061  1.00  0.00     0.010 C 
HETATM   21  C27 UNL     1      -3.681  51.748 -22.159  1.00  0.00     0.011 C 
HETATM   22  C28 UNL     1      -2.472  50.791 -22.050  1.00  0.00    -0.029 C 
HETATM   23  C29 UNL     1      -2.098  50.279 -23.478  1.00  0.00     0.016 C 
ENDROOT
BRANCH   1  24
HETATM   24  C6  UNL     1      -0.257  52.340 -22.215  1.00  0.00    -0.014 C 
HETATM   25  C7  UNL     1       1.150  52.437 -21.614  1.00  0.00     0.010 C 
BRANCH  24  26
HETATM   26  C5  UNL     1      -0.175  51.866 -23.691  1.00  0.00     0.008 C 
BRANCH  26  27
HETATM   27  C4  UNL     1       0.717  52.742 -24.579  1.00  0.00     0.028 C 
BRANCH  27  28
HETATM   28  C3  UNL     1       0.379  52.562 -26.036  1.00  0.00    -0.013 C 
HETATM   29  C2  UNL     1       1.129  51.988 -26.999  1.00  0.00     0.008 C 
HETATM   30  C1  UNL     1       0.628  51.857 -28.409  1.00  0.00     0.055 C 
BRANCH  29  31
HETATM   31  C30 UNL     1       2.505  51.504 -26.732  1.00  0.00     0.171 C 
HETATM   32  O2  UNL     1       2.847  50.635 -25.952  1.00  0.00    -0.646 OA
BRANCH  31  33
HETATM   33  O3  UNL     1       3.415  52.168 -27.466  1.00  0.00    -0.773 OA
HETATM   34  H46 UNL     1       4.263  51.758 -27.199  1.00  0.00     0.167 HD
ENDBRANCH  31  33
ENDBRANCH  29  31
ENDBRANCH  27  28
ENDBRANCH  26  27
ENDBRANCH  24  26
ENDBRANCH   1  24
TORSDOF 6
ENDMDL
