MODEL 1
REMARK minimizedAffinity -7.99286032
REMARK CNNscore 0.852226973
REMARK CNNaffinity 6.91044664
REMARK  7 active torsions:
REMARK  status: ('A' for Active; 'I' for Inactive)
REMARK    1  A    between atoms: C2_2  and  C30_33 
REMARK    2  A    between atoms: C3_3  and  C4_4 
REMARK    3  A    between atoms: C4_4  and  C5_5 
REMARK    4  A    between atoms: C5_5  and  C6_6 
REMARK    5  A    between atoms: C6_6  and  C8_8 
REMARK    6  A    between atoms: C15_15  and  O1_16 
REMARK    7  A    between atoms: C30_33  and  O5_35 
ROOT
HETATM    1  C8  UNL     1       4.597  56.016  -8.325  1.00  0.00    -0.002 C 
HETATM    2  C9  UNL     1       5.465  55.091  -9.216  1.00  0.00     0.007 C 
HETATM    3  C10 UNL     1       4.518  54.224 -10.063  1.00  0.00     0.015 C 
HETATM    4  C11 UNL     1       3.136  54.887  -9.931  1.00  0.00    -0.005 C 
HETATM    5  C12 UNL     1       3.087  56.048 -10.971  1.00  0.00     0.021 C 
HETATM    6  C13 UNL     1       1.869  54.075 -10.184  1.00  0.00     0.002 C 
HETATM    7  C14 UNL     1       0.695  54.377  -9.563  1.00  0.00    -0.032 C 
HETATM    8  C15 UNL     1       0.641  55.560  -8.575  1.00  0.00     0.149 C 
HETATM    9  C16 UNL     1       1.974  56.244  -8.177  1.00  0.00     0.047 C 
HETATM   10  C17 UNL     1       3.190  55.335  -8.419  1.00  0.00    -0.026 C 
HETATM   11  C18 UNL     1       3.146  54.129  -7.427  1.00  0.00     0.016 C 
HETATM   12  C19 UNL     1      -0.638  53.616  -9.859  1.00  0.00    -0.012 C 
HETATM   13  C20 UNL     1      -0.885  52.596  -8.720  1.00  0.00     0.021 C 
HETATM   14  C21 UNL     1      -1.827  54.616  -9.938  1.00  0.00     0.021 C 
HETATM   15  C22 UNL     1      -3.072  54.149 -10.685  1.00  0.00     0.080 C 
HETATM   16  C23 UNL     1      -3.082  52.679 -11.010  1.00  0.00     0.135 C 
HETATM   17  O2  UNL     1      -4.107  52.015 -10.835  1.00  0.00    -0.297 OA
HETATM   18  C24 UNL     1      -1.831  52.088 -11.670  1.00  0.00     0.018 C 
HETATM   19  C25 UNL     1      -2.040  52.209 -13.196  1.00  0.00     0.023 C 
HETATM   20  C26 UNL     1      -1.752  50.583 -11.331  1.00  0.00     0.023 C 
HETATM   21  C27 UNL     1      -0.557  52.906 -11.256  1.00  0.00     0.020 C 
HETATM   22  C28 UNL     1       0.731  52.093 -11.379  1.00  0.00     0.090 C 
HETATM   23  C29 UNL     1       1.936  52.971 -11.193  1.00  0.00     0.157 C 
HETATM   24  O3  UNL     1       2.957  52.754 -11.842  1.00  0.00    -0.293 OA
ENDROOT
BRANCH   1  25
HETATM   25  C6  UNL     1       5.236  56.280  -6.923  1.00  0.00    -0.014 C 
HETATM   26  C7  UNL     1       5.118  57.755  -6.513  1.00  0.00     0.010 C 
BRANCH  25  27
HETATM   27  C5  UNL     1       6.747  55.907  -6.861  1.00  0.00     0.008 C 
BRANCH  27  28
HETATM   28  C4  UNL     1       7.632  56.652  -5.850  1.00  0.00     0.028 C 
BRANCH  28  29
HETATM   29  C3  UNL     1       9.000  56.062  -5.633  1.00  0.00    -0.013 C 
HETATM   30  C2  UNL     1      10.096  56.645  -5.104  1.00  0.00     0.008 C 
HETATM   31  C1  UNL     1      11.381  55.891  -4.926  1.00  0.00     0.055 C 
BRANCH  30  32
HETATM   32  C30 UNL     1      10.096  58.070  -4.696  1.00  0.00     0.171 C 
HETATM   33  O4  UNL     1      10.392  59.033  -5.378  1.00  0.00    -0.646 OA
BRANCH  32  34
HETATM   34  O5  UNL     1       9.727  58.209  -3.411  1.00  0.00    -0.773 OA
HETATM   35  H44 UNL     1       9.765  59.178  -3.270  1.00  0.00     0.167 HD
ENDBRANCH  32  34
ENDBRANCH  30  32
ENDBRANCH  28  29
ENDBRANCH  27  28
ENDBRANCH  25  27
ENDBRANCH   1  25
BRANCH   8  36
HETATM   36  O1  UNL     1      -0.009  55.156  -7.374  1.00  0.00    -0.391 OA
HETATM   37  H22 UNL     1       0.597  54.575  -6.886  1.00  0.00     0.210 HD
ENDBRANCH   8  36
TORSDOF 7
ENDMDL
