MODEL 1
REMARK minimizedAffinity -7.79105377
REMARK CNNscore 0.87161833
REMARK CNNaffinity 7.02626562
REMARK  8 active torsions:
REMARK  status: ('A' for Active; 'I' for Inactive)
REMARK    1  A    between atoms: C2_2  and  C30_33 
REMARK    2  A    between atoms: C3_3  and  C4_4 
REMARK    3  A    between atoms: C4_4  and  C5_5 
REMARK    4  A    between atoms: C5_5  and  C6_6 
REMARK    5  A    between atoms: C6_6  and  C8_8 
REMARK    6  A    between atoms: C15_15  and  O1_16 
REMARK    7  A    between atoms: C23_24  and  O2_25 
REMARK    8  A    between atoms: C30_33  and  O4_34 
ROOT
HETATM    1  C8  UNL     1       4.733  56.001  -8.301  1.00  0.00    -0.002 C 
HETATM    2  C9  UNL     1       5.601  55.111  -9.230  1.00  0.00     0.007 C 
HETATM    3  C10 UNL     1       4.646  54.221 -10.044  1.00  0.00     0.015 C 
HETATM    4  C11 UNL     1       3.253  54.849  -9.856  1.00  0.00    -0.005 C 
HETATM    5  C12 UNL     1       3.140  56.021 -10.880  1.00  0.00     0.021 C 
HETATM    6  C13 UNL     1       1.993  54.022 -10.080  1.00  0.00     0.002 C 
HETATM    7  C14 UNL     1       0.834  54.291  -9.416  1.00  0.00    -0.032 C 
HETATM    8  C15 UNL     1       0.798  55.398  -8.346  1.00  0.00     0.149 C 
HETATM    9  C16 UNL     1       2.120  56.145  -8.038  1.00  0.00     0.047 C 
HETATM   10  C17 UNL     1       3.350  55.278  -8.341  1.00  0.00    -0.026 C 
HETATM   11  C18 UNL     1       3.375  54.064  -7.358  1.00  0.00     0.016 C 
HETATM   12  C19 UNL     1      -0.495  53.500  -9.690  1.00  0.00    -0.013 C 
HETATM   13  C20 UNL     1      -0.608  52.450  -8.556  1.00  0.00     0.021 C 
HETATM   14  C21 UNL     1      -1.727  54.459  -9.686  1.00  0.00     0.017 C 
HETATM   15  C22 UNL     1      -2.859  54.134 -10.670  1.00  0.00     0.033 C 
HETATM   16  C23 UNL     1      -3.015  52.650 -10.967  1.00  0.00     0.126 C 
HETATM   17  C24 UNL     1      -1.718  52.048 -11.586  1.00  0.00    -0.017 C 
HETATM   18  C25 UNL     1      -1.813  52.235 -13.130  1.00  0.00     0.018 C 
HETATM   19  C26 UNL     1      -1.659  50.522 -11.353  1.00  0.00     0.018 C 
HETATM   20  C27 UNL     1      -0.426  52.825 -11.102  1.00  0.00     0.015 C 
HETATM   21  C28 UNL     1       0.860  52.014 -11.244  1.00  0.00     0.090 C 
HETATM   22  C29 UNL     1       2.049  52.924 -11.101  1.00  0.00     0.157 C 
HETATM   23  O3  UNL     1       3.044  52.754 -11.805  1.00  0.00    -0.293 OA
ENDROOT
BRANCH   1  24
HETATM   24  C6  UNL     1       5.430  56.262  -6.934  1.00  0.00    -0.014 C 
HETATM   25  C7  UNL     1       5.157  57.667  -6.385  1.00  0.00     0.010 C 
BRANCH  24  26
HETATM   26  C5  UNL     1       6.964  56.002  -6.979  1.00  0.00     0.008 C 
BRANCH  26  27
HETATM   27  C4  UNL     1       7.751  56.518  -5.766  1.00  0.00     0.028 C 
BRANCH  27  28
HETATM   28  C3  UNL     1       9.131  55.942  -5.554  1.00  0.00    -0.022 C 
HETATM   29  C2  UNL     1      10.273  56.529  -5.142  1.00  0.00    -0.064 C 
HETATM   30  C1  UNL     1      10.430  58.002  -4.879  1.00  0.00     0.045 C 
BRANCH  29  31
HETATM   31  C30 UNL     1      11.530  55.706  -4.970  1.00  0.00     0.197 C 
BRANCH  31  32
HETATM   32  O4  UNL     1      12.680  56.535  -5.045  1.00  0.00    -0.397 OA
HETATM   33  H48 UNL     1      12.443  57.350  -5.517  1.00  0.00     0.209 HD
ENDBRANCH  31  32
ENDBRANCH  29  31
ENDBRANCH  27  28
ENDBRANCH  26  27
ENDBRANCH  24  26
ENDBRANCH   1  24
BRANCH   8  34
HETATM   34  O1  UNL     1       0.340  54.825  -7.124  1.00  0.00    -0.391 OA
HETATM   35  H22 UNL     1       0.169  55.552  -6.503  1.00  0.00     0.210 HD
ENDBRANCH   8  34
BRANCH  16  36
HETATM   36  O2  UNL     1      -3.397  51.980  -9.771  1.00  0.00    -0.395 OA
HETATM   37  H36 UNL     1      -4.238  52.363  -9.470  1.00  0.00     0.210 HD
ENDBRANCH  16  36
TORSDOF 8
ENDMDL
