MODEL 1
REMARK minimizedAffinity -9.80819798
REMARK  2 active torsions:
REMARK  status: ('A' for Active; 'I' for Inactive)
REMARK    1  A    between atoms: C3_4  and  C4_5 
REMARK       I    between atoms: N2_13  and  C11_14 
REMARK    2  A    between atoms: C11_14  and  C12_16 
ROOT
HETATM    1  C4  UNL     1       4.872   7.899  12.874  1.00  0.00    -0.021 A 
HETATM    2  C5  UNL     1       4.520   7.114  11.772  1.00  0.00     0.015 A 
HETATM    3  C6  UNL     1       3.206   6.678  11.614  1.00  0.00     0.040 A 
HETATM    4  C7  UNL     1       2.225   7.037  12.545  1.00  0.00     0.095 A 
HETATM    5  O1  UNL     1       0.933   6.697  12.250  1.00  0.00    -0.347 OA
HETATM    6  C8  UNL     1       0.697   5.303  12.499  1.00  0.00     0.213 C 
HETATM    7  C9  UNL     1      -0.715   5.138  13.088  1.00  0.00     0.265 C 
HETATM    8  C10 UNL     1      -1.748   5.082  11.936  1.00  0.00     0.164 C 
HETATM    9  N2  UNL     1      -3.104   4.848  12.449  1.00  0.00    -0.344 N 
HETATM   10  C11 UNL     1      -3.953   4.033  11.708  1.00  0.00     0.254 C 
HETATM   11  O2  UNL     1      -3.631   3.456  10.674  1.00  0.00    -0.267 OA
HETATM   12  C18 UNL     1      -3.524   5.748  13.529  1.00  0.00     0.156 C 
HETATM   13  C19 UNL     1      -2.437   5.947  14.606  1.00  0.00     0.293 C 
HETATM   14  N3  UNL     1      -1.117   6.208  14.025  1.00  0.00     0.107 N 
HETATM   15  C20 UNL     1      -0.098   6.610  14.996  1.00  0.00     0.375 C 
HETATM   16  C21 UNL     1       0.295   8.079  14.760  1.00  0.00     0.250 C 
HETATM   17  O3  UNL     1      -0.511   9.013  14.867  1.00  0.00    -0.271 OA
HETATM   18  N4  UNL     1       1.617   8.387  14.573  1.00  0.00    -0.323 N 
HETATM   19  C22 UNL     1       2.543   7.849  13.642  1.00  0.00     0.069 A 
HETATM   20  C23 UNL     1       3.877   8.266  13.795  1.00  0.00     0.044 A 
HETATM   21  H22 UNL     1       1.796   9.365  14.782  1.00  0.00     0.169 HD
ENDROOT
BRANCH  10  22
HETATM   22  C12 UNL     1      -5.306   3.780  12.224  1.00  0.00     0.033 A 
HETATM   23  C13 UNL     1      -5.951   2.572  11.960  1.00  0.00     0.017 A 
HETATM   24  C14 UNL     1      -7.224   2.345  12.483  1.00  0.00     0.003 A 
HETATM   25  C15 UNL     1      -7.833   3.321  13.269  1.00  0.00     0.024 A 
HETATM   26  C16 UNL     1      -7.172   4.522  13.532  1.00  0.00     0.035 A 
HETATM   27 CL1  UNL     1      -7.940   5.723  14.492  1.00  0.00    -0.084 Cl
HETATM   28  C17 UNL     1      -5.903   4.759  13.016  1.00  0.00     0.041 A 
ENDBRANCH  10  22
BRANCH   1  29
HETATM   29  C3  UNL     1       6.238   8.349  13.051  1.00  0.00     0.008 A 
HETATM   30  C2  UNL     1       7.258   7.586  13.580  1.00  0.00     0.123 A 
HETATM   31  N1  UNL     1       8.378   8.366  13.548  1.00  0.00    -0.307 N 
HETATM   32  C1  UNL     1       9.698   8.000  13.990  1.00  0.00     0.177 C 
HETATM   33  N5  UNL     1       8.166   9.589  13.027  1.00  0.00    -0.310 N 
HETATM   34  C24 UNL     1       6.862   9.580  12.730  1.00  0.00     0.120 A 
ATOM     35  H5  UNL     1       8.839  10.343  12.890  1.00  0.00     0.186 HD
ENDBRANCH   1  29
TORSDOF 2
ENDMDL
