MODEL 1
REMARK minimizedAffinity -8.3776207
REMARK CNNscore 0.550783038
REMARK CNNaffinity 7.40204
REMARK  6 active torsions:
REMARK  status: ('A' for Active; 'I' for Inactive)
REMARK    1  A    between atoms: C2_2  and  C4_4 
REMARK    2  A    between atoms: C4_4  and  O1_5 
REMARK    3  A    between atoms: C4_4  and  C5_6 
REMARK    4  A    between atoms: C5_6  and  C6_7 
REMARK    5  A    between atoms: C6_7  and  C7_8 
REMARK    6  A    between atoms: C7_8  and  C9_10 
ROOT
HETATM    1  C9  UNL     1       0.082   6.640  12.580  1.00  0.00    -0.001 C 
HETATM    2  C10 UNL     1       0.351   5.448  13.541  1.00  0.00     0.007 C 
HETATM    3  C11 UNL     1      -0.902   5.275  14.422  1.00  0.00     0.024 C 
HETATM    4  C12 UNL     1      -1.906   6.250  13.851  1.00  0.00     0.092 C 
HETATM    5  C13 UNL     1      -2.742   5.607  12.711  1.00  0.00     0.272 C 
HETATM    6  O2  UNL     1      -2.430   4.680  11.983  1.00  0.00    -0.264 OA
HETATM    7  O3  UNL     1      -3.954   6.269  12.632  1.00  0.00    -0.305 OA
HETATM    8  C14 UNL     1      -3.994   7.296  13.651  1.00  0.00     0.113 C 
HETATM    9  C15 UNL     1      -3.351   8.572  13.020  1.00  0.00     0.043 C 
HETATM   10  C16 UNL     1      -1.959   8.309  12.380  1.00  0.00     0.014 C 
HETATM   11  C17 UNL     1      -1.053   7.440  13.292  1.00  0.00    -0.020 C 
HETATM   12  C18 UNL     1      -0.483   8.350  14.403  1.00  0.00     0.017 C 
HETATM   13  C19 UNL     1      -3.043   6.730  14.665  1.00  0.00     0.137 A 
HETATM   14  O4  UNL     1      -2.872   7.333  15.933  1.00  0.00    -0.364 OA
HETATM   15  C20 UNL     1      -3.521   6.044  15.925  1.00  0.00     0.162 A 
HETATM   16  C21 UNL     1      -4.976   6.063  16.276  1.00  0.00     0.042 C 
HETATM   17  C22 UNL     1      -5.836   6.155  14.996  1.00  0.00     0.014 C 
HETATM   18  C23 UNL     1      -7.358   5.856  15.206  1.00  0.00     0.018 C 
HETATM   19  C24 UNL     1      -7.550   4.375  15.605  1.00  0.00     0.023 C 
HETATM   20  C25 UNL     1      -8.045   6.730  16.263  1.00  0.00     0.023 C 
HETATM   21  C26 UNL     1      -8.107   6.039  13.877  1.00  0.00     0.135 C 
HETATM   22  O5  UNL     1      -9.330   5.907  13.794  1.00  0.00    -0.297 OA
HETATM   23  C27 UNL     1      -7.280   6.371  12.661  1.00  0.00     0.080 C 
HETATM   24  C28 UNL     1      -6.464   7.619  12.965  1.00  0.00     0.020 C 
HETATM   25  C29 UNL     1      -5.477   7.459  14.168  1.00  0.00    -0.004 C 
HETATM   26  C30 UNL     1      -5.583   8.758  15.010  1.00  0.00     0.019 C 
ENDROOT
BRANCH   1  27
HETATM   27  C7  UNL     1       1.378   7.303  12.021  1.00  0.00    -0.014 C 
HETATM   28  C8  UNL     1       1.198   8.573  11.181  1.00  0.00     0.010 C 
BRANCH  27  29
HETATM   29  C6  UNL     1       2.260   6.274  11.283  1.00  0.00     0.007 C 
BRANCH  29  30
HETATM   30  C5  UNL     1       1.894   5.949   9.822  1.00  0.00     0.036 C 
BRANCH  30  31
HETATM   31  C4  UNL     1       2.978   6.318   8.793  1.00  0.00     0.146 C 
BRANCH  31  32
HETATM   32  C2  UNL     1       2.635   7.444   7.833  1.00  0.00    -0.065 C 
HETATM   33  C1  UNL     1       3.035   8.722   7.959  1.00  0.00     0.016 C 
HETATM   34  C3  UNL     1       1.770   7.033   6.667  1.00  0.00     0.045 C 
ENDBRANCH  31  32
BRANCH  31  35
HETATM   35  O1  UNL     1       4.166   6.715   9.471  1.00  0.00    -0.391 OA
HETATM   36  H7  UNL     1       3.974   7.574   9.887  1.00  0.00     0.210 HD
ENDBRANCH  31  35
ENDBRANCH  30  31
ENDBRANCH  29  30
ENDBRANCH  27  29
ENDBRANCH   1  27
TORSDOF 6
ENDMDL
