MODEL 1
REMARK minimizedAffinity -8.4013195
REMARK  9 active torsions:
REMARK  status: ('A' for Active; 'I' for Inactive)
REMARK    1  A    between atoms: C2_2  and  C3_3 
REMARK    2  A    between atoms: C2_2  and  C9_11 
REMARK    3  A    between atoms: C3_3  and  C4_4 
REMARK    4  A    between atoms: C4_4  and  C5_5 
REMARK    5  A    between atoms: C5_5  and  O1_6 
REMARK    6  A    between atoms: C5_5  and  C6_7 
REMARK    7  A    between atoms: C6_7  and  O2_10 
REMARK    8  A    between atoms: C17_19  and  C18_20 
REMARK    9  A    between atoms: C18_20  and  O3_23 
ROOT
HETATM    1  C9  UNL     1      -1.941   8.178  14.330  1.00  0.00    -0.002 C 
HETATM    2  C10 UNL     1      -1.171   7.251  15.315  1.00  0.00     0.006 C 
HETATM    3  C11 UNL     1      -0.039   6.573  14.496  1.00  0.00     0.011 C 
HETATM    4  C12 UNL     1      -0.369   6.905  13.026  1.00  0.00    -0.032 C 
HETATM    5  C13 UNL     1      -1.457   5.860  12.603  1.00  0.00     0.016 C 
HETATM    6  C14 UNL     1       0.832   6.912  12.037  1.00  0.00     0.003 C 
HETATM    7  C15 UNL     1       1.637   5.607  11.997  1.00  0.00     0.009 C 
HETATM    8  C16 UNL     1       2.584   5.469  10.806  1.00  0.00     0.042 C 
HETATM    9  C17 UNL     1       3.036   6.765  10.078  1.00  0.00     0.095 C 
HETATM   10  O4  UNL     1       3.509   6.334   8.760  1.00  0.00    -0.377 OA
HETATM   11  C21 UNL     1       2.503   6.164   7.775  1.00  0.00     0.169 C 
HETATM   12  C22 UNL     1       1.922   7.503   7.381  1.00  0.00     0.027 C 
HETATM   13  C23 UNL     1       1.833   8.484   8.544  1.00  0.00     0.010 C 
HETATM   14  C24 UNL     1       1.907   7.861   9.957  1.00  0.00     0.032 C 
HETATM   15  C25 UNL     1       0.500   7.493  10.613  1.00  0.00    -0.033 C 
HETATM   16  C26 UNL     1      -0.308   6.515   9.733  1.00  0.00     0.016 C 
HETATM   17  C27 UNL     1      -0.371   8.808  10.722  1.00  0.00     0.011 C 
HETATM   18  C28 UNL     1      -1.458   8.845  11.822  1.00  0.00     0.011 C 
HETATM   19  C29 UNL     1      -0.910   8.380  13.180  1.00  0.00    -0.032 C 
HETATM   20  C30 UNL     1       0.161   9.425  13.625  1.00  0.00     0.016 C 
ENDROOT
BRANCH   1  21
HETATM   21  C2  UNL     1      -2.645   9.425  14.942  1.00  0.00    -0.014 C 
HETATM   22  C1  UNL     1      -1.851  10.685  14.549  1.00  0.00     0.010 C 
BRANCH  21  23
HETATM   23  C3  UNL     1      -4.131   9.615  14.559  1.00  0.00     0.007 C 
BRANCH  23  24
HETATM   24  C4  UNL     1      -5.096   8.960  15.566  1.00  0.00     0.035 C 
BRANCH  24  25
HETATM   25  C5  UNL     1      -6.047   7.954  14.889  1.00  0.00     0.151 C 
BRANCH  25  26
HETATM   26  O1  UNL     1      -7.407   8.312  15.149  1.00  0.00    -0.393 OA
HETATM   27  H10 UNL     1      -7.482   8.550  16.090  1.00  0.00     0.210 HD
ENDBRANCH  25  26
BRANCH  25  28
HETATM   28  C6  UNL     1      -5.778   6.471  15.288  1.00  0.00     0.076 C 
HETATM   29  C7  UNL     1      -6.897   5.879  16.152  1.00  0.00     0.048 C 
HETATM   30  C8  UNL     1      -5.600   5.610  14.030  1.00  0.00     0.048 C 
BRANCH  28  31
HETATM   31  O2  UNL     1      -4.560   6.405  16.041  1.00  0.00    -0.388 OA
HETATM   32  H17 UNL     1      -4.369   5.470  16.227  1.00  0.00     0.210 HD
ENDBRANCH  28  31
ENDBRANCH  25  28
ENDBRANCH  24  25
ENDBRANCH  23  24
ENDBRANCH  21  23
ENDBRANCH   1  21
BRANCH   9  33
HETATM   33  C18 UNL     1       4.384   7.338  10.726  1.00  0.00     0.082 C 
HETATM   34  C19 UNL     1       4.363   7.518  12.245  1.00  0.00     0.049 C 
HETATM   35  C20 UNL     1       4.853   8.658  10.086  1.00  0.00     0.049 C 
BRANCH  33  36
HETATM   36  O3  UNL     1       5.441   6.392  10.450  1.00  0.00    -0.388 OA
HETATM   37  H37 UNL     1       5.301   6.138   9.515  1.00  0.00     0.210 HD
ENDBRANCH  33  36
ENDBRANCH   9  33
TORSDOF 9
ENDMDL
