MODEL 1
REMARK minimizedAffinity -9.71307564
REMARK  12 active torsions:
REMARK  status: ('A' for Active; 'I' for Inactive)
REMARK    1  A    between atoms: C2_2  and  C3_3 
REMARK    2  A    between atoms: C2_2  and  C26_31 
REMARK    3  A    between atoms: C3_3  and  C4_4 
REMARK    4  A    between atoms: C4_4  and  C5_5 
REMARK    5  A    between atoms: C5_5  and  C7_7 
REMARK    6  A    between atoms: C8_8  and  O1_9 
REMARK    7  A    between atoms: C9_10  and  O2_11 
REMARK    8  A    between atoms: C20_22  and  O3_23 
REMARK    9  A    between atoms: C23_26  and  O4_27 
REMARK   10  A    between atoms: C25_29  and  O5_30 
REMARK   11  A    between atoms: C26_31  and  C28_33 
REMARK   12  A    between atoms: C28_33  and  O6_34 
ROOT
HETATM    1  C7  UNL     1      -2.449  49.095 -25.866  1.00  0.00     0.029 C 
HETATM    2  C8  UNL     1      -1.583  50.180 -26.585  1.00  0.00     0.152 C 
HETATM    3  C9  UNL     1      -0.976  51.071 -25.472  1.00  0.00     0.155 C 
HETATM    4  C10 UNL     1      -1.467  50.457 -24.159  1.00  0.00     0.060 C 
HETATM    5  C11 UNL     1      -2.824  49.782 -24.505  1.00  0.00    -0.029 C 
HETATM    6  C12 UNL     1      -4.003  50.768 -24.681  1.00  0.00     0.016 C 
HETATM    7  C13 UNL     1      -3.157  48.796 -23.357  1.00  0.00     0.011 C 
HETATM    8  C14 UNL     1      -2.449  49.106 -22.023  1.00  0.00     0.009 C 
HETATM    9  C15 UNL     1      -2.276  50.616 -21.736  1.00  0.00     0.029 C 
HETATM   10  C16 UNL     1      -1.760  50.920 -20.264  1.00  0.00    -0.031 C 
HETATM   11  C17 UNL     1      -3.028  50.884 -19.353  1.00  0.00     0.016 C 
HETATM   12  C18 UNL     1      -0.756  49.863 -19.724  1.00  0.00     0.012 C 
HETATM   13  C19 UNL     1      -0.241  50.165 -18.315  1.00  0.00     0.032 C 
HETATM   14  C20 UNL     1       0.341  51.565 -18.181  1.00  0.00     0.118 C 
HETATM   15  C21 UNL     1      -0.581  52.647 -18.751  1.00  0.00     0.039 C 
HETATM   16  C22 UNL     1      -1.106  52.338 -20.171  1.00  0.00     0.025 C 
HETATM   17  C23 UNL     1      -0.045  52.635 -21.265  1.00  0.00     0.126 C 
HETATM   18  C24 UNL     1      -0.080  51.700 -22.469  1.00  0.00     0.071 C 
HETATM   19  C25 UNL     1      -1.499  51.335 -22.884  1.00  0.00     0.071 C 
ENDROOT
BRANCH   1  20
HETATM   20  C5  UNL     1      -3.578  48.486 -26.754  1.00  0.00    -0.011 C 
HETATM   21  C6  UNL     1      -3.812  49.281 -28.045  1.00  0.00     0.010 C 
BRANCH  20  22
HETATM   22  C4  UNL     1      -4.907  48.410 -25.949  1.00  0.00     0.009 C 
BRANCH  22  23
HETATM   23  C3  UNL     1      -6.055  47.735 -26.722  1.00  0.00     0.034 C 
BRANCH  23  24
HETATM   24  C2  UNL     1      -7.365  47.510 -25.970  1.00  0.00    -0.083 C 
HETATM   25  C1  UNL     1      -7.417  47.165 -24.669  1.00  0.00     0.015 C 
BRANCH  24  26
HETATM   26  C26 UNL     1      -8.622  47.744 -26.826  1.00  0.00     0.033 C 
HETATM   27  C27 UNL     1      -8.352  48.245 -28.255  1.00  0.00     0.017 C 
BRANCH  26  28
HETATM   28  C28 UNL     1      -9.650  48.665 -26.130  1.00  0.00     0.172 C 
BRANCH  28  29
HETATM   29  O6  UNL     1      -9.357  50.048 -26.291  1.00  0.00    -0.400 OA
HETATM   30  H48 UNL     1      -9.181  50.211 -27.233  1.00  0.00     0.209 HD
ENDBRANCH  28  29
ENDBRANCH  26  28
ENDBRANCH  24  26
ENDBRANCH  23  24
ENDBRANCH  22  23
ENDBRANCH  20  22
ENDBRANCH   1  20
BRANCH   2  31
HETATM   31  O1  UNL     1      -2.330  51.022 -27.466  1.00  0.00    -0.393 OA
HETATM   32  H13 UNL     1      -2.578  50.499 -28.249  1.00  0.00     0.210 HD
ENDBRANCH   2  31
BRANCH   3  33
HETATM   33  O2  UNL     1      -1.385  52.432 -25.612  1.00  0.00    -0.392 OA
HETATM   34  H15 UNL     1      -1.877  52.451 -26.466  1.00  0.00     0.210 HD
ENDBRANCH   3  33
BRANCH  19  35
HETATM   35  O5  UNL     1      -2.179  52.573 -23.135  1.00  0.00    -0.389 OA
HETATM   36  H41 UNL     1      -1.929  52.857 -24.045  1.00  0.00     0.210 HD
ENDBRANCH  19  35
BRANCH  17  37
HETATM   37  O4  UNL     1       1.290  52.625 -20.759  1.00  0.00    -0.395 OA
HETATM   38  H38 UNL     1       1.862  52.996 -21.453  1.00  0.00     0.210 HD
ENDBRANCH  17  37
BRANCH  14  39
HETATM   39  O3  UNL     1       0.567  51.827 -16.795  1.00  0.00    -0.396 OA
HETATM   40  H33 UNL     1       0.992  52.701 -16.743  1.00  0.00     0.210 HD
ENDBRANCH  14  39
TORSDOF 12
ENDMDL
