MODEL 1
REMARK minimizedAffinity -9.90909195
REMARK  6 active torsions:
REMARK  status: ('A' for Active; 'I' for Inactive)
REMARK    1  A    between atoms: C4_4  and  C5_5 
REMARK    2  A    between atoms: C5_5  and  C6_6 
REMARK    3  A    between atoms: C6_6  and  C7_7 
REMARK    4  A    between atoms: C7_7  and  C9_9 
REMARK    5  A    between atoms: C17_17  and  O1_18 
REMARK    6  A    between atoms: C21_22  and  O2_23 
ROOT
HETATM    1  C9  UNL     1      -0.609  52.685 -21.477  1.00  0.00    -0.002 C 
HETATM    2  C10 UNL     1       0.017  52.569 -22.893  1.00  0.00     0.006 C 
HETATM    3  C11 UNL     1      -0.687  51.381 -23.595  1.00  0.00     0.011 C 
HETATM    4  C12 UNL     1      -1.912  51.063 -22.710  1.00  0.00    -0.032 C 
HETATM    5  C13 UNL     1      -3.010  52.107 -23.117  1.00  0.00     0.016 C 
HETATM    6  C14 UNL     1      -2.457  49.596 -22.808  1.00  0.00     0.003 C 
HETATM    7  C15 UNL     1      -2.857  49.231 -24.253  1.00  0.00     0.009 C 
HETATM    8  C16 UNL     1      -4.123  48.405 -24.393  1.00  0.00     0.039 C 
HETATM    9  C17 UNL     1      -5.338  49.004 -23.651  1.00  0.00     0.071 C 
HETATM   10  C18 UNL     1      -4.995  49.521 -22.193  1.00  0.00     0.029 C 
HETATM   11  C19 UNL     1      -6.109  49.206 -21.169  1.00  0.00     0.011 C 
HETATM   12  C20 UNL     1      -7.507  49.460 -21.712  1.00  0.00     0.033 C 
HETATM   13  C21 UNL     1      -7.812  48.792 -23.052  1.00  0.00     0.129 C 
HETATM   14  C22 UNL     1      -6.615  48.073 -23.738  1.00  0.00     0.010 C 
HETATM   15  C23 UNL     1      -6.381  46.658 -23.147  1.00  0.00     0.020 C 
HETATM   16  C24 UNL     1      -7.041  47.816 -25.214  1.00  0.00     0.020 C 
HETATM   17  C25 UNL     1      -3.521  49.224 -21.685  1.00  0.00    -0.033 C 
HETATM   18  C26 UNL     1      -3.389  47.705 -21.348  1.00  0.00     0.016 C 
HETATM   19  C27 UNL     1      -3.204  49.935 -20.297  1.00  0.00     0.011 C 
HETATM   20  C28 UNL     1      -2.466  51.284 -20.279  1.00  0.00     0.011 C 
HETATM   21  C29 UNL     1      -1.309  51.306 -21.281  1.00  0.00    -0.032 C 
HETATM   22  C30 UNL     1      -0.262  50.244 -20.835  1.00  0.00     0.016 C 
ENDROOT
BRANCH   1  23
HETATM   23  C7  UNL     1       0.317  53.239 -20.351  1.00  0.00    -0.014 C 
HETATM   24  C8  UNL     1       1.732  53.410 -20.939  1.00  0.00     0.010 C 
BRANCH  23  25
HETATM   25  C6  UNL     1       0.398  52.382 -19.063  1.00  0.00     0.008 C 
BRANCH  25  26
HETATM   26  C5  UNL     1       1.476  52.830 -18.061  1.00  0.00     0.028 C 
BRANCH  26  27
HETATM   27  C4  UNL     1       1.481  52.082 -16.760  1.00  0.00    -0.025 C 
HETATM   28  C2  UNL     1       2.498  51.975 -15.882  1.00  0.00    -0.091 C 
HETATM   29  C1  UNL     1       2.343  51.164 -14.623  1.00  0.00     0.042 C 
HETATM   30  C3  UNL     1       3.840  52.636 -16.034  1.00  0.00     0.042 C 
ENDBRANCH  26  27
ENDBRANCH  25  26
ENDBRANCH  23  25
ENDBRANCH   1  23
BRANCH   9  31
HETATM   31  O1  UNL     1      -5.678  50.224 -24.366  1.00  0.00    -0.389 OA
HETATM   32  H29 UNL     1      -5.614  50.056 -25.321  1.00  0.00     0.210 HD
ENDBRANCH   9  31
BRANCH  13  33
HETATM   33  O2  UNL     1      -8.908  47.888 -22.883  1.00  0.00    -0.395 OA
HETATM   34  H36 UNL     1      -9.671  48.413 -22.581  1.00  0.00     0.210 HD
ENDBRANCH  13  33
TORSDOF 6
ENDMDL
