MODEL 1
REMARK minimizedAffinity -6.30948877
REMARK CNNscore 0.570421398
REMARK CNNaffinity 5.57666636
REMARK  2 active torsions:
REMARK  status: ('A' for Active; 'I' for Inactive)
REMARK    1  A    between atoms: C13_16  and  C14_17 
REMARK    2  A    between atoms: C14_17  and  O4_19 
ROOT
HETATM    1  C1  UNL     1     -14.717  40.673 -22.575  1.00  0.00     0.046 C 
HETATM    2  C2  UNL     1     -15.987  41.292 -23.090  1.00  0.00    -0.054 C 
HETATM    3  C3  UNL     1     -17.136  40.605 -23.135  1.00  0.00     0.011 C 
HETATM    4  C4  UNL     1     -18.417  41.161 -23.702  1.00  0.00     0.159 C 
HETATM    5  O1  UNL     1     -19.450  40.576 -22.887  1.00  0.00    -0.372 OA
HETATM    6  C5  UNL     1     -20.005  41.407 -21.877  1.00  0.00     0.162 C 
HETATM    7  C6  UNL     1     -18.931  42.029 -20.950  1.00  0.00     0.068 C 
HETATM    8  C7  UNL     1     -18.853  43.490 -21.417  1.00  0.00     0.147 C 
HETATM    9  O2  UNL     1     -17.571  44.119 -21.341  1.00  0.00    -0.312 OA
HETATM   10  C8  UNL     1     -17.597  45.334 -20.723  1.00  0.00     0.283 C 
HETATM   11  O3  UNL     1     -18.396  45.689 -19.865  1.00  0.00    -0.260 OA
HETATM   12  C9  UNL     1     -16.749  46.319 -21.418  1.00  0.00     0.082 C 
HETATM   13  C10 UNL     1     -15.482  46.240 -21.841  1.00  0.00     0.006 C 
HETATM   14  C11 UNL     1     -14.525  45.193 -21.595  1.00  0.00    -0.001 C 
HETATM   15  C12 UNL     1     -13.388  44.992 -22.287  1.00  0.00     0.007 C 
HETATM   16  C13 UNL     1     -12.880  45.624 -23.572  1.00  0.00     0.172 C 
HETATM   17  O5  UNL     1     -13.965  46.162 -24.335  1.00  0.00    -0.379 OA
HETATM   18  C16 UNL     1     -14.138  45.519 -25.602  1.00  0.00     0.173 C 
HETATM   19  C17 UNL     1     -15.442  46.009 -26.250  1.00  0.00     0.060 C 
HETATM   20  C18 UNL     1     -15.825  45.260 -27.518  1.00  0.00    -0.076 C 
HETATM   21  C19 UNL     1     -14.811  45.316 -28.630  1.00  0.00     0.043 C 
HETATM   22  C20 UNL     1     -16.973  44.568 -27.700  1.00  0.00     0.084 C 
HETATM   23  C21 UNL     1     -18.072  44.476 -26.714  1.00  0.00     0.283 C 
HETATM   24  O6  UNL     1     -18.579  45.436 -26.160  1.00  0.00    -0.260 OA
HETATM   25  O7  UNL     1     -18.370  43.167 -26.510  1.00  0.00    -0.317 OA
HETATM   26  C22 UNL     1     -19.259  42.900 -25.404  1.00  0.00     0.195 C 
HETATM   27  C23 UNL     1     -18.540  42.743 -23.991  1.00  0.00     0.053 C 
HETATM   28  C24 UNL     1     -17.145  43.379 -24.037  1.00  0.00     0.170 A 
HETATM   29  O8  UNL     1     -16.243  42.836 -25.022  1.00  0.00    -0.370 OA
HETATM   30  C25 UNL     1     -15.888  42.627 -23.660  1.00  0.00     0.180 A 
HETATM   31  C26 UNL     1     -19.453  43.488 -22.872  1.00  0.00     0.034 C 
HETATM   32  C27 UNL     1     -19.858  44.932 -23.220  1.00  0.00     0.022 C 
HETATM   33  C28 UNL     1     -20.609  42.576 -22.573  1.00  0.00     0.119 A 
HETATM   34  C29 UNL     1     -22.054  42.979 -22.381  1.00  0.00     0.210 A 
HETATM   35  O9  UNL     1     -21.585  42.337 -23.584  1.00  0.00    -0.371 OA
ENDROOT
BRANCH  16  36
HETATM   36  C14 UNL     1     -11.792  46.705 -23.349  1.00  0.00     0.146 C 
HETATM   37  C15 UNL     1     -10.548  46.215 -22.618  1.00  0.00     0.042 C 
BRANCH  36  38
HETATM   38  O4  UNL     1     -11.407  47.307 -24.590  1.00  0.00    -0.393 OA
HETATM   39  H19 UNL     1     -10.806  46.687 -25.038  1.00  0.00     0.210 HD
ENDBRANCH  36  38
ENDBRANCH  16  36
TORSDOF 2
ENDMDL
