MODEL 1
REMARK minimizedAffinity -7.91150951
REMARK CNNscore 0.619306684
REMARK CNNaffinity 6.91544104
REMARK  12 active torsions:
REMARK  status: ('A' for Active; 'I' for Inactive)
REMARK    1  A    between atoms: C2_2  and  C4_4 
REMARK    2  A    between atoms: C4_4  and  C6_6 
REMARK    3  A    between atoms: C7_8  and  C8_9 
REMARK    4  A    between atoms: C8_9  and  O2_11 
REMARK    5  A    between atoms: C8_9  and  C10_12 
REMARK    6  A    between atoms: C13_15  and  O3_16 
REMARK    7  A    between atoms: C19_23  and  O5_24 
REMARK    8  A    between atoms: C20_25  and  O6_26 
REMARK    9  A    between atoms: C27_33  and  C28_34 
REMARK   10  A    between atoms: C28_34  and  C29_35 
REMARK   11  A    between atoms: C29_35  and  C30_36 
REMARK   12  A    between atoms: C34_40  and  O7_41 
ROOT
HETATM    1  C10 UNL     1      -1.552  52.992 -10.959  1.00  0.00     0.034 C 
HETATM    2  C11 UNL     1      -3.023  53.445 -10.849  1.00  0.00     0.012 C 
HETATM    3  C12 UNL     1      -3.633  52.960 -12.152  1.00  0.00     0.044 C 
HETATM    4  C13 UNL     1      -3.108  51.519 -12.266  1.00  0.00     0.090 C 
HETATM    5  C14 UNL     1      -3.897  50.505 -11.425  1.00  0.00    -0.037 C 
HETATM    6  C15 UNL     1      -5.088  50.750 -10.837  1.00  0.00     0.057 C 
HETATM    7  C16 UNL     1      -5.787  49.737 -10.010  1.00  0.00     0.154 C 
HETATM    8  O4  UNL     1      -6.966  49.927  -9.709  1.00  0.00    -0.293 OA
HETATM    9  C17 UNL     1      -4.990  48.522  -9.573  1.00  0.00     0.071 C 
HETATM   10  C18 UNL     1      -5.891  47.445  -8.961  1.00  0.00     0.047 C 
HETATM   11  C19 UNL     1      -5.092  46.210  -8.531  1.00  0.00     0.147 C 
HETATM   12  C20 UNL     1      -4.200  45.647  -9.646  1.00  0.00     0.147 C 
HETATM   13  C21 UNL     1      -3.350  46.744 -10.300  1.00  0.00     0.044 C 
HETATM   14  C22 UNL     1      -4.146  48.003 -10.766  1.00  0.00    -0.023 C 
HETATM   15  C23 UNL     1      -5.049  47.603 -11.971  1.00  0.00     0.016 C 
HETATM   16  C24 UNL     1      -3.199  49.155 -11.279  1.00  0.00     0.027 C 
HETATM   17  C25 UNL     1      -1.973  49.477 -10.422  1.00  0.00     0.011 C 
HETATM   18  C26 UNL     1      -1.010  50.363 -11.214  1.00  0.00     0.014 C 
HETATM   19  C27 UNL     1      -1.573  51.672 -11.855  1.00  0.00     0.002 C 
ENDROOT
BRANCH   1  20
HETATM   20  C8  UNL     1      -0.716  53.197  -9.655  1.00  0.00     0.087 C 
HETATM   21  C9  UNL     1      -1.328  52.410  -8.483  1.00  0.00     0.049 C 
BRANCH  20  22
HETATM   22  C7  UNL     1      -0.516  54.633  -9.226  1.00  0.00     0.185 A 
HETATM   23  C6  UNL     1       0.801  55.386  -9.020  1.00  0.00     0.158 A 
HETATM   24  O1  UNL     1       0.005  55.543 -10.203  1.00  0.00    -0.372 OA
BRANCH  23  25
HETATM   25  C4  UNL     1       2.203  54.896  -9.288  1.00  0.00     0.017 C 
HETATM   26  C5  UNL     1       2.846  54.400  -7.987  1.00  0.00     0.013 C 
BRANCH  25  27
HETATM   27  C2  UNL     1       3.046  55.997 -10.002  1.00  0.00    -0.016 C 
HETATM   28  C1  UNL     1       3.740  56.979  -9.048  1.00  0.00     0.010 C 
HETATM   29  C3  UNL     1       4.092  55.378 -10.938  1.00  0.00     0.010 C 
ENDBRANCH  25  27
ENDBRANCH  23  25
ENDBRANCH  20  22
BRANCH  20  30
HETATM   30  O2  UNL     1       0.559  52.574  -9.881  1.00  0.00    -0.387 OA
HETATM   31  H17 UNL     1       0.412  51.659 -10.176  1.00  0.00     0.210 HD
ENDBRANCH  20  30
ENDBRANCH   1  20
BRANCH  19  32
HETATM   32  C28 UNL     1      -0.617  51.886 -13.112  1.00  0.00     0.018 C 
BRANCH  32  33
HETATM   33  C29 UNL     1       0.678  51.072 -13.257  1.00  0.00     0.039 C 
BRANCH  33  34
HETATM   34  C30 UNL     1       1.522  51.614 -14.394  1.00  0.00    -0.056 A 
HETATM   35  C31 UNL     1       2.921  51.645 -14.302  1.00  0.00     0.007 A 
HETATM   36  C32 UNL     1       3.685  52.141 -15.359  1.00  0.00     0.003 A 
HETATM   37  C33 UNL     1       3.064  52.595 -16.525  1.00  0.00     0.036 A 
HETATM   38  C34 UNL     1       1.676  52.551 -16.620  1.00  0.00     0.066 A 
HETATM   39  C35 UNL     1       0.904  52.068 -15.567  1.00  0.00     0.043 A 
BRANCH  38  40
HETATM   40  O7  UNL     1       1.027  52.979 -17.741  1.00  0.00    -0.361 OA
HETATM   41  H49 UNL     1       1.686  53.187 -18.420  1.00  0.00     0.217 HD
ENDBRANCH  38  40
ENDBRANCH  33  34
ENDBRANCH  32  33
ENDBRANCH  19  32
BRANCH   4  42
HETATM   42  O3  UNL     1      -3.230  51.084 -13.617  1.00  0.00    -0.384 OA
HETATM   43  H23 UNL     1      -4.146  50.802 -13.760  1.00  0.00     0.211 HD
ENDBRANCH   4  42
BRANCH  12  44
HETATM   44  O6  UNL     1      -4.994  44.980 -10.629  1.00  0.00    -0.393 OA
HETATM   45  H31 UNL     1      -5.304  44.154 -10.211  1.00  0.00     0.210 HD
ENDBRANCH  12  44
BRANCH  11  46
HETATM   46  O5  UNL     1      -5.991  45.198  -8.076  1.00  0.00    -0.393 OA
HETATM   47  H29 UNL     1      -6.670  45.096  -8.771  1.00  0.00     0.210 HD
ENDBRANCH  11  46
TORSDOF 12
ENDMDL
