MODEL 1
REMARK minimizedAffinity -7.12422562
REMARK CNNscore 0.830474019
REMARK CNNaffinity 7.17801857
REMARK  6 active torsions:
REMARK  status: ('A' for Active; 'I' for Inactive)
REMARK    1  A    between atoms: C4_4  and  C5_5 
REMARK    2  A    between atoms: C5_5  and  C6_6 
REMARK    3  A    between atoms: C6_6  and  C7_7 
REMARK    4  A    between atoms: C7_7  and  C9_9 
REMARK    5  A    between atoms: C17_17  and  O1_18 
REMARK    6  A    between atoms: C21_22  and  O2_23 
ROOT
HETATM    1  C9  UNL     1       4.181  54.531  -8.326  1.00  0.00    -0.002 C 
HETATM    2  C10 UNL     1       3.891  54.205  -6.836  1.00  0.00     0.006 C 
HETATM    3  C11 UNL     1       2.370  53.933  -6.727  1.00  0.00     0.011 C 
HETATM    4  C12 UNL     1       1.886  53.781  -8.185  1.00  0.00    -0.032 C 
HETATM    5  C13 UNL     1       2.239  52.308  -8.596  1.00  0.00     0.016 C 
HETATM    6  C14 UNL     1       0.370  54.092  -8.433  1.00  0.00     0.003 C 
HETATM    7  C15 UNL     1      -0.546  53.195  -7.574  1.00  0.00     0.009 C 
HETATM    8  C16 UNL     1      -1.801  52.689  -8.263  1.00  0.00     0.039 C 
HETATM    9  C17 UNL     1      -1.528  52.007  -9.623  1.00  0.00     0.071 C 
HETATM   10  C18 UNL     1      -0.500  52.800 -10.530  1.00  0.00     0.029 C 
HETATM   11  C19 UNL     1      -0.895  52.797 -12.024  1.00  0.00     0.011 C 
HETATM   12  C20 UNL     1      -1.387  51.442 -12.509  1.00  0.00     0.033 C 
HETATM   13  C21 UNL     1      -2.496  50.816 -11.664  1.00  0.00     0.129 C 
HETATM   14  C22 UNL     1      -2.862  51.577 -10.357  1.00  0.00     0.010 C 
HETATM   15  C23 UNL     1      -3.818  52.766 -10.635  1.00  0.00     0.020 C 
HETATM   16  C24 UNL     1      -3.704  50.590  -9.493  1.00  0.00     0.020 C 
HETATM   17  C25 UNL     1      -0.026  54.207  -9.970  1.00  0.00    -0.033 C 
HETATM   18  C26 UNL     1      -1.191  55.237 -10.116  1.00  0.00     0.016 C 
HETATM   19  C27 UNL     1       1.139  54.846 -10.844  1.00  0.00     0.011 C 
HETATM   20  C28 UNL     1       2.605  54.675 -10.410  1.00  0.00     0.011 C 
HETATM   21  C29 UNL     1       2.770  54.863  -8.899  1.00  0.00    -0.032 C 
HETATM   22  C30 UNL     1       2.393  56.334  -8.551  1.00  0.00     0.016 C 
ENDROOT
BRANCH   1  23
HETATM   23  C7  UNL     1       5.368  55.503  -8.606  1.00  0.00    -0.014 C 
HETATM   24  C8  UNL     1       6.422  54.741  -9.435  1.00  0.00     0.010 C 
BRANCH  23  25
HETATM   25  C6  UNL     1       6.046  56.117  -7.355  1.00  0.00     0.008 C 
BRANCH  25  26
HETATM   26  C5  UNL     1       7.467  55.596  -7.076  1.00  0.00     0.028 C 
BRANCH  26  27
HETATM   27  C4  UNL     1       7.735  55.223  -5.647  1.00  0.00    -0.025 C 
HETATM   28  C2  UNL     1       8.785  55.593  -4.889  1.00  0.00    -0.091 C 
HETATM   29  C1  UNL     1       8.914  55.112  -3.467  1.00  0.00     0.042 C 
HETATM   30  C3  UNL     1       9.894  56.504  -5.338  1.00  0.00     0.042 C 
ENDBRANCH  26  27
ENDBRANCH  25  26
ENDBRANCH  23  25
ENDBRANCH   1  23
BRANCH   9  31
HETATM   31  O1  UNL     1      -0.820  50.775  -9.314  1.00  0.00    -0.389 OA
HETATM   32  H29 UNL     1      -1.234  50.362  -8.537  1.00  0.00     0.210 HD
ENDBRANCH   9  31
BRANCH  13  33
HETATM   33  O2  UNL     1      -3.657  50.635 -12.480  1.00  0.00    -0.395 OA
HETATM   34  H36 UNL     1      -3.407  50.041 -13.210  1.00  0.00     0.210 HD
ENDBRANCH  13  33
TORSDOF 6
ENDMDL
