MODEL 1
REMARK minimizedAffinity -8.34986877
REMARK CNNscore 0.382744193
REMARK CNNaffinity 6.76946592
REMARK  8 active torsions:
REMARK  status: ('A' for Active; 'I' for Inactive)
REMARK    1  A    between atoms: C2_2  and  C3_3 
REMARK    2  A    between atoms: C2_2  and  C9_12 
REMARK    3  A    between atoms: C3_3  and  C4_4 
REMARK    4  A    between atoms: C4_4  and  C5_5 
REMARK    5  A    between atoms: C6_6  and  C7_7 
REMARK    6  A    between atoms: C6_6  and  C8_9 
REMARK    7  A    between atoms: C7_7  and  O1_8 
REMARK    8  A    between atoms: C8_9  and  O3_11 
ROOT
HETATM    1  C9  UNL     1      -9.500   8.480  14.342  1.00  0.00    -0.002 C 
HETATM    2  C10 UNL     1      -8.624   9.130  15.415  1.00  0.00     0.006 C 
HETATM    3  C11 UNL     1      -7.236   8.626  15.039  1.00  0.00     0.006 C 
HETATM    4  C12 UNL     1      -7.447   7.148  14.682  1.00  0.00    -0.001 C 
HETATM    5  C13 UNL     1      -6.506   6.629  13.576  1.00  0.00    -0.000 C 
HETATM    6  C14 UNL     1      -5.029   6.754  13.939  1.00  0.00     0.006 C 
HETATM    7  C15 UNL     1      -4.167   6.080  12.874  1.00  0.00     0.007 C 
HETATM    8  C16 UNL     1      -4.336   4.547  12.906  1.00  0.00     0.010 C 
HETATM    9  C17 UNL     1      -3.414   3.797  11.878  1.00  0.00     0.018 C 
HETATM   10  C18 UNL     1      -3.058   2.386  12.398  1.00  0.00     0.023 C 
HETATM   11  C19 UNL     1      -2.063   4.521  11.663  1.00  0.00     0.023 C 
HETATM   12  C20 UNL     1      -4.087   3.649  10.504  1.00  0.00     0.135 C 
HETATM   13  O4  UNL     1      -3.428   3.603   9.463  1.00  0.00    -0.297 OA
HETATM   14  C21 UNL     1      -5.590   3.553  10.428  1.00  0.00     0.080 C 
HETATM   15  C22 UNL     1      -6.186   3.146  11.756  1.00  0.00     0.018 C 
HETATM   16  C23 UNL     1      -5.839   4.171  12.813  1.00  0.00    -0.026 A 
HETATM   17  C24 UNL     1      -6.562   4.062  14.139  1.00  0.00     0.021 A 
HETATM   18  C25 UNL     1      -6.923   5.207  13.215  1.00  0.00    -0.028 A 
HETATM   19  C26 UNL     1      -8.328   5.153  12.616  1.00  0.00     0.011 C 
HETATM   20  C27 UNL     1      -9.147   6.422  12.878  1.00  0.00     0.011 C 
HETATM   21  C28 UNL     1      -8.964   7.007  14.298  1.00  0.00    -0.036 C 
HETATM   22  C29 UNL     1      -9.644   6.078  15.325  1.00  0.00     0.016 C 
ENDROOT
BRANCH   1  23
HETATM   23  C2  UNL     1     -11.039   8.660  14.467  1.00  0.00    -0.014 C 
HETATM   24  C1  UNL     1     -11.629   9.788  13.618  1.00  0.00     0.010 C 
BRANCH  23  25
HETATM   25  C3  UNL     1     -11.797   7.320  14.260  1.00  0.00     0.008 C 
BRANCH  25  26
HETATM   26  C4  UNL     1     -12.781   7.229  13.085  1.00  0.00     0.028 C 
BRANCH  26  27
HETATM   27  C5  UNL     1     -14.130   6.691  13.481  1.00  0.00    -0.011 C 
HETATM   28  C6  UNL     1     -15.353   7.136  13.126  1.00  0.00     0.035 C 
BRANCH  28  29
HETATM   29  C7  UNL     1     -16.614   6.481  13.615  1.00  0.00     0.209 C 
BRANCH  29  30
HETATM   30  O1  UNL     1     -17.059   5.504  12.680  1.00  0.00    -0.396 OA
HETATM   31  H12 UNL     1     -16.297   4.910  12.532  1.00  0.00     0.209 HD
ENDBRANCH  29  30
ENDBRANCH  28  29
BRANCH  28  32
HETATM   32  C8  UNL     1     -15.534   8.261  12.185  1.00  0.00     0.173 C 
HETATM   33  O2  UNL     1     -15.770   8.201  10.994  1.00  0.00    -0.646 OA
BRANCH  32  34
HETATM   34  O3  UNL     1     -15.406   9.446  12.815  1.00  0.00    -0.773 OA
HETATM   35  H13 UNL     1     -15.525  10.098  12.089  1.00  0.00     0.167 HD
ENDBRANCH  32  34
ENDBRANCH  28  32
ENDBRANCH  26  27
ENDBRANCH  25  26
ENDBRANCH  23  25
ENDBRANCH   1  23
TORSDOF 8
ENDMDL
