MODEL 1
REMARK minimizedAffinity -9.74520302
REMARK  7 active torsions:
REMARK  status: ('A' for Active; 'I' for Inactive)
REMARK    1  A    between atoms: C2_2  and  C30_33 
REMARK    2  A    between atoms: C3_3  and  C4_4 
REMARK    3  A    between atoms: C4_4  and  C5_5 
REMARK    4  A    between atoms: C5_5  and  C6_6 
REMARK    5  A    between atoms: C6_6  and  C8_8 
REMARK    6  A    between atoms: C19_20  and  O2_21 
REMARK    7  A    between atoms: C30_33  and  O5_35 
ROOT
HETATM    1  C8  UNL     1      -0.585  52.195 -20.431  1.00  0.00    -0.002 C 
HETATM    2  C9  UNL     1       0.077  51.630 -19.144  1.00  0.00     0.007 C 
HETATM    3  C10 UNL     1      -0.841  50.484 -18.647  1.00  0.00     0.018 C 
HETATM    4  C11 UNL     1      -2.117  50.613 -19.497  1.00  0.00     0.025 C 
HETATM    5  C12 UNL     1      -3.009  51.658 -18.772  1.00  0.00     0.024 C 
HETATM    6  C13 UNL     1      -2.958  49.343 -19.692  1.00  0.00     0.147 C 
HETATM    7  O1  UNL     1      -2.818  48.394 -18.918  1.00  0.00    -0.296 OA
HETATM    8  C14 UNL     1      -4.064  49.352 -20.819  1.00  0.00     0.055 C 
HETATM    9  C15 UNL     1      -3.577  50.178 -22.058  1.00  0.00     0.021 C 
HETATM   10  C16 UNL     1      -2.670  51.397 -21.810  1.00  0.00     0.012 C 
HETATM   11  C17 UNL     1      -1.516  51.031 -20.872  1.00  0.00    -0.026 C 
HETATM   12  C18 UNL     1      -0.678  49.897 -21.536  1.00  0.00     0.016 C 
HETATM   13  C19 UNL     1      -5.364  49.910 -20.128  1.00  0.00     0.135 C 
HETATM   14  C20 UNL     1      -6.372  48.756 -19.973  1.00  0.00     0.039 C 
HETATM   15  C21 UNL     1      -5.518  47.502 -20.110  1.00  0.00     0.012 C 
HETATM   16  C22 UNL     1      -6.239  46.133 -20.237  1.00  0.00     0.018 C 
HETATM   17  C23 UNL     1      -6.500  45.559 -18.827  1.00  0.00     0.023 C 
HETATM   18  C24 UNL     1      -7.594  46.189 -20.959  1.00  0.00     0.023 C 
HETATM   19  C25 UNL     1      -5.283  45.161 -20.948  1.00  0.00     0.135 C 
HETATM   20  O3  UNL     1      -5.687  44.168 -21.555  1.00  0.00    -0.297 OA
HETATM   21  C26 UNL     1      -3.799  45.444 -20.815  1.00  0.00     0.080 C 
HETATM   22  C27 UNL     1      -3.414  46.810 -21.388  1.00  0.00     0.018 C 
HETATM   23  C28 UNL     1      -4.534  47.879 -21.257  1.00  0.00    -0.022 C 
HETATM   24  C29 UNL     1      -5.259  47.913 -22.640  1.00  0.00     0.017 C 
ENDROOT
BRANCH  13  25
HETATM   25  O2  UNL     1      -5.954  51.006 -20.809  1.00  0.00    -0.394 OA
HETATM   26  H29 UNL     1      -6.412  50.676 -21.599  1.00  0.00     0.210 HD
ENDBRANCH  13  25
BRANCH   1  27
HETATM   27  C6  UNL     1       0.360  52.869 -21.469  1.00  0.00    -0.014 C 
HETATM   28  C7  UNL     1       1.683  53.230 -20.764  1.00  0.00     0.010 C 
BRANCH  27  29
HETATM   29  C5  UNL     1       0.661  52.053 -22.748  1.00  0.00     0.008 C 
BRANCH  29  30
HETATM   30  C4  UNL     1       0.128  52.707 -24.031  1.00  0.00     0.028 C 
BRANCH  30  31
HETATM   31  C3  UNL     1       0.840  52.184 -25.251  1.00  0.00    -0.013 C 
HETATM   32  C2  UNL     1       0.651  52.525 -26.542  1.00  0.00     0.008 C 
HETATM   33  C1  UNL     1       1.441  51.878 -27.644  1.00  0.00     0.055 C 
BRANCH  32  34
HETATM   34  C30 UNL     1      -0.299  53.593 -26.940  1.00  0.00     0.171 C 
HETATM   35  O4  UNL     1      -1.404  53.458 -27.436  1.00  0.00    -0.646 OA
BRANCH  34  36
HETATM   36  O5  UNL     1       0.185  54.818 -26.667  1.00  0.00    -0.773 OA
HETATM   37  H46 UNL     1      -0.535  55.412 -26.959  1.00  0.00     0.167 HD
ENDBRANCH  34  36
ENDBRANCH  32  34
ENDBRANCH  30  31
ENDBRANCH  29  30
ENDBRANCH  27  29
ENDBRANCH   1  27
TORSDOF 7
ENDMDL
