MODEL 1
REMARK minimizedAffinity -9.38095093
REMARK  6 active torsions:
REMARK  status: ('A' for Active; 'I' for Inactive)
REMARK    1  A    between atoms: C2_2  and  C30_31 
REMARK    2  A    between atoms: C3_3  and  C4_4 
REMARK    3  A    between atoms: C4_4  and  C5_5 
REMARK    4  A    between atoms: C5_5  and  C6_6 
REMARK    5  A    between atoms: C6_6  and  C8_8 
REMARK    6  A    between atoms: C30_31  and  O3_33 
ROOT
HETATM    1  C8  UNL     1      -4.019   7.518  15.385  1.00  0.00    -0.002 C 
HETATM    2  C9  UNL     1      -3.757   9.014  15.747  1.00  0.00     0.007 C 
HETATM    3  C10 UNL     1      -2.494   9.462  14.976  1.00  0.00     0.015 C 
HETATM    4  C11 UNL     1      -1.873   8.153  14.461  1.00  0.00    -0.013 C 
HETATM    5  C12 UNL     1      -1.064   7.548  15.664  1.00  0.00     0.021 C 
HETATM    6  C13 UNL     1      -0.881   8.210  13.291  1.00  0.00    -0.070 C 
HETATM    7  C14 UNL     1       0.129   9.094  13.303  1.00  0.00    -0.022 C 
HETATM    8  C15 UNL     1       1.329   8.998  12.424  1.00  0.00     0.034 C 
HETATM    9  C16 UNL     1       1.572   7.568  11.870  1.00  0.00     0.013 C 
HETATM   10  C17 UNL     1       2.829   7.504  10.917  1.00  0.00     0.018 C 
HETATM   11  C18 UNL     1       3.606   6.188  11.159  1.00  0.00     0.023 C 
HETATM   12  C19 UNL     1       3.845   8.646  11.122  1.00  0.00     0.023 C 
HETATM   13  C20 UNL     1       2.390   7.579   9.449  1.00  0.00     0.135 C 
HETATM   14  O1  UNL     1       3.075   7.111   8.537  1.00  0.00    -0.297 OA
HETATM   15  C21 UNL     1       1.125   8.342   9.137  1.00  0.00     0.080 C 
HETATM   16  C22 UNL     1      -0.075   7.918   9.982  1.00  0.00     0.017 C 
HETATM   17  C23 UNL     1       0.252   7.019  11.221  1.00  0.00    -0.031 C 
HETATM   18  C24 UNL     1       0.397   5.567  10.701  1.00  0.00     0.016 C 
HETATM   19  C25 UNL     1      -0.978   7.098  12.237  1.00  0.00     0.024 C 
HETATM   20  C26 UNL     1      -1.411   5.785  12.934  1.00  0.00     0.010 C 
HETATM   21  C27 UNL     1      -2.737   5.895  13.739  1.00  0.00     0.011 C 
HETATM   22  C28 UNL     1      -3.163   7.341  14.086  1.00  0.00    -0.029 C 
HETATM   23  C29 UNL     1      -3.975   7.966  12.903  1.00  0.00     0.016 C 
ENDROOT
BRANCH   1  24
HETATM   24  C6  UNL     1      -5.533   7.162  15.362  1.00  0.00    -0.014 C 
HETATM   25  C7  UNL     1      -6.373   8.223  14.644  1.00  0.00     0.010 C 
BRANCH  24  26
HETATM   26  C5  UNL     1      -5.817   5.761  14.759  1.00  0.00     0.008 C 
BRANCH  26  27
HETATM   27  C4  UNL     1      -6.686   5.753  13.495  1.00  0.00     0.028 C 
BRANCH  27  28
HETATM   28  C3  UNL     1      -7.010   4.341  13.083  1.00  0.00    -0.013 C 
HETATM   29  C2  UNL     1      -6.234   3.476  12.398  1.00  0.00     0.008 C 
HETATM   30  C1  UNL     1      -4.846   3.734  11.890  1.00  0.00     0.055 C 
BRANCH  29  31
HETATM   31  C30 UNL     1      -6.820   2.135  12.133  1.00  0.00     0.171 C 
HETATM   32  O2  UNL     1      -6.316   1.233  11.486  1.00  0.00    -0.646 OA
BRANCH  31  33
HETATM   33  O3  UNL     1      -8.029   1.984  12.696  1.00  0.00    -0.773 OA
HETATM   34  H46 UNL     1      -8.285   1.074  12.441  1.00  0.00     0.167 HD
ENDBRANCH  31  33
ENDBRANCH  29  31
ENDBRANCH  27  28
ENDBRANCH  26  27
ENDBRANCH  24  26
ENDBRANCH   1  24
TORSDOF 6
ENDMDL
