MODEL 1
REMARK minimizedAffinity -7.74655247
REMARK CNNscore 0.645745575
REMARK CNNaffinity 7.22251463
REMARK  20 active torsions:
REMARK  status: ('A' for Active; 'I' for Inactive)
REMARK    1  A    between atoms: C2_2  and  C18_26 
REMARK    2  A    between atoms: C3_3  and  C4_4 
REMARK    3  A    between atoms: C4_4  and  O2_6 
REMARK    4  A    between atoms: O2_6  and  C5_7 
REMARK    5  A    between atoms: C5_7  and  C6_8 
REMARK    6  A    between atoms: C6_8  and  C7_9 
REMARK    7  A    between atoms: C7_9  and  C8_10 
REMARK    8  A    between atoms: C8_10  and  C9_11 
REMARK    9  A    between atoms: C9_11  and  C10_12 
REMARK   10  A    between atoms: C10_12  and  C11_13 
REMARK   11  A    between atoms: C11_13  and  C12_14 
REMARK       I    between atoms: C12_14  and  N1_16 
REMARK   12  A    between atoms: N1_16  and  C13_17 
REMARK   13  A    between atoms: C18_26  and  C19_27 
REMARK   14  A    between atoms: C21_29  and  O5_30 
REMARK   15  A    between atoms: C22_31  and  O6_32 
REMARK   16  A    between atoms: C22_31  and  C23_33 
REMARK   17  A    between atoms: C23_33  and  C24_34 
REMARK   18  A    between atoms: C25_35  and  C26_36 
REMARK   19  A    between atoms: C26_36  and  C28_38 
REMARK   20  A    between atoms: C28_38  and  O7_40 
ROOT
HETATM    1  C4  UNL     1      -5.303  48.164 -30.052  1.00  0.00     0.283 C 
HETATM    2  O1  UNL     1      -5.020  49.043 -30.846  1.00  0.00    -0.260 OA
ENDROOT
BRANCH   1   3
HETATM    3  C3  UNL     1      -6.538  47.342 -30.063  1.00  0.00     0.084 C 
HETATM    4  C2  UNL     1      -7.332  47.101 -28.998  1.00  0.00    -0.076 C 
HETATM    5  C1  UNL     1      -7.100  47.688 -27.626  1.00  0.00     0.043 C 
BRANCH   4   6
HETATM    6  C18 UNL     1      -8.586  46.233 -29.057  1.00  0.00     0.066 C 
BRANCH   6   7
HETATM    7  C19 UNL     1      -9.486  46.113 -27.803  1.00  0.00     0.128 C 
HETATM    8  C20 UNL     1     -10.398  47.333 -27.653  1.00  0.00     0.067 C 
HETATM    9  C21 UNL     1     -11.511  47.354 -28.704  1.00  0.00     0.157 C 
HETATM   10  C22 UNL     1     -12.239  45.977 -28.806  1.00  0.00     0.108 C 
HETATM   11  C30 UNL     1     -11.635  44.985 -27.785  1.00  0.00     0.209 C 
HETATM   12  O8  UNL     1     -10.210  44.882 -27.872  1.00  0.00    -0.382 OA
BRANCH   9  13
HETATM   13  O5  UNL     1     -12.361  48.448 -28.362  1.00  0.00    -0.392 OA
HETATM   14  H28 UNL     1     -12.804  48.744 -29.187  1.00  0.00     0.210 HD
ENDBRANCH   9  13
BRANCH  10  15
HETATM   15  O6  UNL     1     -11.971  45.422 -30.118  1.00  0.00    -0.385 OA
HETATM   16  H29 UNL     1     -12.249  46.079 -30.781  1.00  0.00     0.210 HD
ENDBRANCH  10  15
BRANCH  10  17
HETATM   17  C23 UNL     1     -13.782  45.995 -28.608  1.00  0.00     0.069 C 
BRANCH  17  18
HETATM   18  C24 UNL     1     -14.239  46.725 -27.373  1.00  0.00    -0.027 C 
HETATM   19  C25 UNL     1     -14.980  46.164 -26.404  1.00  0.00    -0.024 C 
BRANCH  19  20
HETATM   20  C26 UNL     1     -15.234  46.835 -25.072  1.00  0.00     0.032 C 
HETATM   21  C27 UNL     1     -16.699  46.685 -24.667  1.00  0.00     0.017 C 
BRANCH  20  22
HETATM   22  C28 UNL     1     -14.255  46.317 -23.984  1.00  0.00     0.121 C 
HETATM   23  C29 UNL     1     -13.386  45.134 -24.399  1.00  0.00     0.040 C 
BRANCH  22  24
HETATM   24  O7  UNL     1     -13.390  47.392 -23.578  1.00  0.00    -0.395 OA
HETATM   25  H42 UNL     1     -12.855  47.059 -22.835  1.00  0.00     0.210 HD
ENDBRANCH  22  24
ENDBRANCH  20  22
ENDBRANCH  19  20
ENDBRANCH  17  18
ENDBRANCH  10  17
ENDBRANCH   6   7
ENDBRANCH   4   6
ENDBRANCH   1   3
BRANCH   1  26
HETATM   26  O2  UNL     1      -4.543  47.750 -29.004  1.00  0.00    -0.318 OA
BRANCH  26  27
HETATM   27  C5  UNL     1      -4.278  48.748 -28.007  1.00  0.00     0.179 C 
BRANCH  27  28
HETATM   28  C6  UNL     1      -3.017  48.373 -27.226  1.00  0.00     0.027 C 
BRANCH  28  29
HETATM   29  C7  UNL     1      -3.156  48.719 -25.738  1.00  0.00     0.002 C 
BRANCH  29  30
HETATM   30  C8  UNL     1      -2.101  49.707 -25.235  1.00  0.00     0.000 C 
BRANCH  30  31
HETATM   31  C9  UNL     1      -1.325  50.470 -26.310  1.00  0.00     0.000 C 
BRANCH  31  32
HETATM   32  C10 UNL     1       0.036  51.039 -25.894  1.00  0.00     0.009 C 
BRANCH  32  33
HETATM   33  C11 UNL     1       0.032  52.463 -25.343  1.00  0.00     0.103 C 
BRANCH  33  34
HETATM   34  C12 UNL     1      -0.408  52.589 -23.892  1.00  0.00     0.222 C 
HETATM   35  O3  UNL     1      -1.580  52.692 -23.557  1.00  0.00    -0.273 OA
HETATM   36  N1  UNL     1       0.675  52.557 -23.037  1.00  0.00    -0.321 N 
HETATM   37  H19 UNL     1       1.574  52.303 -23.442  1.00  0.00     0.169 HD
BRANCH  36  38
HETATM   38  C13 UNL     1       0.707  52.696 -21.675  1.00  0.00     0.123 A 
HETATM   39  C14 UNL     1       0.318  51.984 -20.610  1.00  0.00     0.071 A 
HETATM   40  S1  UNL     1      -0.475  50.489 -20.379  1.00  0.00    -0.049 SA
HETATM   41  C16 UNL     1       0.623  52.687 -19.395  1.00  0.00     0.062 A 
HETATM   42  S2  UNL     1      -0.460  50.597 -18.303  1.00  0.00    -0.062 SA
HETATM   43  C15 UNL     1       0.315  52.153 -18.219  1.00  0.00     0.088 A 
HETATM   44  N2  UNL     1       1.213  53.857 -19.726  1.00  0.00    -0.320 N 
HETATM   45  C17 UNL     1       1.310  53.953 -21.095  1.00  0.00     0.274 A 
HETATM   46  H21 UNL     1       1.555  54.565 -19.092  1.00  0.00     0.169 HD
HETATM   47  O4  UNL     1       1.790  54.863 -21.750  1.00  0.00    -0.266 OA
ENDBRANCH  36  38
ENDBRANCH  33  34
ENDBRANCH  32  33
ENDBRANCH  31  32
ENDBRANCH  30  31
ENDBRANCH  29  30
ENDBRANCH  28  29
ENDBRANCH  27  28
ENDBRANCH  26  27
ENDBRANCH   1  26
TORSDOF 20
ENDMDL
