MODEL 1
REMARK minimizedAffinity -10.1661167
REMARK CNNscore 0.651946664
REMARK CNNaffinity 6.58011675
REMARK  8 active torsions:
REMARK  status: ('A' for Active; 'I' for Inactive)
REMARK    1  A    between atoms: C11_11  and  O1_12 
REMARK    2  A    between atoms: O1_12  and  C12_13 
REMARK    3  A    between atoms: C14_16  and  O3_17 
REMARK    4  A    between atoms: C15_18  and  O4_19 
REMARK    5  A    between atoms: C16_20  and  O5_21 
REMARK    6  A    between atoms: C19_24  and  C20_25 
REMARK    7  A    between atoms: C21_27  and  O7_28 
REMARK    8  A    between atoms: C24_31  and  C25_32 
ROOT
HETATM    1  C1  UNL     1      -1.819  51.388 -18.568  1.00  0.00     0.019 C 
HETATM    2  C2  UNL     1      -2.188  50.831 -19.968  1.00  0.00    -0.005 C 
HETATM    3  C3  UNL     1      -3.411  51.635 -20.457  1.00  0.00     0.013 C 
HETATM    4  C4  UNL     1      -4.072  51.091 -21.718  1.00  0.00     0.007 C 
HETATM    5  C5  UNL     1      -4.396  49.580 -21.676  1.00  0.00     0.012 C 
HETATM    6  C6  UNL     1      -3.970  48.931 -20.325  1.00  0.00     0.027 C 
HETATM    7  C7  UNL     1      -4.224  47.406 -20.349  1.00  0.00     0.012 C 
HETATM    8  C8  UNL     1      -5.672  47.062 -20.690  1.00  0.00     0.036 C 
HETATM    9  C9  UNL     1      -6.082  47.728 -21.982  1.00  0.00    -0.065 C 
HETATM   10  C10 UNL     1      -6.525  46.979 -23.009  1.00  0.00     0.009 C 
HETATM   11  C11 UNL     1      -6.795  47.494 -24.390  1.00  0.00     0.148 C 
HETATM   12  C17 UNL     1      -5.990  48.773 -24.619  1.00  0.00     0.037 C 
HETATM   13  C18 UNL     1      -6.234  49.782 -23.496  1.00  0.00     0.024 C 
HETATM   14  C19 UNL     1      -5.878  49.245 -22.070  1.00  0.00     0.040 C 
HETATM   15  C21 UNL     1      -2.507  49.280 -19.922  1.00  0.00     0.070 C 
HETATM   16  C22 UNL     1      -1.435  48.609 -20.803  1.00  0.00     0.040 C 
HETATM   17  C23 UNL     1      -0.268  49.583 -20.784  1.00  0.00     0.013 C 
HETATM   18  C24 UNL     1      -0.965  50.939 -20.950  1.00  0.00     0.028 C 
ENDROOT
BRANCH  11  19
HETATM   19  O1  UNL     1      -8.179  47.812 -24.514  1.00  0.00    -0.349 OA
BRANCH  19  20
HETATM   20  C12 UNL     1      -8.657  47.830 -25.864  1.00  0.00     0.291 C 
HETATM   21  O2  UNL     1      -8.829  46.515 -26.402  1.00  0.00    -0.356 OA
HETATM   22  C13 UNL     1     -10.112  45.962 -26.088  1.00  0.00     0.205 C 
HETATM   23  C14 UNL     1     -11.190  46.699 -26.891  1.00  0.00     0.173 C 
HETATM   24  C15 UNL     1     -10.863  48.200 -27.019  1.00  0.00     0.182 C 
HETATM   25  C16 UNL     1      -9.965  48.657 -25.870  1.00  0.00     0.204 C 
BRANCH  23  26
HETATM   26  O3  UNL     1     -11.273  46.117 -28.204  1.00  0.00    -0.391 OA
HETATM   27  H20 UNL     1     -10.386  46.166 -28.604  1.00  0.00     0.210 HD
ENDBRANCH  23  26
BRANCH  24  28
HETATM   28  O4  UNL     1     -12.074  48.972 -27.003  1.00  0.00    -0.390 OA
HETATM   29  H22 UNL     1     -11.783  49.905 -26.962  1.00  0.00     0.210 HD
ENDBRANCH  24  28
BRANCH  25  30
HETATM   30  O5  UNL     1      -9.693  50.064 -25.996  1.00  0.00    -0.388 OA
HETATM   31  H24 UNL     1      -9.228  50.324 -25.179  1.00  0.00     0.210 HD
ENDBRANCH  25  30
ENDBRANCH  19  20
ENDBRANCH  11  19
BRANCH  14  32
HETATM   32  C20 UNL     1      -6.851  49.971 -21.108  1.00  0.00     0.245 C 
HETATM   33  O6  UNL     1      -7.154  49.611 -19.974  1.00  0.00    -0.306 OA
ENDBRANCH  14  32
BRANCH  15  34
HETATM   34  O7  UNL     1      -2.299  48.809 -18.583  1.00  0.00    -0.389 OA
HETATM   35  H30 UNL     1      -2.269  47.837 -18.583  1.00  0.00     0.210 HD
ENDBRANCH  15  34
BRANCH  18  36
HETATM   36  C25 UNL     1      -0.051  52.131 -20.832  1.00  0.00    -0.045 A 
HETATM   37  C26 UNL     1       0.502  52.855 -21.807  1.00  0.00     0.087 A 
HETATM   38  C27 UNL     1       1.231  53.952 -21.178  1.00  0.00     0.283 A 
HETATM   39  O8  UNL     1       1.843  54.815 -21.780  1.00  0.00    -0.260 OA
HETATM   40  O9  UNL     1       1.096  53.861 -19.828  1.00  0.00    -0.314 OA
HETATM   41  C28 UNL     1       0.308  52.714 -19.515  1.00  0.00     0.213 A 
ENDBRANCH  18  36
TORSDOF 8
ENDMDL
