MODEL 1
REMARK minimizedAffinity -10.3329277
REMARK  8 active torsions:
REMARK  status: ('A' for Active; 'I' for Inactive)
REMARK    1  A    between atoms: C2_2  and  C4_4 
REMARK    2  A    between atoms: C4_4  and  C6_6 
REMARK    3  A    between atoms: C7_7  and  C8_8 
REMARK    4  A    between atoms: C8_8  and  O1_10 
REMARK    5  A    between atoms: C8_8  and  C10_11 
REMARK    6  A    between atoms: C11_12  and  O2_13 
REMARK    7  A    between atoms: C27_30  and  C28_31 
REMARK    8  A    between atoms: C28_31  and  O4_32 
ROOT
HETATM    1  C10 UNL     1      -2.109   5.039  11.682  1.00  0.00     0.063 C 
HETATM    2  C11 UNL     1      -2.689   3.657  11.239  1.00  0.00     0.126 C 
HETATM    3  C12 UNL     1      -4.127   3.587  11.785  1.00  0.00     0.038 C 
HETATM    4  C13 UNL     1      -4.362   4.959  12.404  1.00  0.00     0.003 C 
HETATM    5  C14 UNL     1      -5.491   5.139  13.426  1.00  0.00    -0.004 C 
HETATM    6  C15 UNL     1      -6.812   4.544  12.915  1.00  0.00     0.006 C 
HETATM    7  C16 UNL     1      -7.989   4.841  13.839  1.00  0.00     0.006 C 
HETATM    8  C17 UNL     1      -8.106   6.343  14.107  1.00  0.00     0.005 C 
HETATM    9  C18 UNL     1      -9.367   6.672  14.911  1.00  0.00     0.088 C 
HETATM   10  C19 UNL     1      -9.500   8.167  15.105  1.00  0.00     0.149 C 
HETATM   11  O3  UNL     1     -10.587   8.705  15.309  1.00  0.00    -0.293 OA
HETATM   12  C20 UNL     1      -8.269   8.996  15.100  1.00  0.00     0.047 C 
HETATM   13  C21 UNL     1      -7.058   8.437  14.944  1.00  0.00    -0.013 C 
HETATM   14  C22 UNL     1      -6.812   6.946  14.742  1.00  0.00    -0.018 C 
HETATM   15  C23 UNL     1      -6.515   6.362  16.143  1.00  0.00     0.020 C 
HETATM   16  C24 UNL     1      -5.632   6.665  13.740  1.00  0.00     0.002 C 
HETATM   17  C25 UNL     1      -4.268   7.287  14.143  1.00  0.00     0.007 C 
HETATM   18  C26 UNL     1      -3.104   6.934  13.197  1.00  0.00     0.013 C 
HETATM   19  C27 UNL     1      -2.976   5.414  12.938  1.00  0.00    -0.006 C 
ENDROOT
BRANCH   1  20
HETATM   20  C8  UNL     1      -0.553   5.098  11.741  1.00  0.00     0.079 C 
HETATM   21  C9  UNL     1      -0.012   5.122  13.172  1.00  0.00     0.051 C 
BRANCH  20  22
HETATM   22  C7  UNL     1      -0.061   6.365  11.047  1.00  0.00     0.007 C 
HETATM   23  C6  UNL     1       0.779   6.426   9.996  1.00  0.00    -0.023 C 
BRANCH  23  24
HETATM   24  C4  UNL     1       1.290   7.665   9.279  1.00  0.00     0.007 C 
HETATM   25  C5  UNL     1       0.163   8.510   8.661  1.00  0.00     0.014 C 
BRANCH  24  26
HETATM   26  C2  UNL     1       2.385   7.286   8.233  1.00  0.00    -0.015 C 
HETATM   27  C1  UNL     1       2.993   5.902   8.497  1.00  0.00     0.010 C 
HETATM   28  C3  UNL     1       1.846   7.311   6.793  1.00  0.00     0.010 C 
ENDBRANCH  24  26
ENDBRANCH  23  24
ENDBRANCH  20  22
BRANCH  20  29
HETATM   29  O1  UNL     1       0.016   3.960  11.105  1.00  0.00    -0.386 OA
HETATM   30  H17 UNL     1      -0.302   3.995  10.179  1.00  0.00     0.211 HD
ENDBRANCH  20  29
ENDBRANCH   1  20
BRANCH   2  31
HETATM   31  O2  UNL     1      -1.930   2.566  11.761  1.00  0.00    -0.395 OA
HETATM   32  H20 UNL     1      -2.374   1.747  11.463  1.00  0.00     0.210 HD
ENDBRANCH   2  31
BRANCH  19  33
HETATM   33  C28 UNL     1      -2.513   4.728  14.260  1.00  0.00     0.174 C 
BRANCH  33  34
HETATM   34  O4  UNL     1      -2.241   5.615  15.332  1.00  0.00    -0.400 OA
HETATM   35  H44 UNL     1      -3.070   6.096  15.519  1.00  0.00     0.209 HD
ENDBRANCH  33  34
ENDBRANCH  19  33
TORSDOF 8
ENDMDL
