MODEL 1
REMARK minimizedAffinity -6.67413139
REMARK CNNscore 0.632076025
REMARK CNNaffinity 6.33039331
REMARK  6 active torsions:
REMARK  status: ('A' for Active; 'I' for Inactive)
REMARK    1  A    between atoms: C2_2  and  C4_4 
REMARK    2  A    between atoms: C11_11  and  C12_12 
REMARK    3  A    between atoms: C12_12  and  O2_14 
REMARK    4  A    between atoms: C21_23  and  O3_24 
REMARK    5  A    between atoms: C22_25  and  C24_27 
REMARK    6  A    between atoms: C24_27  and  O4_28 
ROOT
HETATM    1  C4  UNL     1       5.517  12.861  21.770  1.00  0.00     0.018 C 
HETATM    2  C5  UNL     1       6.061  11.904  22.868  1.00  0.00     0.010 C 
HETATM    3  C6  UNL     1       5.056  10.746  22.989  1.00  0.00     0.010 C 
HETATM    4  C7  UNL     1       3.762  11.303  22.383  1.00  0.00    -0.039 C 
HETATM    5  C8  UNL     1       3.064  12.180  23.455  1.00  0.00     0.015 C 
HETATM    6  C9  UNL     1       2.785  10.235  21.876  1.00  0.00     0.011 C 
HETATM    7  C10 UNL     1       1.660  10.857  21.022  1.00  0.00     0.022 C 
HETATM    8  C11 UNL     1       2.168  11.743  19.821  1.00  0.00     0.057 C 
HETATM    9  C13 UNL     1       3.208  12.795  20.394  1.00  0.00     0.011 C 
HETATM   10  C14 UNL     1       3.701  13.795  19.343  1.00  0.00     0.007 C 
HETATM   11  C15 UNL     1       2.561  14.478  18.589  1.00  0.00     0.006 C 
HETATM   12  C16 UNL     1       1.578  13.469  17.958  1.00  0.00     0.003 C 
HETATM   13  C17 UNL     1       0.555  14.107  16.909  1.00  0.00    -0.035 C 
HETATM   14  C18 UNL     1      -0.299  15.230  17.543  1.00  0.00     0.016 C 
HETATM   15  C19 UNL     1       1.368  14.744  15.738  1.00  0.00     0.012 C 
HETATM   16  C20 UNL     1       0.528  15.131  14.525  1.00  0.00     0.033 C 
HETATM   17  C21 UNL     1      -0.294  13.968  13.984  1.00  0.00     0.128 C 
HETATM   18  C22 UNL     1      -1.189  13.271  15.054  1.00  0.00     0.007 C 
HETATM   19  C23 UNL     1      -2.421  14.139  15.395  1.00  0.00     0.020 C 
HETATM   20  C25 UNL     1      -0.296  12.926  16.306  1.00  0.00     0.007 C 
HETATM   21  C26 UNL     1      -1.016  12.138  17.419  1.00  0.00     0.007 C 
HETATM   22  C27 UNL     1      -0.005  11.505  18.378  1.00  0.00     0.011 C 
HETATM   23  C28 UNL     1       0.962  12.513  19.061  1.00  0.00    -0.022 C 
HETATM   24  C29 UNL     1       0.117  13.306  20.100  1.00  0.00     0.017 C 
HETATM   25  C30 UNL     1       4.336  12.067  21.163  1.00  0.00     0.007 C 
ENDROOT
BRANCH   8  26
HETATM   26  C12 UNL     1       2.890  10.797  18.818  1.00  0.00     0.149 C 
HETATM   27  O1  UNL     1       3.877  11.041  18.145  1.00  0.00    -0.649 OA
BRANCH  26  28
HETATM   28  O2  UNL     1       2.315   9.586  18.676  1.00  0.00    -0.776 OA
HETATM   29  H18 UNL     1       2.887   9.135  18.020  1.00  0.00     0.167 HD
ENDBRANCH  26  28
ENDBRANCH   8  26
BRANCH   1  30
HETATM   30  C2  UNL     1       6.654  13.335  20.878  1.00  0.00    -0.089 C 
HETATM   31  C1  UNL     1       7.432  12.537  20.129  1.00  0.00     0.014 C 
HETATM   32  C3  UNL     1       6.887  14.825  20.887  1.00  0.00     0.043 C 
ENDBRANCH   1  30
BRANCH  18  33
HETATM   33  C24 UNL     1      -1.734  11.945  14.431  1.00  0.00     0.176 C 
BRANCH  33  34
HETATM   34  O4  UNL     1      -0.674  11.092  13.998  1.00  0.00    -0.400 OA
HETATM   35  H39 UNL     1      -1.089  10.325  13.564  1.00  0.00     0.209 HD
ENDBRANCH  33  34
ENDBRANCH  18  33
BRANCH  17  36
HETATM   36  O3  UNL     1      -1.062  14.465  12.888  1.00  0.00    -0.395 OA
HETATM   37  H33 UNL     1      -1.678  13.739  12.644  1.00  0.00     0.210 HD
ENDBRANCH  17  36
TORSDOF 6
ENDMDL
