MODEL 1
REMARK minimizedAffinity -7.59121275
REMARK CNNscore 0.73694551
REMARK CNNaffinity 6.30288887
REMARK  12 active torsions:
REMARK  status: ('A' for Active; 'I' for Inactive)
REMARK    1  A    between atoms: C2_2  and  C3_3 
REMARK    2  A    between atoms: C2_2  and  C26_31 
REMARK    3  A    between atoms: C3_3  and  C4_4 
REMARK    4  A    between atoms: C4_4  and  C5_5 
REMARK    5  A    between atoms: C5_5  and  C7_7 
REMARK    6  A    between atoms: C8_8  and  O1_9 
REMARK    7  A    between atoms: C9_10  and  O2_11 
REMARK    8  A    between atoms: C20_22  and  O3_23 
REMARK    9  A    between atoms: C23_26  and  O4_27 
REMARK   10  A    between atoms: C25_29  and  O5_30 
REMARK   11  A    between atoms: C26_31  and  C28_33 
REMARK   12  A    between atoms: C28_33  and  O6_34 
ROOT
HETATM    1  C7  UNL     1      -6.548  45.591 -30.278  1.00  0.00     0.029 C 
HETATM    2  C8  UNL     1      -7.797  44.819 -29.742  1.00  0.00     0.152 C 
HETATM    3  C9  UNL     1      -7.796  43.434 -30.438  1.00  0.00     0.155 C 
HETATM    4  C10 UNL     1      -6.538  43.430 -31.310  1.00  0.00     0.060 C 
HETATM    5  C11 UNL     1      -6.286  44.920 -31.674  1.00  0.00    -0.029 C 
HETATM    6  C12 UNL     1      -7.238  45.485 -32.754  1.00  0.00     0.016 C 
HETATM    7  C13 UNL     1      -4.826  45.034 -32.177  1.00  0.00     0.011 C 
HETATM    8  C14 UNL     1      -4.222  43.712 -32.692  1.00  0.00     0.009 C 
HETATM    9  C15 UNL     1      -5.236  42.797 -33.420  1.00  0.00     0.029 C 
HETATM   10  C16 UNL     1      -4.555  41.557 -34.144  1.00  0.00    -0.031 C 
HETATM   11  C17 UNL     1      -4.041  42.094 -35.517  1.00  0.00     0.016 C 
HETATM   12  C18 UNL     1      -3.335  40.978 -33.372  1.00  0.00     0.012 C 
HETATM   13  C19 UNL     1      -2.690  39.770 -34.056  1.00  0.00     0.032 C 
HETATM   14  C20 UNL     1      -3.688  38.665 -34.376  1.00  0.00     0.118 C 
HETATM   15  C21 UNL     1      -4.941  39.185 -35.085  1.00  0.00     0.039 C 
HETATM   16  C22 UNL     1      -5.587  40.409 -34.399  1.00  0.00     0.025 C 
HETATM   17  C23 UNL     1      -6.429  40.008 -33.158  1.00  0.00     0.126 C 
HETATM   18  C24 UNL     1      -6.421  41.019 -32.018  1.00  0.00     0.071 C 
HETATM   19  C25 UNL     1      -6.461  42.459 -32.513  1.00  0.00     0.071 C 
ENDROOT
BRANCH   1  20
HETATM   20  C5  UNL     1      -6.666  47.143 -30.183  1.00  0.00    -0.011 C 
HETATM   21  C6  UNL     1      -5.559  47.871 -30.957  1.00  0.00     0.010 C 
BRANCH  20  22
HETATM   22  C4  UNL     1      -6.630  47.591 -28.693  1.00  0.00     0.009 C 
BRANCH  22  23
HETATM   23  C3  UNL     1      -5.255  48.116 -28.242  1.00  0.00     0.034 C 
BRANCH  23  24
HETATM   24  C2  UNL     1      -4.988  48.172 -26.740  1.00  0.00    -0.083 C 
HETATM   25  C1  UNL     1      -5.947  47.977 -25.814  1.00  0.00     0.015 C 
BRANCH  24  26
HETATM   26  C26 UNL     1      -3.517  48.442 -26.379  1.00  0.00     0.033 C 
HETATM   27  C27 UNL     1      -3.235  48.600 -24.875  1.00  0.00     0.017 C 
BRANCH  26  28
HETATM   28  C28 UNL     1      -2.926  49.640 -27.155  1.00  0.00     0.172 C 
BRANCH  28  29
HETATM   29  O6  UNL     1      -2.002  50.402 -26.386  1.00  0.00    -0.400 OA
HETATM   30  H48 UNL     1      -1.374  49.786 -25.973  1.00  0.00     0.209 HD
ENDBRANCH  28  29
ENDBRANCH  26  28
ENDBRANCH  24  26
ENDBRANCH  23  24
ENDBRANCH  22  23
ENDBRANCH  20  22
ENDBRANCH   1  20
BRANCH   2  31
HETATM   31  O1  UNL     1      -9.041  45.460 -30.040  1.00  0.00    -0.393 OA
HETATM   32  H13 UNL     1      -9.115  46.254 -29.480  1.00  0.00     0.210 HD
ENDBRANCH   2  31
BRANCH   3  33
HETATM   33  O2  UNL     1      -8.981  43.235 -31.208  1.00  0.00    -0.392 OA
HETATM   34  H15 UNL     1      -9.541  44.019 -30.998  1.00  0.00     0.210 HD
ENDBRANCH   3  33
BRANCH  19  35
HETATM   35  O5  UNL     1      -7.631  42.572 -33.335  1.00  0.00    -0.389 OA
HETATM   36  H41 UNL     1      -8.395  42.705 -32.728  1.00  0.00     0.210 HD
ENDBRANCH  19  35
BRANCH  17  37
HETATM   37  O4  UNL     1      -6.042  38.748 -32.610  1.00  0.00    -0.395 OA
HETATM   38  H38 UNL     1      -6.727  38.492 -31.968  1.00  0.00     0.210 HD
ENDBRANCH  17  37
BRANCH  14  39
HETATM   39  O3  UNL     1      -3.041  37.705 -35.214  1.00  0.00    -0.396 OA
HETATM   40  H33 UNL     1      -3.679  36.984 -35.353  1.00  0.00     0.210 HD
ENDBRANCH  14  39
TORSDOF 12
ENDMDL
