MODEL 1
REMARK minimizedAffinity -8.49048996
REMARK CNNscore 0.780102909
REMARK CNNaffinity 6.62191153
REMARK  8 active torsions:
REMARK  status: ('A' for Active; 'I' for Inactive)
REMARK    1  A    between atoms: C3_3  and  C4_4 
REMARK    2  A    between atoms: C4_4  and  O1_5 
REMARK    3  A    between atoms: C6_9  and  C7_10 
REMARK    4  A    between atoms: C7_10  and  O4_12 
REMARK    5  A    between atoms: C7_10  and  C9_13 
REMARK    6  A    between atoms: C12_16  and  O5_17 
REMARK    7  A    between atoms: C15_20  and  O6_21 
REMARK    8  A    between atoms: C16_22  and  O7_23 
ROOT
HETATM    1  C9  UNL     1      -0.807   7.917  13.326  1.00  0.00     0.033 C 
HETATM    2  C10 UNL     1      -2.335   8.001  13.001  1.00  0.00     0.011 C 
HETATM    3  C11 UNL     1      -2.962   9.045  13.944  1.00  0.00     0.039 C 
HETATM    4  C12 UNL     1      -1.757   9.745  14.561  1.00  0.00     0.070 C 
HETATM    5  C13 UNL     1      -1.990  10.551  15.855  1.00  0.00     0.028 C 
HETATM    6  C14 UNL     1      -3.062  11.636  15.664  1.00  0.00     0.043 C 
HETATM    7  C15 UNL     1      -3.301  12.448  16.936  1.00  0.00     0.154 C 
HETATM    8  C16 UNL     1      -1.978  13.063  17.465  1.00  0.00     0.098 C 
HETATM    9  C17 UNL     1      -2.246  13.944  18.706  1.00  0.00     0.042 C 
HETATM   10  C18 UNL     1      -0.976  14.363  19.451  1.00  0.00     0.010 C 
HETATM   11  C19 UNL     1       0.292  14.180  18.639  1.00  0.00     0.079 C 
HETATM   12  C20 UNL     1       0.425  12.757  18.127  1.00  0.00     0.138 C 
HETATM   13  O8  UNL     1       1.547  12.247  18.090  1.00  0.00    -0.297 OA
HETATM   14  C21 UNL     1      -0.858  11.987  17.716  1.00  0.00     0.054 C 
HETATM   15  C22 UNL     1      -1.166  11.046  18.904  1.00  0.00     0.027 C 
HETATM   16  C23 UNL     1      -0.641  11.163  16.380  1.00  0.00     0.011 C 
HETATM   17  C24 UNL     1       0.462  10.067  16.444  1.00  0.00     0.007 C 
HETATM   18  C25 UNL     1       0.595   9.192  15.178  1.00  0.00     0.013 C 
HETATM   19  C26 UNL     1      -0.748   8.568  14.756  1.00  0.00    -0.006 C 
HETATM   20  C27 UNL     1      -1.191   7.551  15.842  1.00  0.00     0.019 C 
ENDROOT
BRANCH   1  21
HETATM   21  C7  UNL     1      -0.180   6.504  13.029  1.00  0.00     0.085 C 
HETATM   22  C8  UNL     1       0.948   6.179  14.019  1.00  0.00     0.049 C 
BRANCH  21  23
HETATM   23  C6  UNL     1       0.372   6.453  11.547  1.00  0.00     0.170 C 
HETATM   24  O3  UNL     1       1.793   6.200  11.569  1.00  0.00    -0.309 OA
HETATM   25  C5  UNL     1       2.503   6.160  10.417  1.00  0.00     0.292 C 
HETATM   26  C3  UNL     1       1.874   6.781   9.216  1.00  0.00     0.042 C 
HETATM   27  O2  UNL     1       3.632   5.685  10.387  1.00  0.00    -0.260 OA
HETATM   28  C2  UNL     1       0.795   7.582   9.368  1.00  0.00    -0.067 C 
HETATM   29  C1  UNL     1       0.151   8.382   8.269  1.00  0.00     0.044 C 
HETATM   30  C28 UNL     1       0.138   7.719  10.719  1.00  0.00     0.070 C 
BRANCH  26  31
HETATM   31  C4  UNL     1       2.604   6.544   7.924  1.00  0.00     0.209 C 
BRANCH  31  32
HETATM   32  O1  UNL     1       2.904   5.158   7.781  1.00  0.00    -0.396 OA
HETATM   33  H6  UNL     1       2.082   4.659   7.920  1.00  0.00     0.209 HD
ENDBRANCH  31  32
ENDBRANCH  26  31
ENDBRANCH  21  23
BRANCH  21  34
HETATM   34  O4  UNL     1      -1.190   5.503  13.213  1.00  0.00    -0.387 OA
HETATM   35  H11 UNL     1      -0.836   4.633  12.969  1.00  0.00     0.210 HD
ENDBRANCH  21  34
ENDBRANCH   1  21
BRANCH   4  36
HETATM   36  O5  UNL     1      -1.312  10.653  13.530  1.00  0.00    -0.389 OA
HETATM   37  H17 UNL     1      -0.500  11.100  13.817  1.00  0.00     0.210 HD
ENDBRANCH   4  36
BRANCH   7  38
HETATM   38  O6  UNL     1      -3.941  11.620  17.900  1.00  0.00    -0.392 OA
HETATM   39  H22 UNL     1      -4.558  12.171  18.412  1.00  0.00     0.210 HD
ENDBRANCH   7  38
BRANCH   8  40
HETATM   40  O7  UNL     1      -1.501  13.954  16.427  1.00  0.00    -0.386 OA
HETATM   41  H23 UNL     1      -2.211  14.580  16.196  1.00  0.00     0.210 HD
ENDBRANCH   8  40
TORSDOF 8
ENDMDL
