MODEL 1
REMARK minimizedAffinity -8.10245991
REMARK CNNscore 0.451825827
REMARK CNNaffinity 7.18244743
REMARK  13 active torsions:
REMARK  status: ('A' for Active; 'I' for Inactive)
REMARK    1  A    between atoms: O1_2  and  C2_3 
REMARK    2  A    between atoms: C12_14  and  C13_15 
REMARK    3  A    between atoms: C13_15  and  C15_17 
REMARK    4  A    between atoms: C15_17  and  C16_18 
REMARK    5  A    between atoms: C17_19  and  C18_20 
REMARK    6  A    between atoms: C18_20  and  O3_23 
REMARK    7  A    between atoms: C29_32  and  O4_33 
REMARK    8  A    between atoms: O4_33  and  C30_34 
REMARK    9  A    between atoms: C31_36  and  C32_37 
REMARK   10  A    between atoms: C32_37  and  O6_38 
REMARK   11  A    between atoms: C33_39  and  O7_40 
REMARK   12  A    between atoms: C34_41  and  O8_42 
REMARK   13  A    between atoms: C35_43  and  O9_44 
ROOT
HETATM    1  C2  UNL     1      -1.988   6.466  13.281  1.00  0.00     0.270 C 
HETATM    2  O2  UNL     1      -1.310   6.656  12.008  1.00  0.00    -0.344 OA
HETATM    3  C3  UNL     1      -0.064   7.359  12.258  1.00  0.00     0.095 C 
HETATM    4  C4  UNL     1      -0.302   8.836  11.909  1.00  0.00     0.008 C 
HETATM    5  C5  UNL     1      -1.130   9.603  12.650  1.00  0.00    -0.021 C 
HETATM    6  C6  UNL     1      -2.002   8.937  13.687  1.00  0.00     0.030 C 
HETATM    7  C7  UNL     1      -1.388   7.570  14.229  1.00  0.00     0.024 C 
HETATM    8  C8  UNL     1      -1.550   7.273  15.745  1.00  0.00     0.016 C 
HETATM    9  C9  UNL     1      -2.439   8.189  16.599  1.00  0.00     0.011 C 
HETATM   10  C10 UNL     1      -2.358   9.665  16.187  1.00  0.00    -0.032 C 
HETATM   11  C11 UNL     1      -0.918  10.188  16.393  1.00  0.00     0.016 C 
HETATM   12  C12 UNL     1      -3.336  10.646  16.915  1.00  0.00    -0.002 C 
HETATM   13  C22 UNL     1      -3.498  11.793  15.865  1.00  0.00     0.006 C 
HETATM   14  C23 UNL     1      -2.961  11.275  14.515  1.00  0.00     0.011 C 
HETATM   15  C24 UNL     1      -2.862   9.756  14.705  1.00  0.00    -0.029 C 
HETATM   16  C25 UNL     1      -4.337   9.210  14.523  1.00  0.00     0.016 C 
HETATM   17  C26 UNL     1       0.088   7.319  13.782  1.00  0.00     0.039 C 
HETATM   18  C27 UNL     1       1.275   8.174  14.245  1.00  0.00     0.011 C 
HETATM   19  C28 UNL     1       2.492   8.016  13.316  1.00  0.00     0.033 C 
HETATM   20  C29 UNL     1       2.439   6.728  12.485  1.00  0.00     0.136 C 
HETATM   21  C36 UNL     1       1.163   6.651  11.563  1.00  0.00     0.014 C 
HETATM   22  C37 UNL     1       1.447   7.216  10.150  1.00  0.00     0.021 C 
HETATM   23  C38 UNL     1       0.872   5.142  11.342  1.00  0.00     0.021 C 
ENDROOT
BRANCH  20  24
HETATM   24  O4  UNL     1       3.614   6.570  11.680  1.00  0.00    -0.352 OA
BRANCH  24  25
HETATM   25  C30 UNL     1       4.216   7.792  11.260  1.00  0.00     0.292 C 
HETATM   26  O5  UNL     1       5.232   7.574  10.280  1.00  0.00    -0.348 OA
HETATM   27  C31 UNL     1       6.431   6.951  10.753  1.00  0.00     0.179 C 
HETATM   28  C33 UNL     1       7.036   7.707  11.953  1.00  0.00     0.180 C 
HETATM   29  C34 UNL     1       6.012   7.946  13.073  1.00  0.00     0.183 C 
HETATM   30  C35 UNL     1       4.731   8.568  12.494  1.00  0.00     0.204 C 
BRANCH  27  31
HETATM   31  C32 UNL     1       6.268   5.440  10.977  1.00  0.00     0.198 C 
BRANCH  31  32
HETATM   32  O6  UNL     1       5.357   4.885  10.028  1.00  0.00    -0.398 OA
HETATM   33  H50 UNL     1       4.459   5.134  10.314  1.00  0.00     0.209 HD
ENDBRANCH  31  32
ENDBRANCH  27  31
BRANCH  28  34
HETATM   34  O7  UNL     1       7.479   9.004  11.493  1.00  0.00    -0.390 OA
HETATM   35  H52 UNL     1       8.253   8.850  10.919  1.00  0.00     0.210 HD
ENDBRANCH  28  34
BRANCH  29  36
HETATM   36  O8  UNL     1       5.769   6.740  13.795  1.00  0.00    -0.390 OA
HETATM   37  H54 UNL     1       4.942   6.844  14.296  1.00  0.00     0.210 HD
ENDBRANCH  29  36
BRANCH  30  38
HETATM   38  O9  UNL     1       4.966   9.945  12.151  1.00  0.00    -0.388 OA
HETATM   39  H56 UNL     1       5.803   9.964  11.635  1.00  0.00     0.210 HD
ENDBRANCH  30  38
ENDBRANCH  24  25
ENDBRANCH  20  24
BRANCH   1  40
HETATM   40  O1  UNL     1      -1.750   5.149  13.784  1.00  0.00    -0.365 OA
HETATM   41  C1  UNL     1      -2.405   4.159  13.002  1.00  0.00     0.204 C 
ENDBRANCH   1  40
BRANCH  12  42
HETATM   42  C13 UNL     1      -3.021  11.200  18.344  1.00  0.00    -0.010 C 
HETATM   43  C14 UNL     1      -3.607  10.315  19.450  1.00  0.00     0.010 C 
BRANCH  42  44
HETATM   44  C15 UNL     1      -3.583  12.647  18.460  1.00  0.00     0.031 C 
BRANCH  44  45
HETATM   45  C16 UNL     1      -4.876  12.788  19.221  1.00  0.00    -0.027 C 
HETATM   46  C17 UNL     1      -5.023  13.545  20.322  1.00  0.00     0.006 C 
BRANCH  46  47
HETATM   47  C18 UNL     1      -6.297  13.805  21.113  1.00  0.00     0.070 C 
HETATM   48  C19 UNL     1      -6.186  13.164  22.509  1.00  0.00     0.050 C 
HETATM   49  C20 UNL     1      -6.600  15.301  21.307  1.00  0.00     0.050 C 
BRANCH  47  50
HETATM   50  O3  UNL     1      -7.414  13.313  20.355  1.00  0.00    -0.382 OA
HETATM   51  C21 UNL     1      -8.534  14.170  20.218  1.00  0.00     0.202 C 
ENDBRANCH  47  50
ENDBRANCH  46  47
ENDBRANCH  44  45
ENDBRANCH  42  44
ENDBRANCH  12  42
TORSDOF 13
ENDMDL
