MODEL 1
REMARK minimizedAffinity -7.20754147
REMARK  3 active torsions:
REMARK  status: ('A' for Active; 'I' for Inactive)
REMARK    1  A    between atoms: C2_2  and  C3_3 
REMARK    2  A    between atoms: C3_3  and  N1_4 
REMARK    3  A    between atoms: C10_13  and  N3_14 
ROOT
HETATM    1  N1  UNL     1      -1.929  50.822 -26.087  1.00  0.00     0.093 N 
HETATM    2  C4  UNL     1      -1.829  51.482 -27.395  1.00  0.00     0.273 C 
HETATM    3  C5  UNL     1      -0.391  51.706 -27.847  1.00  0.00     0.031 C 
HETATM    4  C6  UNL     1       0.377  52.592 -26.872  1.00  0.00     0.009 C 
HETATM    5  C7  UNL     1      -0.251  52.621 -25.470  1.00  0.00     0.025 C 
HETATM    6  C8  UNL     1       0.812  53.004 -24.428  1.00  0.00     0.064 C 
HETATM    7  C9  UNL     1       0.345  52.853 -23.006  1.00  0.00     0.019 A 
HETATM    8  N2  UNL     1       1.078  53.489 -22.065  1.00  0.00    -0.336 N 
ATOM      9  H2  UNL     1       1.877  54.071 -22.318  1.00  0.00     0.168 HD
HETATM   10  C10 UNL     1       0.712  53.324 -20.791  1.00  0.00     0.154 A 
HETATM   11  N4  UNL     1      -0.336  52.606 -20.384  1.00  0.00    -0.342 N 
ATOM     12  H4  UNL     1      -0.591  52.534 -19.399  1.00  0.00     0.167 HD
HETATM   13  C11 UNL     1      -1.039  51.982 -21.346  1.00  0.00     0.099 A 
HETATM   14  C12 UNL     1      -0.736  52.054 -22.690  1.00  0.00    -0.018 A 
HETATM   15  C13 UNL     1      -1.577  51.371 -23.722  1.00  0.00     0.078 C 
HETATM   16  C14 UNL     1      -0.903  51.267 -25.112  1.00  0.00     0.231 C 
ENDROOT
BRANCH   1  17
HETATM   17  C3  UNL     1      -1.975  49.353 -26.186  1.00  0.00     0.272 C 
BRANCH  17  18
HETATM   18  C2  UNL     1      -3.397  48.806 -26.005  1.00  0.00     0.026 C 
HETATM   19  C1  UNL     1      -4.012  48.417 -27.342  1.00  0.00     0.007 C 
ENDBRANCH  17  18
ENDBRANCH   1  17
BRANCH  10  20
HETATM   20  N3  UNL     1       1.442  53.989 -19.828  1.00  0.00    -0.274 NA
HETATM   21  H17 UNL     1       1.889  54.793 -20.245  1.00  0.00     0.127 HD
HETATM   22  H18 UNL     1       0.860  54.147 -19.019  1.00  0.00     0.127 HD
ENDBRANCH  10  20
TORSDOF 3
ENDMDL
