MODEL 1
REMARK minimizedAffinity -10.0126276
REMARK  5 active torsions:
REMARK  status: ('A' for Active; 'I' for Inactive)
REMARK    1  A    between atoms: C3_3  and  C4_4 
REMARK    2  A    between atoms: C4_4  and  O2_6 
REMARK    3  A    between atoms: O2_6  and  C5_7 
REMARK    4  A    between atoms: C5_7  and  C6_8 
REMARK    5  A    between atoms: C12_14  and  C13_15 
ROOT
HETATM    1  C1  UNL     1       0.913  53.644 -21.332  1.00  0.00     0.069 C 
HETATM    2  C2  UNL     1       0.232  52.443 -20.731  1.00  0.00     0.018 C 
HETATM    3  C3  UNL     1      -0.398  51.482 -21.442  1.00  0.00     0.052 C 
HETATM    4  C12 UNL     1      -1.053  50.274 -20.786  1.00  0.00     0.104 C 
HETATM    5  C22 UNL     1      -0.743  50.210 -19.288  1.00  0.00     0.024 C 
HETATM    6  C23 UNL     1      -0.109  51.215 -18.648  1.00  0.00     0.020 C 
HETATM    7  C24 UNL     1       0.239  51.162 -17.181  1.00  0.00     0.058 C 
HETATM    8  C25 UNL     1       0.375  49.727 -16.688  1.00  0.00     0.014 C 
HETATM    9  C26 UNL     1      -0.859  48.915 -17.052  1.00  0.00     0.084 C 
HETATM   10  C27 UNL     1      -1.139  48.980 -18.539  1.00  0.00     0.158 C 
HETATM   11  O5  UNL     1      -1.729  48.064 -19.110  1.00  0.00    -0.293 OA
HETATM   12  N1  UNL     1       0.291  52.338 -19.349  1.00  0.00    -0.362 N 
HETATM   13  H22 UNL     1       0.873  53.012 -18.862  1.00  0.00     0.165 HD
ENDROOT
BRANCH   4  14
HETATM   14  C13 UNL     1      -2.547  50.255 -21.058  1.00  0.00     0.029 A 
HETATM   15  C14 UNL     1      -3.429  51.202 -20.697  1.00  0.00     0.154 A 
HETATM   16  O3  UNL     1      -4.784  51.197 -20.924  1.00  0.00    -0.321 OA
HETATM   17  C15 UNL     1      -5.319  50.089 -21.532  1.00  0.00     0.089 A 
HETATM   18  C16 UNL     1      -6.704  50.062 -21.703  1.00  0.00     0.040 A 
HETATM   19  C20 UNL     1      -4.541  49.023 -21.981  1.00  0.00     0.050 A 
HETATM   20  C17 UNL     1      -7.305  48.965 -22.329  1.00  0.00     0.026 A 
HETATM   21  C18 UNL     1      -6.517  47.905 -22.782  1.00  0.00     0.035 A 
HETATM   22 CL1  UNL     1      -7.260  46.565 -23.568  1.00  0.00    -0.084 Cl
HETATM   23  C19 UNL     1      -5.135  47.925 -22.609  1.00  0.00     0.042 A 
HETATM   24  C21 UNL     1      -3.081  49.085 -21.799  1.00  0.00     0.194 A 
HETATM   25  O4  UNL     1      -2.349  48.220 -22.263  1.00  0.00    -0.287 OA
ENDBRANCH   4  14
BRANCH   3  26
HETATM   26  C4  UNL     1      -0.408  51.532 -22.912  1.00  0.00     0.292 C 
HETATM   27  O1  UNL     1      -1.172  50.876 -23.609  1.00  0.00    -0.259 OA
BRANCH  26  28
HETATM   28  O2  UNL     1       0.598  52.340 -23.322  1.00  0.00    -0.313 OA
BRANCH  28  29
HETATM   29  C5  UNL     1       0.262  53.258 -24.366  1.00  0.00     0.217 C 
BRANCH  29  30
HETATM   30  C6  UNL     1       0.725  52.689 -25.686  1.00  0.00    -0.034 A 
HETATM   31  C7  UNL     1       1.907  51.936 -25.751  1.00  0.00     0.009 A 
HETATM   32  C8  UNL     1       2.370  51.443 -26.974  1.00  0.00     0.001 A 
HETATM   33  C9  UNL     1       1.656  51.694 -28.144  1.00  0.00     0.000 A 
HETATM   34  C10 UNL     1       0.470  52.432 -28.092  1.00  0.00     0.001 A 
HETATM   35  C11 UNL     1       0.006  52.925 -26.869  1.00  0.00     0.009 A 
ENDBRANCH  29  30
ENDBRANCH  28  29
ENDBRANCH  26  28
ENDBRANCH   3  26
TORSDOF 5
ENDMDL
