MODEL 1
REMARK minimizedAffinity -9.9142046
REMARK  2 active torsions:
REMARK  status: ('A' for Active; 'I' for Inactive)
REMARK    1  A    between atoms: C3_4  and  C4_5 
REMARK       I    between atoms: N2_13  and  C11_14 
REMARK    2  A    between atoms: C11_14  and  C12_16 
ROOT
HETATM    1  C4  UNL     1      -6.737  47.434 -28.761  1.00  0.00    -0.021 A 
HETATM    2  C5  UNL     1      -5.508  47.878 -29.258  1.00  0.00     0.015 A 
HETATM    3  C6  UNL     1      -4.550  48.401 -28.392  1.00  0.00     0.040 A 
HETATM    4  C7  UNL     1      -4.802  48.468 -27.016  1.00  0.00     0.095 A 
HETATM    5  O1  UNL     1      -3.766  48.856 -26.213  1.00  0.00    -0.347 OA
HETATM    6  C8  UNL     1      -3.569  50.277 -26.274  1.00  0.00     0.213 C 
HETATM    7  C9  UNL     1      -3.203  50.786 -24.868  1.00  0.00     0.265 C 
HETATM    8  C10 UNL     1      -1.682  50.610 -24.638  1.00  0.00     0.164 C 
HETATM    9  N2  UNL     1      -1.275  51.154 -23.337  1.00  0.00    -0.344 N 
HETATM   10  C11 UNL     1      -0.046  51.799 -23.251  1.00  0.00     0.254 C 
HETATM   11  O2  UNL     1       0.706  51.985 -24.204  1.00  0.00    -0.267 OA
HETATM   12  C18 UNL     1      -2.068  50.689 -22.193  1.00  0.00     0.156 C 
HETATM   13  C19 UNL     1      -3.586  50.700 -22.465  1.00  0.00     0.293 C 
HETATM   14  N3  UNL     1      -3.923  50.114 -23.766  1.00  0.00     0.107 N 
HETATM   15  C20 UNL     1      -5.357  49.910 -23.983  1.00  0.00     0.375 C 
HETATM   16  C21 UNL     1      -5.667  48.403 -24.023  1.00  0.00     0.250 C 
HETATM   17  O3  UNL     1      -5.468  47.653 -23.057  1.00  0.00    -0.271 OA
HETATM   18  N4  UNL     1      -6.330  47.893 -25.109  1.00  0.00    -0.323 N 
HETATM   19  C22 UNL     1      -6.012  48.001 -26.488  1.00  0.00     0.069 A 
HETATM   20  C23 UNL     1      -6.975  47.492 -27.378  1.00  0.00     0.044 A 
HETATM   21  H22 UNL     1      -6.781  47.013 -24.879  1.00  0.00     0.169 HD
ENDROOT
BRANCH  10  22
HETATM   22  C12 UNL     1       0.361  52.362 -21.956  1.00  0.00     0.033 A 
HETATM   23  C13 UNL     1       1.061  53.566 -21.894  1.00  0.00     0.017 A 
HETATM   24  C14 UNL     1       1.412  54.094 -20.652  1.00  0.00     0.003 A 
HETATM   25  C15 UNL     1       1.054  53.417 -19.487  1.00  0.00     0.024 A 
HETATM   26  C16 UNL     1       0.347  52.216 -19.563  1.00  0.00     0.035 A 
HETATM   27 CL1  UNL     1      -0.077  51.386 -18.121  1.00  0.00    -0.084 Cl
HETATM   28  C17 UNL     1      -0.009  51.682 -20.797  1.00  0.00     0.041 A 
ENDBRANCH  10  22
BRANCH   1  29
HETATM   29  C3  UNL     1      -7.742  46.897 -29.657  1.00  0.00     0.008 A 
HETATM   30  C2  UNL     1      -8.968  47.478 -29.906  1.00  0.00     0.123 A 
HETATM   31  N1  UNL     1      -9.595  46.676 -30.817  1.00  0.00    -0.307 N 
HETATM   32  C1  UNL     1     -10.900  46.877 -31.389  1.00  0.00     0.177 C 
HETATM   33  N5  UNL     1      -8.860  45.611 -31.190  1.00  0.00    -0.310 N 
HETATM   34  C24 UNL     1      -7.735  45.743 -30.478  1.00  0.00     0.120 A 
ATOM     35  H5  UNL     1      -9.104  44.878 -31.856  1.00  0.00     0.186 HD
ENDBRANCH   1  29
TORSDOF 2
ENDMDL
