MODEL 1
REMARK minimizedAffinity -10.328064
REMARK  8 active torsions:
REMARK  status: ('A' for Active; 'I' for Inactive)
REMARK    1  A    between atoms: C2_2  and  C3_3 
REMARK    2  A    between atoms: C2_2  and  C11_14 
REMARK    3  A    between atoms: C3_3  and  C4_4 
REMARK    4  A    between atoms: C4_4  and  C5_5 
REMARK       I    between atoms: C5_5  and  N1_7 
REMARK    5  A    between atoms: N1_7  and  C6_8 
REMARK    6  A    between atoms: C6_8  and  C7_9 
REMARK    7  A    between atoms: C16_19  and  O3_20 
REMARK    8  A    between atoms: C20_24  and  O4_25 
ROOT
HETATM    1  C11 UNL     1      -0.544  51.697 -20.814  1.00  0.00    -0.002 C 
HETATM    2  C12 UNL     1       0.017  53.124 -20.531  1.00  0.00     0.006 C 
HETATM    3  C13 UNL     1       0.471  53.157 -19.068  1.00  0.00     0.006 C 
HETATM    4  C14 UNL     1       0.396  51.704 -18.628  1.00  0.00     0.001 C 
HETATM    5  C15 UNL     1       0.406  51.406 -17.118  1.00  0.00     0.024 C 
HETATM    6  C16 UNL     1       1.691  51.974 -16.466  1.00  0.00     0.123 C 
HETATM    7  C17 UNL     1       2.156  51.188 -15.233  1.00  0.00     0.037 C 
HETATM    8  C18 UNL     1       0.954  50.604 -14.481  1.00  0.00    -0.001 C 
HETATM    9  C19 UNL     1       1.324  50.144 -13.055  1.00  0.00     0.037 C 
HETATM   10  C20 UNL     1       1.981  48.770 -12.974  1.00  0.00     0.118 C 
HETATM   11  C21 UNL     1       1.153  47.722 -13.707  1.00  0.00     0.032 C 
HETATM   12  C22 UNL     1       0.903  48.117 -15.160  1.00  0.00     0.012 C 
HETATM   13  C23 UNL     1       0.232  49.510 -15.343  1.00  0.00    -0.036 C 
HETATM   14  C24 UNL     1      -1.233  49.426 -14.845  1.00  0.00     0.016 C 
HETATM   15  C25 UNL     1       0.307  49.874 -16.888  1.00  0.00     0.001 C 
HETATM   16  C26 UNL     1      -0.789  49.196 -17.747  1.00  0.00     0.007 C 
HETATM   17  C27 UNL     1      -0.780  49.620 -19.224  1.00  0.00     0.010 C 
HETATM   18  C28 UNL     1      -0.840  51.151 -19.380  1.00  0.00    -0.036 C 
HETATM   19  C29 UNL     1      -2.182  51.705 -18.844  1.00  0.00     0.016 C 
ENDROOT
BRANCH   1  20
HETATM   20  C2  UNL     1      -1.682  51.728 -21.880  1.00  0.00    -0.013 C 
HETATM   21  C1  UNL     1      -2.502  50.436 -21.899  1.00  0.00     0.010 C 
BRANCH  20  22
HETATM   22  C3  UNL     1      -1.092  52.021 -23.290  1.00  0.00     0.014 C 
BRANCH  22  23
HETATM   23  C4  UNL     1       0.328  52.601 -23.274  1.00  0.00     0.103 C 
BRANCH  23  24
HETATM   24  C5  UNL     1       0.593  53.652 -24.338  1.00  0.00     0.217 C 
HETATM   25  O1  UNL     1       1.422  54.547 -24.220  1.00  0.00    -0.274 OA
HETATM   26  N1  UNL     1      -0.245  53.519 -25.431  1.00  0.00    -0.359 N 
HETATM   27  H9  UNL     1      -0.793  52.673 -25.506  1.00  0.00     0.162 HD
BRANCH  26  28
HETATM   28  C6  UNL     1      -0.021  54.282 -26.647  1.00  0.00     0.154 C 
BRANCH  28  29
HETATM   29  C7  UNL     1      -0.629  53.588 -27.882  1.00  0.00     0.139 C 
HETATM   30  C8  UNL     1      -0.057  52.198 -28.108  1.00  0.00     0.035 C 
HETATM   31  C9  UNL     1      -0.957  51.333 -27.261  1.00  0.00     0.029 C 
HETATM   32  C10 UNL     1      -2.298  52.020 -27.404  1.00  0.00     0.168 C 
HETATM   33  O2  UNL     1      -2.046  53.400 -27.708  1.00  0.00    -0.384 OA
ENDBRANCH  28  29
ENDBRANCH  26  28
ENDBRANCH  23  24
ENDBRANCH  22  23
ENDBRANCH  20  22
ENDBRANCH   1  20
BRANCH   6  34
HETATM   34  O3  UNL     1       1.427  53.326 -16.084  1.00  0.00    -0.395 OA
HETATM   35  H27 UNL     1       2.256  53.699 -15.739  1.00  0.00     0.210 HD
ENDBRANCH   6  34
BRANCH  10  36
HETATM   36  O4  UNL     1       3.291  48.839 -13.527  1.00  0.00    -0.396 OA
HETATM   37  H34 UNL     1       3.689  47.955 -13.449  1.00  0.00     0.210 HD
ENDBRANCH  10  36
TORSDOF 8
ENDMDL
