MODEL 1
REMARK minimizedAffinity -7.90146589
REMARK  7 active torsions:
REMARK  status: ('A' for Active; 'I' for Inactive)
REMARK    1  A    between atoms: N1_2  and  C2_3 
REMARK    2  A    between atoms: C2_3  and  C3_4 
REMARK    3  A    between atoms: C5_6  and  O1_7 
REMARK    4  A    between atoms: C23_26  and  N2_27 
REMARK    5  A    between atoms: C23_26  and  C24_28 
REMARK    6  A    between atoms: C24_28  and  C25_29 
REMARK    7  A    between atoms: C25_29  and  O3_30 
ROOT
HETATM    1  C3  UNL     1      -6.698   4.032  12.329  1.00  0.00    -0.021 A 
HETATM    2  C4  UNL     1      -6.672   3.615  10.977  1.00  0.00     0.045 A 
HETATM    3  C5  UNL     1      -5.485   3.268  10.357  1.00  0.00     0.066 A 
HETATM    4  C6  UNL     1      -4.299   3.304  11.060  1.00  0.00     0.045 A 
HETATM    5  C7  UNL     1      -4.261   3.698  12.416  1.00  0.00    -0.037 A 
HETATM    6  C8  UNL     1      -5.478   4.102  13.073  1.00  0.00    -0.042 A 
HETATM    7  C9  UNL     1      -5.499   4.553  14.544  1.00  0.00     0.044 C 
HETATM    8  C10 UNL     1      -5.257   6.055  14.920  1.00  0.00    -0.010 C 
HETATM    9  C11 UNL     1      -6.320   7.071  14.483  1.00  0.00     0.005 C 
HETATM   10  C12 UNL     1      -5.962   7.790  13.184  1.00  0.00     0.001 C 
HETATM   11  C13 UNL     1      -4.625   8.551  13.254  1.00  0.00     0.007 C 
HETATM   12  C14 UNL     1      -3.603   7.957  14.249  1.00  0.00     0.022 C 
HETATM   13  C15 UNL     1      -3.887   6.474  14.427  1.00  0.00     0.012 C 
HETATM   14  C16 UNL     1      -2.086   8.226  13.879  1.00  0.00     0.082 C 
HETATM   15  C17 UNL     1      -1.889   9.762  13.703  1.00  0.00     0.040 C 
HETATM   16  C18 UNL     1      -0.410  10.116  13.551  1.00  0.00     0.013 C 
HETATM   17  C19 UNL     1       0.416   8.816  13.603  1.00  0.00     0.059 C 
HETATM   18  C20 UNL     1       0.086   8.126  14.976  1.00  0.00     0.061 C 
HETATM   19  C21 UNL     1       0.399   9.048  16.177  1.00  0.00     0.046 C 
HETATM   20  C22 UNL     1       0.838   6.813  15.246  1.00  0.00     0.046 C 
HETATM   21  O2  UNL     1      -1.324   7.830  15.049  1.00  0.00    -0.368 OA
HETATM   22  C23 UNL     1       0.017   7.910  12.373  1.00  0.00     0.180 C 
HETATM   23  C26 UNL     1      -1.492   7.484  12.595  1.00  0.00     0.139 C 
HETATM   24  C27 UNL     1      -1.671   6.002  12.607  1.00  0.00    -0.096 C 
HETATM   25  C28 UNL     1      -2.062   4.868  12.713  1.00  0.00    -0.101 C 
HETATM   26  C29 UNL     1      -2.860   3.661  13.038  1.00  0.00     0.133 C 
ENDROOT
BRANCH  22  27
HETATM   27  N2  UNL     1       1.033   6.833  12.295  1.00  0.00     0.090 N 
HETATM   28  H33 UNL     1       1.213   6.606  11.307  1.00  0.00     0.313 HD
HETATM   29  H34 UNL     1       0.664   5.963  12.673  1.00  0.00     0.313 HD
ENDBRANCH  22  27
BRANCH  22  30
HETATM   30  C24 UNL     1       0.131   8.686  11.006  1.00  0.00     0.069 C 
BRANCH  30  31
HETATM   31  C25 UNL     1       0.822   7.941   9.854  1.00  0.00     0.166 C 
BRANCH  31  32
HETATM   32  O3  UNL     1       0.863   8.739   8.679  1.00  0.00    -0.401 OA
HETATM   33  H39 UNL     1       1.295   8.205   7.988  1.00  0.00     0.209 HD
ENDBRANCH  31  32
ENDBRANCH  30  31
ENDBRANCH  22  30
BRANCH   3  34
HETATM   34  O1  UNL     1      -5.447   2.872   9.054  1.00  0.00    -0.361 OA
HETATM   35  H8  UNL     1      -6.341   2.935   8.682  1.00  0.00     0.217 HD
ENDBRANCH   3  34
BRANCH   1  36
HETATM   36  C2  UNL     1      -8.081   4.340  12.883  1.00  0.00     0.308 C 
BRANCH  36  37
HETATM   37  N1  UNL     1      -8.684   5.500  12.223  1.00  0.00     0.083 N 
HETATM   38  C1  UNL     1      -9.501   6.269  13.151  1.00  0.00     0.307 C 
HETATM   39  H4  UNL     1      -9.255   5.191  11.440  1.00  0.00     0.315 HD
ENDBRANCH  36  37
ENDBRANCH   1  36
TORSDOF 7
ENDMDL
