MODEL 1
REMARK minimizedAffinity -6.49413395
REMARK CNNscore 0.473700315
REMARK CNNaffinity 6.48395777
REMARK  9 active torsions:
REMARK  status: ('A' for Active; 'I' for Inactive)
REMARK    1  A    between atoms: C12_14  and  C13_15 
REMARK    2  A    between atoms: C13_15  and  C15_17 
REMARK    3  A    between atoms: C15_17  and  C16_18 
REMARK    4  A    between atoms: C16_18  and  C17_19 
REMARK    5  A    between atoms: C18_20  and  C20_22 
REMARK    6  A    between atoms: C26_29  and  C27_30 
REMARK    7  A    between atoms: C27_30  and  C28_31 
REMARK    8  A    between atoms: C28_31  and  C29_32 
REMARK    9  A    between atoms: C29_32  and  O5_34 
ROOT
HETATM    1  C1  UNL     1       4.729  57.630  -3.875  1.00  0.00     0.025 C 
HETATM    2  C2  UNL     1       4.232  57.421  -5.100  1.00  0.00     0.015 C 
HETATM    3  C3  UNL     1       2.771  57.297  -5.300  1.00  0.00     0.289 C 
HETATM    4  O1  UNL     1       1.935  57.087  -4.440  1.00  0.00    -0.260 OA
HETATM    5  O2  UNL     1       2.521  57.459  -6.624  1.00  0.00    -0.311 OA
HETATM    6  C4  UNL     1       3.729  57.810  -7.314  1.00  0.00     0.142 C 
HETATM    7  C5  UNL     1       3.710  57.186  -8.699  1.00  0.00     0.039 C 
HETATM    8  C6  UNL     1       3.664  55.653  -8.610  1.00  0.00     0.006 C 
HETATM    9  C7  UNL     1       4.950  55.131  -7.934  1.00  0.00    -0.027 A 
HETATM   10  C8  UNL     1       5.829  54.214  -8.793  1.00  0.00     0.011 C 
HETATM   11  C9  UNL     1       5.099  53.161  -9.650  1.00  0.00     0.011 C 
HETATM   12  C10 UNL     1       3.598  53.416  -9.847  1.00  0.00    -0.032 C 
HETATM   13  C11 UNL     1       2.833  52.775  -8.650  1.00  0.00     0.016 C 
HETATM   14  C12 UNL     1       2.969  52.893 -11.181  1.00  0.00    -0.002 C 
HETATM   15  C21 UNL     1       1.724  53.813 -11.349  1.00  0.00     0.006 C 
HETATM   16  C22 UNL     1       1.911  55.030 -10.426  1.00  0.00     0.011 C 
HETATM   17  C23 UNL     1       3.385  54.967  -9.980  1.00  0.00    -0.032 C 
HETATM   18  C24 UNL     1       4.210  55.640 -11.125  1.00  0.00     0.016 C 
HETATM   19  C25 UNL     1       4.907  54.763  -6.464  1.00  0.00     0.022 A 
HETATM   20  C26 UNL     1       5.595  56.056  -6.842  1.00  0.00    -0.021 A 
HETATM   21  C30 UNL     1       4.906  57.385  -6.436  1.00  0.00     0.063 C 
ENDROOT
BRANCH  14  22
HETATM   22  C13 UNL     1       2.613  51.382 -11.343  1.00  0.00    -0.014 C 
HETATM   23  C14 UNL     1       3.866  50.516 -11.521  1.00  0.00     0.010 C 
BRANCH  22  24
HETATM   24  C15 UNL     1       1.652  51.185 -12.549  1.00  0.00     0.008 C 
BRANCH  24  25
HETATM   25  C16 UNL     1       2.317  50.579 -13.791  1.00  0.00     0.028 C 
BRANCH  25  26
HETATM   26  C17 UNL     1       1.549  50.942 -15.035  1.00  0.00    -0.017 C 
HETATM   27  C18 UNL     1       1.935  51.782 -16.013  1.00  0.00    -0.028 C 
HETATM   28  C19 UNL     1       3.206  52.567 -16.096  1.00  0.00     0.051 C 
BRANCH  27  29
HETATM   29  C20 UNL     1       0.994  51.960 -17.158  1.00  0.00     0.265 C 
HETATM   30  O3  UNL     1       1.211  52.736 -18.081  1.00  0.00    -0.302 OA
ENDBRANCH  27  29
ENDBRANCH  25  26
ENDBRANCH  24  25
ENDBRANCH  22  24
ENDBRANCH  14  22
BRANCH  20  31
HETATM   31  C27 UNL     1       7.131  56.132  -6.850  1.00  0.00     0.021 C 
BRANCH  31  32
HETATM   32  C28 UNL     1       7.849  55.381  -5.735  1.00  0.00     0.111 C 
BRANCH  32  33
HETATM   33  C29 UNL     1       8.519  56.301  -4.753  1.00  0.00     0.139 C 
HETATM   34  O4  UNL     1       9.079  55.989  -3.716  1.00  0.00    -0.650 OA
BRANCH  33  35
HETATM   35  O5  UNL     1       8.510  57.584  -5.169  1.00  0.00    -0.776 OA
HETATM   36  H41 UNL     1       8.983  58.070  -4.460  1.00  0.00     0.167 HD
ENDBRANCH  33  35
ENDBRANCH  32  33
ENDBRANCH  31  32
ENDBRANCH  20  31
TORSDOF 9
ENDMDL
