MODEL 1
REMARK minimizedAffinity -7.55187845
REMARK CNNscore 0.816792846
REMARK CNNaffinity 7.12472677
REMARK  6 active torsions:
REMARK  status: ('A' for Active; 'I' for Inactive)
REMARK    1  A    between atoms: C2_2  and  C30_32 
REMARK    2  A    between atoms: C3_3  and  C4_4 
REMARK    3  A    between atoms: C4_4  and  C5_5 
REMARK    4  A    between atoms: C5_5  and  C6_6 
REMARK    5  A    between atoms: C6_6  and  C8_8 
REMARK    6  A    between atoms: C30_32  and  O4_34 
ROOT
HETATM    1  C8  UNL     1       4.142  56.370  -8.074  1.00  0.00    -0.002 C 
HETATM    2  C9  UNL     1       5.127  55.420  -8.815  1.00  0.00     0.007 C 
HETATM    3  C10 UNL     1       4.292  54.475  -9.697  1.00  0.00     0.015 C 
HETATM    4  C11 UNL     1       2.889  55.107  -9.742  1.00  0.00    -0.005 C 
HETATM    5  C12 UNL     1       2.919  56.212 -10.843  1.00  0.00     0.021 C 
HETATM    6  C13 UNL     1       1.675  54.252 -10.082  1.00  0.00    -0.000 C 
HETATM    7  C14 UNL     1       0.443  54.546  -9.588  1.00  0.00    -0.060 C 
HETATM    8  C15 UNL     1       0.258  55.728  -8.626  1.00  0.00     0.036 C 
HETATM    9  C16 UNL     1       1.515  56.504  -8.182  1.00  0.00     0.015 C 
HETATM   10  C17 UNL     1       2.777  55.637  -8.257  1.00  0.00    -0.028 C 
HETATM   11  C18 UNL     1       2.663  54.491  -7.202  1.00  0.00     0.016 C 
HETATM   12  C19 UNL     1      -0.832  53.718  -9.916  1.00  0.00    -0.014 C 
HETATM   13  C20 UNL     1      -1.117  52.815  -8.696  1.00  0.00     0.020 C 
HETATM   14  C21 UNL     1      -2.035  54.651 -10.185  1.00  0.00     0.021 C 
HETATM   15  C22 UNL     1      -3.315  53.960 -10.633  1.00  0.00     0.080 C 
HETATM   16  C23 UNL     1      -3.181  52.545 -11.139  1.00  0.00     0.135 C 
HETATM   17  O1  UNL     1      -4.189  51.831 -11.163  1.00  0.00    -0.297 OA
HETATM   18  C24 UNL     1      -1.842  52.046 -11.697  1.00  0.00     0.018 C 
HETATM   19  C25 UNL     1      -1.701  50.555 -11.310  1.00  0.00     0.023 C 
HETATM   20  C26 UNL     1      -1.963  52.118 -13.234  1.00  0.00     0.023 C 
HETATM   21  C27 UNL     1      -0.625  52.918 -11.238  1.00  0.00     0.020 C 
HETATM   22  C28 UNL     1       0.699  52.150 -11.208  1.00  0.00     0.090 C 
HETATM   23  C29 UNL     1       1.855  53.093 -11.011  1.00  0.00     0.157 C 
HETATM   24  O2  UNL     1       2.924  52.888 -11.582  1.00  0.00    -0.293 OA
ENDROOT
BRANCH   1  25
HETATM   25  C6  UNL     1       4.657  56.735  -6.645  1.00  0.00    -0.014 C 
HETATM   26  C7  UNL     1       3.828  57.849  -5.998  1.00  0.00     0.010 C 
BRANCH  25  27
HETATM   27  C5  UNL     1       6.154  57.152  -6.710  1.00  0.00     0.008 C 
BRANCH  27  28
HETATM   28  C4  UNL     1       6.847  57.217  -5.343  1.00  0.00     0.028 C 
BRANCH  28  29
HETATM   29  C3  UNL     1       7.203  58.633  -4.983  1.00  0.00    -0.013 C 
HETATM   30  C2  UNL     1       8.441  59.153  -4.834  1.00  0.00     0.008 C 
HETATM   31  C1  UNL     1       9.728  58.392  -4.963  1.00  0.00     0.055 C 
BRANCH  30  32
HETATM   32  C30 UNL     1       8.627  60.589  -4.494  1.00  0.00     0.171 C 
HETATM   33  O3  UNL     1       7.732  61.411  -4.399  1.00  0.00    -0.646 OA
BRANCH  32  34
HETATM   34  O4  UNL     1       9.907  60.942  -4.286  1.00  0.00    -0.773 OA
HETATM   35  H44 UNL     1       9.849  61.897  -4.077  1.00  0.00     0.167 HD
ENDBRANCH  32  34
ENDBRANCH  30  32
ENDBRANCH  28  29
ENDBRANCH  27  28
ENDBRANCH  25  27
ENDBRANCH   1  25
TORSDOF 6
ENDMDL
