MODEL 1
REMARK minimizedAffinity -8.53378773
REMARK CNNscore 0.640454113
REMARK CNNaffinity 7.36259031
REMARK  11 active torsions:
REMARK  status: ('A' for Active; 'I' for Inactive)
REMARK    1  A    between atoms: C3_3  and  O1_4 
REMARK    2  A    between atoms: N1_14  and  O2_16 
REMARK    3  A    between atoms: O2_16  and  C13_17 
REMARK    4  A    between atoms: C13_17  and  C14_18 
REMARK       I    between atoms: C14_18  and  N2_20 
REMARK    5  A    between atoms: N2_20  and  C15_21 
REMARK    6  A    between atoms: C15_21  and  C16_22 
REMARK    7  A    between atoms: C15_21  and  C17_25 
REMARK    8  A    between atoms: C16_22  and  O5_24 
REMARK    9  A    between atoms: C17_25  and  O6_26 
REMARK   10  A    between atoms: C17_25  and  C18_27 
REMARK   11  A    between atoms: C22_31  and  N3_32 
ROOT
HETATM    1  C1  UNL     1      -0.568  11.507  14.816  1.00  0.00     0.015 C 
HETATM    2  C2  UNL     1      -0.950  10.385  14.610  1.00  0.00    -0.078 C 
HETATM    3  C3  UNL     1      -1.412   9.011  14.365  1.00  0.00     0.128 C 
HETATM    4  C4  UNL     1      -1.881   8.816  12.913  1.00  0.00     0.052 C 
HETATM    5  C5  UNL     1      -2.952   7.715  12.956  1.00  0.00     0.010 C 
HETATM    6  C6  UNL     1      -3.154   7.350  14.438  1.00  0.00     0.002 C 
HETATM    7  C7  UNL     1      -4.580   6.900  14.823  1.00  0.00    -0.004 C 
HETATM    8  C8  UNL     1      -5.044   5.641  14.059  1.00  0.00     0.010 C 
HETATM    9  C9  UNL     1      -6.288   5.864  13.203  1.00  0.00     0.035 C 
HETATM   10  C10 UNL     1      -7.424   6.521  13.952  1.00  0.00    -0.069 C 
HETATM   11  C11 UNL     1      -8.697   6.252  13.615  1.00  0.00     0.030 C 
HETATM   12  C12 UNL     1      -9.828   6.967  14.258  1.00  0.00     0.032 C 
HETATM   13  N1  UNL     1     -11.018   6.449  14.153  1.00  0.00    -0.271 N 
ATOM     14  H1  UNL     1     -11.228   5.585  13.655  1.00  0.00     0.194 HD
HETATM   15  C24 UNL     1      -9.542   8.251  15.019  1.00  0.00     0.060 C 
HETATM   16  C25 UNL     1      -8.087   8.706  14.926  1.00  0.00     0.020 C 
HETATM   17  C26 UNL     1      -7.066   7.545  15.035  1.00  0.00    -0.016 C 
HETATM   18  C27 UNL     1      -7.186   6.882  16.429  1.00  0.00     0.020 C 
HETATM   19  C28 UNL     1      -5.608   8.059  14.764  1.00  0.00     0.002 C 
HETATM   20  C29 UNL     1      -5.130   9.194  15.685  1.00  0.00     0.007 C 
HETATM   21  C30 UNL     1      -3.743   9.696  15.266  1.00  0.00     0.014 C 
HETATM   22  C31 UNL     1      -2.650   8.593  15.221  1.00  0.00     0.003 C 
HETATM   23  C32 UNL     1      -2.251   8.211  16.659  1.00  0.00     0.020 C 
ENDROOT
BRANCH   3  24
HETATM   24  O1  UNL     1      -0.304   8.139  14.605  1.00  0.00    -0.377 OA
HETATM   25  H2  UNL     1      -0.487   7.285  14.183  1.00  0.00     0.211 HD
ENDBRANCH   3  24
BRANCH  13  26
HETATM   26  O2  UNL     1     -11.974   7.234  14.814  1.00  0.00    -0.271 OA
BRANCH  26  27
HETATM   27  C13 UNL     1     -12.565   8.125  13.873  1.00  0.00     0.303 C 
BRANCH  27  28
HETATM   28  C14 UNL     1     -14.058   7.860  13.884  1.00  0.00     0.244 C 
HETATM   29  O3  UNL     1     -14.792   8.179  14.816  1.00  0.00    -0.271 OA
HETATM   30  N2  UNL     1     -14.544   7.262  12.744  1.00  0.00    -0.342 N 
HETATM   31  H16 UNL     1     -13.909   6.933  12.020  1.00  0.00     0.163 HD
BRANCH  30  32
HETATM   32  C15 UNL     1     -15.950   6.835  12.632  1.00  0.00     0.216 C 
BRANCH  32  33
HETATM   33  C16 UNL     1     -16.794   8.002  12.103  1.00  0.00     0.166 C 
HETATM   34  O4  UNL     1     -17.781   7.936  11.384  1.00  0.00    -0.648 OA
BRANCH  33  35
HETATM   35  O5  UNL     1     -16.326   9.220  12.479  1.00  0.00    -0.775 OA
HETATM   36  H18 UNL     1     -16.995   9.841  12.114  1.00  0.00     0.167 HD
ENDBRANCH  33  35
ENDBRANCH  32  33
BRANCH  32  37
HETATM   37  C17 UNL     1     -16.485   6.318  13.989  1.00  0.00     0.184 C 
BRANCH  37  38
HETATM   38  O6  UNL     1     -17.582   7.128  14.436  1.00  0.00    -0.388 OA
HETATM   39  H20 UNL     1     -17.197   7.989  14.679  1.00  0.00     0.210 HD
ENDBRANCH  37  38
BRANCH  37  40
HETATM   40  C18 UNL     1     -16.860   4.848  13.986  1.00  0.00    -0.025 A 
HETATM   41  C19 UNL     1     -18.181   4.475  13.678  1.00  0.00     0.010 A 
HETATM   42  C20 UNL     1     -18.571   3.133  13.682  1.00  0.00     0.003 A 
HETATM   43  C21 UNL     1     -17.643   2.137  13.987  1.00  0.00     0.036 A 
HETATM   44  C22 UNL     1     -16.324   2.496  14.289  1.00  0.00     0.103 A 
HETATM   45  C23 UNL     1     -15.929   3.842  14.289  1.00  0.00     0.045 A 
BRANCH  44  46
HETATM   46  N3  UNL     1     -15.346   1.449  14.611  1.00  0.00    -0.116 N 
HETATM   47  O7  UNL     1     -14.766   1.511  15.706  1.00  0.00    -0.532 OA
HETATM   48  O8  UNL     1     -15.146   0.566  13.764  1.00  0.00    -0.532 OA
ENDBRANCH  44  46
ENDBRANCH  37  40
ENDBRANCH  32  37
ENDBRANCH  30  32
ENDBRANCH  27  28
ENDBRANCH  26  27
ENDBRANCH  13  26
TORSDOF 11
ENDMDL
