MODEL 1
REMARK minimizedAffinity -7.53814602
REMARK CNNscore 0.557389557
REMARK CNNaffinity 6.09039259
REMARK  4 active torsions:
REMARK  status: ('A' for Active; 'I' for Inactive)
REMARK    1  A    between atoms: C4_4  and  C5_5 
REMARK    2  A    between atoms: C5_5  and  C6_7 
REMARK    3  A    between atoms: C6_7  and  C7_8 
REMARK    4  A    between atoms: C7_8  and  C8_9 
ROOT
HETATM    1  C8  UNL     1      -9.317  47.493 -29.462  1.00  0.00     0.028 C 
HETATM    2  C9  UNL     1      -9.993  47.096 -30.809  1.00  0.00     0.009 C 
HETATM    3  C10 UNL     1     -11.188  46.196 -30.467  1.00  0.00     0.011 C 
HETATM    4  C11 UNL     1     -11.589  46.616 -29.044  1.00  0.00    -0.032 C 
HETATM    5  C12 UNL     1     -12.317  47.999 -29.173  1.00  0.00     0.016 C 
HETATM    6  C13 UNL     1     -10.179  46.758 -28.405  1.00  0.00     0.001 C 
HETATM    7  C14 UNL     1     -10.305  47.362 -27.008  1.00  0.00     0.006 C 
HETATM    8  C15 UNL     1     -11.193  46.478 -26.115  1.00  0.00     0.006 C 
HETATM    9  C16 UNL     1     -12.588  46.145 -26.724  1.00  0.00     0.003 C 
HETATM   10  C17 UNL     1     -13.560  45.349 -25.743  1.00  0.00    -0.035 C 
HETATM   11  C18 UNL     1     -12.794  44.209 -25.021  1.00  0.00     0.016 C 
HETATM   12  C19 UNL     1     -14.031  46.323 -24.608  1.00  0.00     0.017 C 
HETATM   13  C20 UNL     1     -15.315  47.073 -24.918  1.00  0.00     0.080 C 
HETATM   14  C21 UNL     1     -16.466  46.118 -25.127  1.00  0.00     0.135 C 
HETATM   15  O2  UNL     1     -17.617  46.473 -24.860  1.00  0.00    -0.297 OA
HETATM   16  C22 UNL     1     -16.156  44.728 -25.693  1.00  0.00     0.017 C 
HETATM   17  C23 UNL     1     -16.089  43.738 -24.513  1.00  0.00     0.023 C 
HETATM   18  C24 UNL     1     -17.352  44.275 -26.565  1.00  0.00     0.023 C 
HETATM   19  C25 UNL     1     -14.814  44.772 -26.527  1.00  0.00     0.009 C 
HETATM   20  C26 UNL     1     -15.016  45.517 -27.875  1.00  0.00     0.007 C 
HETATM   21  C27 UNL     1     -13.845  45.353 -28.836  1.00  0.00     0.011 C 
HETATM   22  C28 UNL     1     -12.451  45.571 -28.196  1.00  0.00    -0.032 C 
HETATM   23  C29 UNL     1     -11.782  44.165 -28.181  1.00  0.00     0.016 C 
ENDROOT
BRANCH   1  24
HETATM   24  C7  UNL     1      -7.816  47.179 -29.389  1.00  0.00     0.093 A 
HETATM   25  C30 UNL     1      -7.250  46.060 -30.260  1.00  0.00     0.207 A 
HETATM   26  O3  UNL     1      -7.500  45.883 -28.856  1.00  0.00    -0.374 OA
BRANCH  24  27
HETATM   27  C6  UNL     1      -6.901  48.288 -28.907  1.00  0.00     0.123 C 
BRANCH  27  28
HETATM   28  C5  UNL     1      -5.414  48.027 -28.971  1.00  0.00     0.152 C 
HETATM   29  O1  UNL     1      -4.863  47.806 -30.054  1.00  0.00    -0.293 OA
BRANCH  28  30
HETATM   30  C4  UNL     1      -4.536  48.099 -27.763  1.00  0.00     0.052 C 
HETATM   31  C2  UNL     1      -3.596  48.974 -27.354  1.00  0.00    -0.084 C 
HETATM   32  C1  UNL     1      -2.843  48.705 -26.071  1.00  0.00     0.043 C 
HETATM   33  C3  UNL     1      -3.193  50.259 -28.021  1.00  0.00     0.043 C 
ENDBRANCH  28  30
ENDBRANCH  27  28
ENDBRANCH  24  27
ENDBRANCH   1  24
TORSDOF 4
ENDMDL
