MODEL 1
REMARK minimizedAffinity -8.05103207
REMARK CNNscore 0.612507224
REMARK CNNaffinity 7.15483904
REMARK  10 active torsions:
REMARK  status: ('A' for Active; 'I' for Inactive)
REMARK    1  A    between atoms: O1_2  and  C2_3 
REMARK    2  A    between atoms: C4_5  and  O2_6 
REMARK    3  A    between atoms: O2_6  and  C5_7 
REMARK    4  A    between atoms: C6_8  and  O3_9 
REMARK    5  A    between atoms: C8_11  and  O4_12 
REMARK    6  A    between atoms: O4_12  and  C9_13 
REMARK    7  A    between atoms: C20_24  and  C21_25 
REMARK    8  A    between atoms: C21_25  and  O5_27 
REMARK    9  A    between atoms: C25_30  and  O6_31 
REMARK   10  A    between atoms: C34_42  and  O9_43 
ROOT
HETATM    1  C9  UNL     1      -1.125  49.220 -19.279  1.00  0.00     0.046 C 
HETATM    2  C10 UNL     1      -1.529  50.485 -19.447  1.00  0.00     0.011 C 
HETATM    3  C11 UNL     1      -1.739  51.073 -20.813  1.00  0.00     0.019 C 
HETATM    4  C12 UNL     1      -0.431  51.761 -21.254  1.00  0.00     0.010 C 
HETATM    5  C13 UNL     1      -0.575  52.533 -22.571  1.00  0.00     0.009 C 
HETATM    6  C14 UNL     1      -1.687  51.979 -23.481  1.00  0.00     0.025 C 
HETATM    7  C15 UNL     1      -1.725  50.439 -23.311  1.00  0.00     0.001 C 
HETATM    8  C16 UNL     1      -2.441  49.789 -24.495  1.00  0.00     0.007 C 
HETATM    9  C17 UNL     1      -1.619  49.990 -25.767  1.00  0.00     0.013 C 
HETATM   10  C18 UNL     1      -1.220  51.462 -26.047  1.00  0.00    -0.007 C 
HETATM   11  C19 UNL     1      -1.769  51.816 -27.456  1.00  0.00     0.019 C 
HETATM   12  C20 UNL     1       0.324  51.687 -25.953  1.00  0.00     0.025 C 
HETATM   13  C23 UNL     1       0.475  53.211 -25.766  1.00  0.00     0.011 C 
HETATM   14  C24 UNL     1      -0.873  53.724 -25.255  1.00  0.00     0.039 C 
HETATM   15  C25 UNL     1      -1.726  52.478 -24.969  1.00  0.00     0.070 C 
HETATM   16  C26 UNL     1      -2.273  50.044 -21.885  1.00  0.00    -0.033 C 
HETATM   17  C27 UNL     1      -3.826  50.113 -21.861  1.00  0.00     0.016 C 
HETATM   18  C28 UNL     1      -1.896  48.554 -21.558  1.00  0.00     0.016 C 
HETATM   19  C29 UNL     1      -0.850  48.349 -20.461  1.00  0.00     0.065 C 
ENDROOT
BRANCH   1  20
HETATM   20  O4  UNL     1      -0.795  48.711 -18.043  1.00  0.00    -0.325 OA
BRANCH  20  21
HETATM   21  C8  UNL     1      -1.929  48.557 -17.168  1.00  0.00     0.269 C 
HETATM   22  C7  UNL     1      -2.810  47.486 -17.810  1.00  0.00     0.095 C 
HETATM   23  C6  UNL     1      -3.990  47.110 -16.926  1.00  0.00     0.154 C 
HETATM   24  C5  UNL     1      -3.552  46.821 -15.475  1.00  0.00     0.182 C 
HETATM   25  C30 UNL     1      -2.649  47.968 -14.984  1.00  0.00     0.152 C 
HETATM   26  O7  UNL     1      -1.532  48.119 -15.863  1.00  0.00    -0.353 OA
HETATM   27  C31 UNL     1      -2.094  47.690 -13.589  1.00  0.00     0.042 C 
BRANCH  23  28
HETATM   28  O3  UNL     1      -4.953  48.168 -16.945  1.00  0.00    -0.393 OA
HETATM   29  H10 UNL     1      -5.686  47.847 -16.378  1.00  0.00     0.210 HD
ENDBRANCH  23  28
BRANCH  24  30
HETATM   30  O2  UNL     1      -4.665  46.685 -14.575  1.00  0.00    -0.351 OA
BRANCH  30  31
HETATM   31  C4  UNL     1      -4.944  45.341 -14.192  1.00  0.00     0.263 C 
HETATM   32  C3  UNL     1      -6.185  44.890 -14.960  1.00  0.00     0.095 C 
HETATM   33  C2  UNL     1      -6.505  43.433 -14.637  1.00  0.00     0.156 C 
HETATM   34  C34 UNL     1      -5.261  42.558 -14.880  1.00  0.00     0.175 C 
HETATM   35  C32 UNL     1      -4.037  43.153 -14.160  1.00  0.00     0.151 C 
HETATM   36  O8  UNL     1      -3.837  44.518 -14.557  1.00  0.00    -0.354 OA
HETATM   37  C33 UNL     1      -2.762  42.385 -14.491  1.00  0.00     0.042 C 
BRANCH  33  38
HETATM   38  O1  UNL     1      -6.870  43.275 -13.250  1.00  0.00    -0.388 OA
HETATM   39  C1  UNL     1      -8.259  43.011 -13.061  1.00  0.00     0.202 C 
ENDBRANCH  33  38
BRANCH  34  40
HETATM   40  O9  UNL     1      -5.522  41.231 -14.419  1.00  0.00    -0.390 OA
HETATM   41  H56 UNL     1      -5.978  41.336 -13.560  1.00  0.00     0.210 HD
ENDBRANCH  34  40
ENDBRANCH  30  31
ENDBRANCH  24  30
ENDBRANCH  20  21
ENDBRANCH   1  20
BRANCH  15  42
HETATM   42  O6  UNL     1      -3.099  52.801 -25.241  1.00  0.00    -0.389 OA
HETATM   43  H39 UNL     1      -3.323  53.598 -24.731  1.00  0.00     0.210 HD
ENDBRANCH  15  42
BRANCH  12  44
HETATM   44  C21 UNL     1       1.199  51.109 -27.084  1.00  0.00     0.119 C 
HETATM   45  C22 UNL     1       2.677  51.433 -26.876  1.00  0.00     0.040 C 
BRANCH  44  46
HETATM   46  O5  UNL     1       0.814  51.632 -28.350  1.00  0.00    -0.396 OA
HETATM   47  H34 UNL     1       1.362  51.201 -29.029  1.00  0.00     0.210 HD
ENDBRANCH  44  46
ENDBRANCH  12  44
TORSDOF 10
ENDMDL
