MODEL 1
REMARK minimizedAffinity -10.0706015
REMARK CNNscore 0.628086627
REMARK CNNaffinity 7.70314789
REMARK  9 active torsions:
REMARK  status: ('A' for Active; 'I' for Inactive)
REMARK    1  A    between atoms: C4_4  and  C5_5 
REMARK    2  A    between atoms: C7_7  and  O1_9 
REMARK    3  A    between atoms: C20_21  and  O2_22 
REMARK    4  A    between atoms: O2_22  and  C21_23 
REMARK    5  A    between atoms: C22_25  and  C23_26 
REMARK    6  A    between atoms: C23_26  and  O4_27 
REMARK    7  A    between atoms: C24_28  and  O5_29 
REMARK    8  A    between atoms: C25_30  and  O6_31 
REMARK    9  A    between atoms: C26_32  and  O7_33 
ROOT
HETATM    1  C5  UNL     1       0.339   7.641  10.293  1.00  0.00     0.147 C 
HETATM    2  C6  UNL     1       1.358   7.341  11.390  1.00  0.00     0.074 C 
HETATM    3  C7  UNL     1       0.679   6.945  12.725  1.00  0.00     0.064 C 
HETATM    4  C8  UNL     1       0.660   5.421  12.895  1.00  0.00     0.046 C 
HETATM    5  C9  UNL     1      -0.765   7.518  12.793  1.00  0.00     0.058 C 
HETATM    6  C10 UNL     1      -0.809   8.839  12.039  1.00  0.00     0.131 C 
HETATM    7  C11 UNL     1      -2.246   9.292  12.241  1.00  0.00     0.042 C 
HETATM    8  C12 UNL     1      -2.577   8.972  13.736  1.00  0.00    -0.029 C 
HETATM    9  C13 UNL     1      -2.308  10.327  14.452  1.00  0.00     0.016 C 
HETATM   10  C14 UNL     1      -4.092   8.539  13.952  1.00  0.00     0.014 C 
HETATM   11  C15 UNL     1      -4.608   7.646  12.783  1.00  0.00     0.034 C 
HETATM   12  C16 UNL     1      -5.762   6.738  13.052  1.00  0.00    -0.022 C 
HETATM   13  C17 UNL     1      -6.366   6.595  14.241  1.00  0.00    -0.059 C 
HETATM   14  C18 UNL     1      -5.870   7.357  15.452  1.00  0.00     0.057 C 
HETATM   15  C19 UNL     1      -6.934   8.392  15.752  1.00  0.00     0.024 C 
HETATM   16  C20 UNL     1      -8.246   8.224  15.515  1.00  0.00     0.116 C 
HETATM   17  C27 UNL     1      -8.734   6.911  14.934  1.00  0.00     0.194 C 
HETATM   18  O8  UNL     1      -9.942   6.678  14.866  1.00  0.00    -0.289 OA
HETATM   19  C28 UNL     1      -7.694   5.859  14.467  1.00  0.00     0.044 C 
HETATM   20  C29 UNL     1      -7.574   4.773  15.550  1.00  0.00     0.028 C 
HETATM   21  C30 UNL     1      -8.253   5.189  13.192  1.00  0.00     0.028 C 
HETATM   22  C31 UNL     1      -4.382   7.879  15.340  1.00  0.00     0.032 C 
HETATM   23  C32 UNL     1      -4.120   8.809  16.550  1.00  0.00     0.025 C 
HETATM   24  C33 UNL     1      -3.419   6.698  15.545  1.00  0.00     0.137 C 
HETATM   25  O9  UNL     1      -3.576   5.898  16.472  1.00  0.00    -0.297 OA
HETATM   26  C34 UNL     1      -2.262   6.507  14.581  1.00  0.00     0.089 C 
HETATM   27  C35 UNL     1      -1.543   7.807  14.138  1.00  0.00    -0.021 C 
HETATM   28  C36 UNL     1      -0.599   8.218  15.287  1.00  0.00     0.017 C 
HETATM   29  O10 UNL     1      -0.567   8.688  10.644  1.00  0.00    -0.376 OA
ENDROOT
BRANCH  16  30
HETATM   30  O2  UNL     1      -9.095   9.256  15.877  1.00  0.00    -0.314 OA
BRANCH  30  31
HETATM   31  C21 UNL     1     -10.144   9.663  14.988  1.00  0.00     0.298 C 
HETATM   32  O3  UNL     1     -11.390   9.137  15.499  1.00  0.00    -0.348 OA
HETATM   33  C22 UNL     1     -12.122   9.987  16.375  1.00  0.00     0.179 C 
HETATM   34  C24 UNL     1     -12.492  11.332  15.710  1.00  0.00     0.180 C 
HETATM   35  C25 UNL     1     -11.627  11.644  14.474  1.00  0.00     0.183 C 
HETATM   36  C26 UNL     1     -10.188  11.197  14.703  1.00  0.00     0.205 C 
BRANCH  33  37
HETATM   37  C23 UNL     1     -11.433  10.144  17.739  1.00  0.00     0.198 C 
BRANCH  37  38
HETATM   38  O4  UNL     1     -10.975   8.877  18.211  1.00  0.00    -0.398 OA
HETATM   39  H32 UNL     1     -10.106   8.719  17.801  1.00  0.00     0.209 HD
ENDBRANCH  37  38
ENDBRANCH  33  37
BRANCH  34  40
HETATM   40  O5  UNL     1     -13.862  11.314  15.254  1.00  0.00    -0.390 OA
HETATM   41  H34 UNL     1     -14.423  11.261  16.049  1.00  0.00     0.210 HD
ENDBRANCH  34  40
BRANCH  35  42
HETATM   42  O6  UNL     1     -12.161  11.031  13.296  1.00  0.00    -0.390 OA
HETATM   43  H36 UNL     1     -13.109  10.870  13.505  1.00  0.00     0.210 HD
ENDBRANCH  35  42
BRANCH  36  44
HETATM   44  O7  UNL     1      -9.643  11.981  15.779  1.00  0.00    -0.388 OA
HETATM   45  H38 UNL     1      -9.473  12.873  15.425  1.00  0.00     0.210 HD
ENDBRANCH  36  44
ENDBRANCH  30  31
ENDBRANCH  16  30
BRANCH   3  46
HETATM   46  O1  UNL     1       1.517   7.474  13.750  1.00  0.00    -0.390 OA
HETATM   47  H14 UNL     1       2.397   7.060  13.680  1.00  0.00     0.210 HD
ENDBRANCH   3  46
BRANCH   1  48
HETATM   48  C4  UNL     1       1.027   7.967   8.987  1.00  0.00     0.007 C 
HETATM   49  C2  UNL     1       1.979   7.285   8.318  1.00  0.00    -0.089 C 
HETATM   50  C1  UNL     1       2.576   7.836   7.049  1.00  0.00     0.042 C 
HETATM   51  C3  UNL     1       2.532   5.947   8.728  1.00  0.00     0.042 C 
ENDBRANCH   1  48
TORSDOF 9
ENDMDL
