MODEL 1
REMARK minimizedAffinity -8.89275742
REMARK  10 active torsions:
REMARK  status: ('A' for Active; 'I' for Inactive)
REMARK    1  A    between atoms: C2_2  and  C3_3 
REMARK    2  A    between atoms: C3_3  and  N1_4 
REMARK    3  A    between atoms: N1_4  and  C4_5 
REMARK    4  A    between atoms: C9_12  and  C11_14 
REMARK    5  A    between atoms: C11_14  and  O1_15 
REMARK    6  A    between atoms: C12_16  and  O2_17 
REMARK    7  A    between atoms: C17_22  and  C18_23 
REMARK    8  A    between atoms: C18_23  and  C19_24 
REMARK       I    between atoms: C19_24  and  N3_26 
REMARK    9  A    between atoms: N3_26  and  C20_27 
REMARK   10  A    between atoms: C20_27  and  C22_29 
ROOT
HETATM    1  C4  UNL     1       1.492   6.638  10.448  1.00  0.00     0.145 A 
HETATM    2  N2  UNL     1       1.002   5.683  11.210  1.00  0.00    -0.339 N 
ATOM      3  H2  UNL     1       1.109   4.685  11.030  1.00  0.00     0.168 HD
HETATM    4  C5  UNL     1       0.323   6.217  12.286  1.00  0.00     0.030 A 
HETATM    5  C6  UNL     1       0.322   7.585  12.346  1.00  0.00     0.009 A 
HETATM    6  C7  UNL     1      -0.407   8.416  13.331  1.00  0.00     0.054 C 
HETATM    7  C8  UNL     1      -1.359   7.618  14.305  1.00  0.00     0.012 C 
HETATM    8  C9  UNL     1      -2.610   8.540  14.681  1.00  0.00     0.008 C 
HETATM    9  C10 UNL     1      -2.166  10.015  14.941  1.00  0.00     0.020 C 
HETATM   10  C12 UNL     1      -3.599   8.539  13.475  1.00  0.00     0.128 C 
HETATM   11  C13 UNL     1      -3.988   7.139  13.006  1.00  0.00     0.033 C 
HETATM   12  C14 UNL     1      -2.777   6.271  12.635  1.00  0.00     0.013 C 
HETATM   13  C15 UNL     1      -1.730   6.139  13.777  1.00  0.00    -0.030 C 
HETATM   14  C16 UNL     1      -2.353   5.253  14.886  1.00  0.00     0.016 C 
HETATM   15  C17 UNL     1      -0.387   5.386  13.310  1.00  0.00     0.054 C 
HETATM   16  S1  UNL     1       1.209   8.233  11.048  1.00  0.00    -0.057 SA
ENDROOT
BRANCH  15  17
HETATM   17  C18 UNL     1      -0.546   3.914  12.854  1.00  0.00     0.114 C 
BRANCH  17  18
HETATM   18  C19 UNL     1      -1.504   3.753  11.683  1.00  0.00     0.218 C 
HETATM   19  O3  UNL     1      -1.285   4.177  10.552  1.00  0.00    -0.274 OA
HETATM   20  N3  UNL     1      -2.653   3.070  12.015  1.00  0.00    -0.353 N 
HETATM   21  H28 UNL     1      -2.838   2.861  12.988  1.00  0.00     0.163 HD
BRANCH  20  22
HETATM   22  C20 UNL     1      -3.720   2.847  11.053  1.00  0.00     0.113 C 
HETATM   23  C21 UNL     1      -3.614   3.819   9.873  1.00  0.00     0.037 C 
BRANCH  22  24
HETATM   24  C22 UNL     1      -5.055   2.894  11.777  1.00  0.00    -0.036 A 
HETATM   25  C23 UNL     1      -5.987   1.864  11.563  1.00  0.00     0.009 A 
HETATM   26  C24 UNL     1      -7.208   1.855  12.237  1.00  0.00     0.001 A 
HETATM   27  C25 UNL     1      -7.513   2.869  13.138  1.00  0.00     0.000 A 
HETATM   28  C26 UNL     1      -6.598   3.894  13.365  1.00  0.00     0.001 A 
HETATM   29  C27 UNL     1      -5.373   3.904  12.695  1.00  0.00     0.009 A 
ENDBRANCH  22  24
ENDBRANCH  20  22
ENDBRANCH  17  18
ENDBRANCH  15  17
BRANCH   1  30
HETATM   30  N1  UNL     1       2.123   6.343   9.291  1.00  0.00    -0.367 N 
HETATM   31  H6  UNL     1       2.341   5.358   9.171  1.00  0.00     0.161 HD
BRANCH  30  32
HETATM   32  C3  UNL     1       3.001   7.255   8.609  1.00  0.00     0.148 C 
BRANCH  32  33
HETATM   33  C2  UNL     1       2.218   7.816   7.461  1.00  0.00    -0.018 C 
HETATM   34  C1  UNL     1       1.777   7.115   6.406  1.00  0.00     0.008 C 
ENDBRANCH  32  33
ENDBRANCH  30  32
ENDBRANCH   1  30
BRANCH   8  35
HETATM   35  C11 UNL     1      -3.271   8.107  16.023  1.00  0.00     0.176 C 
BRANCH  35  36
HETATM   36  O1  UNL     1      -2.290   7.905  17.047  1.00  0.00    -0.400 OA
HETATM   37  H15 UNL     1      -2.768   7.614  17.848  1.00  0.00     0.209 HD
ENDBRANCH  35  36
ENDBRANCH   8  35
BRANCH  10  38
HETATM   38  O2  UNL     1      -4.786   9.289  13.736  1.00  0.00    -0.395 OA
HETATM   39  H17 UNL     1      -5.028   9.113  14.669  1.00  0.00     0.210 HD
ENDBRANCH  10  38
TORSDOF 10
ENDMDL
