MODEL 1
REMARK minimizedAffinity -8.29446411
REMARK CNNscore 0.684955418
REMARK CNNaffinity 6.37616158
REMARK  10 active torsions:
REMARK  status: ('A' for Active; 'I' for Inactive)
REMARK    1  A    between atoms: C9_9  and  O1_10 
REMARK    2  A    between atoms: C11_12  and  O2_13 
REMARK    3  A    between atoms: O2_13  and  C12_14 
REMARK    4  A    between atoms: C14_16  and  O3_17 
REMARK    5  A    between atoms: C15_18  and  O4_19 
REMARK    6  A    between atoms: C16_20  and  C17_21 
REMARK    7  A    between atoms: C17_21  and  O5_22 
REMARK    8  A    between atoms: C20_26  and  C21_27 
REMARK    9  A    between atoms: C22_29  and  O8_30 
REMARK   10  A    between atoms: C25_33  and  C26_34 
ROOT
HETATM    1  C1  UNL     1      -0.616  50.941 -18.797  1.00  0.00     0.019 C 
HETATM    2  C2  UNL     1      -1.746  50.527 -19.783  1.00  0.00    -0.005 C 
HETATM    3  C3  UNL     1      -3.060  51.160 -19.262  1.00  0.00     0.013 C 
HETATM    4  C4  UNL     1      -4.324  50.786 -20.046  1.00  0.00     0.007 C 
HETATM    5  C5  UNL     1      -4.336  49.333 -20.573  1.00  0.00     0.011 C 
HETATM    6  C6  UNL     1      -3.342  48.448 -19.779  1.00  0.00     0.026 C 
HETATM    7  C7  UNL     1      -3.513  46.944 -20.077  1.00  0.00     0.011 C 
HETATM    8  C8  UNL     1      -4.215  46.692 -21.402  1.00  0.00     0.039 C 
HETATM    9  C9  UNL     1      -5.641  47.284 -21.434  1.00  0.00     0.074 C 
HETATM   10  C10 UNL     1      -6.076  47.380 -22.916  1.00  0.00     0.071 C 
HETATM   11  C11 UNL     1      -7.533  47.822 -23.086  1.00  0.00     0.127 C 
HETATM   12  C18 UNL     1      -7.934  48.888 -22.060  1.00  0.00     0.033 C 
HETATM   13  C19 UNL     1      -6.726  49.627 -21.473  1.00  0.00     0.022 C 
HETATM   14  C20 UNL     1      -5.759  48.679 -20.699  1.00  0.00     0.048 C 
HETATM   15  C22 UNL     1      -1.868  48.960 -19.842  1.00  0.00     0.070 C 
HETATM   16  C23 UNL     1      -1.041  48.582 -21.076  1.00  0.00     0.040 C 
HETATM   17  C24 UNL     1      -1.256  49.683 -22.092  1.00  0.00     0.013 C 
HETATM   18  C25 UNL     1      -1.464  50.979 -21.273  1.00  0.00     0.028 C 
ENDROOT
BRANCH  11  19
HETATM   19  O2  UNL     1      -8.354  46.656 -22.929  1.00  0.00    -0.356 OA
BRANCH  19  20
HETATM   20  C12 UNL     1      -8.185  45.683 -23.958  1.00  0.00     0.263 C 
HETATM   21  C13 UNL     1      -8.407  44.289 -23.363  1.00  0.00     0.095 C 
HETATM   22  C14 UNL     1      -9.380  43.490 -24.203  1.00  0.00     0.154 C 
HETATM   23  C15 UNL     1     -10.696  44.267 -24.330  1.00  0.00     0.178 C 
HETATM   24  C16 UNL     1     -10.453  45.705 -24.837  1.00  0.00     0.179 C 
HETATM   25  O6  UNL     1      -9.058  45.964 -25.051  1.00  0.00    -0.351 OA
BRANCH  22  26
HETATM   26  O3  UNL     1      -9.634  42.223 -23.585  1.00  0.00    -0.393 OA
HETATM   27  H22 UNL     1     -10.513  41.945 -23.929  1.00  0.00     0.210 HD
ENDBRANCH  22  26
BRANCH  23  28
HETATM   28  O4  UNL     1     -11.571  43.542 -25.208  1.00  0.00    -0.390 OA
HETATM   29  H24 UNL     1     -11.182  43.568 -26.100  1.00  0.00     0.210 HD
ENDBRANCH  23  28
BRANCH  24  30
HETATM   30  C17 UNL     1     -11.119  46.755 -23.935  1.00  0.00     0.198 C 
BRANCH  30  31
HETATM   31  O5  UNL     1     -12.482  46.974 -24.291  1.00  0.00    -0.398 OA
HETATM   32  H28 UNL     1     -12.975  46.142 -24.178  1.00  0.00     0.209 HD
ENDBRANCH  30  31
ENDBRANCH  24  30
ENDBRANCH  19  20
ENDBRANCH  11  19
BRANCH   9  33
HETATM   33  O1  UNL     1      -6.492  46.334 -20.782  1.00  0.00    -0.389 OA
HETATM   34  H14 UNL     1      -6.694  45.606 -21.403  1.00  0.00     0.210 HD
ENDBRANCH   9  33
BRANCH  14  35
HETATM   35  C21 UNL     1      -6.397  48.489 -19.307  1.00  0.00     0.244 C 
HETATM   36  O7  UNL     1      -7.582  48.227 -19.109  1.00  0.00    -0.306 OA
ENDBRANCH  14  35
BRANCH  15  37
HETATM   37  O8  UNL     1      -1.200  48.366 -18.717  1.00  0.00    -0.389 OA
HETATM   38  H34 UNL     1      -1.221  47.398 -18.808  1.00  0.00     0.210 HD
ENDBRANCH  15  37
BRANCH  18  39
HETATM   39  C26 UNL     1      -0.393  52.025 -21.455  1.00  0.00    -0.045 A 
HETATM   40  C27 UNL     1       0.130  52.866 -20.559  1.00  0.00     0.087 A 
HETATM   41  C28 UNL     1       1.120  53.685 -21.257  1.00  0.00     0.283 A 
HETATM   42  O9  UNL     1       1.795  54.556 -20.743  1.00  0.00    -0.260 OA
HETATM   43  O10 UNL     1       1.162  53.321 -22.566  1.00  0.00    -0.314 OA
HETATM   44  C29 UNL     1       0.221  52.270 -22.790  1.00  0.00     0.213 A 
ENDBRANCH  18  39
TORSDOF 10
ENDMDL
