MODEL 1
REMARK minimizedAffinity -8.99385166
REMARK  4 active torsions:
REMARK  status: ('A' for Active; 'I' for Inactive)
REMARK    1  A    between atoms: C4_4  and  C5_5 
REMARK    2  A    between atoms: C5_5  and  C6_6 
REMARK    3  A    between atoms: C6_6  and  C7_7 
REMARK    4  A    between atoms: C7_7  and  C9_9 
ROOT
HETATM    1  C9  UNL     1      -6.348   7.044  14.232  1.00  0.00    -0.002 C 
HETATM    2  C10 UNL     1      -6.285   8.405  14.985  1.00  0.00     0.007 C 
HETATM    3  C11 UNL     1      -4.811   8.853  15.003  1.00  0.00     0.015 C 
HETATM    4  C12 UNL     1      -4.100   7.919  14.003  1.00  0.00    -0.013 C 
HETATM    5  C13 UNL     1      -4.325   8.546  12.592  1.00  0.00     0.021 C 
HETATM    6  C14 UNL     1      -2.598   7.721  14.142  1.00  0.00    -0.070 C 
HETATM    7  C15 UNL     1      -1.785   8.595  14.761  1.00  0.00    -0.022 C 
HETATM    8  C16 UNL     1      -0.299   8.402  14.783  1.00  0.00     0.034 C 
HETATM    9  C17 UNL     1       0.144   7.864  13.414  1.00  0.00     0.013 C 
HETATM   10  C18 UNL     1       1.678   7.941  13.141  1.00  0.00     0.018 C 
HETATM   11  C19 UNL     1       2.067   9.376  12.724  1.00  0.00     0.023 C 
HETATM   12  C20 UNL     1       2.542   7.562  14.359  1.00  0.00     0.023 C 
HETATM   13  C21 UNL     1       2.032   7.036  11.953  1.00  0.00     0.135 C 
HETATM   14  O1  UNL     1       3.179   6.625  11.765  1.00  0.00    -0.297 OA
HETATM   15  C22 UNL     1       0.945   6.745  10.938  1.00  0.00     0.080 C 
HETATM   16  C23 UNL     1      -0.403   6.329  11.539  1.00  0.00     0.017 C 
HETATM   17  C24 UNL     1      -0.519   6.478  13.079  1.00  0.00    -0.031 C 
HETATM   18  C25 UNL     1       0.211   5.273  13.734  1.00  0.00     0.016 C 
HETATM   19  C26 UNL     1      -2.023   6.404  13.613  1.00  0.00     0.024 C 
HETATM   20  C27 UNL     1      -2.998   5.612  12.707  1.00  0.00     0.010 C 
HETATM   21  C28 UNL     1      -4.465   5.533  13.188  1.00  0.00     0.011 C 
HETATM   22  C29 UNL     1      -4.857   6.566  14.265  1.00  0.00    -0.029 C 
HETATM   23  C30 UNL     1      -4.559   5.956  15.672  1.00  0.00     0.016 C 
ENDROOT
BRANCH   1  24
HETATM   24  C7  UNL     1      -7.465   6.114  14.782  1.00  0.00    -0.014 C 
HETATM   25  C8  UNL     1      -7.670   6.255  16.294  1.00  0.00     0.010 C 
BRANCH  24  26
HETATM   26  C6  UNL     1      -7.272   4.624  14.385  1.00  0.00     0.008 C 
BRANCH  26  27
HETATM   27  C5  UNL     1      -7.504   4.221  12.921  1.00  0.00     0.028 C 
BRANCH  27  28
HETATM   28  C4  UNL     1      -7.094   2.819  12.574  1.00  0.00    -0.025 C 
HETATM   29  C2  UNL     1      -6.240   2.434  11.606  1.00  0.00    -0.091 C 
HETATM   30  C1  UNL     1      -5.918   0.977  11.399  1.00  0.00     0.042 C 
HETATM   31  C3  UNL     1      -5.548   3.365  10.651  1.00  0.00     0.042 C 
ENDBRANCH  27  28
ENDBRANCH  26  27
ENDBRANCH  24  26
ENDBRANCH   1  24
TORSDOF 4
ENDMDL
