MODEL 1
REMARK minimizedAffinity -8.54281616
REMARK CNNscore 0.374514699
REMARK CNNaffinity 7.31902456
REMARK  13 active torsions:
REMARK  status: ('A' for Active; 'I' for Inactive)
REMARK    1  A    between atoms: O1_2  and  C2_3 
REMARK    2  A    between atoms: C12_14  and  C13_15 
REMARK    3  A    between atoms: C13_15  and  C15_17 
REMARK    4  A    between atoms: C15_17  and  C16_18 
REMARK    5  A    between atoms: C17_19  and  C18_20 
REMARK    6  A    between atoms: C18_20  and  O3_23 
REMARK    7  A    between atoms: C29_32  and  O4_33 
REMARK    8  A    between atoms: O4_33  and  C30_34 
REMARK    9  A    between atoms: C31_36  and  C32_37 
REMARK   10  A    between atoms: C32_37  and  O6_38 
REMARK   11  A    between atoms: C33_39  and  O7_40 
REMARK   12  A    between atoms: C34_41  and  O8_42 
REMARK   13  A    between atoms: C35_43  and  O9_44 
ROOT
HETATM    1  C2  UNL     1      -3.383   5.380  13.351  1.00  0.00     0.270 C 
HETATM    2  O2  UNL     1      -2.136   5.823  13.932  1.00  0.00    -0.344 OA
HETATM    3  C3  UNL     1      -2.359   7.117  14.530  1.00  0.00     0.095 C 
HETATM    4  C4  UNL     1      -2.799   6.787  15.954  1.00  0.00     0.008 C 
HETATM    5  C5  UNL     1      -4.049   6.388  16.234  1.00  0.00    -0.021 C 
HETATM    6  C6  UNL     1      -5.087   6.203  15.145  1.00  0.00     0.030 C 
HETATM    7  C7  UNL     1      -4.477   6.454  13.697  1.00  0.00     0.024 C 
HETATM    8  C8  UNL     1      -5.576   6.433  12.604  1.00  0.00     0.016 C 
HETATM    9  C9  UNL     1      -6.899   7.143  12.938  1.00  0.00     0.011 C 
HETATM   10  C10 UNL     1      -7.473   6.677  14.287  1.00  0.00    -0.032 C 
HETATM   11  C11 UNL     1      -7.810   5.156  14.167  1.00  0.00     0.016 C 
HETATM   12  C12 UNL     1      -8.726   7.416  14.854  1.00  0.00    -0.002 C 
HETATM   13  C22 UNL     1      -8.631   7.080  16.378  1.00  0.00     0.006 C 
HETATM   14  C23 UNL     1      -7.184   6.628  16.670  1.00  0.00     0.011 C 
HETATM   15  C24 UNL     1      -6.403   7.015  15.401  1.00  0.00    -0.029 C 
HETATM   16  C25 UNL     1      -6.108   8.548  15.550  1.00  0.00     0.016 C 
HETATM   17  C26 UNL     1      -3.549   7.696  13.726  1.00  0.00     0.039 C 
HETATM   18  C27 UNL     1      -3.177   8.240  12.336  1.00  0.00     0.011 C 
HETATM   19  C28 UNL     1      -1.980   9.173  12.386  1.00  0.00     0.033 C 
HETATM   20  C29 UNL     1      -0.771   8.477  13.016  1.00  0.00     0.136 C 
HETATM   21  C36 UNL     1      -1.066   8.006  14.477  1.00  0.00     0.014 C 
HETATM   22  C37 UNL     1       0.171   7.224  14.988  1.00  0.00     0.021 C 
HETATM   23  C38 UNL     1      -1.227   9.263  15.372  1.00  0.00     0.021 C 
ENDROOT
BRANCH  20  24
HETATM   24  O4  UNL     1      -0.425   7.342  12.208  1.00  0.00    -0.352 OA
BRANCH  24  25
HETATM   25  C30 UNL     1       0.874   7.434  11.612  1.00  0.00     0.292 C 
HETATM   26  O5  UNL     1       0.788   7.867  10.261  1.00  0.00    -0.348 OA
HETATM   27  C31 UNL     1       2.079   8.018   9.660  1.00  0.00     0.179 C 
HETATM   28  C33 UNL     1       2.863   6.690   9.668  1.00  0.00     0.180 C 
HETATM   29  C34 UNL     1       2.865   6.023  11.044  1.00  0.00     0.183 C 
HETATM   30  C35 UNL     1       1.469   6.018  11.661  1.00  0.00     0.204 C 
BRANCH  27  31
HETATM   31  C32 UNL     1       1.878   8.511   8.214  1.00  0.00     0.198 C 
BRANCH  31  32
HETATM   32  O6  UNL     1       3.066   8.995   7.607  1.00  0.00    -0.398 OA
HETATM   33  H50 UNL     1       3.833   8.576   8.061  1.00  0.00     0.209 HD
ENDBRANCH  31  32
ENDBRANCH  27  31
BRANCH  28  34
HETATM   34  O7  UNL     1       4.214   6.930   9.254  1.00  0.00    -0.390 OA
HETATM   35  H52 UNL     1       4.725   7.021  10.084  1.00  0.00     0.210 HD
ENDBRANCH  28  34
BRANCH  29  36
HETATM   36  O8  UNL     1       3.774   6.738  11.904  1.00  0.00    -0.390 OA
HETATM   37  H54 UNL     1       3.620   6.353  12.794  1.00  0.00     0.210 HD
ENDBRANCH  29  36
BRANCH  30  38
HETATM   38  O9  UNL     1       1.559   5.545  13.012  1.00  0.00    -0.388 OA
HETATM   39  H56 UNL     1       0.661   5.678  13.388  1.00  0.00     0.210 HD
ENDBRANCH  30  38
ENDBRANCH  24  25
ENDBRANCH  20  24
BRANCH   1  40
HETATM   40  O1  UNL     1      -3.763   4.081  13.792  1.00  0.00    -0.365 OA
HETATM   41  C1  UNL     1      -4.063   3.218  12.711  1.00  0.00     0.204 C 
ENDBRANCH   1  40
BRANCH  12  42
HETATM   42  C13 UNL     1     -10.142   7.120  14.277  1.00  0.00    -0.010 C 
HETATM   43  C14 UNL     1     -10.110   6.880  12.760  1.00  0.00     0.010 C 
BRANCH  42  44
HETATM   44  C15 UNL     1     -11.111   8.286  14.615  1.00  0.00     0.031 C 
BRANCH  44  45
HETATM   45  C16 UNL     1     -12.523   7.827  14.875  1.00  0.00    -0.027 C 
HETATM   46  C17 UNL     1     -13.017   6.677  14.386  1.00  0.00     0.006 C 
BRANCH  46  47
HETATM   47  C18 UNL     1     -14.421   6.116  14.543  1.00  0.00     0.070 C 
HETATM   48  C19 UNL     1     -15.013   6.561  15.893  1.00  0.00     0.050 C 
HETATM   49  C20 UNL     1     -15.386   6.569  13.432  1.00  0.00     0.050 C 
BRANCH  47  50
HETATM   50  O3  UNL     1     -14.375   4.681  14.420  1.00  0.00    -0.382 OA
HETATM   51  C21 UNL     1     -15.462   3.946  14.964  1.00  0.00     0.202 C 
ENDBRANCH  47  50
ENDBRANCH  46  47
ENDBRANCH  44  45
ENDBRANCH  42  44
ENDBRANCH  12  42
TORSDOF 13
ENDMDL
