MODEL 1
REMARK minimizedAffinity -9.84822273
REMARK  6 active torsions:
REMARK  status: ('A' for Active; 'I' for Inactive)
REMARK    1  A    between atoms: C2_2  and  C3_3 
REMARK    2  A    between atoms: C2_2  and  C9_11 
REMARK    3  A    between atoms: C3_3  and  C4_4 
REMARK    4  A    between atoms: C5_5  and  C6_6 
REMARK    5  A    between atoms: C6_6  and  O1_9 
REMARK    6  A    between atoms: O1_9  and  O2_10 
ROOT
HETATM    1  C9  UNL     1      -2.619   7.719  14.736  1.00  0.00    -0.001 C 
HETATM    2  C10 UNL     1      -1.719   8.571  15.676  1.00  0.00     0.007 C 
HETATM    3  C11 UNL     1      -0.303   8.585  15.073  1.00  0.00     0.024 C 
HETATM    4  C12 UNL     1      -0.461   7.930  13.720  1.00  0.00     0.092 C 
HETATM    5  C13 UNL     1      -0.854   8.959  12.628  1.00  0.00     0.272 C 
HETATM    6  O3  UNL     1      -1.454  10.009  12.772  1.00  0.00    -0.264 OA
HETATM    7  O4  UNL     1      -0.415   8.483  11.406  1.00  0.00    -0.305 OA
HETATM    8  C14 UNL     1       0.237   7.205  11.605  1.00  0.00     0.113 C 
HETATM    9  C15 UNL     1      -0.887   6.122  11.550  1.00  0.00     0.043 C 
HETATM   10  C16 UNL     1      -2.079   6.412  12.506  1.00  0.00     0.014 C 
HETATM   11  C17 UNL     1      -1.601   6.874  13.908  1.00  0.00    -0.020 C 
HETATM   12  C18 UNL     1      -1.143   5.624  14.691  1.00  0.00     0.017 C 
HETATM   13  C19 UNL     1       0.704   7.352  13.016  1.00  0.00     0.137 A 
HETATM   14  O5  UNL     1       1.569   6.411  13.620  1.00  0.00    -0.364 OA
HETATM   15  C20 UNL     1       2.127   7.715  13.347  1.00  0.00     0.162 A 
HETATM   16  C21 UNL     1       3.169   7.733  12.278  1.00  0.00     0.041 C 
HETATM   17  C22 UNL     1       2.573   8.018  10.882  1.00  0.00     0.010 C 
HETATM   18  C23 UNL     1       3.680   8.044   9.791  1.00  0.00     0.056 C 
HETATM   19  C24 UNL     1       4.758   9.099  10.061  1.00  0.00     0.018 C 
HETATM   20  C25 UNL     1       3.050   8.282   8.422  1.00  0.00     0.131 C 
HETATM   21  O6  UNL     1       3.474   9.119   7.626  1.00  0.00    -0.298 OA
HETATM   22  C26 UNL     1       1.918   7.362   8.039  1.00  0.00     0.079 C 
HETATM   23  C27 UNL     1       0.854   7.378   9.126  1.00  0.00     0.020 C 
HETATM   24  C28 UNL     1       1.392   7.023  10.547  1.00  0.00    -0.004 C 
HETATM   25  C29 UNL     1       1.883   5.551  10.530  1.00  0.00     0.019 C 
ENDROOT
BRANCH   1  26
HETATM   26  C2  UNL     1      -3.859   7.101  15.446  1.00  0.00    -0.010 C 
HETATM   27  C1  UNL     1      -3.805   5.597  15.757  1.00  0.00     0.010 C 
BRANCH  26  28
HETATM   28  C3  UNL     1      -5.171   7.461  14.714  1.00  0.00     0.031 C 
BRANCH  28  29
HETATM   29  C4  UNL     1      -5.576   6.434  13.689  1.00  0.00    -0.027 C 
HETATM   30  C5  UNL     1      -6.337   5.363  13.966  1.00  0.00     0.009 C 
BRANCH  30  31
HETATM   31  C6  UNL     1      -6.798   4.280  13.004  1.00  0.00     0.106 C 
HETATM   32  C7  UNL     1      -5.726   3.716  12.059  1.00  0.00     0.053 C 
HETATM   33  C8  UNL     1      -7.941   4.853  12.152  1.00  0.00     0.053 C 
BRANCH  31  34
HETATM   34  O1  UNL     1      -7.388   3.213  13.778  1.00  0.00    -0.229 OA
BRANCH  34  35
HETATM   35  O2  UNL     1      -8.043   2.292  12.850  1.00  0.00    -0.249 OA
HETATM   36  H15 UNL     1      -7.313   1.649  12.797  1.00  0.00     0.253 HD
ENDBRANCH  34  35
ENDBRANCH  31  34
ENDBRANCH  30  31
ENDBRANCH  28  29
ENDBRANCH  26  28
ENDBRANCH   1  26
TORSDOF 6
ENDMDL
