MODEL 1
REMARK minimizedAffinity -9.05668449
REMARK CNNscore 0.690716505
REMARK CNNaffinity 7.04216766
REMARK  5 active torsions:
REMARK  status: ('A' for Active; 'I' for Inactive)
REMARK    1  A    between atoms: C5_5  and  C6_6 
REMARK    2  A    between atoms: C6_6  and  C7_8 
REMARK    3  A    between atoms: C7_8  and  O2_9 
REMARK    4  A    between atoms: O2_9  and  C8_10 
REMARK    5  A    between atoms: C14_17  and  C15_18 
ROOT
HETATM    1  C8  UNL     1      -1.526  49.488 -21.831  1.00  0.00     0.093 A 
HETATM    2  C9  UNL     1      -0.982  50.735 -22.132  1.00  0.00     0.076 A 
HETATM    3  C10 UNL     1      -0.357  51.472 -21.122  1.00  0.00     0.093 A 
HETATM    4  C11 UNL     1      -0.247  51.001 -19.814  1.00  0.00     0.011 A 
HETATM    5  C12 UNL     1      -0.786  49.744 -19.520  1.00  0.00     0.042 A 
HETATM    6  C13 UNL     1      -1.414  48.993 -20.521  1.00  0.00     0.068 A 
HETATM    7 CL1  UNL     1      -2.074  47.453 -20.090  1.00  0.00    -0.081 Cl
HETATM    8  C14 UNL     1       0.425  51.833 -18.806  1.00  0.00    -0.007 A 
HETATM    9  C21 UNL     1       0.911  53.023 -19.192  1.00  0.00     0.095 A 
HETATM   10  C22 UNL     1       0.805  53.535 -20.567  1.00  0.00     0.289 A 
HETATM   11  O3  UNL     1       1.264  54.630 -20.864  1.00  0.00    -0.260 OA
HETATM   12  O4  UNL     1       0.166  52.725 -21.491  1.00  0.00    -0.275 OA
ENDROOT
BRANCH   1  13
HETATM   13  O2  UNL     1      -2.135  48.682 -22.755  1.00  0.00    -0.342 OA
BRANCH  13  14
HETATM   14  C7  UNL     1      -3.183  49.269 -23.515  1.00  0.00     0.254 C 
BRANCH  14  15
HETATM   15  C6  UNL     1      -2.720  49.531 -24.945  1.00  0.00     0.155 C 
HETATM   16  O1  UNL     1      -2.769  48.630 -25.786  1.00  0.00    -0.295 OA
BRANCH  15  17
HETATM   17  C5  UNL     1      -2.100  50.897 -25.256  1.00  0.00     0.062 C 
HETATM   18  C4  UNL     1      -0.824  50.684 -26.082  1.00  0.00     0.049 C 
HETATM   19  C2  UNL     1      -0.418  51.927 -26.894  1.00  0.00     0.054 C 
HETATM   20  C1  UNL     1       0.701  51.555 -27.874  1.00  0.00     0.045 C 
HETATM   21  C3  UNL     1       0.084  53.049 -25.975  1.00  0.00     0.045 C 
HETATM   22  O5  UNL     1      -1.489  52.462 -27.682  1.00  0.00    -0.381 OA
HETATM   23  C24 UNL     1      -2.782  51.904 -27.456  1.00  0.00     0.169 C 
HETATM   24  C23 UNL     1      -3.093  51.826 -25.972  1.00  0.00     0.038 C 
ENDBRANCH  15  17
ENDBRANCH  14  15
ENDBRANCH  13  14
ENDBRANCH   1  13
BRANCH   8  25
HETATM   25  C15 UNL     1       0.623  51.477 -17.388  1.00  0.00    -0.025 A 
HETATM   26  C16 UNL     1       1.670  52.052 -16.657  1.00  0.00     0.012 A 
HETATM   27  C17 UNL     1       1.859  51.711 -15.316  1.00  0.00     0.001 A 
HETATM   28  C18 UNL     1       1.003  50.797 -14.701  1.00  0.00     0.000 A 
HETATM   29  C19 UNL     1      -0.042  50.222 -15.424  1.00  0.00     0.001 A 
HETATM   30  C20 UNL     1      -0.234  50.561 -16.765  1.00  0.00     0.012 A 
ENDBRANCH   8  25
TORSDOF 5
ENDMDL
