MODEL 1
REMARK minimizedAffinity -9.5927124
REMARK CNNscore 0.45224452
REMARK CNNaffinity 7.02185011
REMARK  9 active torsions:
REMARK  status: ('A' for Active; 'I' for Inactive)
REMARK    1  A    between atoms: C2_2  and  C4_4 
REMARK    2  A    between atoms: C4_4  and  O1_5 
REMARK    3  A    between atoms: C4_4  and  C5_7 
REMARK    4  A    between atoms: O1_5  and  O2_6 
REMARK    5  A    between atoms: C5_7  and  O3_8 
REMARK    6  A    between atoms: C5_7  and  C6_9 
REMARK    7  A    between atoms: C6_9  and  C7_10 
REMARK    8  A    between atoms: C7_10  and  C9_12 
REMARK    9  A    between atoms: C20_23  and  O4_24 
ROOT
HETATM    1  C9  UNL     1       0.716   6.826  13.168  1.00  0.00    -0.002 C 
HETATM    2  C10 UNL     1       0.847   7.660  14.470  1.00  0.00     0.006 C 
HETATM    3  C11 UNL     1      -0.528   7.665  15.161  1.00  0.00     0.011 C 
HETATM    4  C12 UNL     1      -1.353   6.596  14.422  1.00  0.00    -0.032 C 
HETATM    5  C13 UNL     1      -0.998   5.225  15.079  1.00  0.00     0.016 C 
HETATM    6  C14 UNL     1      -2.886   6.830  14.459  1.00  0.00     0.004 C 
HETATM    7  C15 UNL     1      -3.526   6.593  15.835  1.00  0.00     0.006 C 
HETATM    8  C16 UNL     1      -5.017   6.914  15.791  1.00  0.00     0.006 C 
HETATM    9  C17 UNL     1      -5.755   5.884  14.929  1.00  0.00     0.001 C 
HETATM   10  C18 UNL     1      -7.256   6.219  14.715  1.00  0.00     0.015 C 
HETATM   11  C19 UNL     1      -8.016   6.300  16.048  1.00  0.00     0.013 C 
HETATM   12  C20 UNL     1      -7.941   5.187  13.781  1.00  0.00     0.122 C 
HETATM   13  C21 UNL     1      -7.046   4.000  13.423  1.00  0.00     0.033 C 
HETATM   14  C22 UNL     1      -5.696   4.436  12.840  1.00  0.00     0.013 C 
HETATM   15  C23 UNL     1      -5.104   5.643  13.565  1.00  0.00    -0.027 A 
HETATM   16  C24 UNL     1      -4.761   6.821  12.685  1.00  0.00     0.021 A 
HETATM   17  C25 UNL     1      -3.625   6.055  13.340  1.00  0.00    -0.027 A 
HETATM   18  C26 UNL     1      -2.783   5.147  12.445  1.00  0.00     0.011 C 
HETATM   19  C27 UNL     1      -1.357   5.608  12.102  1.00  0.00     0.011 C 
HETATM   20  C28 UNL     1      -0.834   6.777  12.946  1.00  0.00    -0.032 C 
HETATM   21  C29 UNL     1      -1.296   8.101  12.269  1.00  0.00     0.016 C 
ENDROOT
BRANCH   1  22
HETATM   22  C7  UNL     1       1.652   7.330  12.028  1.00  0.00    -0.011 C 
HETATM   23  C8  UNL     1       0.943   8.306  11.093  1.00  0.00     0.010 C 
BRANCH  22  24
HETATM   24  C6  UNL     1       2.369   6.192  11.234  1.00  0.00     0.039 C 
BRANCH  24  25
HETATM   25  C5  UNL     1       3.163   6.513   9.950  1.00  0.00     0.154 C 
BRANCH  25  26
HETATM   26  C4  UNL     1       2.521   6.071   8.602  1.00  0.00     0.216 C 
BRANCH  26  27
HETATM   27  C2  UNL     1       2.374   7.191   7.578  1.00  0.00    -0.059 C 
HETATM   28  C1  UNL     1       1.731   7.031   6.406  1.00  0.00     0.016 C 
HETATM   29  C3  UNL     1       2.942   8.531   7.958  1.00  0.00     0.045 C 
ENDBRANCH  26  27
BRANCH  26  30
HETATM   30  O1  UNL     1       3.390   5.070   8.002  1.00  0.00    -0.231 OA
BRANCH  30  31
HETATM   31  O2  UNL     1       3.297   3.870   8.821  1.00  0.00    -0.250 OA
HETATM   32  H7  UNL     1       2.866   3.313   8.145  1.00  0.00     0.253 HD
ENDBRANCH  30  31
ENDBRANCH  26  30
ENDBRANCH  25  26
BRANCH  25  33
HETATM   33  O3  UNL     1       4.494   6.001  10.069  1.00  0.00    -0.393 OA
HETATM   34  H9  UNL     1       4.861   5.999   9.159  1.00  0.00     0.210 HD
ENDBRANCH  25  33
ENDBRANCH  24  25
ENDBRANCH  22  24
ENDBRANCH   1  22
BRANCH  12  35
HETATM   35  O4  UNL     1      -8.338   5.857  12.579  1.00  0.00    -0.395 OA
HETATM   36  H35 UNL     1      -8.822   5.214  12.033  1.00  0.00     0.210 HD
ENDBRANCH  12  35
TORSDOF 9
ENDMDL
