MODEL 1
REMARK minimizedAffinity -9.28156948
REMARK  6 active torsions:
REMARK  status: ('A' for Active; 'I' for Inactive)
REMARK    1  A    between atoms: C4_4  and  C5_5 
REMARK    2  A    between atoms: C5_5  and  C6_6 
REMARK    3  A    between atoms: C6_6  and  C7_7 
REMARK    4  A    between atoms: C7_7  and  C9_9 
REMARK    5  A    between atoms: C24_24  and  O1_25 
REMARK    6  A    between atoms: C27_28  and  O2_29 
ROOT
HETATM    1  C9  UNL     1       1.300   7.000  12.708  1.00  0.00    -0.002 C 
HETATM    2  C10 UNL     1       0.530   8.132  13.438  1.00  0.00     0.007 C 
HETATM    3  C11 UNL     1      -0.942   7.672  13.549  1.00  0.00     0.015 C 
HETATM    4  C12 UNL     1      -0.914   6.167  13.217  1.00  0.00    -0.013 C 
HETATM    5  C13 UNL     1      -0.514   5.421  14.529  1.00  0.00     0.021 C 
HETATM    6  C14 UNL     1      -2.185   5.463  12.751  1.00  0.00    -0.065 C 
HETATM    7  C15 UNL     1      -2.097   4.362  11.958  1.00  0.00    -0.068 C 
HETATM    8  C16 UNL     1      -0.749   3.888  11.387  1.00  0.00     0.036 C 
HETATM    9  C17 UNL     1       0.511   4.700  11.756  1.00  0.00     0.015 C 
HETATM   10  C18 UNL     1       0.159   6.159  12.064  1.00  0.00    -0.029 C 
HETATM   11  C19 UNL     1      -0.370   6.821  10.758  1.00  0.00     0.016 C 
HETATM   12  C20 UNL     1      -3.359   3.577  11.506  1.00  0.00    -0.014 C 
HETATM   13  C21 UNL     1      -3.628   4.021  10.044  1.00  0.00     0.020 C 
HETATM   14  C22 UNL     1      -3.126   2.033  11.566  1.00  0.00     0.016 C 
HETATM   15  C23 UNL     1      -4.331   1.193  12.021  1.00  0.00     0.033 C 
HETATM   16  C24 UNL     1      -5.671   1.744  11.563  1.00  0.00     0.118 C 
HETATM   17  C25 UNL     1      -5.875   3.203  11.988  1.00  0.00     0.039 C 
HETATM   18  C26 UNL     1      -4.568   3.900  12.433  1.00  0.00     0.029 C 
HETATM   19  C27 UNL     1      -4.752   5.408  12.620  1.00  0.00     0.127 C 
HETATM   20  C28 UNL     1      -3.497   6.028  13.245  1.00  0.00     0.067 C 
ENDROOT
BRANCH   1  21
HETATM   21  C7  UNL     1       2.547   7.443  11.891  1.00  0.00    -0.014 C 
HETATM   22  C8  UNL     1       3.642   8.186  12.668  1.00  0.00     0.010 C 
BRANCH  21  23
HETATM   23  C6  UNL     1       3.236   6.237  11.191  1.00  0.00     0.008 C 
BRANCH  23  24
HETATM   24  C5  UNL     1       3.931   6.570   9.864  1.00  0.00     0.028 C 
BRANCH  24  25
HETATM   25  C4  UNL     1       2.963   6.457   8.716  1.00  0.00    -0.025 C 
HETATM   26  C2  UNL     1       2.596   7.413   7.838  1.00  0.00    -0.091 C 
HETATM   27  C1  UNL     1       1.631   7.098   6.725  1.00  0.00     0.042 C 
HETATM   28  C3  UNL     1       3.080   8.835   7.853  1.00  0.00     0.042 C 
ENDBRANCH  24  25
ENDBRANCH  23  24
ENDBRANCH  21  23
ENDBRANCH   1  21
BRANCH  19  29
HETATM   29  O2  UNL     1      -5.874   5.677  13.465  1.00  0.00    -0.395 OA
HETATM   30  H44 UNL     1      -5.706   5.258  14.326  1.00  0.00     0.210 HD
ENDBRANCH  19  29
BRANCH  16  31
HETATM   31  O1  UNL     1      -5.767   1.635  10.147  1.00  0.00    -0.396 OA
HETATM   32  H39 UNL     1      -5.700   0.692   9.918  1.00  0.00     0.210 HD
ENDBRANCH  16  31
TORSDOF 6
ENDMDL
