MODEL 1
REMARK minimizedAffinity -7.06575394
REMARK CNNscore 0.681587696
REMARK CNNaffinity 6.0321908
REMARK  8 active torsions:
REMARK  status: ('A' for Active; 'I' for Inactive)
REMARK    1  A    between atoms: C4_4  and  C5_5 
REMARK    2  A    between atoms: C5_5  and  C6_6 
REMARK    3  A    between atoms: C6_6  and  C7_7 
REMARK    4  A    between atoms: C7_7  and  C9_9 
REMARK    5  A    between atoms: C25_26  and  C27_28 
REMARK    6  A    between atoms: C27_28  and  O3_30 
REMARK    7  A    between atoms: C28_31  and  O4_32 
REMARK    8  A    between atoms: C30_34  and  O5_35 
ROOT
HETATM    1  C9  UNL     1     -17.703   3.391  14.349  1.00  0.00    -0.002 C 
HETATM    2  C10 UNL     1     -17.649   3.272  15.900  1.00  0.00     0.007 C 
HETATM    3  C11 UNL     1     -16.976   1.931  16.239  1.00  0.00     0.015 C 
HETATM    4  C12 UNL     1     -16.317   1.467  14.925  1.00  0.00    -0.005 C 
HETATM    5  C13 UNL     1     -14.950   2.214  14.819  1.00  0.00     0.021 C 
HETATM    6  C14 UNL     1     -15.972  -0.004  14.709  1.00  0.00    -0.000 C 
HETATM    7  C15 UNL     1     -15.958  -0.548  13.463  1.00  0.00    -0.058 C 
HETATM    8  C16 UNL     1     -16.373   0.292  12.244  1.00  0.00     0.036 C 
HETATM    9  C17 UNL     1     -16.824   1.747  12.492  1.00  0.00     0.015 C 
HETATM   10  C18 UNL     1     -17.419   1.927  13.892  1.00  0.00    -0.028 C 
HETATM   11  C19 UNL     1     -18.734   1.091  13.986  1.00  0.00     0.016 C 
HETATM   12  C20 UNL     1     -15.586  -2.044  13.176  1.00  0.00     0.011 C 
HETATM   13  C21 UNL     1     -16.939  -2.781  13.028  1.00  0.00     0.023 C 
HETATM   14  C22 UNL     1     -14.715  -2.580  14.360  1.00  0.00     0.029 C 
HETATM   15  C23 UNL     1     -15.363  -2.306  15.718  1.00  0.00     0.090 C 
HETATM   16  C24 UNL     1     -15.618  -0.833  15.906  1.00  0.00     0.157 C 
HETATM   17  O1  UNL     1     -15.577  -0.349  17.036  1.00  0.00    -0.293 OA
HETATM   18  C25 UNL     1     -14.154  -4.047  14.221  1.00  0.00     0.072 C 
HETATM   19  C26 UNL     1     -12.718  -4.048  14.823  1.00  0.00     0.030 C 
HETATM   20  C28 UNL     1     -14.119  -4.514  12.744  1.00  0.00     0.139 C 
HETATM   21  C29 UNL     1     -13.768  -3.372  11.796  1.00  0.00     0.065 C 
HETATM   22  C30 UNL     1     -14.717  -2.171  11.869  1.00  0.00     0.133 C 
ENDROOT
BRANCH   1  23
HETATM   23  C7  UNL     1     -18.999   4.118  13.881  1.00  0.00    -0.014 C 
HETATM   24  C8  UNL     1     -19.492   5.097  14.962  1.00  0.00     0.010 C 
BRANCH  23  25
HETATM   25  C6  UNL     1     -18.894   4.851  12.527  1.00  0.00     0.008 C 
BRANCH  25  26
HETATM   26  C5  UNL     1     -18.327   6.274  12.586  1.00  0.00     0.028 C 
BRANCH  26  27
HETATM   27  C4  UNL     1     -16.828   6.238  12.742  1.00  0.00    -0.025 C 
HETATM   28  C2  UNL     1     -15.930   7.187  12.410  1.00  0.00    -0.091 C 
HETATM   29  C1  UNL     1     -14.459   6.966  12.665  1.00  0.00     0.042 C 
HETATM   30  C3  UNL     1     -16.251   8.515  11.786  1.00  0.00     0.042 C 
ENDBRANCH  26  27
ENDBRANCH  25  26
ENDBRANCH  23  25
ENDBRANCH   1  23
BRANCH  22  31
HETATM   31  O5  UNL     1     -15.555  -2.195  10.708  1.00  0.00    -0.394 OA
HETATM   32  H46 UNL     1     -14.988  -2.028   9.934  1.00  0.00     0.210 HD
ENDBRANCH  22  31
BRANCH  18  33
HETATM   33  C27 UNL     1     -14.955  -5.079  15.023  1.00  0.00     0.151 C 
HETATM   34  O2  UNL     1     -16.040  -5.548  14.713  1.00  0.00    -0.649 OA
BRANCH  33  35
HETATM   35  O3  UNL     1     -14.374  -5.465  16.166  1.00  0.00    -0.776 OA
HETATM   36  H40 UNL     1     -14.993  -6.130  16.539  1.00  0.00     0.167 HD
ENDBRANCH  33  35
ENDBRANCH  18  33
BRANCH  20  37
HETATM   37  O4  UNL     1     -13.145  -5.542  12.531  1.00  0.00    -0.394 OA
HETATM   38  H42 UNL     1     -13.404  -6.323  13.053  1.00  0.00     0.210 HD
ENDBRANCH  20  37
TORSDOF 8
ENDMDL
