MODEL 1
REMARK minimizedAffinity -9.10856915
REMARK  7 active torsions:
REMARK  status: ('A' for Active; 'I' for Inactive)
REMARK       I    between atoms: C1_2  and  N1_3 
REMARK    1  A    between atoms: C1_2  and  C8_12 
REMARK    2  A    between atoms: N1_3  and  C2_4 
REMARK    3  A    between atoms: C2_4  and  C3_5 
REMARK    4  A    between atoms: C14_19  and  C15_20 
REMARK    5  A    between atoms: C15_20  and  N4_21 
REMARK    6  A    between atoms: C17_23  and  C18_24 
REMARK    7  A    between atoms: C18_24  and  C19_25 
ROOT
HETATM    1  C8  UNL     1      -4.018  51.413 -24.862  1.00  0.00     0.110 C 
HETATM    2  C9  UNL     1      -4.443  49.966 -24.556  1.00  0.00     0.287 C 
HETATM    3  N3  UNL     1      -4.286  49.663 -23.104  1.00  0.00     0.095 N 
HETATM    4  C10 UNL     1      -2.840  49.668 -22.794  1.00  0.00     0.273 C 
HETATM    5  C11 UNL     1      -2.184  51.009 -23.149  1.00  0.00     0.036 C 
HETATM    6  C12 UNL     1      -3.259  51.990 -23.644  1.00  0.00     0.004 C 
HETATM    7  C13 UNL     1      -4.281  52.090 -22.490  1.00  0.00     0.043 C 
HETATM    8  C14 UNL     1      -5.005  50.727 -22.329  1.00  0.00     0.242 C 
ENDROOT
BRANCH   8   9
HETATM    9  C15 UNL     1      -5.222  50.384 -20.843  1.00  0.00     0.181 C 
BRANCH   9  10
HETATM   10  N4  UNL     1      -3.986  50.349 -20.093  1.00  0.00    -0.283 N 
HETATM   11  C16 UNL     1      -3.247  51.397 -19.635  1.00  0.00     0.134 A 
HETATM   12  C17 UNL     1      -2.203  50.797 -18.965  1.00  0.00     0.041 A 
HETATM   13  N5  UNL     1      -2.350  49.436 -19.032  1.00  0.00    -0.287 N 
HETATM   14  N6  UNL     1      -3.453  49.172 -19.719  1.00  0.00    -0.020 NA
ATOM     15  H5  UNL     1      -1.720  48.745 -18.623  1.00  0.00     0.184 HD
BRANCH  12  16
HETATM   16  C18 UNL     1      -1.051  51.412 -18.257  1.00  0.00     0.064 C 
BRANCH  16  17
HETATM   17  C19 UNL     1       0.029  51.960 -19.208  1.00  0.00    -0.009 C 
HETATM   18  C20 UNL     1      -0.173  53.471 -19.413  1.00  0.00     0.005 C 
HETATM   19  C21 UNL     1       0.853  54.057 -20.381  1.00  0.00     0.000 C 
HETATM   20  C22 UNL     1       0.845  53.323 -21.717  1.00  0.00     0.000 C 
HETATM   21  C23 UNL     1       1.048  51.823 -21.531  1.00  0.00     0.000 C 
HETATM   22  C24 UNL     1       0.025  51.231 -20.563  1.00  0.00     0.005 C 
ENDBRANCH  16  17
ENDBRANCH  12  16
ENDBRANCH   9  10
ENDBRANCH   8   9
BRANCH   1  23
HETATM   23  C1  UNL     1      -3.286  51.583 -26.188  1.00  0.00     0.224 C 
HETATM   24  O1  UNL     1      -3.401  50.749 -27.083  1.00  0.00    -0.273 OA
HETATM   25  N1  UNL     1      -2.538  52.725 -26.343  1.00  0.00    -0.356 N 
HETATM   26  H1  UNL     1      -2.321  53.290 -25.535  1.00  0.00     0.162 HD
BRANCH  25  27
HETATM   27  C2  UNL     1      -1.723  52.938 -27.520  1.00  0.00     0.162 C 
BRANCH  27  28
HETATM   28  C3  UNL     1      -0.309  52.506 -27.273  1.00  0.00    -0.025 A 
HETATM   29  C4  UNL     1       0.463  51.906 -28.273  1.00  0.00     0.011 A 
HETATM   30  C5  UNL     1       1.779  51.544 -28.004  1.00  0.00     0.018 A 
HETATM   31  C6  UNL     1       2.287  51.801 -26.742  1.00  0.00     0.087 A 
HETATM   32  N2  UNL     1       1.576  52.388 -25.755  1.00  0.00    -0.375 N 
HETATM   33  C7  UNL     1       0.299  52.729 -26.042  1.00  0.00     0.096 A 
ATOM     34  H2  UNL     1       1.983  52.565 -24.836  1.00  0.00     0.164 HD
ENDBRANCH  27  28
ENDBRANCH  25  27
ENDBRANCH   1  23
TORSDOF 7
ENDMDL
