MODEL 1
REMARK minimizedAffinity -9.05879402
REMARK  7 active torsions:
REMARK  status: ('A' for Active; 'I' for Inactive)
REMARK    1  A    between atoms: C4_4  and  C5_5 
REMARK    2  A    between atoms: C5_5  and  C6_6 
REMARK    3  A    between atoms: C6_6  and  C7_7 
REMARK    4  A    between atoms: C7_7  and  C9_9 
REMARK    5  A    between atoms: C23_23  and  O1_24 
REMARK    6  A    between atoms: C24_25  and  C26_27 
REMARK    7  A    between atoms: C26_27  and  O2_28 
ROOT
HETATM    1  C9  UNL     1       0.800   7.604  12.103  1.00  0.00    -0.002 C 
HETATM    2  C10 UNL     1      -0.179   7.391  10.936  1.00  0.00     0.006 C 
HETATM    3  C11 UNL     1      -0.725   5.992  11.137  1.00  0.00     0.010 C 
HETATM    4  C12 UNL     1      -0.789   5.785  12.659  1.00  0.00     0.023 C 
HETATM    5  C13 UNL     1      -2.220   5.574  13.111  1.00  0.00    -0.072 C 
HETATM    6  C14 UNL     1      -3.018   6.605  13.464  1.00  0.00    -0.068 C 
HETATM    7  C15 UNL     1      -2.449   8.003  13.466  1.00  0.00     0.036 C 
HETATM    8  C16 UNL     1      -0.991   8.057  13.910  1.00  0.00     0.014 C 
HETATM    9  C17 UNL     1      -0.028   6.988  13.304  1.00  0.00    -0.032 C 
HETATM   10  C18 UNL     1       0.809   6.465  14.488  1.00  0.00     0.016 C 
HETATM   11  C19 UNL     1      -4.503   6.409  13.853  1.00  0.00    -0.016 C 
HETATM   12  C20 UNL     1      -4.511   6.370  15.399  1.00  0.00     0.020 C 
HETATM   13  C21 UNL     1      -5.384   7.588  13.365  1.00  0.00     0.016 C 
HETATM   14  C22 UNL     1      -6.877   7.352  13.557  1.00  0.00     0.034 C 
HETATM   15  C23 UNL     1      -7.351   6.089  12.846  1.00  0.00     0.128 C 
HETATM   16  C24 UNL     1      -6.576   4.803  13.261  1.00  0.00     0.008 C 
HETATM   17  C25 UNL     1      -7.032   4.312  14.653  1.00  0.00     0.020 C 
HETATM   18  C27 UNL     1      -5.030   5.094  13.162  1.00  0.00     0.011 C 
HETATM   19  C28 UNL     1      -4.127   3.905  13.532  1.00  0.00     0.011 C 
HETATM   20  C29 UNL     1      -2.692   4.140  13.057  1.00  0.00     0.035 C 
ENDROOT
BRANCH   1  21
HETATM   21  C7  UNL     1       2.226   6.999  11.849  1.00  0.00    -0.014 C 
HETATM   22  C8  UNL     1       3.241   8.085  11.435  1.00  0.00     0.010 C 
BRANCH  21  23
HETATM   23  C6  UNL     1       2.294   5.835  10.823  1.00  0.00     0.008 C 
BRANCH  23  24
HETATM   24  C5  UNL     1       3.189   6.007   9.586  1.00  0.00     0.028 C 
BRANCH  24  25
HETATM   25  C4  UNL     1       2.479   6.163   8.273  1.00  0.00    -0.025 C 
HETATM   26  C2  UNL     1       2.354   7.290   7.543  1.00  0.00    -0.091 C 
HETATM   27  C1  UNL     1       1.659   7.260   6.208  1.00  0.00     0.042 C 
HETATM   28  C3  UNL     1       2.878   8.639   7.951  1.00  0.00     0.042 C 
ENDBRANCH  24  25
ENDBRANCH  23  24
ENDBRANCH  21  23
ENDBRANCH   1  21
BRANCH  16  29
HETATM   29  C26 UNL     1      -6.941   3.673  12.243  1.00  0.00     0.176 C 
BRANCH  29  30
HETATM   30  O2  UNL     1      -8.070   2.915  12.681  1.00  0.00    -0.400 OA
HETATM   31  H43 UNL     1      -8.187   2.188  12.043  1.00  0.00     0.209 HD
ENDBRANCH  29  30
ENDBRANCH  16  29
BRANCH  15  32
HETATM   32  O1  UNL     1      -8.748   5.970  13.093  1.00  0.00    -0.395 OA
HETATM   33  H37 UNL     1      -9.030   5.124  12.682  1.00  0.00     0.210 HD
ENDBRANCH  15  32
TORSDOF 7
ENDMDL
