MODEL 1
REMARK minimizedAffinity -7.34880161
REMARK CNNscore 0.532222688
REMARK CNNaffinity 6.75121737
REMARK  11 active torsions:
REMARK  status: ('A' for Active; 'I' for Inactive)
REMARK    1  A    between atoms: C19_20  and  O2_21 
REMARK    2  A    between atoms: C19_20  and  C20_22 
REMARK    3  A    between atoms: C20_22  and  C21_24 
REMARK    4  A    between atoms: C21_24  and  O4_25 
REMARK    5  A    between atoms: O4_25  and  C22_26 
REMARK    6  A    between atoms: C22_26  and  C23_28 
REMARK    7  A    between atoms: C23_28  and  C24_29 
REMARK    8  A    between atoms: C24_29  and  C25_30 
REMARK       I    between atoms: C25_30  and  N1_32 
REMARK    9  A    between atoms: N1_32  and  C26_33 
REMARK   10  A    between atoms: C26_33  and  C27_34 
REMARK   11  A    between atoms: C27_34  and  C28_35 
ROOT
HETATM    1  C1  UNL     1      -7.472   4.991  15.484  1.00  0.00     0.020 C 
HETATM    2  C2  UNL     1      -7.618   5.820  14.176  1.00  0.00    -0.016 C 
HETATM    3  C3  UNL     1      -7.123   4.933  12.999  1.00  0.00     0.022 C 
HETATM    4  C4  UNL     1      -5.647   4.558  13.113  1.00  0.00     0.084 C 
HETATM    5  C5  UNL     1      -4.788   5.781  13.334  1.00  0.00     0.149 C 
HETATM    6  O1  UNL     1      -3.578   5.772  13.122  1.00  0.00    -0.293 OA
HETATM    7  C6  UNL     1      -5.422   7.015  13.861  1.00  0.00     0.053 C 
HETATM    8  C7  UNL     1      -6.713   7.047  14.244  1.00  0.00    -0.068 C 
HETATM    9  C8  UNL     1      -7.311   8.333  14.751  1.00  0.00     0.035 C 
HETATM   10  C9  UNL     1      -8.457   8.086  15.722  1.00  0.00     0.010 C 
HETATM   11  C10 UNL     1      -9.608   7.278  15.085  1.00  0.00    -0.004 C 
HETATM   12  C11 UNL     1      -9.133   6.222  14.014  1.00  0.00     0.002 C 
HETATM   13  C12 UNL     1      -9.543   6.657  12.586  1.00  0.00     0.007 C 
HETATM   14  C13 UNL     1     -11.056   6.891  12.409  1.00  0.00     0.013 C 
HETATM   15  C14 UNL     1     -11.739   7.525  13.639  1.00  0.00    -0.002 C 
HETATM   16  C15 UNL     1     -12.478   6.408  14.425  1.00  0.00     0.019 C 
HETATM   17  C16 UNL     1     -10.665   8.234  14.493  1.00  0.00     0.002 C 
HETATM   18  C17 UNL     1     -11.482   9.067  15.482  1.00  0.00     0.009 C 
HETATM   19  C18 UNL     1     -12.752   9.477  14.707  1.00  0.00     0.047 C 
HETATM   20  C19 UNL     1     -12.702   8.723  13.358  1.00  0.00     0.128 C 
ENDROOT
BRANCH  20  21
HETATM   21  O2  UNL     1     -12.109   9.643  12.428  1.00  0.00    -0.381 OA
HETATM   22  H27 UNL     1     -12.198   9.252  11.537  1.00  0.00     0.211 HD
ENDBRANCH  20  21
BRANCH  20  23
HETATM   23  C20 UNL     1     -14.045   8.293  12.734  1.00  0.00     0.185 C 
HETATM   24  O3  UNL     1     -14.282   7.088  12.580  1.00  0.00    -0.292 OA
BRANCH  23  25
HETATM   25  C21 UNL     1     -15.045   9.374  12.336  1.00  0.00     0.260 C 
BRANCH  25  26
HETATM   26  O4  UNL     1     -15.687   9.168  11.080  1.00  0.00    -0.314 OA
BRANCH  26  27
HETATM   27  C22 UNL     1     -17.001   9.534  11.023  1.00  0.00     0.259 C 
HETATM   28  O5  UNL     1     -17.410  10.635  10.690  1.00  0.00    -0.265 OA
BRANCH  27  29
HETATM   29  C23 UNL     1     -17.854   8.386  11.515  1.00  0.00     0.120 C 
BRANCH  29  30
HETATM   30  C24 UNL     1     -19.328   8.764  11.576  1.00  0.00     0.112 C 
BRANCH  30  31
HETATM   31  C25 UNL     1     -20.108   8.147  10.436  1.00  0.00     0.218 C 
HETATM   32  O6  UNL     1     -19.785   8.256   9.261  1.00  0.00    -0.274 OA
HETATM   33  N1  UNL     1     -21.208   7.435  10.857  1.00  0.00    -0.361 N 
HETATM   34  H34 UNL     1     -21.561   7.629  11.789  1.00  0.00     0.162 HD
BRANCH  33  35
HETATM   35  C26 UNL     1     -22.181   6.935   9.899  1.00  0.00     0.128 C 
BRANCH  35  36
HETATM   36  C27 UNL     1     -21.974   5.457   9.538  1.00  0.00     0.078 C 
BRANCH  36  37
HETATM   37  C28 UNL     1     -22.115   5.196   8.078  1.00  0.00     0.027 A 
HETATM   38  C29 UNL     1     -21.368   5.582   6.987  1.00  0.00     0.114 A 
HETATM   39  N2  UNL     1     -21.902   5.082   5.827  1.00  0.00    -0.360 N 
HETATM   40  C30 UNL     1     -22.973   4.414   6.195  1.00  0.00     0.180 A 
ATOM     41  H2  UNL     1     -21.544   5.203   4.880  1.00  0.00     0.166 HD
HETATM   42  N3  UNL     1     -23.134   4.433   7.552  1.00  0.00    -0.355 N 
HETATM   43  H41 UNL     1     -23.856   3.938   8.066  1.00  0.00     0.166 HD
ENDBRANCH  36  37
ENDBRANCH  35  36
ENDBRANCH  33  35
ENDBRANCH  30  31
ENDBRANCH  29  30
ENDBRANCH  27  29
ENDBRANCH  26  27
ENDBRANCH  25  26
ENDBRANCH  23  25
ENDBRANCH  20  23
TORSDOF 11
ENDMDL
