MODEL 1
REMARK minimizedAffinity -6.91451693
REMARK CNNscore 0.551616311
REMARK CNNaffinity 6.53783941
REMARK  8 active torsions:
REMARK  status: ('A' for Active; 'I' for Inactive)
REMARK    1  A    between atoms: C2_2  and  C3_3 
REMARK    2  A    between atoms: C2_2  and  C9_12 
REMARK    3  A    between atoms: C3_3  and  C4_4 
REMARK    4  A    between atoms: C4_4  and  O1_5 
REMARK    5  A    between atoms: C4_4  and  C5_6 
REMARK    6  A    between atoms: C5_6  and  O2_7 
REMARK    7  A    between atoms: C5_6  and  C6_8 
REMARK    8  A    between atoms: C6_8  and  O3_11 
ROOT
HETATM    1  C9  UNL     1     -16.774  -2.989  12.514  1.00  0.00    -0.001 C 
HETATM    2  C10 UNL     1     -17.616  -2.731  11.229  1.00  0.00     0.007 C 
HETATM    3  C11 UNL     1     -18.131  -1.278  11.311  1.00  0.00     0.015 C 
HETATM    4  C12 UNL     1     -17.879  -0.842  12.771  1.00  0.00    -0.004 C 
HETATM    5  C13 UNL     1     -19.074  -1.372  13.623  1.00  0.00     0.021 C 
HETATM    6  C14 UNL     1     -17.764   0.633  13.150  1.00  0.00     0.007 C 
HETATM    7  C15 UNL     1     -16.991   1.064  14.181  1.00  0.00     0.007 C 
HETATM    8  C16 UNL     1     -16.230   0.016  14.978  1.00  0.00     0.157 C 
HETATM    9  O4  UNL     1     -15.665   0.320  16.034  1.00  0.00    -0.293 OA
HETATM   10  C17 UNL     1     -16.165  -1.425  14.503  1.00  0.00     0.094 C 
HETATM   11  C18 UNL     1     -16.487  -1.546  13.016  1.00  0.00    -0.022 C 
HETATM   12  C19 UNL     1     -15.336  -0.889  12.183  1.00  0.00     0.017 C 
HETATM   13  C20 UNL     1     -16.850   2.540  14.623  1.00  0.00    -0.007 C 
HETATM   14  C21 UNL     1     -17.677   2.710  15.923  1.00  0.00     0.021 C 
HETATM   15  C22 UNL     1     -15.356   2.904  14.913  1.00  0.00     0.022 C 
HETATM   16  C23 UNL     1     -14.951   4.351  14.649  1.00  0.00     0.080 C 
HETATM   17  C24 UNL     1     -16.121   5.293  14.759  1.00  0.00     0.135 C 
HETATM   18  O5  UNL     1     -16.087   6.258  15.520  1.00  0.00    -0.297 OA
HETATM   19  C25 UNL     1     -17.300   5.023  13.814  1.00  0.00     0.018 C 
HETATM   20  C26 UNL     1     -18.602   5.566  14.435  1.00  0.00     0.023 C 
HETATM   21  C27 UNL     1     -17.027   5.840  12.532  1.00  0.00     0.023 C 
HETATM   22  C28 UNL     1     -17.342   3.490  13.473  1.00  0.00     0.021 C 
HETATM   23  C29 UNL     1     -18.695   3.036  12.924  1.00  0.00     0.090 C 
HETATM   24  C30 UNL     1     -18.617   1.619  12.416  1.00  0.00     0.157 C 
HETATM   25  O6  UNL     1     -19.294   1.280  11.447  1.00  0.00    -0.293 OA
ENDROOT
BRANCH   1  26
HETATM   26  C2  UNL     1     -15.670  -4.067  12.274  1.00  0.00    -0.011 C 
HETATM   27  C1  UNL     1     -15.506  -5.172  13.318  1.00  0.00     0.010 C 
BRANCH  26  28
HETATM   28  C3  UNL     1     -15.806  -4.697  10.849  1.00  0.00     0.039 C 
BRANCH  28  29
HETATM   29  C4  UNL     1     -14.666  -4.359   9.855  1.00  0.00     0.150 C 
BRANCH  29  30
HETATM   30  O1  UNL     1     -13.504  -3.981  10.593  1.00  0.00    -0.393 OA
HETATM   31  H8  UNL     1     -12.740  -4.026   9.978  1.00  0.00     0.210 HD
ENDBRANCH  29  30
BRANCH  29  32
HETATM   32  C5  UNL     1     -14.367  -5.529   8.870  1.00  0.00     0.180 C 
BRANCH  32  33
HETATM   33  O2  UNL     1     -13.374  -6.397   9.437  1.00  0.00    -0.390 OA
HETATM   34  H10 UNL     1     -13.809  -6.983  10.083  1.00  0.00     0.210 HD
ENDBRANCH  32  33
BRANCH  32  35
HETATM   35  C6  UNL     1     -13.813  -5.063   7.487  1.00  0.00     0.079 C 
HETATM   36  C7  UNL     1     -13.186  -6.235   6.717  1.00  0.00     0.048 C 
HETATM   37  C8  UNL     1     -14.872  -4.390   6.610  1.00  0.00     0.048 C 
BRANCH  35  38
HETATM   38  O3  UNL     1     -12.770  -4.105   7.727  1.00  0.00    -0.388 OA
HETATM   39  H17 UNL     1     -12.154  -4.555   8.346  1.00  0.00     0.210 HD
ENDBRANCH  35  38
ENDBRANCH  32  35
ENDBRANCH  29  32
ENDBRANCH  28  29
ENDBRANCH  26  28
ENDBRANCH   1  26
TORSDOF 8
ENDMDL
