MODEL 1
REMARK minimizedAffinity -7.6041851
REMARK CNNscore 0.653492808
REMARK CNNaffinity 7.44697571
REMARK  9 active torsions:
REMARK  status: ('A' for Active; 'I' for Inactive)
REMARK    1  A    between atoms: C2_2  and  O1_3 
REMARK    2  A    between atoms: O1_3  and  C3_4 
REMARK    3  A    between atoms: C14_15  and  O2_16 
REMARK    4  A    between atoms: O2_16  and  C15_17 
REMARK    5  A    between atoms: C21_24  and  O4_25 
REMARK    6  A    between atoms: O4_25  and  C22_26 
REMARK    7  A    between atoms: C24_29  and  O6_30 
REMARK    8  A    between atoms: C25_31  and  O7_32 
REMARK    9  A    between atoms: C26_33  and  O8_34 
ROOT
HETATM    1  C3  UNL     1       5.114  55.780  -6.680  1.00  0.00     0.260 C 
HETATM    2  C4  UNL     1       4.192  56.984  -6.426  1.00  0.00     0.065 C 
HETATM    3  C5  UNL     1       2.714  56.601  -6.579  1.00  0.00    -0.007 C 
HETATM    4  C6  UNL     1       1.810  57.782  -6.232  1.00  0.00     0.010 C 
HETATM    5  C7  UNL     1       2.507  56.109  -8.029  1.00  0.00     0.027 C 
HETATM    6  C8  UNL     1       3.707  55.233  -8.508  1.00  0.00     0.130 C 
HETATM    7  C9  UNL     1       3.102  54.052  -9.308  1.00  0.00     0.042 C 
HETATM    8  C10 UNL     1       1.706  54.559  -9.715  1.00  0.00    -0.029 C 
HETATM    9  C11 UNL     1       1.949  55.577 -10.891  1.00  0.00     0.016 C 
HETATM   10  C12 UNL     1       0.647  53.538 -10.252  1.00  0.00     0.006 C 
HETATM   11  C13 UNL     1       0.969  52.049 -10.116  1.00  0.00     0.039 C 
HETATM   12  C14 UNL     1       0.085  51.252 -11.096  1.00  0.00     0.138 C 
HETATM   13  C17 UNL     1      -1.461  51.506 -10.960  1.00  0.00     0.035 C 
HETATM   14  C18 UNL     1      -2.330  51.152 -12.232  1.00  0.00    -0.015 C 
HETATM   15  C19 UNL     1      -2.033  52.094 -13.432  1.00  0.00     0.018 C 
HETATM   16  C20 UNL     1      -2.016  49.707 -12.703  1.00  0.00     0.018 C 
HETATM   17  C21 UNL     1      -3.862  51.241 -11.873  1.00  0.00     0.133 C 
HETATM   18  C27 UNL     1      -4.219  52.349 -10.875  1.00  0.00     0.034 C 
HETATM   19  C28 UNL     1      -3.183  53.451 -10.797  1.00  0.00     0.013 C 
HETATM   20  C29 UNL     1      -1.849  52.891 -10.341  1.00  0.00    -0.025 A 
HETATM   21  C30 UNL     1      -1.589  52.955  -8.855  1.00  0.00     0.021 A 
HETATM   22  C31 UNL     1      -0.778  53.850  -9.773  1.00  0.00    -0.027 A 
HETATM   23  C32 UNL     1      -1.043  55.342  -9.598  1.00  0.00     0.011 C 
HETATM   24  C33 UNL     1      -0.054  56.033  -8.630  1.00  0.00     0.011 C 
HETATM   25  C34 UNL     1       1.251  55.246  -8.380  1.00  0.00    -0.030 C 
HETATM   26  C35 UNL     1       1.020  54.244  -7.211  1.00  0.00     0.016 C 
HETATM   27  O9  UNL     1       4.468  54.739  -7.415  1.00  0.00    -0.356 OA
ENDROOT
BRANCH  17  28
HETATM   28  O4  UNL     1      -4.304  49.980 -11.333  1.00  0.00    -0.353 OA
BRANCH  28  29
HETATM   29  C22 UNL     1      -5.023  50.068 -10.096  1.00  0.00     0.291 C 
HETATM   30  O5  UNL     1      -4.149  49.649  -9.032  1.00  0.00    -0.356 OA
HETATM   31  C23 UNL     1      -4.073  48.229  -8.909  1.00  0.00     0.205 C 
HETATM   32  C24 UNL     1      -5.415  47.652  -8.430  1.00  0.00     0.173 C 
HETATM   33  C25 UNL     1      -6.568  48.598  -8.774  1.00  0.00     0.182 C 
HETATM   34  C26 UNL     1      -6.334  49.239 -10.137  1.00  0.00     0.204 C 
BRANCH  32  35
HETATM   35  O6  UNL     1      -5.443  47.457  -7.006  1.00  0.00    -0.391 OA
HETATM   36  H39 UNL     1      -4.649  46.951  -6.756  1.00  0.00     0.210 HD
ENDBRANCH  32  35
BRANCH  33  37
HETATM   37  O7  UNL     1      -7.812  47.879  -8.793  1.00  0.00    -0.390 OA
HETATM   38  H41 UNL     1      -7.929  47.540  -7.882  1.00  0.00     0.210 HD
ENDBRANCH  33  37
BRANCH  34  39
HETATM   39  O8  UNL     1      -7.467  50.054 -10.481  1.00  0.00    -0.388 OA
HETATM   40  H43 UNL     1      -8.244  49.519 -10.217  1.00  0.00     0.210 HD
ENDBRANCH  34  39
ENDBRANCH  28  29
ENDBRANCH  17  28
BRANCH  12  41
HETATM   41  O2  UNL     1       0.542  51.564 -12.432  1.00  0.00    -0.316 OA
BRANCH  41  42
HETATM   42  C15 UNL     1       1.539  50.788 -12.940  1.00  0.00     0.255 C 
HETATM   43  C16 UNL     1       2.324  51.564 -13.952  1.00  0.00     0.126 C 
HETATM   44  O3  UNL     1       1.761  49.623 -12.643  1.00  0.00    -0.266 OA
ENDBRANCH  41  42
ENDBRANCH  12  41
BRANCH   1  45
HETATM   45  O1  UNL     1       6.286  56.251  -7.346  1.00  0.00    -0.362 OA
BRANCH  45  46
HETATM   46  C2  UNL     1       7.476  55.572  -6.951  1.00  0.00     0.166 C 
HETATM   47  C1  UNL     1       7.413  55.168  -5.488  1.00  0.00     0.033 C 
ENDBRANCH  45  46
ENDBRANCH   1  45
TORSDOF 9
ENDMDL
