MODEL 1
REMARK minimizedAffinity -8.73736191
REMARK CNNscore 0.595818698
REMARK CNNaffinity 7.57004023
REMARK  14 active torsions:
REMARK  status: ('A' for Active; 'I' for Inactive)
REMARK    1  A    between atoms: C19_20  and  O2_21 
REMARK    2  A    between atoms: C19_20  and  C20_22 
REMARK    3  A    between atoms: C20_22  and  C21_24 
REMARK    4  A    between atoms: C21_24  and  O4_25 
REMARK    5  A    between atoms: O4_25  and  C22_26 
REMARK    6  A    between atoms: C22_26  and  C23_28 
REMARK    7  A    between atoms: C23_28  and  C24_29 
REMARK    8  A    between atoms: C24_29  and  C25_30 
REMARK       I    between atoms: C25_30  and  N1_32 
REMARK    9  A    between atoms: N1_32  and  C26_33 
REMARK   10  A    between atoms: C26_33  and  C27_34 
REMARK   11  A    between atoms: C27_34  and  C28_35 
REMARK   12  A    between atoms: C27_34  and  C30_39 
REMARK   13  A    between atoms: C28_35  and  C29_36 
REMARK   14  A    between atoms: C29_36  and  O8_38 
ROOT
HETATM    1  C20 UNL     1      -6.159   4.535  13.361  1.00  0.00     0.185 C 
HETATM    2  O3  UNL     1      -6.702   3.925  12.430  1.00  0.00    -0.292 OA
ENDROOT
BRANCH   1   3
HETATM    3  C19 UNL     1      -7.033   5.075  14.510  1.00  0.00     0.128 C 
HETATM    4  C14 UNL     1      -7.997   6.227  14.087  1.00  0.00    -0.002 C 
HETATM    5  C13 UNL     1      -9.235   5.825  13.267  1.00  0.00     0.013 C 
HETATM    6  C15 UNL     1      -7.213   7.331  13.327  1.00  0.00     0.019 C 
HETATM    7  C16 UNL     1      -8.495   6.676  15.483  1.00  0.00     0.002 C 
HETATM    8  C12 UNL     1     -10.266   6.966  13.172  1.00  0.00     0.007 C 
HETATM    9  C11 UNL     1     -10.678   7.533  14.553  1.00  0.00     0.002 C 
HETATM   10  C2  UNL     1     -11.703   8.724  14.494  1.00  0.00    -0.016 C 
HETATM   11  C10 UNL     1      -9.423   7.894  15.428  1.00  0.00    -0.004 C 
HETATM   12  C1  UNL     1     -11.104   9.969  13.793  1.00  0.00     0.020 C 
HETATM   13  C3  UNL     1     -12.999   8.389  13.701  1.00  0.00     0.022 C 
HETATM   14  C7  UNL     1     -12.045   9.042  15.956  1.00  0.00    -0.068 C 
HETATM   15  C4  UNL     1     -13.958   7.484  14.451  1.00  0.00     0.084 C 
HETATM   16  C5  UNL     1     -14.325   8.125  15.766  1.00  0.00     0.149 C 
HETATM   17  O1  UNL     1     -15.440   8.013  16.266  1.00  0.00    -0.293 OA
HETATM   18  C6  UNL     1     -13.251   8.824  16.512  1.00  0.00     0.053 C 
HETATM   19  C8  UNL     1     -10.884   9.472  16.818  1.00  0.00     0.035 C 
HETATM   20  C9  UNL     1      -9.835   8.357  16.841  1.00  0.00     0.010 C 
HETATM   21  C17 UNL     1      -7.215   6.768  16.308  1.00  0.00     0.009 C 
HETATM   22  C18 UNL     1      -6.305   5.655  15.745  1.00  0.00     0.047 C 
BRANCH   3  23
HETATM   23  O2  UNL     1      -7.796   3.945  14.975  1.00  0.00    -0.381 OA
HETATM   24  H27 UNL     1      -8.065   3.447  14.176  1.00  0.00     0.211 HD
ENDBRANCH   3  23
ENDBRANCH   1   3
BRANCH   1  25
HETATM   25  C21 UNL     1      -4.656   4.778  13.398  1.00  0.00     0.260 C 
BRANCH  25  26
HETATM   26  O4  UNL     1      -4.051   4.648  12.111  1.00  0.00    -0.314 OA
BRANCH  26  27
HETATM   27  C22 UNL     1      -2.879   3.952  12.109  1.00  0.00     0.259 C 
HETATM   28  O5  UNL     1      -2.748   2.796  11.726  1.00  0.00    -0.265 OA
BRANCH  27  29
HETATM   29  C23 UNL     1      -1.755   4.816  12.627  1.00  0.00     0.120 C 
BRANCH  29  30
HETATM   30  C24 UNL     1      -0.896   5.320  11.473  1.00  0.00     0.112 C 
BRANCH  30  31
HETATM   31  C25 UNL     1       0.328   6.058  11.978  1.00  0.00     0.218 C 
HETATM   32  O6  UNL     1       0.996   5.682  12.938  1.00  0.00    -0.274 OA
HETATM   33  N1  UNL     1       0.608   7.197  11.264  1.00  0.00    -0.360 N 
HETATM   34  H34 UNL     1       0.078   7.384  10.414  1.00  0.00     0.162 HD
BRANCH  33  35
HETATM   35  C26 UNL     1       1.798   7.979  11.527  1.00  0.00     0.132 C 
BRANCH  35  36
HETATM   36  C27 UNL     1       3.018   7.603  10.651  1.00  0.00     0.046 C 
BRANCH  36  37
HETATM   37  C28 UNL     1       3.952   6.610  11.377  1.00  0.00     0.120 C 
BRANCH  37  38
HETATM   38  C29 UNL     1       5.409   7.000  11.418  1.00  0.00     0.140 C 
HETATM   39  O7  UNL     1       5.916   7.908  12.058  1.00  0.00    -0.650 OA
BRANCH  38  40
HETATM   40  O8  UNL     1       6.172   6.192  10.655  1.00  0.00    -0.776 OA
HETATM   41  H40 UNL     1       7.081   6.557  10.730  1.00  0.00     0.167 HD
ENDBRANCH  38  40
ENDBRANCH  37  38
ENDBRANCH  36  37
BRANCH  36  42
HETATM   42  C30 UNL     1       2.650   7.299   9.200  1.00  0.00    -0.052 A 
HETATM   43  C31 UNL     1       3.036   6.061   8.647  1.00  0.00     0.007 A 
HETATM   44  C32 UNL     1       2.718   5.722   7.330  1.00  0.00     0.001 A 
HETATM   45  C33 UNL     1       1.998   6.611   6.536  1.00  0.00     0.000 A 
HETATM   46  C34 UNL     1       1.594   7.834   7.066  1.00  0.00     0.001 A 
HETATM   47  C35 UNL     1       1.912   8.171   8.387  1.00  0.00     0.007 A 
ENDBRANCH  36  42
ENDBRANCH  35  36
ENDBRANCH  33  35
ENDBRANCH  30  31
ENDBRANCH  29  30
ENDBRANCH  27  29
ENDBRANCH  26  27
ENDBRANCH  25  26
ENDBRANCH   1  25
TORSDOF 14
ENDMDL
