MODEL 1
REMARK minimizedAffinity -9.93297195
REMARK  4 active torsions:
REMARK  status: ('A' for Active; 'I' for Inactive)
REMARK    1  A    between atoms: C13_15  and  C14_16 
REMARK    2  A    between atoms: C14_16  and  C16_18 
REMARK    3  A    between atoms: C16_18  and  C17_19 
REMARK    4  A    between atoms: C17_19  and  C18_20 
ROOT
HETATM    1  C1  UNL     1      -3.975  48.842 -27.007  1.00  0.00     0.047 C 
HETATM    2  C2  UNL     1      -3.332  49.721 -26.226  1.00  0.00     0.052 C 
HETATM    3  O1  UNL     1      -3.448  51.101 -26.552  1.00  0.00    -0.284 OA
HETATM    4  C3  UNL     1      -2.348  51.868 -26.827  1.00  0.00     0.263 C 
HETATM    5  O2  UNL     1      -2.448  53.059 -27.110  1.00  0.00    -0.265 OA
HETATM    6  C4  UNL     1      -1.013  51.175 -26.746  1.00  0.00     0.112 C 
HETATM    7  C5  UNL     1      -0.581  51.003 -25.297  1.00  0.00     0.021 C 
HETATM    8  C6  UNL     1      -1.696  50.494 -24.381  1.00  0.00    -0.022 A 
HETATM    9  C7  UNL     1      -2.421  51.534 -23.562  1.00  0.00     0.022 A 
HETATM   10  C8  UNL     1      -1.501  50.563 -22.838  1.00  0.00    -0.027 A 
HETATM   11  C9  UNL     1      -0.173  51.133 -22.319  1.00  0.00     0.011 C 
HETATM   12  C10 UNL     1       0.009  51.281 -20.798  1.00  0.00     0.011 C 
HETATM   13  C11 UNL     1      -1.099  50.643 -19.952  1.00  0.00    -0.032 C 
HETATM   14  C12 UNL     1      -2.276  51.652 -19.882  1.00  0.00     0.016 C 
HETATM   15  C13 UNL     1      -0.685  50.201 -18.509  1.00  0.00    -0.002 C 
HETATM   16  C22 UNL     1      -1.637  49.014 -18.191  1.00  0.00     0.006 C 
HETATM   17  C23 UNL     1      -2.340  48.634 -19.506  1.00  0.00     0.011 C 
HETATM   18  C24 UNL     1      -1.473  49.265 -20.612  1.00  0.00    -0.032 C 
HETATM   19  C25 UNL     1      -0.265  48.301 -20.840  1.00  0.00     0.016 C 
HETATM   20  C26 UNL     1      -2.219  49.517 -21.949  1.00  0.00     0.004 C 
HETATM   21  C27 UNL     1      -2.540  48.239 -22.735  1.00  0.00     0.007 C 
HETATM   22  C28 UNL     1      -3.354  48.574 -23.979  1.00  0.00     0.012 C 
HETATM   23  C29 UNL     1      -2.498  49.335 -25.005  1.00  0.00     0.051 C 
ENDROOT
BRANCH  15  24
HETATM   24  C14 UNL     1      -0.515  51.208 -17.329  1.00  0.00    -0.014 C 
HETATM   25  C15 UNL     1       0.605  52.246 -17.476  1.00  0.00     0.010 C 
BRANCH  24  26
HETATM   26  C16 UNL     1      -0.447  50.469 -15.970  1.00  0.00     0.008 C 
BRANCH  26  27
HETATM   27  C17 UNL     1       0.956  50.356 -15.352  1.00  0.00     0.028 C 
BRANCH  27  28
HETATM   28  C18 UNL     1       1.918  51.408 -15.831  1.00  0.00    -0.025 C 
HETATM   29  C19 UNL     1       3.166  51.663 -15.389  1.00  0.00    -0.091 C 
HETATM   30  C20 UNL     1       3.986  52.763 -16.011  1.00  0.00     0.042 C 
HETATM   31  C21 UNL     1       3.867  50.930 -14.278  1.00  0.00     0.042 C 
ENDBRANCH  27  28
ENDBRANCH  26  27
ENDBRANCH  24  26
ENDBRANCH  15  24
TORSDOF 4
ENDMDL
