MODEL 1
REMARK minimizedAffinity -8.11581612
REMARK CNNscore 0.651852012
REMARK CNNaffinity 6.65949392
REMARK  6 active torsions:
REMARK  status: ('A' for Active; 'I' for Inactive)
REMARK    1  A    between atoms: C4_4  and  C5_5 
REMARK    2  A    between atoms: C5_5  and  C6_6 
REMARK    3  A    between atoms: C6_6  and  C7_7 
REMARK    4  A    between atoms: C7_7  and  C9_9 
REMARK    5  A    between atoms: C12_12  and  C13_13 
REMARK    6  A    between atoms: C13_13  and  O2_15 
ROOT
HETATM    1  C9  UNL     1      -1.790   9.628  16.029  1.00  0.00    -0.001 C 
HETATM    2  C10 UNL     1      -0.574   9.246  16.918  1.00  0.00     0.007 C 
HETATM    3  C11 UNL     1       0.527   8.734  15.967  1.00  0.00     0.026 C 
HETATM    4  C12 UNL     1       0.077   9.208  14.569  1.00  0.00     0.076 C 
HETATM    5  C14 UNL     1       0.665   8.552  13.324  1.00  0.00    -0.057 C 
HETATM    6  C15 UNL     1      -0.061   8.488  12.178  1.00  0.00    -0.067 C 
HETATM    7  C16 UNL     1      -1.507   8.997  12.115  1.00  0.00     0.036 C 
HETATM    8  C17 UNL     1      -2.167   9.486  13.422  1.00  0.00     0.015 C 
HETATM    9  C18 UNL     1      -1.473   8.932  14.671  1.00  0.00    -0.018 C 
HETATM   10  C19 UNL     1      -1.807   7.409  14.738  1.00  0.00     0.017 C 
HETATM   11  C20 UNL     1       0.522   7.862  10.881  1.00  0.00    -0.015 C 
HETATM   12  C21 UNL     1       0.004   6.404  10.856  1.00  0.00     0.020 C 
HETATM   13  C22 UNL     1       0.030   8.607   9.613  1.00  0.00     0.021 C 
HETATM   14  C23 UNL     1       0.655   8.089   8.329  1.00  0.00     0.080 C 
HETATM   15  C24 UNL     1       2.160   8.167   8.376  1.00  0.00     0.135 C 
HETATM   16  O3  UNL     1       2.778   8.569   7.387  1.00  0.00    -0.297 OA
HETATM   17  C25 UNL     1       2.877   7.611   9.617  1.00  0.00     0.018 C 
HETATM   18  C26 UNL     1       3.093   6.107   9.411  1.00  0.00     0.023 C 
HETATM   19  C27 UNL     1       4.281   8.269   9.667  1.00  0.00     0.023 C 
HETATM   20  C28 UNL     1       2.089   8.002  10.914  1.00  0.00     0.013 C 
HETATM   21  C29 UNL     1       2.641   7.358  12.196  1.00  0.00     0.011 C 
HETATM   22  C30 UNL     1       2.087   8.053  13.439  1.00  0.00     0.036 C 
ENDROOT
BRANCH   1  23
HETATM   23  C7  UNL     1      -3.166   9.505  16.749  1.00  0.00    -0.014 C 
HETATM   24  C8  UNL     1      -4.373  10.080  16.002  1.00  0.00     0.010 C 
BRANCH  23  25
HETATM   25  C6  UNL     1      -3.085  10.044  18.200  1.00  0.00     0.008 C 
BRANCH  25  26
HETATM   26  C5  UNL     1      -3.119  11.574  18.333  1.00  0.00     0.028 C 
BRANCH  26  27
HETATM   27  C4  UNL     1      -4.208  12.092  19.228  1.00  0.00    -0.025 C 
HETATM   28  C2  UNL     1      -4.432  13.362  19.621  1.00  0.00    -0.091 C 
HETATM   29  C1  UNL     1      -3.588  14.551  19.253  1.00  0.00     0.042 C 
HETATM   30  C3  UNL     1      -5.607  13.694  20.505  1.00  0.00     0.042 C 
ENDBRANCH  26  27
ENDBRANCH  25  26
ENDBRANCH  23  25
ENDBRANCH   1  23
BRANCH   4  31
HETATM   31  C13 UNL     1       0.469  10.711  14.409  1.00  0.00     0.153 C 
HETATM   32  O1  UNL     1       1.559  11.228  14.593  1.00  0.00    -0.649 OA
BRANCH  31  33
HETATM   33  O2  UNL     1      -0.569  11.517  14.094  1.00  0.00    -0.776 OA
HETATM   34  H21 UNL     1      -0.165  12.412  14.089  1.00  0.00     0.167 HD
ENDBRANCH  31  33
ENDBRANCH   4  31
TORSDOF 6
ENDMDL
