MODEL 1
REMARK minimizedAffinity -9.29695797
REMARK CNNscore 0.539110303
REMARK CNNaffinity 6.38126802
REMARK  12 active torsions:
REMARK  status: ('A' for Active; 'I' for Inactive)
REMARK    1  A    between atoms: C2_2  and  C31_37 
REMARK    2  A    between atoms: C3_3  and  C4_4 
REMARK    3  A    between atoms: C4_4  and  O1_5 
REMARK    4  A    between atoms: C4_4  and  C5_6 
REMARK    5  A    between atoms: C5_6  and  C6_7 
REMARK    6  A    between atoms: C6_7  and  C8_9 
REMARK    7  A    between atoms: C10_11  and  O2_12 
REMARK    8  A    between atoms: C11_13  and  C12_14 
REMARK    9  A    between atoms: C12_14  and  C13_15 
REMARK   10  A    between atoms: C13_15  and  O3_16 
REMARK   11  A    between atoms: C30_35  and  O6_36 
REMARK   12  A    between atoms: C31_37  and  O8_39 
ROOT
HETATM    1  C8  UNL     1      -5.468  48.355 -20.928  1.00  0.00     0.001 C 
HETATM    2  C9  UNL     1      -5.082  49.549 -20.022  1.00  0.00     0.038 C 
HETATM    3  C10 UNL     1      -4.296  50.540 -20.912  1.00  0.00     0.132 C 
HETATM    4  C11 UNL     1      -4.625  50.126 -22.382  1.00  0.00     0.022 C 
HETATM    5  C14 UNL     1      -3.636  50.452 -23.506  1.00  0.00    -0.029 C 
HETATM    6  C15 UNL     1      -3.579  49.683 -24.624  1.00  0.00     0.002 C 
HETATM    7  C16 UNL     1      -4.565  48.534 -24.734  1.00  0.00     0.157 C 
HETATM    8  O4  UNL     1      -4.932  48.128 -25.835  1.00  0.00    -0.293 OA
HETATM    9  C17 UNL     1      -5.114  47.877 -23.467  1.00  0.00     0.094 C 
HETATM   10  C18 UNL     1      -4.577  48.546 -22.195  1.00  0.00    -0.019 C 
HETATM   11  C19 UNL     1      -3.145  47.974 -21.951  1.00  0.00     0.017 C 
HETATM   12  C20 UNL     1      -2.612  49.975 -25.802  1.00  0.00    -0.008 C 
HETATM   13  C21 UNL     1      -2.123  48.648 -26.449  1.00  0.00     0.021 C 
HETATM   14  C22 UNL     1      -3.465  50.758 -26.836  1.00  0.00     0.022 C 
HETATM   15  C23 UNL     1      -2.670  51.432 -27.925  1.00  0.00     0.080 C 
HETATM   16  C24 UNL     1      -1.761  52.423 -27.261  1.00  0.00     0.135 C 
HETATM   17  O5  UNL     1      -1.866  53.624 -27.513  1.00  0.00    -0.297 OA
HETATM   18  C25 UNL     1      -0.692  51.854 -26.327  1.00  0.00     0.018 C 
HETATM   19  C26 UNL     1       0.008  53.035 -25.617  1.00  0.00     0.023 C 
HETATM   20  C27 UNL     1       0.389  51.224 -27.244  1.00  0.00     0.023 C 
HETATM   21  C28 UNL     1      -1.278  50.752 -25.341  1.00  0.00     0.016 C 
HETATM   22  C29 UNL     1      -1.292  51.119 -23.834  1.00  0.00     0.043 C 
HETATM   23  C30 UNL     1      -2.644  51.567 -23.307  1.00  0.00     0.149 C 
ENDROOT
BRANCH   1  24
HETATM   24  C6  UNL     1      -5.535  46.950 -20.248  1.00  0.00    -0.011 C 
HETATM   25  C7  UNL     1      -5.590  45.879 -21.353  1.00  0.00     0.010 C 
BRANCH  24  26
HETATM   26  C5  UNL     1      -6.716  46.754 -19.258  1.00  0.00     0.040 C 
BRANCH  26  27
HETATM   27  C4  UNL     1      -6.862  47.784 -18.119  1.00  0.00     0.142 C 
BRANCH  27  28
HETATM   28  C3  UNL     1      -8.089  47.622 -17.277  1.00  0.00     0.018 C 
HETATM   29  C2  UNL     1      -9.360  47.890 -17.643  1.00  0.00     0.010 C 
HETATM   30  C1  UNL     1      -9.797  48.371 -18.993  1.00  0.00     0.055 C 
BRANCH  29  31
HETATM   31  C31 UNL     1     -10.410  47.664 -16.617  1.00  0.00     0.171 C 
HETATM   32  O7  UNL     1     -11.614  47.620 -16.798  1.00  0.00    -0.646 OA
BRANCH  31  33
HETATM   33  O8  UNL     1      -9.892  47.509 -15.387  1.00  0.00    -0.773 OA
HETATM   34  H46 UNL     1     -10.684  47.371 -14.826  1.00  0.00     0.167 HD
ENDBRANCH  31  33
ENDBRANCH  29  31
ENDBRANCH  27  28
BRANCH  27  35
HETATM   35  O1  UNL     1      -5.739  47.735 -17.248  1.00  0.00    -0.392 OA
HETATM   36  H6  UNL     1      -4.958  48.001 -17.761  1.00  0.00     0.210 HD
ENDBRANCH  27  35
ENDBRANCH  26  27
ENDBRANCH  24  26
ENDBRANCH   1  24
BRANCH   3  37
HETATM   37  O2  UNL     1      -4.645  51.877 -20.609  1.00  0.00    -0.394 OA
HETATM   38  H17 UNL     1      -4.525  52.011 -19.651  1.00  0.00     0.210 HD
ENDBRANCH   3  37
BRANCH   4  39
HETATM   39  C12 UNL     1      -6.058  50.673 -22.762  1.00  0.00     0.043 C 
BRANCH  39  40
HETATM   40  C13 UNL     1      -7.204  49.667 -22.820  1.00  0.00     0.165 C 
BRANCH  40  41
HETATM   41  O3  UNL     1      -7.889  49.846 -24.059  1.00  0.00    -0.401 OA
HETATM   42  H22 UNL     1      -8.611  49.198 -24.076  1.00  0.00     0.209 HD
ENDBRANCH  40  41
ENDBRANCH  39  40
ENDBRANCH   4  39
BRANCH  23  43
HETATM   43  O6  UNL     1      -3.031  52.759 -23.962  1.00  0.00    -0.391 OA
HETATM   44  H45 UNL     1      -3.759  52.582 -24.571  1.00  0.00     0.210 HD
ENDBRANCH  23  43
TORSDOF 12
ENDMDL
