MODEL 1
REMARK minimizedAffinity -6.86314106
REMARK CNNscore 0.643012226
REMARK CNNaffinity 6.65008593
REMARK  11 active torsions:
REMARK  status: ('A' for Active; 'I' for Inactive)
REMARK    1  A    between atoms: C2_2  and  O1_3 
REMARK    2  A    between atoms: O1_3  and  C3_4 
REMARK    3  A    between atoms: C3_4  and  C4_6 
REMARK    4  A    between atoms: C5_7  and  C6_8 
REMARK    5  A    between atoms: C10_13  and  C11_14 
REMARK    6  A    between atoms: C11_14  and  O4_15 
REMARK    7  A    between atoms: C13_18  and  C14_19 
REMARK    8  A    between atoms: C25_32  and  C26_33 
REMARK    9  A    between atoms: C26_33  and  O7_34 
REMARK   10  A    between atoms: C33_42  and  O9_44 
REMARK   11  A    between atoms: C36_46  and  O10_47 
ROOT
HETATM    1  C4  UNL     1      -9.401  44.061 -22.572  1.00  0.00     0.165 C 
HETATM    2  C5  UNL     1      -9.896  43.831 -23.806  1.00  0.00     0.053 C 
HETATM    3  C7  UNL     1      -9.838  44.933 -24.779  1.00  0.00    -0.002 C 
HETATM    4  C8  UNL     1     -10.841  45.233 -25.652  1.00  0.00    -0.066 C 
HETATM    5  C9  UNL     1     -10.964  46.564 -26.395  1.00  0.00     0.049 C 
HETATM    6  C10 UNL     1     -12.387  47.138 -26.303  1.00  0.00     0.084 C 
HETATM    7  C12 UNL     1     -13.405  46.158 -26.873  1.00  0.00     0.142 C 
HETATM    8  O5  UNL     1     -14.564  46.516 -27.100  1.00  0.00    -0.297 OA
HETATM    9  C13 UNL     1     -12.901  44.741 -27.128  1.00  0.00     0.092 C 
HETATM   10  C22 UNL     1     -12.031  44.312 -25.929  1.00  0.00     0.052 C 
HETATM   11  C23 UNL     1      -8.654  45.830 -24.580  1.00  0.00     0.044 C 
HETATM   12  C24 UNL     1      -8.283  46.047 -23.225  1.00  0.00     0.101 C 
HETATM   13  O6  UNL     1      -8.875  45.309 -22.215  1.00  0.00    -0.302 OA
HETATM   14  C25 UNL     1      -7.268  46.944 -22.860  1.00  0.00     0.034 C 
HETATM   15  C27 UNL     1      -6.582  47.541 -23.902  1.00  0.00     0.090 C 
HETATM   16  O8  UNL     1      -5.508  48.405 -23.730  1.00  0.00    -0.341 OA
HETATM   17  C28 UNL     1      -4.860  48.273 -25.013  1.00  0.00     0.175 C 
HETATM   18  C29 UNL     1      -5.986  48.181 -26.055  1.00  0.00     0.079 C 
HETATM   19  C30 UNL     1      -5.413  47.828 -27.387  1.00  0.00    -0.019 C 
HETATM   20  C31 UNL     1      -4.154  48.178 -27.709  1.00  0.00    -0.027 C 
HETATM   21  C32 UNL     1      -3.203  48.902 -26.768  1.00  0.00     0.067 C 
HETATM   22  C33 UNL     1      -3.846  49.352 -25.423  1.00  0.00     0.085 C 
HETATM   23  C34 UNL     1      -2.779  49.551 -24.348  1.00  0.00     0.049 C 
HETATM   24  C35 UNL     1      -6.860  47.281 -25.253  1.00  0.00     0.021 C 
HETATM   25  C36 UNL     1      -7.865  46.395 -25.601  1.00  0.00     0.091 C 
ENDROOT
BRANCH   2  26
HETATM   26  C6  UNL     1     -10.459  42.501 -24.121  1.00  0.00     0.273 C 
HETATM   27  O3  UNL     1     -11.546  42.139 -23.691  1.00  0.00    -0.301 OA
ENDBRANCH   2  26
BRANCH   1  28
HETATM   28  C3  UNL     1      -9.350  42.999 -21.525  1.00  0.00     0.318 C 
HETATM   29  O2  UNL     1      -8.747  41.941 -21.632  1.00  0.00    -0.257 OA
BRANCH  28  30
HETATM   30  O1  UNL     1     -10.028  43.420 -20.427  1.00  0.00    -0.316 OA
BRANCH  30  31
HETATM   31  C2  UNL     1     -10.897  42.433 -19.856  1.00  0.00     0.175 C 
HETATM   32  C1  UNL     1     -12.281  42.625 -20.449  1.00  0.00     0.034 C 
ENDBRANCH  30  31
ENDBRANCH  28  30
ENDBRANCH   1  28
BRANCH  25  33
HETATM   33  O10 UNL     1      -8.081  46.127 -26.924  1.00  0.00    -0.354 OA
HETATM   34  C37 UNL     1      -8.568  47.289 -27.599  1.00  0.00     0.210 C 
ENDBRANCH  25  33
BRANCH   6  35
HETATM   35  C11 UNL     1     -12.506  48.483 -27.017  1.00  0.00     0.176 C 
BRANCH  35  36
HETATM   36  O4  UNL     1     -11.453  49.359 -26.619  1.00  0.00    -0.400 OA
HETATM   37  H12 UNL     1     -11.439  50.093 -27.260  1.00  0.00     0.209 HD
ENDBRANCH  35  36
ENDBRANCH   6  35
BRANCH   9  38
HETATM   38  C14 UNL     1     -13.990  43.713 -27.403  1.00  0.00    -0.046 A 
HETATM   39  C15 UNL     1     -13.896  42.399 -26.924  1.00  0.00     0.010 A 
HETATM   40  C16 UNL     1     -14.875  41.440 -27.208  1.00  0.00     0.031 A 
HETATM   41  C17 UNL     1     -15.960  41.835 -27.996  1.00  0.00     0.042 A 
HETATM   42  N1  UNL     1     -17.050  41.117 -28.432  1.00  0.00    -0.365 N 
HETATM   43  C20 UNL     1     -16.096  43.130 -28.493  1.00  0.00    -0.008 A 
HETATM   44  C18 UNL     1     -17.870  41.914 -29.189  1.00  0.00     0.089 A 
HETATM   45  H16 UNL     1     -17.217  40.143 -28.220  1.00  0.00     0.165 HD
HETATM   46  C19 UNL     1     -17.305  43.167 -29.244  1.00  0.00     0.030 A 
HETATM   47  C21 UNL     1     -15.097  44.078 -28.195  1.00  0.00     0.021 A 
ENDBRANCH   9  38
BRANCH  14  48
HETATM   48  C26 UNL     1      -6.882  47.202 -21.436  1.00  0.00     0.208 C 
BRANCH  48  49
HETATM   49  O7  UNL     1      -5.511  46.867 -21.244  1.00  0.00    -0.396 OA
HETATM   50  H24 UNL     1      -5.010  47.444 -21.849  1.00  0.00     0.209 HD
ENDBRANCH  48  49
ENDBRANCH  14  48
BRANCH  22  51
HETATM   51  O9  UNL     1      -4.476  50.629 -25.598  1.00  0.00    -0.387 OA
HETATM   52  H34 UNL     1      -4.899  50.648 -26.474  1.00  0.00     0.210 HD
ENDBRANCH  22  51
TORSDOF 11
ENDMDL
