MODEL 1
REMARK minimizedAffinity -9.1144619
REMARK CNNscore 0.427436441
REMARK CNNaffinity 7.39663124
REMARK  12 active torsions:
REMARK  status: ('A' for Active; 'I' for Inactive)
REMARK    1  A    between atoms: C3_3  and  O1_4 
REMARK    2  A    between atoms: N1_14  and  O2_16 
REMARK    3  A    between atoms: O2_16  and  C13_17 
REMARK    4  A    between atoms: C13_17  and  C14_18 
REMARK       I    between atoms: C14_18  and  N2_20 
REMARK    5  A    between atoms: N2_20  and  C15_21 
REMARK    6  A    between atoms: C15_21  and  C16_22 
REMARK    7  A    between atoms: C15_21  and  C26_36 
REMARK       I    between atoms: C16_22  and  N3_24 
REMARK    8  A    between atoms: N3_24  and  C17_25 
REMARK    9  A    between atoms: C17_25  and  C18_26 
REMARK   10  A    between atoms: C17_25  and  C25_33 
REMARK   11  A    between atoms: C18_26  and  C19_27 
REMARK   12  A    between atoms: C25_33  and  O6_35 
ROOT
HETATM    1  C1  UNL     1      -2.688  49.884  -8.339  1.00  0.00     0.015 C 
HETATM    2  C2  UNL     1      -2.084  50.523  -9.159  1.00  0.00    -0.078 C 
HETATM    3  C3  UNL     1      -1.338  51.339 -10.143  1.00  0.00     0.128 C 
HETATM    4  C4  UNL     1       0.167  51.110  -9.979  1.00  0.00     0.052 C 
HETATM    5  C5  UNL     1       0.413  49.810 -10.727  1.00  0.00     0.010 C 
HETATM    6  C6  UNL     1      -0.491  49.887 -11.968  1.00  0.00     0.002 C 
HETATM    7  C7  UNL     1       0.265  50.070 -13.316  1.00  0.00    -0.004 C 
HETATM    8  C8  UNL     1       1.502  50.992 -13.320  1.00  0.00     0.010 C 
HETATM    9  C9  UNL     1       2.185  51.030 -14.691  1.00  0.00     0.035 C 
HETATM   10  C10 UNL     1       1.238  51.302 -15.841  1.00  0.00    -0.069 C 
HETATM   11  C11 UNL     1       1.570  52.191 -16.794  1.00  0.00     0.030 C 
HETATM   12  C12 UNL     1       0.742  52.379 -18.015  1.00  0.00     0.032 C 
HETATM   13  N1  UNL     1       1.078  53.327 -18.842  1.00  0.00    -0.271 N 
ATOM     14  H1  UNL     1       1.852  53.974 -18.689  1.00  0.00     0.194 HD
HETATM   15  C29 UNL     1      -0.404  51.411 -18.241  1.00  0.00     0.060 C 
HETATM   16  C30 UNL     1      -1.058  51.061 -16.911  1.00  0.00     0.020 C 
HETATM   17  C31 UNL     1      -0.059  50.494 -15.860  1.00  0.00    -0.016 C 
HETATM   18  C32 UNL     1       0.281  49.039 -16.277  1.00  0.00     0.020 C 
HETATM   19  C33 UNL     1      -0.721  50.502 -14.427  1.00  0.00     0.002 C 
HETATM   20  C34 UNL     1      -1.375  51.860 -14.062  1.00  0.00     0.007 C 
HETATM   21  C35 UNL     1      -1.456  52.184 -12.568  1.00  0.00     0.014 C 
HETATM   22  C36 UNL     1      -1.595  50.952 -11.646  1.00  0.00     0.003 C 
HETATM   23  C37 UNL     1      -3.013  50.368 -11.866  1.00  0.00     0.020 C 
ENDROOT
BRANCH   3  24
HETATM   24  O1  UNL     1      -1.631  52.705  -9.879  1.00  0.00    -0.377 OA
HETATM   25  H2  UNL     1      -2.599  52.791  -9.905  1.00  0.00     0.211 HD
ENDBRANCH   3  24
BRANCH  13  26
HETATM   26  O2  UNL     1       0.244  53.349 -19.968  1.00  0.00    -0.271 OA
BRANCH  26  27
HETATM   27  C13 UNL     1       1.035  53.559 -21.134  1.00  0.00     0.303 C 
BRANCH  27  28
HETATM   28  C14 UNL     1       0.621  52.577 -22.229  1.00  0.00     0.244 C 
HETATM   29  O3  UNL     1       0.553  51.368 -22.024  1.00  0.00    -0.271 OA
HETATM   30  N2  UNL     1       0.337  53.176 -23.442  1.00  0.00    -0.346 N 
HETATM   31  H16 UNL     1       0.244  54.185 -23.399  1.00  0.00     0.163 HD
BRANCH  30  32
HETATM   32  C15 UNL     1      -0.306  52.500 -24.572  1.00  0.00     0.180 C 
BRANCH  32  33
HETATM   33  C16 UNL     1      -1.637  51.880 -24.071  1.00  0.00     0.241 C 
HETATM   34  O4  UNL     1      -2.698  52.496 -24.000  1.00  0.00    -0.271 OA
HETATM   35  N3  UNL     1      -1.554  50.549 -23.724  1.00  0.00    -0.345 N 
HETATM   36  H18 UNL     1      -0.669  50.053 -23.766  1.00  0.00     0.163 HD
BRANCH  35  37
HETATM   37  C17 UNL     1      -2.702  49.821 -23.166  1.00  0.00     0.186 C 
BRANCH  37  38
HETATM   38  C18 UNL     1      -4.004  50.249 -23.856  1.00  0.00     0.074 C 
BRANCH  38  39
HETATM   39  C19 UNL     1      -4.319  49.442 -25.091  1.00  0.00    -0.056 A 
HETATM   40  C20 UNL     1      -5.447  48.610 -25.116  1.00  0.00     0.007 A 
HETATM   41  C21 UNL     1      -5.752  47.866 -26.257  1.00  0.00     0.001 A 
HETATM   42  C22 UNL     1      -4.937  47.951 -27.383  1.00  0.00     0.000 A 
HETATM   43  C23 UNL     1      -3.813  48.777 -27.369  1.00  0.00     0.001 A 
HETATM   44  C24 UNL     1      -3.503  49.519 -26.228  1.00  0.00     0.007 A 
ENDBRANCH  38  39
ENDBRANCH  37  38
BRANCH  37  45
HETATM   45  C25 UNL     1      -2.749  50.167 -21.682  1.00  0.00     0.163 C 
HETATM   46  O5  UNL     1      -2.102  49.612 -20.803  1.00  0.00    -0.648 OA
BRANCH  45  47
HETATM   47  O6  UNL     1      -3.596  51.169 -21.380  1.00  0.00    -0.775 OA
HETATM   48  H27 UNL     1      -3.511  51.298 -20.413  1.00  0.00     0.167 HD
ENDBRANCH  45  47
ENDBRANCH  37  45
ENDBRANCH  35  37
ENDBRANCH  32  33
BRANCH  32  49
HETATM   49  C26 UNL     1       0.593  51.513 -25.362  1.00  0.00     0.009 C 
HETATM   50  C27 UNL     1      -0.187  50.704 -26.406  1.00  0.00     0.012 C 
HETATM   51  C28 UNL     1       1.729  52.251 -26.082  1.00  0.00     0.012 C 
ENDBRANCH  32  49
ENDBRANCH  30  32
ENDBRANCH  27  28
ENDBRANCH  26  27
ENDBRANCH  13  26
TORSDOF 12
ENDMDL
