MODEL 1
REMARK minimizedAffinity -7.28321218
REMARK CNNscore 0.367597014
REMARK CNNaffinity 6.88905573
REMARK  9 active torsions:
REMARK  status: ('A' for Active; 'I' for Inactive)
REMARK    1  A    between atoms: O1_2  and  C2_3 
REMARK    2  A    between atoms: C2_3  and  C3_4 
REMARK    3  A    between atoms: C3_4  and  N1_5 
REMARK       I    between atoms: N1_5  and  C4_6 
REMARK    4  A    between atoms: C4_6  and  C5_8 
REMARK    5  A    between atoms: C5_8  and  C7_10 
REMARK    6  A    between atoms: C15_20  and  C16_21 
REMARK    7  A    between atoms: C16_21  and  O3_22 
REMARK    8  A    between atoms: O3_22  and  C17_23 
REMARK    9  A    between atoms: C26_34  and  O4_35 
ROOT
HETATM    1  C7  UNL     1      -2.560  50.961 -23.112  1.00  0.00     0.027 C 
HETATM    2  C8  UNL     1      -1.860  52.321 -23.218  1.00  0.00     0.009 C 
HETATM    3  C9  UNL     1      -0.561  52.356 -22.409  1.00  0.00     0.010 C 
HETATM    4  C10 UNL     1      -0.593  51.567 -21.067  1.00  0.00    -0.033 C 
HETATM    5  C11 UNL     1       0.130  50.206 -21.257  1.00  0.00     0.016 C 
HETATM    6  C12 UNL     1       0.208  52.401 -20.010  1.00  0.00     0.058 C 
HETATM    7  C13 UNL     1      -0.036  51.884 -18.634  1.00  0.00     0.008 A 
HETATM    8  C14 UNL     1      -1.099  51.097 -18.250  1.00  0.00     0.027 A 
HETATM    9  N2  UNL     1      -1.085  50.706 -16.926  1.00  0.00    -0.354 N 
ATOM     10  H2  UNL     1      -1.768  50.086 -16.491  1.00  0.00     0.166 HD
HETATM   11  C15 UNL     1      -0.055  51.255 -16.309  1.00  0.00     0.076 A 
HETATM   12  S1  UNL     1       0.978  52.210 -17.309  1.00  0.00    -0.077 SA
HETATM   13  C23 UNL     1      -2.168  50.616 -19.199  1.00  0.00     0.040 C 
HETATM   14  C24 UNL     1      -3.557  50.730 -18.558  1.00  0.00     0.017 C 
HETATM   15  C25 UNL     1      -2.073  51.379 -20.575  1.00  0.00     0.033 C 
HETATM   16  C26 UNL     1      -3.005  50.741 -21.644  1.00  0.00     0.128 C 
ENDROOT
BRANCH   1  17
HETATM   17  C5  UNL     1      -3.711  50.824 -24.149  1.00  0.00     0.080 C 
HETATM   18  C6  UNL     1      -4.756  51.940 -24.034  1.00  0.00     0.020 C 
BRANCH  17  19
HETATM   19  C4  UNL     1      -4.419  49.473 -24.036  1.00  0.00     0.222 C 
HETATM   20  N1  UNL     1      -5.766  49.476 -24.318  1.00  0.00    -0.359 N 
HETATM   21  H8  UNL     1      -6.204  50.299 -24.708  1.00  0.00     0.162 HD
HETATM   22  O2  UNL     1      -3.818  48.454 -23.705  1.00  0.00    -0.273 OA
BRANCH  20  23
HETATM   23  C3  UNL     1      -6.559  48.260 -24.243  1.00  0.00     0.148 C 
BRANCH  23  24
HETATM   24  C2  UNL     1      -7.036  47.740 -25.606  1.00  0.00     0.186 C 
BRANCH  24  25
HETATM   25  O1  UNL     1      -7.611  46.432 -25.496  1.00  0.00    -0.394 OA
HETATM   26  C1  UNL     1      -8.173  45.967 -26.715  1.00  0.00     0.201 C 
ENDBRANCH  24  25
ENDBRANCH  23  24
ENDBRANCH  20  23
ENDBRANCH  17  19
ENDBRANCH   1  17
BRANCH  16  27
HETATM   27  O4  UNL     1      -4.295  51.336 -21.468  1.00  0.00    -0.395 OA
HETATM   28  H35 UNL     1      -4.928  50.635 -21.230  1.00  0.00     0.210 HD
ENDBRANCH  16  27
BRANCH  11  29
HETATM   29  C16 UNL     1       0.268  51.068 -14.857  1.00  0.00     0.240 C 
BRANCH  29  30
HETATM   30  O3  UNL     1      -0.962  51.156 -14.132  1.00  0.00    -0.345 OA
BRANCH  30  31
HETATM   31  C17 UNL     1      -0.993  52.009 -13.062  1.00  0.00     0.070 A 
HETATM   32  C18 UNL     1       0.099  52.696 -12.526  1.00  0.00     0.037 A 
HETATM   33  C19 UNL     1      -0.074  53.542 -11.425  1.00  0.00     0.004 A 
HETATM   34  C20 UNL     1      -1.338  53.705 -10.859  1.00  0.00     0.024 A 
HETATM   35  C21 UNL     1      -2.425  53.019 -11.394  1.00  0.00     0.036 A 
HETATM   36 CL1  UNL     1      -3.986  53.215 -10.694  1.00  0.00    -0.084 Cl
HETATM   37  C22 UNL     1      -2.257  52.174 -12.489  1.00  0.00     0.060 A 
ENDBRANCH  30  31
ENDBRANCH  29  30
ENDBRANCH  11  29
TORSDOF 9
ENDMDL
