MODEL 1
REMARK minimizedAffinity -10.5544901
REMARK  8 active torsions:
REMARK  status: ('A' for Active; 'I' for Inactive)
REMARK    1  A    between atoms: C2_2  and  C3_3 
REMARK    2  A    between atoms: C2_2  and  C27_30 
REMARK    3  A    between atoms: C3_3  and  C4_4 
REMARK    4  A    between atoms: C4_4  and  C5_5 
REMARK    5  A    between atoms: C5_5  and  C7_7 
REMARK    6  A    between atoms: C26_28  and  O3_29 
REMARK    7  A    between atoms: C27_30  and  C29_32 
REMARK    8  A    between atoms: C29_32  and  O5_34 
ROOT
HETATM    1  C7  UNL     1      -0.738  51.192 -25.148  1.00  0.00    -0.002 C 
HETATM    2  C8  UNL     1       0.225  52.378 -25.420  1.00  0.00     0.006 C 
HETATM    3  C9  UNL     1       0.680  52.893 -24.050  1.00  0.00     0.010 C 
HETATM    4  C10 UNL     1       0.223  51.814 -23.064  1.00  0.00     0.027 C 
HETATM    5  C11 UNL     1       0.202  52.030 -21.561  1.00  0.00    -0.036 C 
HETATM    6  C12 UNL     1      -0.587  51.261 -20.767  1.00  0.00     0.002 C 
HETATM    7  C13 UNL     1      -1.566  50.299 -21.421  1.00  0.00     0.157 C 
HETATM    8  O1  UNL     1      -2.364  49.652 -20.743  1.00  0.00    -0.293 OA
HETATM    9  C14 UNL     1      -1.543  50.102 -22.927  1.00  0.00     0.093 C 
HETATM   10  C15 UNL     1      -1.146  51.383 -23.655  1.00  0.00    -0.026 C 
HETATM   11  C16 UNL     1      -2.239  52.457 -23.454  1.00  0.00     0.016 C 
HETATM   12  C17 UNL     1      -0.549  51.311 -19.222  1.00  0.00    -0.008 C 
HETATM   13  C18 UNL     1      -1.791  52.124 -18.774  1.00  0.00     0.021 C 
HETATM   14  C19 UNL     1      -0.610  49.884 -18.579  1.00  0.00     0.022 C 
HETATM   15  C20 UNL     1       0.161  49.699 -17.273  1.00  0.00     0.080 C 
HETATM   16  C21 UNL     1       0.248  50.975 -16.480  1.00  0.00     0.131 C 
HETATM   17  O2  UNL     1      -0.050  51.013 -15.287  1.00  0.00    -0.298 OA
HETATM   18  C22 UNL     1       0.806  52.193 -17.199  1.00  0.00     0.056 C 
HETATM   19  C23 UNL     1       2.209  52.470 -16.656  1.00  0.00     0.018 C 
HETATM   20  C24 UNL     1       0.789  51.971 -18.732  1.00  0.00     0.012 C 
HETATM   21  C25 UNL     1       1.068  53.269 -19.488  1.00  0.00     0.042 C 
HETATM   22  C26 UNL     1       1.179  53.033 -20.995  1.00  0.00     0.148 C 
ENDROOT
BRANCH   1  23
HETATM   23  C5  UNL     1      -1.762  50.965 -26.296  1.00  0.00    -0.014 C 
HETATM   24  C6  UNL     1      -3.055  51.790 -26.215  1.00  0.00     0.010 C 
BRANCH  23  25
HETATM   25  C4  UNL     1      -2.142  49.487 -26.536  1.00  0.00     0.009 C 
BRANCH  25  26
HETATM   26  C3  UNL     1      -2.983  48.794 -25.453  1.00  0.00     0.034 C 
BRANCH  26  27
HETATM   27  C2  UNL     1      -4.400  48.431 -25.867  1.00  0.00    -0.075 C 
HETATM   28  C1  UNL     1      -4.689  48.311 -27.177  1.00  0.00     0.015 C 
BRANCH  27  29
HETATM   29  C27 UNL     1      -5.432  48.259 -24.752  1.00  0.00     0.107 C 
HETATM   30  C28 UNL     1      -6.858  47.895 -25.183  1.00  0.00     0.026 C 
BRANCH  29  31
HETATM   31  C29 UNL     1      -5.460  49.491 -23.857  1.00  0.00     0.147 C 
HETATM   32  O4  UNL     1      -5.057  49.539 -22.702  1.00  0.00    -0.650 OA
BRANCH  31  33
HETATM   33  O5  UNL     1      -5.936  50.603 -24.452  1.00  0.00    -0.776 OA
HETATM   34  H42 UNL     1      -5.850  51.298 -23.766  1.00  0.00     0.167 HD
ENDBRANCH  31  33
ENDBRANCH  29  31
ENDBRANCH  27  29
ENDBRANCH  26  27
ENDBRANCH  25  26
ENDBRANCH  23  25
ENDBRANCH   1  23
BRANCH  22  35
HETATM   35  O3  UNL     1       0.972  54.300 -21.606  1.00  0.00    -0.391 OA
HETATM   36  H37 UNL     1       1.771  54.831 -21.442  1.00  0.00     0.210 HD
ENDBRANCH  22  35
TORSDOF 8
ENDMDL
