MODEL 1
REMARK minimizedAffinity -9.1975975
REMARK CNNscore 0.764818609
REMARK CNNaffinity 7.26896858
REMARK  12 active torsions:
REMARK  status: ('A' for Active; 'I' for Inactive)
REMARK    1  A    between atoms: C16_17  and  O2_18 
REMARK    2  A    between atoms: O2_18  and  C17_19 
REMARK    3  A    between atoms: C17_19  and  C18_21 
REMARK    4  A    between atoms: C18_21  and  C19_22 
REMARK    5  A    between atoms: C19_22  and  C20_23 
REMARK       I    between atoms: C20_23  and  N1_25 
REMARK    6  A    between atoms: N1_25  and  C21_26 
REMARK    7  A    between atoms: C21_26  and  C22_27 
REMARK       I    between atoms: C22_27  and  N2_29 
REMARK    8  A    between atoms: N2_29  and  C23_30 
REMARK    9  A    between atoms: C23_30  and  C24_31 
REMARK   10  A    between atoms: C23_30  and  C33_41 
REMARK   11  A    between atoms: C24_31  and  C25_32 
REMARK   12  A    between atoms: C33_41  and  O7_43 
ROOT
HETATM    1  C19 UNL     1       4.166  64.009 -34.249  1.00  0.00     0.112 C 
ENDROOT
BRANCH   1   2
HETATM    2  C18 UNL     1       5.413  64.855 -34.481  1.00  0.00     0.120 C 
BRANCH   2   3
HETATM    3  C17 UNL     1       5.876  64.745 -35.916  1.00  0.00     0.259 C 
HETATM    4  O3  UNL     1       6.878  64.139 -36.274  1.00  0.00    -0.265 OA
BRANCH   3   5
HETATM    5  O2  UNL     1       4.975  65.359 -36.730  1.00  0.00    -0.315 OA
BRANCH   5   6
HETATM    6  C16 UNL     1       4.521  66.670 -36.336  1.00  0.00     0.140 C 
HETATM    7  C14 UNL     1       5.315  67.752 -37.107  1.00  0.00    -0.013 C 
HETATM    8  C13 UNL     1       6.844  67.578 -37.228  1.00  0.00     0.012 C 
HETATM    9  C15 UNL     1       5.062  69.112 -36.397  1.00  0.00     0.018 C 
HETATM   10  C36 UNL     1       4.640  67.615 -38.490  1.00  0.00     0.001 C 
HETATM   11  C12 UNL     1       7.397  67.321 -38.641  1.00  0.00     0.007 C 
HETATM   12  C11 UNL     1       6.660  67.973 -39.850  1.00  0.00     0.002 C 
HETATM   13  C2  UNL     1       7.508  68.928 -40.766  1.00  0.00    -0.016 C 
HETATM   14  C10 UNL     1       5.276  68.576 -39.480  1.00  0.00    -0.004 C 
HETATM   15  C1  UNL     1       7.980  70.175 -39.993  1.00  0.00     0.020 C 
HETATM   16  C3  UNL     1       8.752  68.146 -41.286  1.00  0.00     0.022 C 
HETATM   17  C7  UNL     1       6.634  69.368 -41.957  1.00  0.00    -0.068 C 
HETATM   18  C4  UNL     1       9.440  68.806 -42.473  1.00  0.00     0.084 C 
HETATM   19  C5  UNL     1       8.458  69.033 -43.592  1.00  0.00     0.149 C 
HETATM   20  O1  UNL     1       8.789  69.015 -44.774  1.00  0.00    -0.293 OA
HETATM   21  C6  UNL     1       7.061  69.366 -43.231  1.00  0.00     0.053 C 
HETATM   22  C8  UNL     1       5.214  69.806 -41.655  1.00  0.00     0.035 C 
HETATM   23  C9  UNL     1       4.468  68.821 -40.753  1.00  0.00     0.010 C 
HETATM   24  C35 UNL     1       3.156  67.642 -38.173  1.00  0.00     0.008 C 
HETATM   25  C34 UNL     1       3.067  66.845 -36.853  1.00  0.00     0.034 C 
ENDBRANCH   5   6
ENDBRANCH   3   5
ENDBRANCH   2   3
ENDBRANCH   1   2
BRANCH   1  26
HETATM   26  C20 UNL     1       4.527  62.556 -34.032  1.00  0.00     0.218 C 
HETATM   27  O4  UNL     1       4.019  61.853 -33.163  1.00  0.00    -0.274 OA
HETATM   28  N1  UNL     1       5.486  62.084 -34.895  1.00  0.00    -0.352 N 
HETATM   29  H27 UNL     1       6.035  62.749 -35.427  1.00  0.00     0.162 HD
BRANCH  28  30
HETATM   30  C21 UNL     1       5.996  60.726 -34.785  1.00  0.00     0.225 C 
BRANCH  30  31
HETATM   31  C22 UNL     1       7.524  60.700 -34.683  1.00  0.00     0.236 C 
HETATM   32  O5  UNL     1       8.179  59.694 -34.948  1.00  0.00    -0.272 OA
HETATM   33  N2  UNL     1       8.092  61.868 -34.235  1.00  0.00    -0.345 N 
HETATM   34  H30 UNL     1       7.492  62.673 -34.042  1.00  0.00     0.163 HD
BRANCH  33  35
HETATM   35  C23 UNL     1       9.543  62.046 -34.139  1.00  0.00     0.186 C 
BRANCH  35  36
HETATM   36  C24 UNL     1      10.029  63.169 -35.066  1.00  0.00     0.077 C 
BRANCH  36  37
HETATM   37  C25 UNL     1      11.434  62.973 -35.549  1.00  0.00    -0.028 A 
HETATM   38  C26 UNL     1      12.588  63.396 -34.920  1.00  0.00     0.096 A 
HETATM   39  N3  UNL     1      13.658  63.023 -35.690  1.00  0.00    -0.365 N 
HETATM   40  C27 UNL     1      13.229  62.364 -36.817  1.00  0.00     0.042 A 
HETATM   41  H35 UNL     1      14.627  63.207 -35.470  1.00  0.00     0.165 HD
HETATM   42  C28 UNL     1      13.960  61.813 -37.877  1.00  0.00     0.030 A 
HETATM   43  C32 UNL     1      11.835  62.319 -36.759  1.00  0.00    -0.002 A 
HETATM   44  C29 UNL     1      13.245  61.194 -38.906  1.00  0.00     0.002 A 
HETATM   45  C30 UNL     1      11.854  61.133 -38.877  1.00  0.00     0.001 A 
HETATM   46  C31 UNL     1      11.138  61.691 -37.812  1.00  0.00     0.014 A 
ENDBRANCH  36  37
ENDBRANCH  35  36
BRANCH  35  47
HETATM   47  C33 UNL     1       9.882  62.389 -32.693  1.00  0.00     0.163 C 
HETATM   48  O6  UNL     1      10.000  61.599 -31.768  1.00  0.00    -0.648 OA
BRANCH  47  49
HETATM   49  O7  UNL     1      10.070  63.707 -32.477  1.00  0.00    -0.775 OA
HETATM   50  H40 UNL     1      10.282  63.770 -31.524  1.00  0.00     0.167 HD
ENDBRANCH  47  49
ENDBRANCH  35  47
ENDBRANCH  33  35
ENDBRANCH  30  31
ENDBRANCH  28  30
ENDBRANCH   1  26
TORSDOF 12
ENDMDL
