MODEL 1
REMARK minimizedAffinity -7.42753267
REMARK CNNscore 0.631899178
REMARK CNNaffinity 6.57192469
REMARK  12 active torsions:
REMARK  status: ('A' for Active; 'I' for Inactive)
REMARK    1  A    between atoms: C2_2  and  C3_3 
REMARK    2  A    between atoms: C2_2  and  C13_14 
REMARK    3  A    between atoms: C3_3  and  C4_4 
REMARK    4  A    between atoms: C4_4  and  C5_5 
REMARK    5  A    between atoms: C13_14  and  C14_15 
REMARK    6  A    between atoms: C14_15  and  O2_16 
REMARK    7  A    between atoms: C14_15  and  C15_17 
REMARK    8  A    between atoms: C16_18  and  C18_20 
REMARK    9  A    between atoms: C18_20  and  C19_21 
REMARK       I    between atoms: C19_21  and  N1_23 
REMARK   10  A    between atoms: N1_23  and  C20_24 
REMARK   11  A    between atoms: C20_24  and  C21_25 
REMARK   12  A    between atoms: C21_25  and  C22_26 
ROOT
HETATM    1  C14 UNL     1       0.018  52.297 -18.428  1.00  0.00     0.145 C 
ENDROOT
BRANCH   1   2
HETATM    2  C13 UNL     1       0.209  51.325 -19.618  1.00  0.00     0.069 C 
BRANCH   2   3
HETATM    3  C2  UNL     1      -0.799  51.409 -20.756  1.00  0.00    -0.086 C 
HETATM    4  C1  UNL     1      -2.119  51.365 -20.499  1.00  0.00     0.014 C 
BRANCH   3   5
HETATM    5  C3  UNL     1      -0.293  51.550 -22.178  1.00  0.00     0.034 C 
BRANCH   5   6
HETATM    6  C4  UNL     1      -1.295  51.141 -23.270  1.00  0.00     0.010 C 
BRANCH   6   7
HETATM    7  C5  UNL     1      -1.684  52.254 -24.282  1.00  0.00     0.001 C 
HETATM    8  C6  UNL     1      -3.186  52.108 -24.637  1.00  0.00     0.006 C 
HETATM    9  C7  UNL     1      -3.408  51.200 -25.833  1.00  0.00     0.008 C 
HETATM   10  C8  UNL     1      -2.828  51.822 -27.093  1.00  0.00     0.079 C 
HETATM   11  C9  UNL     1      -1.623  52.695 -26.805  1.00  0.00     0.135 C 
HETATM   12  O1  UNL     1      -1.312  53.583 -27.602  1.00  0.00    -0.297 OA
HETATM   13  C10 UNL     1      -0.771  52.363 -25.565  1.00  0.00     0.017 C 
HETATM   14  C11 UNL     1       0.012  51.086 -25.928  1.00  0.00     0.023 C 
HETATM   15  C12 UNL     1       0.254  53.501 -25.368  1.00  0.00     0.023 C 
ENDBRANCH   6   7
ENDBRANCH   5   6
ENDBRANCH   3   5
ENDBRANCH   2   3
ENDBRANCH   1   2
BRANCH   1  16
HETATM   16  O2  UNL     1       0.930  53.392 -18.485  1.00  0.00    -0.391 OA
HETATM   17  H23 UNL     1       1.020  53.638 -19.421  1.00  0.00     0.210 HD
ENDBRANCH   1  16
BRANCH   1  18
HETATM   18  C15 UNL     1       0.175  51.657 -17.077  1.00  0.00     0.007 C 
HETATM   19  C16 UNL     1       1.245  51.730 -16.258  1.00  0.00    -0.076 C 
HETATM   20  C17 UNL     1       2.472  52.557 -16.542  1.00  0.00     0.043 C 
BRANCH  19  21
HETATM   21  C18 UNL     1       1.266  50.986 -14.938  1.00  0.00     0.136 C 
BRANCH  21  22
HETATM   22  C19 UNL     1       0.498  51.755 -13.866  1.00  0.00     0.221 C 
HETATM   23  O3  UNL     1      -0.728  51.734 -13.787  1.00  0.00    -0.273 OA
HETATM   24  N1  UNL     1       1.301  52.483 -13.015  1.00  0.00    -0.361 N 
HETATM   25  H30 UNL     1       2.257  52.660 -13.299  1.00  0.00     0.162 HD
BRANCH  24  26
HETATM   26  C20 UNL     1       0.733  53.397 -12.039  1.00  0.00     0.127 C 
BRANCH  26  27
HETATM   27  C21 UNL     1       1.318  53.199 -10.635  1.00  0.00     0.058 C 
BRANCH  27  28
HETATM   28  C22 UNL     1       2.112  54.399 -10.169  1.00  0.00    -0.057 A 
HETATM   29  C23 UNL     1       2.208  54.698  -8.803  1.00  0.00     0.007 A 
HETATM   30  C24 UNL     1       2.906  55.827  -8.374  1.00  0.00     0.001 A 
HETATM   31  C25 UNL     1       3.519  56.664  -9.302  1.00  0.00     0.000 A 
HETATM   32  C26 UNL     1       3.433  56.374 -10.664  1.00  0.00     0.001 A 
HETATM   33  C27 UNL     1       2.729  55.248 -11.096  1.00  0.00     0.007 A 
ENDBRANCH  27  28
ENDBRANCH  26  27
ENDBRANCH  24  26
ENDBRANCH  21  22
ENDBRANCH  19  21
ENDBRANCH   1  18
TORSDOF 12
ENDMDL
