MODEL 1
REMARK minimizedAffinity -6.63238621
REMARK CNNscore 0.879142344
REMARK CNNaffinity 7.32355499
REMARK  9 active torsions:
REMARK  status: ('A' for Active; 'I' for Inactive)
REMARK    1  A    between atoms: C2_2  and  C30_33 
REMARK    2  A    between atoms: C3_3  and  C4_4 
REMARK    3  A    between atoms: C4_4  and  C5_5 
REMARK    4  A    between atoms: C5_5  and  C6_6 
REMARK    5  A    between atoms: C6_6  and  C8_8 
REMARK    6  A    between atoms: C10_10  and  O1_11 
REMARK    7  A    between atoms: C23_24  and  O2_25 
REMARK    8  A    between atoms: C29_31  and  O3_32 
REMARK    9  A    between atoms: C30_33  and  O4_34 
ROOT
HETATM    1  C8  UNL     1      -1.597  14.976   4.575  1.00  0.00     0.001 C 
HETATM    2  C9  UNL     1      -2.512  15.188   3.339  1.00  0.00     0.038 C 
HETATM    3  C10 UNL     1      -1.582  15.208   2.104  1.00  0.00     0.132 C 
HETATM    4  C11 UNL     1      -0.254  14.579   2.597  1.00  0.00     0.016 C 
HETATM    5  C12 UNL     1      -0.408  13.021   2.610  1.00  0.00     0.023 C 
HETATM    6  C13 UNL     1       1.034  14.859   1.825  1.00  0.00    -0.037 C 
HETATM    7  C14 UNL     1       2.223  14.810   2.484  1.00  0.00    -0.065 C 
HETATM    8  C15 UNL     1       2.296  14.568   3.999  1.00  0.00     0.036 C 
HETATM    9  C16 UNL     1       0.970  14.553   4.794  1.00  0.00     0.015 C 
HETATM   10  C17 UNL     1      -0.161  15.239   4.022  1.00  0.00    -0.026 C 
HETATM   11  C18 UNL     1       0.148  16.764   3.994  1.00  0.00     0.016 C 
HETATM   12  C19 UNL     1       3.573  15.060   1.750  1.00  0.00    -0.016 C 
HETATM   13  C20 UNL     1       3.924  16.533   2.041  1.00  0.00     0.020 C 
HETATM   14  C21 UNL     1       4.659  14.095   2.277  1.00  0.00     0.016 C 
HETATM   15  C22 UNL     1       6.000  14.090   1.545  1.00  0.00     0.033 C 
HETATM   16  C23 UNL     1       6.050  14.785   0.187  1.00  0.00     0.126 C 
HETATM   17  C24 UNL     1       4.731  14.787  -0.643  1.00  0.00    -0.017 C 
HETATM   18  C25 UNL     1       4.736  13.487  -1.501  1.00  0.00     0.018 C 
HETATM   19  C26 UNL     1       4.763  15.967  -1.646  1.00  0.00     0.018 C 
HETATM   20  C27 UNL     1       3.410  14.745   0.230  1.00  0.00     0.011 C 
HETATM   21  C28 UNL     1       2.225  15.541  -0.350  1.00  0.00     0.043 C 
HETATM   22  C29 UNL     1       0.909  15.177   0.350  1.00  0.00     0.148 C 
ENDROOT
BRANCH   1  23
HETATM   23  C6  UNL     1      -2.018  15.665   5.904  1.00  0.00    -0.013 C 
HETATM   24  C7  UNL     1      -3.082  16.735   5.598  1.00  0.00     0.010 C 
BRANCH  23  25
HETATM   25  C5  UNL     1      -0.874  16.313   6.716  1.00  0.00     0.008 C 
BRANCH  25  26
HETATM   26  C4  UNL     1      -1.219  17.727   7.201  1.00  0.00     0.028 C 
BRANCH  26  27
HETATM   27  C3  UNL     1      -1.242  17.802   8.702  1.00  0.00    -0.022 C 
HETATM   28  C2  UNL     1      -2.300  18.064   9.499  1.00  0.00    -0.064 C 
HETATM   29  C1  UNL     1      -3.673  18.407   8.981  1.00  0.00     0.045 C 
BRANCH  28  30
HETATM   30  C30 UNL     1      -2.212  18.083  11.013  1.00  0.00     0.197 C 
BRANCH  30  31
HETATM   31  O4  UNL     1      -1.606  16.908  11.534  1.00  0.00    -0.397 OA
HETATM   32  H50 UNL     1      -2.147  16.165  11.225  1.00  0.00     0.209 HD
ENDBRANCH  30  31
ENDBRANCH  28  30
ENDBRANCH  26  27
ENDBRANCH  25  26
ENDBRANCH  23  25
ENDBRANCH   1  23
BRANCH   3  33
HETATM   33  O1  UNL     1      -2.152  14.499   1.009  1.00  0.00    -0.394 OA
HETATM   34  H17 UNL     1      -3.048  14.869   0.862  1.00  0.00     0.210 HD
ENDBRANCH   3  33
BRANCH  22  35
HETATM   35  O3  UNL     1       0.374  14.043  -0.318  1.00  0.00    -0.391 OA
HETATM   36  H47 UNL     1      -0.573  13.995  -0.085  1.00  0.00     0.210 HD
ENDBRANCH  22  35
BRANCH  16  37
HETATM   37  O2  UNL     1       6.524  16.122   0.387  1.00  0.00    -0.395 OA
HETATM   38  H36 UNL     1       7.416  16.069   0.774  1.00  0.00     0.210 HD
ENDBRANCH  16  37
TORSDOF 9
ENDMDL
