MODEL 1
REMARK minimizedAffinity -8.2754364
REMARK  12 active torsions:
REMARK  status: ('A' for Active; 'I' for Inactive)
REMARK    1  A    between atoms: C2_2  and  C23_27 
REMARK    2  A    between atoms: C3_3  and  C4_4 
REMARK    3  A    between atoms: C4_4  and  C5_5 
REMARK    4  A    between atoms: C13_13  and  C14_14 
REMARK    5  A    between atoms: C14_14  and  C16_16 
REMARK    6  A    between atoms: C17_17  and  C18_18 
REMARK    7  A    between atoms: C18_18  and  O1_19 
REMARK    8  A    between atoms: C18_18  and  C19_20 
REMARK    9  A    between atoms: C20_21  and  C21_23 
REMARK   10  A    between atoms: C21_23  and  C22_24 
REMARK   11  A    between atoms: C22_24  and  O2_25 
REMARK   12  A    between atoms: C23_27  and  O4_29 
ROOT
HETATM    1  C5  UNL     1      -3.685   6.022  12.814  1.00  0.00     0.225 C 
HETATM    2  C6  UNL     1      -4.303   6.314  14.196  1.00  0.00     0.036 C 
HETATM    3  C7  UNL     1      -3.275   6.205  15.311  1.00  0.00     0.005 C 
HETATM    4  C8  UNL     1      -2.131   7.194  15.084  1.00  0.00     0.042 C 
HETATM    5  C9  UNL     1      -1.736   7.354  13.595  1.00  0.00     0.162 C 
HETATM    6  C10 UNL     1      -2.244   8.711  13.045  1.00  0.00     0.042 C 
HETATM    7  C11 UNL     1      -1.447   8.954  11.773  1.00  0.00     0.003 C 
HETATM    8  C12 UNL     1      -0.108   8.263  12.001  1.00  0.00     0.008 C 
HETATM    9  C13 UNL     1      -0.195   7.548  13.372  1.00  0.00     0.031 C 
HETATM   10  N1  UNL     1      -2.226   6.235  12.773  1.00  0.00     0.098 N 
HETATM   11  H35 UNL     1      -1.759   5.378  13.064  1.00  0.00     0.317 HD
ENDROOT
BRANCH   9  12
HETATM   12  C14 UNL     1       0.747   6.304  13.419  1.00  0.00     0.010 C 
HETATM   13  C15 UNL     1      -0.066   5.000  13.510  1.00  0.00     0.015 C 
BRANCH  12  14
HETATM   14  C16 UNL     1       1.757   6.272  12.288  1.00  0.00    -0.023 C 
HETATM   15  C17 UNL     1       1.844   5.361  11.304  1.00  0.00     0.005 C 
BRANCH  15  16
HETATM   16  C18 UNL     1       2.865   5.393  10.203  1.00  0.00     0.165 C 
BRANCH  16  17
HETATM   17  O1  UNL     1       2.214   5.595   8.962  1.00  0.00    -0.388 OA
HETATM   18  H28 UNL     1       1.379   5.099   8.995  1.00  0.00     0.210 HD
ENDBRANCH  16  17
BRANCH  16  19
HETATM   19  C19 UNL     1       3.905   6.451  10.434  1.00  0.00     0.028 C 
HETATM   20  C20 UNL     1       4.061   7.653   9.849  1.00  0.00     0.013 C 
HETATM   21 CL1  UNL     1       2.935   8.274   8.686  1.00  0.00    -0.089 Cl
BRANCH  20  22
HETATM   22  C21 UNL     1       5.178   8.603  10.207  1.00  0.00     0.077 C 
BRANCH  22  23
HETATM   23  C22 UNL     1       6.205   7.979  11.154  1.00  0.00     0.169 C 
BRANCH  23  24
HETATM   24  O2  UNL     1       7.234   7.300  10.442  1.00  0.00    -0.401 OA
HETATM   25  H34 UNL     1       6.804   6.606   9.908  1.00  0.00     0.209 HD
ENDBRANCH  23  24
ENDBRANCH  22  23
ENDBRANCH  20  22
ENDBRANCH  16  19
ENDBRANCH  15  16
ENDBRANCH  12  14
ENDBRANCH   9  12
BRANCH   1  26
HETATM   26  C4  UNL     1      -4.035   4.581  12.362  1.00  0.00     0.063 C 
BRANCH  26  27
HETATM   27  C3  UNL     1      -5.387   4.114  12.835  1.00  0.00    -0.011 C 
HETATM   28  C2  UNL     1      -6.102   3.070  12.369  1.00  0.00     0.008 C 
HETATM   29  C1  UNL     1      -5.665   2.115  11.301  1.00  0.00     0.055 C 
BRANCH  28  30
HETATM   30  C23 UNL     1      -7.434   2.846  12.992  1.00  0.00     0.171 C 
HETATM   31  O3  UNL     1      -8.009   3.581  13.775  1.00  0.00    -0.646 OA
BRANCH  30  32
HETATM   32  O4  UNL     1      -7.999   1.698  12.587  1.00  0.00    -0.773 OA
HETATM   33  H36 UNL     1      -8.857   1.690  13.059  1.00  0.00     0.167 HD
ENDBRANCH  30  32
ENDBRANCH  28  30
ENDBRANCH  26  27
ENDBRANCH   1  26
TORSDOF 12
ENDMDL
