MODEL 1
REMARK minimizedAffinity -8.45127201
REMARK CNNscore 0.47157988
REMARK CNNaffinity 6.81731939
REMARK  19 active torsions:
REMARK  status: ('A' for Active; 'I' for Inactive)
REMARK    1  A    between atoms: C3_3  and  C4_4 
REMARK    2  A    between atoms: C5_5  and  C6_6 
REMARK    3  A    between atoms: C7_8  and  O2_9 
REMARK    4  A    between atoms: C7_8  and  C8_10 
REMARK    5  A    between atoms: C8_10  and  C10_12 
REMARK       I    between atoms: C10_12  and  N1_14 
REMARK    6  A    between atoms: N1_14  and  C11_15 
REMARK    7  A    between atoms: C11_15  and  C12_16 
REMARK    8  A    between atoms: C13_17  and  C14_18 
REMARK    9  A    between atoms: C15_19  and  C17_21 
REMARK   10  A    between atoms: C17_21  and  O4_22 
REMARK   11  A    between atoms: C17_21  and  C19_24 
REMARK   12  A    between atoms: C19_24  and  C21_26 
REMARK   13  A    between atoms: C23_28  and  O5_29 
REMARK   14  A    between atoms: C24_30  and  C25_31 
REMARK   15  A    between atoms: C26_32  and  C27_33 
REMARK   16  A    between atoms: C28_34  and  C29_35 
REMARK   17  A    between atoms: C30_36  and  C31_37 
REMARK   18  A    between atoms: C31_37  and  O7_39 
REMARK   19  A    between atoms: C33_42  and  O9_43 
ROOT
HETATM    1  C12 UNL     1      -6.440   3.510  12.795  1.00  0.00    -0.007 C 
HETATM    2  C13 UNL     1      -5.392   4.303  13.069  1.00  0.00    -0.002 C 
ENDROOT
BRANCH   2   3
HETATM    3  C14 UNL     1      -4.181   4.269  12.277  1.00  0.00     0.005 C 
HETATM    4  C15 UNL     1      -2.990   4.834  12.567  1.00  0.00    -0.055 C 
HETATM    5  C16 UNL     1      -1.872   4.687  11.560  1.00  0.00     0.046 C 
BRANCH   4   6
HETATM    6  C17 UNL     1      -2.677   5.585  13.860  1.00  0.00     0.155 C 
BRANCH   6   7
HETATM    7  O4  UNL     1      -1.391   6.211  13.769  1.00  0.00    -0.386 OA
HETATM    8  C18 UNL     1      -0.432   5.652  14.661  1.00  0.00     0.202 C 
ENDBRANCH   6   7
BRANCH   6   9
HETATM    9  C19 UNL     1      -3.768   6.636  14.238  1.00  0.00     0.044 C 
HETATM   10  C20 UNL     1      -4.019   6.561  15.759  1.00  0.00     0.015 C 
BRANCH   9  11
HETATM   11  C21 UNL     1      -3.440   8.092  13.844  1.00  0.00     0.131 C 
HETATM   12  C22 UNL     1      -2.240   8.695  14.560  1.00  0.00     0.067 C 
HETATM   13  C23 UNL     1      -1.811   9.755  13.578  1.00  0.00     0.153 C 
HETATM   14  C24 UNL     1      -1.992   9.033  12.235  1.00  0.00     0.173 C 
HETATM   15  O8  UNL     1      -3.144   8.179  12.427  1.00  0.00    -0.374 OA
BRANCH  13  16
HETATM   16  O5  UNL     1      -0.524  10.276  13.838  1.00  0.00    -0.393 OA
HETATM   17  H35 UNL     1      -0.551  10.694  14.715  1.00  0.00     0.210 HD
ENDBRANCH  13  16
BRANCH  14  18
HETATM   18  C25 UNL     1      -0.922   8.135  11.663  1.00  0.00     0.007 C 
HETATM   19  C26 UNL     1       0.399   8.355  11.578  1.00  0.00    -0.001 C 
BRANCH  19  20
HETATM   20  C27 UNL     1       1.306   7.409  10.965  1.00  0.00    -0.000 C 
HETATM   21  C28 UNL     1       1.215   6.084  11.148  1.00  0.00     0.000 C 
BRANCH  21  22
HETATM   22  C29 UNL     1       2.155   5.155  10.558  1.00  0.00     0.007 C 
HETATM   23  C30 UNL     1       3.283   5.552   9.954  1.00  0.00     0.081 C 
BRANCH  23  24
HETATM   24  C31 UNL     1       4.171   4.549   9.350  1.00  0.00     0.165 C 
HETATM   25  O6  UNL     1       3.937   3.821   8.403  1.00  0.00    -0.647 OA
BRANCH  24  26
HETATM   26  O7  UNL     1       5.349   4.533   9.992  1.00  0.00    -0.773 OA
HETATM   27  H43 UNL     1       5.870   3.861   9.504  1.00  0.00     0.167 HD
ENDBRANCH  24  26
ENDBRANCH  23  24
ENDBRANCH  21  22
ENDBRANCH  19  20
ENDBRANCH  14  18
ENDBRANCH   9  11
ENDBRANCH   6   9
ENDBRANCH   4   6
ENDBRANCH   2   3
BRANCH   1  28
HETATM   28  C11 UNL     1      -7.745   3.524  13.524  1.00  0.00     0.149 C 
BRANCH  28  29
HETATM   29  N1  UNL     1      -7.782   4.697  14.361  1.00  0.00    -0.357 N 
HETATM   30  C10 UNL     1      -8.060   5.948  13.853  1.00  0.00     0.227 C 
HETATM   31  O3  UNL     1      -8.248   6.152  12.656  1.00  0.00    -0.273 OA
HETATM   32  H14 UNL     1      -7.859   4.553  15.361  1.00  0.00     0.162 HD
BRANCH  30  33
HETATM   33  C8  UNL     1      -8.164   7.049  14.904  1.00  0.00     0.136 C 
HETATM   34  C9  UNL     1      -7.239   8.216  14.557  1.00  0.00     0.026 C 
BRANCH  33  35
HETATM   35  C7  UNL     1      -9.641   7.468  15.146  1.00  0.00     0.176 C 
HETATM   36  O1  UNL     1      -9.754   8.820  14.682  1.00  0.00    -0.344 OA
HETATM   37  C6  UNL     1     -11.091   9.309  14.752  1.00  0.00     0.158 C 
HETATM   38  C34 UNL     1     -11.962   8.654  13.636  1.00  0.00     0.008 C 
HETATM   39  C33 UNL     1     -11.446   7.216  13.329  1.00  0.00     0.134 C 
HETATM   40  C35 UNL     1     -13.415   8.565  14.169  1.00  0.00     0.020 C 
HETATM   41  C36 UNL     1     -12.008   9.484  12.331  1.00  0.00     0.020 C 
HETATM   42  C32 UNL     1     -10.720   6.567  14.505  1.00  0.00     0.101 C 
BRANCH  37  43
HETATM   43  C5  UNL     1     -10.992  10.812  14.711  1.00  0.00     0.006 C 
HETATM   44  C4  UNL     1      -9.879  11.508  14.993  1.00  0.00    -0.002 C 
BRANCH  44  45
HETATM   45  C3  UNL     1      -9.819  12.949  14.923  1.00  0.00    -0.005 C 
HETATM   46  C2  UNL     1     -10.823  13.699  14.449  1.00  0.00    -0.031 C 
HETATM   47  C1  UNL     1     -10.775  15.191  14.372  1.00  0.00     0.036 C 
ENDBRANCH  44  45
ENDBRANCH  37  43
BRANCH  39  48
HETATM   48  O9  UNL     1     -10.577   7.201  12.193  1.00  0.00    -0.395 OA
HETATM   49  H47 UNL     1     -10.516   6.283  11.877  1.00  0.00     0.210 HD
ENDBRANCH  39  48
BRANCH  35  50
HETATM   50  O2  UNL     1      -9.858   7.475  16.566  1.00  0.00    -0.364 OA
HETATM   51  H9  UNL     1      -9.758   6.548  16.864  1.00  0.00     0.213 HD
ENDBRANCH  35  50
ENDBRANCH  33  35
ENDBRANCH  30  33
ENDBRANCH  28  29
ENDBRANCH   1  28
TORSDOF 19
ENDMDL
