MODEL 1
REMARK minimizedAffinity -9.73003292
REMARK  12 active torsions:
REMARK  status: ('A' for Active; 'I' for Inactive)
REMARK    1  A    between atoms: C2_2  and  C3_3 
REMARK    2  A    between atoms: C2_2  and  C26_31 
REMARK    3  A    between atoms: C3_3  and  C4_4 
REMARK    4  A    between atoms: C4_4  and  C5_5 
REMARK    5  A    between atoms: C5_5  and  C7_7 
REMARK    6  A    between atoms: C8_8  and  O1_9 
REMARK    7  A    between atoms: C9_10  and  O2_11 
REMARK    8  A    between atoms: C11_13  and  O3_14 
REMARK    9  A    between atoms: C13_16  and  O4_17 
REMARK   10  A    between atoms: C16_20  and  O5_21 
REMARK   11  A    between atoms: C26_31  and  C28_33 
REMARK   12  A    between atoms: C28_33  and  O6_34 
ROOT
HETATM    1  C7  UNL     1      -1.431   7.409  13.713  1.00  0.00     0.029 C 
HETATM    2  C8  UNL     1      -0.303   6.417  14.034  1.00  0.00     0.152 C 
HETATM    3  C9  UNL     1       0.220   5.976  12.663  1.00  0.00     0.155 C 
HETATM    4  C10 UNL     1       0.002   7.184  11.718  1.00  0.00     0.060 C 
HETATM    5  C11 UNL     1       1.183   7.694  10.849  1.00  0.00     0.071 C 
HETATM    6  C12 UNL     1       1.790   6.607   9.948  1.00  0.00     0.071 C 
HETATM    7  C13 UNL     1       3.005   7.130   9.184  1.00  0.00     0.126 C 
HETATM    8  C14 UNL     1       4.176   7.403  10.137  1.00  0.00     0.025 C 
HETATM    9  C15 UNL     1       4.901   6.070  10.441  1.00  0.00     0.039 C 
HETATM   10  C16 UNL     1       6.124   6.260  11.328  1.00  0.00     0.118 C 
HETATM   11  C17 UNL     1       5.813   7.043  12.598  1.00  0.00     0.032 C 
HETATM   12  C18 UNL     1       4.352   7.479  12.698  1.00  0.00     0.012 C 
HETATM   13  C19 UNL     1       3.793   8.211  11.438  1.00  0.00    -0.031 C 
HETATM   14  C20 UNL     1       4.541   9.581  11.352  1.00  0.00     0.016 C 
HETATM   15  C21 UNL     1       2.235   8.575  11.593  1.00  0.00     0.029 C 
HETATM   16  C22 UNL     1       1.820   8.847  13.057  1.00  0.00     0.009 C 
HETATM   17  C23 UNL     1       0.356   9.257  13.223  1.00  0.00     0.011 C 
HETATM   18  C24 UNL     1      -0.698   8.286  12.601  1.00  0.00    -0.029 C 
HETATM   19  C25 UNL     1      -1.676   9.176  11.802  1.00  0.00     0.016 C 
ENDROOT
BRANCH   1  20
HETATM   20  C5  UNL     1      -2.827   6.816  13.261  1.00  0.00    -0.011 C 
HETATM   21  C6  UNL     1      -3.898   7.922  13.335  1.00  0.00     0.010 C 
BRANCH  20  22
HETATM   22  C4  UNL     1      -3.332   5.567  14.022  1.00  0.00     0.009 C 
BRANCH  22  23
HETATM   23  C3  UNL     1      -4.209   4.621  13.177  1.00  0.00     0.034 C 
BRANCH  23  24
HETATM   24  C2  UNL     1      -5.717   4.727  13.382  1.00  0.00    -0.083 C 
HETATM   25  C1  UNL     1      -6.278   5.542  14.295  1.00  0.00     0.015 C 
BRANCH  24  26
HETATM   26  C26 UNL     1      -6.541   3.800  12.470  1.00  0.00     0.033 C 
HETATM   27  C27 UNL     1      -5.706   2.851  11.598  1.00  0.00     0.017 C 
BRANCH  26  28
HETATM   28  C28 UNL     1      -7.595   3.005  13.261  1.00  0.00     0.172 C 
BRANCH  28  29
HETATM   29  O6  UNL     1      -7.927   1.776  12.625  1.00  0.00    -0.400 OA
HETATM   30  H48 UNL     1      -7.096   1.276  12.531  1.00  0.00     0.209 HD
ENDBRANCH  28  29
ENDBRANCH  26  28
ENDBRANCH  24  26
ENDBRANCH  23  24
ENDBRANCH  22  23
ENDBRANCH  20  22
ENDBRANCH   1  20
BRANCH   2  31
HETATM   31  O1  UNL     1      -0.649   5.319  14.862  1.00  0.00    -0.393 OA
HETATM   32  H13 UNL     1       0.154   5.070  15.355  1.00  0.00     0.210 HD
ENDBRANCH   2  31
BRANCH   3  33
HETATM   33  O2  UNL     1       1.558   5.527  12.784  1.00  0.00    -0.392 OA
HETATM   34  H15 UNL     1       1.508   4.636  13.176  1.00  0.00     0.210 HD
ENDBRANCH   3  33
BRANCH   5  35
HETATM   35  O3  UNL     1       0.519   8.603   9.920  1.00  0.00    -0.389 OA
HETATM   36  H17 UNL     1       1.149   8.755   9.183  1.00  0.00     0.210 HD
ENDBRANCH   5  35
BRANCH   7  37
HETATM   37  O4  UNL     1       2.645   8.318   8.480  1.00  0.00    -0.395 OA
HETATM   38  H21 UNL     1       3.456   8.827   8.264  1.00  0.00     0.210 HD
ENDBRANCH   7  37
BRANCH  10  39
HETATM   39  O5  UNL     1       7.141   6.949  10.605  1.00  0.00    -0.396 OA
HETATM   40  H26 UNL     1       7.394   6.391   9.848  1.00  0.00     0.210 HD
ENDBRANCH  10  39
TORSDOF 12
ENDMDL
