MODEL 1
REMARK minimizedAffinity -8.85755539
REMARK CNNscore 0.283987999
REMARK CNNaffinity 6.91537666
REMARK  10 active torsions:
REMARK  status: ('A' for Active; 'I' for Inactive)
REMARK    1  A    between atoms: C2_2  and  C4_4 
REMARK    2  A    between atoms: C7_7  and  C8_8 
REMARK    3  A    between atoms: C8_8  and  O2_10 
REMARK    4  A    between atoms: C21_23  and  O3_24 
REMARK    5  A    between atoms: O3_24  and  C22_25 
REMARK    6  A    between atoms: C24_28  and  O5_29 
REMARK    7  A    between atoms: C25_30  and  O6_31 
REMARK    8  A    between atoms: C26_32  and  O7_33 
REMARK    9  A    between atoms: C27_34  and  C29_36 
REMARK   10  A    between atoms: C29_36  and  O8_37 
ROOT
HETATM    1  C4  UNL     1      -5.794   4.314  13.405  1.00  0.00     0.019 C 
HETATM    2  C5  UNL     1      -4.276   4.124  13.265  1.00  0.00     0.011 C 
HETATM    3  C6  UNL     1      -3.651   5.308  13.992  1.00  0.00     0.021 C 
HETATM    4  C7  UNL     1      -4.730   6.424  14.049  1.00  0.00     0.050 C 
HETATM    5  C9  UNL     1      -5.055   6.760  15.521  1.00  0.00     0.022 C 
HETATM    6  C10 UNL     1      -6.332   7.583  15.691  1.00  0.00     0.011 C 
HETATM    7  C11 UNL     1      -7.597   6.884  15.114  1.00  0.00    -0.032 C 
HETATM    8  C12 UNL     1      -7.829   5.576  15.930  1.00  0.00     0.016 C 
HETATM    9  C13 UNL     1      -7.298   6.563  13.604  1.00  0.00     0.000 C 
HETATM   10  C14 UNL     1      -8.515   5.973  12.890  1.00  0.00     0.006 C 
HETATM   11  C15 UNL     1      -9.755   6.857  13.012  1.00  0.00     0.006 C 
HETATM   12  C16 UNL     1     -10.129   7.131  14.484  1.00  0.00     0.003 C 
HETATM   13  C17 UNL     1     -11.605   7.700  14.691  1.00  0.00    -0.035 C 
HETATM   14  C18 UNL     1     -12.550   6.489  14.368  1.00  0.00     0.016 C 
HETATM   15  C19 UNL     1     -11.947   8.835  13.694  1.00  0.00     0.012 C 
HETATM   16  C20 UNL     1     -13.311   9.491  13.919  1.00  0.00     0.034 C 
HETATM   17  C21 UNL     1     -13.482  10.035  15.338  1.00  0.00     0.135 C 
HETATM   18  C27 UNL     1     -13.230   8.957  16.438  1.00  0.00     0.008 C 
HETATM   19  C28 UNL     1     -13.214   9.663  17.827  1.00  0.00     0.020 C 
HETATM   20  C30 UNL     1     -11.868   8.149  16.191  1.00  0.00     0.007 C 
HETATM   21  C31 UNL     1     -10.647   8.866  16.813  1.00  0.00     0.007 C 
HETATM   22  C32 UNL     1      -9.346   8.083  16.676  1.00  0.00     0.011 C 
HETATM   23  C33 UNL     1      -8.924   7.844  15.210  1.00  0.00    -0.032 C 
HETATM   24  C34 UNL     1      -8.610   9.251  14.613  1.00  0.00     0.016 C 
HETATM   25  C35 UNL     1      -5.951   5.847  13.267  1.00  0.00     0.017 C 
ENDROOT
BRANCH  17  26
HETATM   26  O3  UNL     1     -12.579  11.140  15.482  1.00  0.00    -0.352 OA
BRANCH  26  27
HETATM   27  C22 UNL     1     -12.742  12.154  14.486  1.00  0.00     0.291 C 
HETATM   28  O4  UNL     1     -14.054  12.725  14.592  1.00  0.00    -0.356 OA
HETATM   29  C23 UNL     1     -14.111  13.841  15.486  1.00  0.00     0.205 C 
HETATM   30  C24 UNL     1     -13.294  15.023  14.934  1.00  0.00     0.173 C 
HETATM   31  C25 UNL     1     -12.122  14.530  14.074  1.00  0.00     0.182 C 
HETATM   32  C26 UNL     1     -11.605  13.199  14.615  1.00  0.00     0.204 C 
BRANCH  30  33
HETATM   33  O5  UNL     1     -14.138  15.862  14.130  1.00  0.00    -0.391 OA
HETATM   34  H37 UNL     1     -13.620  16.651  13.884  1.00  0.00     0.210 HD
ENDBRANCH  30  33
BRANCH  31  35
HETATM   35  O6  UNL     1     -11.058  15.500  14.069  1.00  0.00    -0.390 OA
HETATM   36  H39 UNL     1     -11.232  16.103  13.322  1.00  0.00     0.210 HD
ENDBRANCH  31  35
BRANCH  32  37
HETATM   37  O7  UNL     1     -10.447  12.799  13.864  1.00  0.00    -0.388 OA
HETATM   38  H41 UNL     1      -9.896  13.608  13.806  1.00  0.00     0.210 HD
ENDBRANCH  32  37
ENDBRANCH  26  27
ENDBRANCH  17  26
BRANCH  18  39
HETATM   39  C29 UNL     1     -14.487   8.029  16.495  1.00  0.00     0.176 C 
BRANCH  39  40
HETATM   40  O8  UNL     1     -14.563   7.269  17.694  1.00  0.00    -0.400 OA
HETATM   41  H47 UNL     1     -13.964   6.510  17.604  1.00  0.00     0.209 HD
ENDBRANCH  39  40
ENDBRANCH  18  39
BRANCH   1  42
HETATM   42  C2  UNL     1      -6.550   3.413  12.444  1.00  0.00    -0.088 C 
HETATM   43  C1  UNL     1      -7.681   2.792  12.829  1.00  0.00     0.014 C 
HETATM   44  C3  UNL     1      -6.006   3.185  11.059  1.00  0.00     0.043 C 
ENDBRANCH   1  42
BRANCH   4  45
HETATM   45  C8  UNL     1      -4.184   7.672  13.349  1.00  0.00     0.149 C 
HETATM   46  O1  UNL     1      -4.828   8.580  12.848  1.00  0.00    -0.649 OA
BRANCH  45  47
HETATM   47  O2  UNL     1      -2.837   7.717  13.323  1.00  0.00    -0.776 OA
HETATM   48  H11 UNL     1      -2.642   8.556  12.858  1.00  0.00     0.167 HD
ENDBRANCH  45  47
ENDBRANCH   4  45
TORSDOF 10
ENDMDL
