MODEL 1
REMARK minimizedAffinity -9.09934807
REMARK CNNscore 0.682235241
REMARK CNNaffinity 6.84192991
REMARK  13 active torsions:
REMARK  status: ('A' for Active; 'I' for Inactive)
REMARK    1  A    between atoms: C19_21  and  O3_22 
REMARK    2  A    between atoms: C19_21  and  C20_23 
REMARK    3  A    between atoms: C20_23  and  C21_25 
REMARK    4  A    between atoms: C21_25  and  O5_26 
REMARK    5  A    between atoms: O5_26  and  C22_27 
REMARK    6  A    between atoms: C22_27  and  C23_29 
REMARK    7  A    between atoms: C23_29  and  C24_30 
REMARK    8  A    between atoms: C24_30  and  C25_31 
REMARK       I    between atoms: C25_31  and  N1_33 
REMARK    9  A    between atoms: N1_33  and  C26_34 
REMARK   10  A    between atoms: C26_34  and  C27_35 
REMARK   11  A    between atoms: C26_34  and  C36_45 
REMARK   12  A    between atoms: C27_35  and  C28_36 
REMARK   13  A    between atoms: C36_45  and  O9_47 
ROOT
HETATM    1  C21 UNL     1      -6.416  47.591 -21.448  1.00  0.00     0.260 C 
ENDROOT
BRANCH   1   2
HETATM    2  C20 UNL     1      -6.386  47.897 -22.947  1.00  0.00     0.185 C 
HETATM    3  O4  UNL     1      -6.620  47.020 -23.784  1.00  0.00    -0.292 OA
BRANCH   2   4
HETATM    4  C19 UNL     1      -5.937  49.313 -23.374  1.00  0.00     0.128 C 
HETATM    5  C14 UNL     1      -4.475  49.469 -23.918  1.00  0.00     0.005 C 
HETATM    6  C13 UNL     1      -4.266  49.077 -25.398  1.00  0.00     0.091 C 
HETATM    7  C15 UNL     1      -3.489  48.694 -23.012  1.00  0.00     0.019 C 
HETATM    8  C16 UNL     1      -4.322  51.004 -23.806  1.00  0.00     0.002 C 
HETATM    9  C12 UNL     1      -3.270  49.960 -26.154  1.00  0.00     0.133 C 
HETATM   10  C11 UNL     1      -2.267  50.760 -25.326  1.00  0.00     0.072 C 
HETATM   11  O2  UNL     1      -3.226  49.907 -27.382  1.00  0.00    -0.297 OA
HETATM   12  C2  UNL     1      -1.211  51.648 -26.079  1.00  0.00    -0.009 C 
HETATM   13  C10 UNL     1      -2.963  51.584 -24.213  1.00  0.00     0.003 C 
HETATM   14  C1  UNL     1      -0.141  50.730 -26.711  1.00  0.00     0.021 C 
HETATM   15  C3  UNL     1      -1.840  52.554 -27.167  1.00  0.00     0.022 C 
HETATM   16  C7  UNL     1      -0.526  52.559 -25.038  1.00  0.00    -0.067 C 
HETATM   17  C4  UNL     1      -0.860  53.565 -27.755  1.00  0.00     0.084 C 
HETATM   18  C5  UNL     1      -0.156  54.358 -26.683  1.00  0.00     0.149 C 
HETATM   19  O1  UNL     1       0.355  55.453 -26.912  1.00  0.00    -0.293 OA
HETATM   20  C6  UNL     1      -0.052  53.783 -25.323  1.00  0.00     0.053 C 
HETATM   21  C8  UNL     1      -0.513  52.047 -23.615  1.00  0.00     0.035 C 
HETATM   22  C9  UNL     1      -1.946  51.850 -23.084  1.00  0.00     0.010 C 
HETATM   23  C17 UNL     1      -4.889  51.360 -22.439  1.00  0.00     0.009 C 
HETATM   24  C18 UNL     1      -5.985  50.314 -22.184  1.00  0.00     0.047 C 
BRANCH   4  25
HETATM   25  O3  UNL     1      -6.876  49.769 -24.360  1.00  0.00    -0.381 OA
HETATM   26  H25 UNL     1      -7.734  49.896 -23.916  1.00  0.00     0.211 HD
ENDBRANCH   4  25
ENDBRANCH   2   4
ENDBRANCH   1   2
BRANCH   1  27
HETATM   27  O5  UNL     1      -7.746  47.323 -20.995  1.00  0.00    -0.314 OA
BRANCH  27  28
HETATM   28  C22 UNL     1      -7.889  46.134 -20.353  1.00  0.00     0.259 C 
HETATM   29  O6  UNL     1      -7.000  45.294 -20.253  1.00  0.00    -0.265 OA
BRANCH  28  30
HETATM   30  C23 UNL     1      -9.237  45.991 -19.688  1.00  0.00     0.120 C 
BRANCH  30  31
HETATM   31  C24 UNL     1      -9.809  47.275 -19.099  1.00  0.00     0.112 C 
BRANCH  31  32
HETATM   32  C25 UNL     1     -11.324  47.264 -19.081  1.00  0.00     0.218 C 
HETATM   33  O7  UNL     1     -11.992  47.626 -18.117  1.00  0.00    -0.274 OA
HETATM   34  N1  UNL     1     -11.872  46.815 -20.258  1.00  0.00    -0.346 N 
HETATM   35  H32 UNL     1     -11.282  46.283 -20.884  1.00  0.00     0.163 HD
BRANCH  34  36
HETATM   36  C26 UNL     1     -13.325  46.658 -20.403  1.00  0.00     0.186 C 
BRANCH  36  37
HETATM   37  C27 UNL     1     -13.994  46.291 -19.070  1.00  0.00     0.077 C 
BRANCH  37  38
HETATM   38  C28 UNL     1     -15.282  45.545 -19.241  1.00  0.00    -0.028 A 
HETATM   39  C29 UNL     1     -15.423  44.178 -19.372  1.00  0.00     0.096 A 
HETATM   40  N2  UNL     1     -16.756  43.890 -19.476  1.00  0.00    -0.365 N 
HETATM   41  C30 UNL     1     -17.499  45.047 -19.423  1.00  0.00     0.042 A 
HETATM   42  H37 UNL     1     -17.147  42.964 -19.576  1.00  0.00     0.165 HD
HETATM   43  C31 UNL     1     -18.886  45.230 -19.486  1.00  0.00     0.030 A 
HETATM   44  C35 UNL     1     -16.600  46.106 -19.284  1.00  0.00    -0.002 A 
HETATM   45  C32 UNL     1     -19.370  46.539 -19.413  1.00  0.00     0.002 A 
HETATM   46  C33 UNL     1     -18.502  47.619 -19.277  1.00  0.00     0.001 A 
HETATM   47  C34 UNL     1     -17.117  47.416 -19.211  1.00  0.00     0.014 A 
ENDBRANCH  37  38
ENDBRANCH  36  37
BRANCH  36  48
HETATM   48  C36 UNL     1     -13.983  47.941 -20.917  1.00  0.00     0.163 C 
HETATM   49  O8  UNL     1     -13.858  49.054 -20.432  1.00  0.00    -0.648 OA
BRANCH  48  50
HETATM   50  O9  UNL     1     -14.704  47.788 -22.051  1.00  0.00    -0.775 OA
HETATM   51  H42 UNL     1     -15.064  48.685 -22.214  1.00  0.00     0.167 HD
ENDBRANCH  48  50
ENDBRANCH  36  48
ENDBRANCH  34  36
ENDBRANCH  31  32
ENDBRANCH  30  31
ENDBRANCH  28  30
ENDBRANCH  27  28
ENDBRANCH   1  27
TORSDOF 13
ENDMDL
