MODEL 1
REMARK minimizedAffinity -8.95228291
REMARK CNNscore 0.455914974
REMARK CNNaffinity 7.5231986
REMARK  10 active torsions:
REMARK  status: ('A' for Active; 'I' for Inactive)
REMARK    1  A    between atoms: C2_2  and  C3_3 
REMARK    2  A    between atoms: C5_5  and  S1_6 
REMARK    3  A    between atoms: C14_18  and  C15_19 
REMARK    4  A    between atoms: C15_19  and  O4_20 
REMARK    5  A    between atoms: C21_26  and  O5_27 
REMARK    6  A    between atoms: C33_40  and  C34_41 
REMARK    7  A    between atoms: C33_40  and  N1_50 
REMARK    8  A    between atoms: C34_41  and  C35_42 
REMARK    9  A    between atoms: C35_42  and  C36_43 
REMARK   10  A    between atoms: C36_43  and  O7_44 
REMARK       I    between atoms: N1_50  and  C42_52 
REMARK       I    between atoms: C42_52  and  N2_53 
ROOT
HETATM    1  C3  UNL     1      -0.838  14.158  19.691  1.00  0.00     0.019 C 
HETATM    2  C4  UNL     1      -1.862  15.070  18.954  1.00  0.00     0.034 C 
HETATM    3  C5  UNL     1      -2.962  15.739  19.806  1.00  0.00     0.153 C 
HETATM    4  C6  UNL     1      -3.938  14.796  20.593  1.00  0.00     0.119 A 
HETATM    5  C7  UNL     1      -4.692  15.590  21.659  1.00  0.00     0.001 C 
HETATM    6  C8  UNL     1      -5.583  14.948  22.435  1.00  0.00    -0.049 C 
HETATM    7  C9  UNL     1      -5.655  13.457  22.315  1.00  0.00     0.043 C 
HETATM    8  C10 UNL     1      -6.032  13.184  20.858  1.00  0.00     0.016 C 
HETATM    9  C11 UNL     1      -7.527  13.528  20.578  1.00  0.00     0.039 C 
HETATM   10  C12 UNL     1      -8.156  14.806  21.211  1.00  0.00     0.123 C 
HETATM   11  C13 UNL     1      -9.690  14.737  20.970  1.00  0.00     0.039 C 
HETATM   12  C14 UNL     1     -10.629  15.805  21.594  1.00  0.00     0.023 C 
HETATM   13  C16 UNL     1     -11.139  15.464  23.014  1.00  0.00     0.101 C 
HETATM   14  C17 UNL     1     -10.159  15.734  24.068  1.00  0.00    -0.101 C 
HETATM   15  C18 UNL     1      -9.192  15.905  24.760  1.00  0.00    -0.066 C 
HETATM   16  C19 UNL     1      -7.888  16.039  25.333  1.00  0.00     0.029 A 
HETATM   17  C20 UNL     1      -7.795  16.342  26.696  1.00  0.00     0.057 A 
HETATM   18  C21 UNL     1      -6.546  16.567  27.273  1.00  0.00     0.067 A 
HETATM   19  C22 UNL     1      -5.393  16.464  26.508  1.00  0.00     0.037 A 
HETATM   20  C23 UNL     1      -5.485  16.134  25.154  1.00  0.00     0.014 A 
HETATM   21  C24 UNL     1      -6.732  15.888  24.535  1.00  0.00    -0.006 A 
HETATM   22  C25 UNL     1      -6.784  15.646  23.018  1.00  0.00     0.185 C 
HETATM   23  O6  UNL     1      -7.925  14.855  22.622  1.00  0.00    -0.371 OA
HETATM   24  C26 UNL     1      -5.018  13.893  19.841  1.00  0.00     0.113 A 
HETATM   25  C27 UNL     1      -4.429  12.856  18.882  1.00  0.00    -0.039 A 
HETATM   26  C28 UNL     1      -4.383  13.128  17.507  1.00  0.00     0.009 A 
HETATM   27  C29 UNL     1      -3.805  12.223  16.602  1.00  0.00     0.012 A 
HETATM   28  C30 UNL     1      -3.303  10.982  17.035  1.00  0.00    -0.003 A 
HETATM   29  C31 UNL     1      -3.436  10.685  18.406  1.00  0.00     0.012 A 
HETATM   30  C32 UNL     1      -3.941  11.618  19.316  1.00  0.00     0.009 A 
HETATM   31  C33 UNL     1      -2.573   9.962  16.094  1.00  0.00     0.171 C 
HETATM   32  O8  UNL     1      -1.108   9.853  16.343  1.00  0.00    -0.316 OA
HETATM   33  C43 UNL     1      -0.550  10.858  17.083  1.00  0.00     0.072 C 
HETATM   34  C44 UNL     1      -0.338  10.626  18.442  1.00  0.00     0.037 C 
HETATM   35  C45 UNL     1      -0.269  11.723  19.300  1.00  0.00     0.010 C 
HETATM   36  C46 UNL     1      -0.367  13.021  18.778  1.00  0.00    -0.054 C 
HETATM   37  C47 UNL     1      -0.238  13.207  17.392  1.00  0.00     0.010 C 
HETATM   38  C48 UNL     1      -0.342  12.116  16.536  1.00  0.00     0.037 C 
HETATM   39 NA1  UNL     1      -4.399  12.895  18.760  1.00  0.00    -0.230 Na
ENDROOT
BRANCH  31  40
HETATM   40  C34 UNL     1      -2.681  10.350  14.576  1.00  0.00     0.070 C 
BRANCH  40  41
HETATM   41  C35 UNL     1      -1.688   9.686  13.588  1.00  0.00     0.043 C 
BRANCH  41  42
HETATM   42  C36 UNL     1      -2.238   8.744  12.479  1.00  0.00     0.058 C 
HETATM   43  C37 UNL     1      -2.048   7.269  12.895  1.00  0.00     0.038 C 
HETATM   44  C38 UNL     1      -0.597   6.796  12.838  1.00  0.00     0.003 C 
HETATM   45  C39 UNL     1       0.036   7.072  11.478  1.00  0.00     0.000 C 
HETATM   46  C40 UNL     1      -0.131   8.526  11.052  1.00  0.00     0.003 C 
HETATM   47  C41 UNL     1      -1.595   8.954  11.098  1.00  0.00     0.038 C 
BRANCH  42  48
HETATM   48  O7  UNL     1      -3.656   8.915  12.335  1.00  0.00    -0.390 OA
HETATM   49  H40 UNL     1      -3.880   9.791  12.708  1.00  0.00     0.210 HD
ENDBRANCH  42  48
ENDBRANCH  41  42
ENDBRANCH  40  41
ENDBRANCH  31  40
BRANCH  31  50
HETATM   50  N1  UNL     1      -3.184   8.616  16.217  1.00  0.00    -0.331 N 
HETATM   51  C42 UNL     1      -2.535   7.521  16.303  1.00  0.00     0.146 C 
HETATM   52  N2  UNL     1      -3.222   6.359  16.402  1.00  0.00    -0.274 NA
HETATM   53  N3  UNL     1      -1.217   7.242  16.308  1.00  0.00    -0.376 N 
HETATM   54  H51 UNL     1      -4.220   6.521  16.293  1.00  0.00     0.127 HD
HETATM   55  H52 UNL     1      -2.889   5.655  15.760  1.00  0.00     0.127 HD
HETATM   56  H53 UNL     1      -0.960   6.415  16.833  1.00  0.00     0.158 HD
HETATM   57  H54 UNL     1      -0.575   8.015  16.437  1.00  0.00     0.158 HD
ATOM     58  H1  UNL     1      -4.203   8.561  16.235  1.00  0.00     0.165 HD
ENDBRANCH  31  50
BRANCH   1  59
HETATM   59  C2  UNL     1       0.330  14.901  20.370  1.00  0.00     0.005 C 
HETATM   60  C1  UNL     1       1.516  14.045  20.796  1.00  0.00     0.006 C 
ENDBRANCH   1  59
BRANCH   3  61
HETATM   61  S1  UNL     1      -3.804  17.064  18.850  1.00  0.00     0.108 S 
HETATM   62  O1  UNL     1      -5.235  16.821  19.038  1.00  0.00    -0.595 OA
HETATM   63  O2  UNL     1      -3.337  16.819  17.486  1.00  0.00    -0.595 OA
HETATM   64  O3  UNL     1      -3.351  18.332  19.410  1.00  0.00    -0.595 OA
ENDBRANCH   3  61
BRANCH  12  65
HETATM   65  C15 UNL     1     -10.093  17.233  21.476  1.00  0.00     0.169 C 
BRANCH  65  66
HETATM   66  O4  UNL     1     -10.061  17.610  20.100  1.00  0.00    -0.400 OA
HETATM   67  H23 UNL     1      -9.124  17.739  19.848  1.00  0.00     0.209 HD
ENDBRANCH  65  66
ENDBRANCH  12  65
BRANCH  18  68
HETATM   68  O5  UNL     1      -6.409  16.917  28.583  1.00  0.00    -0.361 OA
HETATM   69  H27 UNL     1      -7.289  16.929  28.989  1.00  0.00     0.217 HD
ENDBRANCH  18  68
TORSDOF 10
ENDMDL
