MODEL 1
REMARK minimizedAffinity -7.18240547
REMARK CNNscore 0.411518067
REMARK CNNaffinity 5.65928602
REMARK  2 active torsions:
REMARK  status: ('A' for Active; 'I' for Inactive)
REMARK    1  A    between atoms: C21_27  and  C22_28 
REMARK    2  A    between atoms: C22_28  and  O7_30 
ROOT
HETATM    1  C1  UNL     1       6.727  55.209  -9.550  1.00  0.00     0.043 C 
HETATM    2  C2  UNL     1       5.937  54.104  -8.892  1.00  0.00    -0.076 C 
HETATM    3  C3  UNL     1       4.937  53.504  -9.577  1.00  0.00     0.084 C 
HETATM    4  C4  UNL     1       4.079  52.410  -9.077  1.00  0.00     0.283 C 
HETATM    5  O1  UNL     1       4.198  51.823  -8.018  1.00  0.00    -0.260 OA
HETATM    6  O2  UNL     1       3.133  52.183 -10.024  1.00  0.00    -0.317 OA
HETATM    7  C5  UNL     1       2.247  51.090  -9.774  1.00  0.00     0.195 C 
HETATM    8  C6  UNL     1       0.755  51.386 -10.145  1.00  0.00     0.053 C 
HETATM    9  C7  UNL     1       0.661  51.871 -11.643  1.00  0.00     0.159 C 
HETATM   10  C8  UNL     1       0.903  50.795 -12.666  1.00  0.00     0.011 C 
HETATM   11  C9  UNL     1       0.627  49.498 -12.424  1.00  0.00    -0.054 C 
HETATM   12  C10 UNL     1       0.828  48.441 -13.472  1.00  0.00     0.046 C 
HETATM   13  C11 UNL     1       0.025  49.062 -11.152  1.00  0.00     0.180 A 
HETATM   14  O3  UNL     1      -1.149  49.729 -10.661  1.00  0.00    -0.370 OA
HETATM   15  C12 UNL     1       0.071  50.010  -9.966  1.00  0.00     0.170 A 
HETATM   16  O4  UNL     1      -0.603  52.460 -11.998  1.00  0.00    -0.372 OA
HETATM   17  C13 UNL     1      -1.208  53.331 -11.035  1.00  0.00     0.162 C 
HETATM   18  C14 UNL     1      -0.299  54.513 -10.698  1.00  0.00     0.068 C 
HETATM   19  C15 UNL     1       0.646  53.960  -9.597  1.00  0.00     0.147 C 
HETATM   20  O5  UNL     1       0.943  54.959  -8.590  1.00  0.00    -0.312 OA
HETATM   21  C16 UNL     1      -0.020  55.509  -7.823  1.00  0.00     0.283 C 
HETATM   22  O6  UNL     1      -1.133  55.065  -7.615  1.00  0.00    -0.260 OA
HETATM   23  C17 UNL     1       0.338  56.840  -7.299  1.00  0.00     0.082 C 
HETATM   24  C18 UNL     1       1.488  57.342  -6.835  1.00  0.00     0.006 C 
HETATM   25  C19 UNL     1       2.776  56.712  -6.701  1.00  0.00    -0.001 C 
HETATM   26  C20 UNL     1       3.723  57.249  -5.913  1.00  0.00     0.007 C 
HETATM   27  C21 UNL     1       5.107  56.723  -5.616  1.00  0.00     0.172 C 
HETATM   28  O8  UNL     1       5.572  55.903  -6.684  1.00  0.00    -0.379 OA
HETATM   29  C24 UNL     1       5.577  54.506  -6.394  1.00  0.00     0.173 C 
HETATM   30  C25 UNL     1       6.362  53.770  -7.479  1.00  0.00     0.060 C 
HETATM   31  C26 UNL     1       0.092  52.517  -9.205  1.00  0.00     0.034 C 
HETATM   32  C27 UNL     1       0.230  52.207  -7.716  1.00  0.00     0.022 C 
HETATM   33  C28 UNL     1      -1.327  52.616  -9.734  1.00  0.00     0.119 A 
HETATM   34  C29 UNL     1      -2.519  51.766  -9.331  1.00  0.00     0.210 A 
HETATM   35  O9  UNL     1      -2.356  53.107  -8.868  1.00  0.00    -0.371 OA
ENDROOT
BRANCH  27  36
HETATM   36  C22 UNL     1       6.122  57.891  -5.458  1.00  0.00     0.146 C 
HETATM   37  C23 UNL     1       7.555  57.383  -5.341  1.00  0.00     0.042 C 
BRANCH  36  38
HETATM   38  O7  UNL     1       5.836  58.694  -4.310  1.00  0.00    -0.393 OA
HETATM   39  H27 UNL     1       6.040  58.180  -3.515  1.00  0.00     0.210 HD
ENDBRANCH  36  38
ENDBRANCH  27  36
TORSDOF 2
ENDMDL
