MODEL 1
REMARK minimizedAffinity -9.33804321
REMARK  7 active torsions:
REMARK  status: ('A' for Active; 'I' for Inactive)
REMARK    1  A    between atoms: C2_2  and  O2_4 
REMARK    2  A    between atoms: O2_4  and  C3_5 
REMARK    3  A    between atoms: C3_5  and  C4_6 
REMARK    4  A    between atoms: C3_5  and  C9_12 
REMARK    5  A    between atoms: C5_7  and  C6_8 
REMARK    6  A    between atoms: C6_8  and  O3_11 
REMARK    7  A    between atoms: C9_12  and  C11_14 
ROOT
HETATM    1  C11 UNL     1       0.812   5.812  11.875  1.00  0.00     0.001 C 
HETATM    2  C12 UNL     1       0.721   4.263  11.753  1.00  0.00     0.007 C 
HETATM    3  C13 UNL     1      -0.734   3.848  12.034  1.00  0.00     0.015 C 
HETATM    4  C14 UNL     1      -1.531   5.160  11.990  1.00  0.00    -0.013 C 
HETATM    5  C15 UNL     1      -1.862   5.448  10.491  1.00  0.00     0.021 C 
HETATM    6  C16 UNL     1      -2.872   5.218  12.711  1.00  0.00    -0.068 C 
HETATM    7  C17 UNL     1      -3.334   6.386  13.224  1.00  0.00    -0.068 C 
HETATM    8  C18 UNL     1      -2.500   7.672  13.099  1.00  0.00     0.036 C 
HETATM    9  C19 UNL     1      -1.082   7.561  12.490  1.00  0.00     0.015 C 
HETATM   10  C20 UNL     1      -0.501   6.150  12.656  1.00  0.00    -0.029 C 
HETATM   11  C21 UNL     1      -0.274   5.876  14.177  1.00  0.00     0.016 C 
HETATM   12  C22 UNL     1      -4.669   6.484  14.018  1.00  0.00    -0.015 C 
HETATM   13  C23 UNL     1      -4.304   6.896  15.473  1.00  0.00     0.020 C 
HETATM   14  C24 UNL     1      -5.590   7.549  13.380  1.00  0.00     0.021 C 
HETATM   15  C25 UNL     1      -6.854   7.830  14.186  1.00  0.00     0.080 C 
HETATM   16  C26 UNL     1      -7.379   6.610  14.907  1.00  0.00     0.135 C 
HETATM   17  O4  UNL     1      -8.129   6.746  15.875  1.00  0.00    -0.297 OA
HETATM   18  C27 UNL     1      -7.018   5.236  14.336  1.00  0.00     0.018 C 
HETATM   19  C28 UNL     1      -7.444   4.140  15.338  1.00  0.00     0.023 C 
HETATM   20  C29 UNL     1      -7.892   5.066  13.073  1.00  0.00     0.023 C 
HETATM   21  C30 UNL     1      -5.461   5.115  14.096  1.00  0.00     0.013 C 
HETATM   22  C31 UNL     1      -5.152   4.207  12.894  1.00  0.00     0.011 C 
HETATM   23  C32 UNL     1      -3.662   3.943  12.768  1.00  0.00     0.036 C 
ENDROOT
BRANCH   1  24
HETATM   24  C9  UNL     1       2.192   6.303  12.429  1.00  0.00     0.020 C 
HETATM   25  C10 UNL     1       2.025   7.552  13.309  1.00  0.00     0.013 C 
BRANCH  24  26
HETATM   26  C3  UNL     1       3.260   6.636  11.332  1.00  0.00     0.158 C 
BRANCH  26  27
HETATM   27  O2  UNL     1       4.350   7.386  11.903  1.00  0.00    -0.312 OA
BRANCH  27  28
HETATM   28  C2  UNL     1       5.610   6.961  11.616  1.00  0.00     0.255 C 
HETATM   29  C1  UNL     1       6.428   6.910  12.870  1.00  0.00     0.126 C 
HETATM   30  O1  UNL     1       6.025   6.628  10.515  1.00  0.00    -0.266 OA
ENDBRANCH  27  28
ENDBRANCH  26  27
BRANCH  26  31
HETATM   31  C4  UNL     1       2.735   7.468  10.188  1.00  0.00     0.005 C 
HETATM   32  C5  UNL     1       2.515   6.992   8.950  1.00  0.00     0.008 C 
BRANCH  32  33
HETATM   33  C6  UNL     1       1.993   7.750   7.750  1.00  0.00     0.068 C 
HETATM   34  C7  UNL     1       0.618   8.344   8.068  1.00  0.00     0.050 C 
HETATM   35  C8  UNL     1       1.923   6.952   6.443  1.00  0.00     0.050 C 
BRANCH  33  36
HETATM   36  O3  UNL     1       2.894   8.841   7.544  1.00  0.00    -0.387 OA
HETATM   37  H13 UNL     1       3.779   8.456   7.417  1.00  0.00     0.211 HD
ENDBRANCH  33  36
ENDBRANCH  32  33
ENDBRANCH  26  31
ENDBRANCH  24  26
ENDBRANCH   1  24
TORSDOF 7
ENDMDL
