MODEL 1
REMARK minimizedAffinity -8.76191998
REMARK  3 active torsions:
REMARK  status: ('A' for Active; 'I' for Inactive)
REMARK    1  A    between atoms: N2_7  and  C6_8 
REMARK    2  A    between atoms: C9_11  and  C10_12 
REMARK    3  A    between atoms: C13_15  and  N3_16 
ROOT
HETATM    1  C6  UNL     1       2.895   6.880  11.691  1.00  0.00     0.030 A 
HETATM    2  C7  UNL     1       2.051   7.404  12.682  1.00  0.00     0.030 A 
HETATM    3  C8  UNL     1       0.727   6.965  12.851  1.00  0.00     0.014 A 
HETATM    4  C9  UNL     1       0.180   5.981  12.023  1.00  0.00    -0.026 A 
HETATM    5  C20 UNL     1       1.003   5.460  11.020  1.00  0.00     0.014 A 
HETATM    6  C21 UNL     1       2.326   5.906  10.858  1.00  0.00     0.030 A 
ENDROOT
BRANCH   4   7
HETATM    7  C10 UNL     1      -1.205   5.517  12.196  1.00  0.00    -0.026 A 
HETATM    8  C11 UNL     1      -1.682   4.384  11.525  1.00  0.00     0.014 A 
HETATM    9  C12 UNL     1      -3.005   3.937  11.687  1.00  0.00     0.032 A 
HETATM   10  C13 UNL     1      -3.906   4.605  12.526  1.00  0.00     0.060 A 
HETATM   11  C18 UNL     1      -3.418   5.741  13.198  1.00  0.00     0.032 A 
HETATM   12  C19 UNL     1      -2.098   6.188  13.038  1.00  0.00     0.014 A 
BRANCH  10  13
HETATM   13  N3  UNL     1      -5.271   4.179  12.719  1.00  0.00    -0.221 N 
HETATM   14  N4  UNL     1      -6.010   5.038  13.526  1.00  0.00    -0.302 N 
HETATM   15  C14 UNL     1      -7.243   4.744  13.761  1.00  0.00     0.108 A 
ATOM     16  H4  UNL     1      -5.588   5.879  13.920  1.00  0.00     0.186 HD
HETATM   17  C15 UNL     1      -7.956   3.573  13.257  1.00  0.00     0.024 A 
HETATM   18  C16 UNL     1      -7.248   2.753  12.484  1.00  0.00     0.077 A 
HETATM   19  C17 UNL     1      -5.823   3.016  12.159  1.00  0.00     0.266 A 
HETATM   20  O1  UNL     1      -5.279   2.189  11.432  1.00  0.00    -0.266 OA
ENDBRANCH  10  13
ENDBRANCH   4   7
BRANCH   1  21
HETATM   21  N2  UNL     1       4.193   7.333  11.519  1.00  0.00    -0.374 N 
HETATM   22  C5  UNL     1       5.260   6.440  11.068  1.00  0.00     0.124 C 
HETATM   23  C4  UNL     1       6.476   7.351  10.970  1.00  0.00     0.028 C 
HETATM   24  C3  UNL     1       5.888   8.673  10.485  1.00  0.00     0.040 C 
HETATM   25  C2  UNL     1       6.629   9.905  11.004  1.00  0.00     0.278 C 
HETATM   26  C22 UNL     1       4.494   8.720  11.132  1.00  0.00     0.118 C 
HETATM   27  N1  UNL     1       5.623  10.667  11.753  1.00  0.00     0.086 N 
HETATM   28  C1  UNL     1       6.211  11.515  12.779  1.00  0.00     0.310 C 
HETATM   29  C23 UNL     1       4.703   9.667  12.313  1.00  0.00     0.297 C 
ENDBRANCH   1  21
TORSDOF 3
ENDMDL
