MODEL 1
REMARK minimizedAffinity -6.89320946
REMARK CNNscore 0.853449583
REMARK CNNaffinity 6.89342117
REMARK  6 active torsions:
REMARK  status: ('A' for Active; 'I' for Inactive)
REMARK    1  A    between atoms: O1_2  and  C2_3 
REMARK    2  A    between atoms: C17_20  and  C18_21 
REMARK    3  A    between atoms: C22_27  and  O6_28 
REMARK    4  A    between atoms: O6_28  and  C23_29 
REMARK    5  A    between atoms: C26_33  and  O8_34 
REMARK    6  A    between atoms: C31_40  and  O10_41 
ROOT
HETATM    1  C2  UNL     1      -2.948  18.504  14.042  1.00  0.00     0.190 C 
HETATM    2  C3  UNL     1      -4.304  19.160  13.744  1.00  0.00     0.064 C 
HETATM    3  C4  UNL     1      -5.303  18.921  14.874  1.00  0.00     0.174 C 
HETATM    4  O2  UNL     1      -5.442  17.529  15.179  1.00  0.00    -0.356 OA
HETATM    5  C5  UNL     1      -4.193  16.972  15.601  1.00  0.00     0.325 C 
HETATM    6  O3  UNL     1      -4.402  15.605  16.018  1.00  0.00    -0.344 OA
HETATM    7  C6  UNL     1      -3.136  15.069  16.425  1.00  0.00     0.177 C 
HETATM    8  C7  UNL     1      -3.311  13.709  17.014  1.00  0.00     0.011 C 
HETATM    9  C8  UNL     1      -2.422  12.705  16.851  1.00  0.00    -0.072 C 
HETATM   10  C9  UNL     1      -2.677  11.372  17.506  1.00  0.00     0.035 C 
HETATM   11  C10 UNL     1      -1.437  10.765  18.161  1.00  0.00     0.012 C 
HETATM   12  C11 UNL     1      -0.265  11.753  18.275  1.00  0.00     0.026 C 
HETATM   13  C12 UNL     1       0.124  12.247  16.841  1.00  0.00     0.005 C 
HETATM   14  C13 UNL     1       1.414  13.115  16.843  1.00  0.00     0.007 C 
HETATM   15  C14 UNL     1       2.583  12.517  17.647  1.00  0.00     0.013 C 
HETATM   16  C15 UNL     1       2.142  12.137  19.073  1.00  0.00    -0.003 C 
HETATM   17  C16 UNL     1       1.796  13.432  19.863  1.00  0.00     0.019 C 
HETATM   18  C17 UNL     1       3.160  11.273  19.873  1.00  0.00     0.058 C 
HETATM   19  C22 UNL     1       2.256  10.603  20.958  1.00  0.00     0.143 C 
HETATM   20  C25 UNL     1       0.808  10.615  20.398  1.00  0.00     0.072 C 
HETATM   21  C26 UNL     1       0.964  11.129  18.967  1.00  0.00     0.072 C 
HETATM   22  C27 UNL     1      -1.113  12.858  16.049  1.00  0.00    -0.014 C 
HETATM   23  C28 UNL     1      -1.275  12.033  14.742  1.00  0.00     0.020 C 
HETATM   24  C29 UNL     1      -0.890  14.349  15.636  1.00  0.00     0.049 C 
HETATM   25  C30 UNL     1      -2.190  15.032  15.214  1.00  0.00     0.159 C 
HETATM   26  O9  UNL     1      -1.932  16.371  14.755  1.00  0.00    -0.341 OA
HETATM   27  C31 UNL     1      -3.172  17.016  14.411  1.00  0.00     0.240 C 
ENDROOT
BRANCH  18  28
HETATM   28  C18 UNL     1       4.390  11.979  20.376  1.00  0.00    -0.043 A 
HETATM   29  C19 UNL     1       4.670  12.247  21.653  1.00  0.00     0.087 A 
HETATM   30  C20 UNL     1       5.960  12.934  21.676  1.00  0.00     0.283 A 
HETATM   31  O4  UNL     1       6.532  13.292  22.688  1.00  0.00    -0.260 OA
HETATM   32  O5  UNL     1       6.409  13.090  20.401  1.00  0.00    -0.314 OA
HETATM   33  C21 UNL     1       5.459  12.520  19.501  1.00  0.00     0.214 A 
ENDBRANCH  18  28
BRANCH  19  34
HETATM   34  O6  UNL     1       2.701   9.254  21.177  1.00  0.00    -0.316 OA
BRANCH  34  35
HETATM   35  C23 UNL     1       2.315   8.695  22.354  1.00  0.00     0.255 C 
HETATM   36  C24 UNL     1       2.978   9.400  23.499  1.00  0.00     0.126 C 
HETATM   37  O7  UNL     1       1.555   7.744  22.474  1.00  0.00    -0.266 OA
ENDBRANCH  34  35
ENDBRANCH  19  34
BRANCH  21  38
HETATM   38  O8  UNL     1       1.396  10.004  18.173  1.00  0.00    -0.389 OA
HETATM   39  H35 UNL     1       0.767   9.271  18.298  1.00  0.00     0.210 HD
ENDBRANCH  21  38
BRANCH  27  40
HETATM   40  O10 UNL     1      -3.724  16.358  13.257  1.00  0.00    -0.360 OA
HETATM   41  H42 UNL     1      -4.502  15.869  13.590  1.00  0.00     0.213 HD
ENDBRANCH  27  40
BRANCH   1  42
HETATM   42  O1  UNL     1      -2.353  19.254  15.117  1.00  0.00    -0.385 OA
HETATM   43  C1  UNL     1      -1.115  19.854  14.751  1.00  0.00     0.202 C 
ENDBRANCH   1  42
TORSDOF 6
ENDMDL
