MODEL 1
REMARK minimizedAffinity -7.76916361
REMARK CNNscore 0.671683133
REMARK CNNaffinity 7.54694796
REMARK  12 active torsions:
REMARK  status: ('A' for Active; 'I' for Inactive)
REMARK    1  A    between atoms: O1_2  and  C2_3 
REMARK    2  A    between atoms: C2_3  and  C5_6 
REMARK    3  A    between atoms: C6_7  and  C7_8 
REMARK    4  A    between atoms: C7_8  and  C8_9 
REMARK    5  A    between atoms: C8_9  and  C10_11 
REMARK    6  A    between atoms: C28_30  and  O3_31 
REMARK    7  A    between atoms: O3_31  and  C29_32 
REMARK    8  A    between atoms: C30_34  and  C31_35 
REMARK    9  A    between atoms: C31_35  and  O5_36 
REMARK   10  A    between atoms: C32_37  and  O6_38 
REMARK   11  A    between atoms: C33_39  and  O7_40 
REMARK   12  A    between atoms: C34_41  and  O8_42 
ROOT
HETATM    1  C10 UNL     1       3.009  55.754  -7.770  1.00  0.00    -0.002 C 
HETATM    2  C11 UNL     1       1.981  56.882  -7.419  1.00  0.00     0.006 C 
HETATM    3  C12 UNL     1       0.582  56.391  -7.862  1.00  0.00     0.011 C 
HETATM    4  C13 UNL     1       0.777  54.884  -8.105  1.00  0.00    -0.029 C 
HETATM    5  C14 UNL     1       0.763  54.241  -6.657  1.00  0.00     0.016 C 
HETATM    6  C15 UNL     1      -0.300  54.091  -8.933  1.00  0.00     0.028 C 
HETATM    7  C16 UNL     1      -1.462  54.765  -9.607  1.00  0.00    -0.021 C 
HETATM    8  C17 UNL     1      -2.153  54.100 -10.555  1.00  0.00     0.008 C 
HETATM    9  C18 UNL     1      -1.742  52.707 -11.066  1.00  0.00     0.092 C 
HETATM   10  O2  UNL     1      -0.760  53.017 -12.066  1.00  0.00    -0.374 OA
HETATM   11  C19 UNL     1       0.488  53.228 -11.353  1.00  0.00     0.179 C 
HETATM   12  C20 UNL     1       0.262  52.920  -9.830  1.00  0.00    -0.004 C 
HETATM   13  C21 UNL     1       1.543  52.351  -9.207  1.00  0.00     0.014 C 
HETATM   14  C22 UNL     1       2.659  53.396  -8.928  1.00  0.00     0.011 C 
HETATM   15  C23 UNL     1       2.194  54.868  -8.775  1.00  0.00    -0.032 C 
HETATM   16  C24 UNL     1       2.205  55.604 -10.149  1.00  0.00     0.016 C 
HETATM   17  C25 UNL     1      -0.891  51.909 -10.047  1.00  0.00     0.036 C 
HETATM   18  C26 UNL     1      -1.724  51.371  -8.884  1.00  0.00     0.011 C 
HETATM   19  C27 UNL     1      -2.884  50.524  -9.409  1.00  0.00     0.033 C 
HETATM   20  C28 UNL     1      -3.748  51.287 -10.433  1.00  0.00     0.136 C 
HETATM   21  C35 UNL     1      -2.907  51.829 -11.635  1.00  0.00     0.014 C 
HETATM   22  C36 UNL     1      -2.356  50.659 -12.496  1.00  0.00     0.021 C 
HETATM   23  C37 UNL     1      -3.828  52.629 -12.591  1.00  0.00     0.021 C 
ENDROOT
BRANCH  20  24
HETATM   24  O3  UNL     1      -4.808  50.464 -10.946  1.00  0.00    -0.352 OA
BRANCH  24  25
HETATM   25  C29 UNL     1      -5.571  49.792  -9.942  1.00  0.00     0.292 C 
HETATM   26  O4  UNL     1      -5.154  48.438  -9.804  1.00  0.00    -0.348 OA
HETATM   27  C30 UNL     1      -5.384  47.580 -10.938  1.00  0.00     0.179 C 
HETATM   28  C32 UNL     1      -6.618  47.975 -11.764  1.00  0.00     0.180 C 
HETATM   29  C33 UNL     1      -7.641  48.613 -10.836  1.00  0.00     0.183 C 
HETATM   30  C34 UNL     1      -7.076  49.926 -10.293  1.00  0.00     0.204 C 
BRANCH  27  31
HETATM   31  C31 UNL     1      -4.141  47.465 -11.832  1.00  0.00     0.198 C 
BRANCH  31  32
HETATM   32  O5  UNL     1      -4.483  47.691 -13.201  1.00  0.00    -0.398 OA
HETATM   33  H48 UNL     1      -3.656  47.649 -13.710  1.00  0.00     0.209 HD
ENDBRANCH  31  32
ENDBRANCH  27  31
BRANCH  28  34
HETATM   34  O6  UNL     1      -7.189  46.827 -12.408  1.00  0.00    -0.390 OA
HETATM   35  H50 UNL     1      -8.101  47.096 -12.639  1.00  0.00     0.210 HD
ENDBRANCH  28  34
BRANCH  29  36
HETATM   36  O7  UNL     1      -8.861  48.863 -11.558  1.00  0.00    -0.390 OA
HETATM   37  H52 UNL     1      -9.432  49.336 -10.922  1.00  0.00     0.210 HD
ENDBRANCH  29  36
BRANCH  30  38
HETATM   38  O8  UNL     1      -7.882  50.302  -9.156  1.00  0.00    -0.388 OA
HETATM   39  H54 UNL     1      -7.574  51.178  -8.861  1.00  0.00     0.210 HD
ENDBRANCH  30  38
ENDBRANCH  24  25
ENDBRANCH  20  24
BRANCH   1  40
HETATM   40  C8  UNL     1       4.404  56.334  -8.161  1.00  0.00    -0.010 C 
HETATM   41  C9  UNL     1       5.517  55.291  -8.030  1.00  0.00     0.010 C 
BRANCH  40  42
HETATM   42  C7  UNL     1       4.731  57.573  -7.280  1.00  0.00     0.031 C 
BRANCH  42  43
HETATM   43  C6  UNL     1       5.986  57.558  -6.439  1.00  0.00    -0.027 C 
HETATM   44  C5  UNL     1       6.094  57.846  -5.130  1.00  0.00     0.006 C 
BRANCH  44  45
HETATM   45  C2  UNL     1       7.350  57.830  -4.276  1.00  0.00     0.070 C 
HETATM   46  C3  UNL     1       7.261  57.018  -2.977  1.00  0.00     0.050 C 
HETATM   47  C4  UNL     1       7.680  59.286  -3.906  1.00  0.00     0.050 C 
BRANCH  45  48
HETATM   48  O1  UNL     1       8.450  57.393  -5.094  1.00  0.00    -0.382 OA
HETATM   49  C1  UNL     1       9.644  58.155  -4.995  1.00  0.00     0.202 C 
ENDBRANCH  45  48
ENDBRANCH  44  45
ENDBRANCH  42  43
ENDBRANCH  40  42
ENDBRANCH   1  40
TORSDOF 12
ENDMDL
