MODEL 1
REMARK minimizedAffinity -9.20041752
REMARK CNNscore 0.507039785
REMARK CNNaffinity 7.0232811
REMARK  11 active torsions:
REMARK  status: ('A' for Active; 'I' for Inactive)
REMARK    1  A    between atoms: C19_20  and  O2_21 
REMARK    2  A    between atoms: C19_20  and  C20_22 
REMARK    3  A    between atoms: C20_22  and  C21_24 
REMARK    4  A    between atoms: C21_24  and  O4_25 
REMARK    5  A    between atoms: O4_25  and  C22_26 
REMARK    6  A    between atoms: C22_26  and  C23_28 
REMARK    7  A    between atoms: C23_28  and  C24_29 
REMARK    8  A    between atoms: C24_29  and  C25_30 
REMARK       I    between atoms: C25_30  and  N1_32 
REMARK    9  A    between atoms: N1_32  and  C26_33 
REMARK   10  A    between atoms: C26_33  and  C27_34 
REMARK   11  A    between atoms: C27_34  and  C28_35 
ROOT
HETATM    1  C1  UNL     1      -4.278  47.909 -22.607  1.00  0.00     0.020 C 
HETATM    2  C2  UNL     1      -4.771  49.177 -23.362  1.00  0.00    -0.016 C 
HETATM    3  C3  UNL     1      -5.842  49.867 -22.470  1.00  0.00     0.022 C 
HETATM    4  C4  UNL     1      -7.074  48.997 -22.232  1.00  0.00     0.084 C 
HETATM    5  C5  UNL     1      -7.635  48.476 -23.535  1.00  0.00     0.149 C 
HETATM    6  O1  UNL     1      -8.784  48.050 -23.622  1.00  0.00    -0.293 OA
HETATM    7  C6  UNL     1      -6.756  48.443 -24.730  1.00  0.00     0.053 C 
HETATM    8  C7  UNL     1      -5.450  48.765 -24.665  1.00  0.00    -0.068 C 
HETATM    9  C8  UNL     1      -4.609  48.735 -25.915  1.00  0.00     0.035 C 
HETATM   10  C9  UNL     1      -3.145  48.455 -25.612  1.00  0.00     0.010 C 
HETATM   11  C10 UNL     1      -2.521  49.515 -24.678  1.00  0.00    -0.004 C 
HETATM   12  C11 UNL     1      -3.529  50.110 -23.622  1.00  0.00     0.002 C 
HETATM   13  C12 UNL     1      -3.878  51.582 -23.955  1.00  0.00     0.007 C 
HETATM   14  C13 UNL     1      -2.654  52.513 -24.047  1.00  0.00     0.013 C 
HETATM   15  C14 UNL     1      -1.408  51.850 -24.672  1.00  0.00    -0.002 C 
HETATM   16  C15 UNL     1      -0.433  51.453 -23.530  1.00  0.00     0.019 C 
HETATM   17  C16 UNL     1      -1.861  50.635 -25.510  1.00  0.00     0.002 C 
HETATM   18  C17 UNL     1      -0.612  50.263 -26.311  1.00  0.00     0.009 C 
HETATM   19  C18 UNL     1       0.109  51.602 -26.573  1.00  0.00     0.047 C 
HETATM   20  C19 UNL     1      -0.659  52.676 -25.767  1.00  0.00     0.128 C 
ENDROOT
BRANCH  20  21
HETATM   21  O2  UNL     1      -1.591  53.254 -26.693  1.00  0.00    -0.381 OA
HETATM   22  H27 UNL     1      -1.987  54.034 -26.257  1.00  0.00     0.211 HD
ENDBRANCH  20  21
BRANCH  20  23
HETATM   23  C20 UNL     1       0.157  53.852 -25.193  1.00  0.00     0.185 C 
HETATM   24  O3  UNL     1       0.100  54.956 -25.749  1.00  0.00    -0.292 OA
BRANCH  23  25
HETATM   25  C21 UNL     1       1.004  53.614 -23.946  1.00  0.00     0.260 C 
BRANCH  25  26
HETATM   26  O4  UNL     1       0.826  54.572 -22.906  1.00  0.00    -0.314 OA
BRANCH  26  27
HETATM   27  C22 UNL     1       1.306  54.206 -21.681  1.00  0.00     0.259 C 
HETATM   28  O5  UNL     1       2.432  54.440 -21.270  1.00  0.00    -0.265 OA
BRANCH  27  29
HETATM   29  C23 UNL     1       0.250  53.402 -20.958  1.00  0.00     0.120 C 
BRANCH  29  30
HETATM   30  C24 UNL     1       0.186  53.757 -19.478  1.00  0.00     0.112 C 
BRANCH  30  31
HETATM   31  C25 UNL     1       0.685  52.621 -18.612  1.00  0.00     0.218 C 
HETATM   32  O6  UNL     1       0.418  51.446 -18.821  1.00  0.00    -0.274 OA
HETATM   33  N1  UNL     1       1.486  53.044 -17.575  1.00  0.00    -0.361 N 
HETATM   34  H34 UNL     1       1.423  54.021 -17.306  1.00  0.00     0.162 HD
BRANCH  33  35
HETATM   35  C26 UNL     1       1.899  52.121 -16.531  1.00  0.00     0.128 C 
BRANCH  35  36
HETATM   36  C27 UNL     1       0.731  51.615 -15.671  1.00  0.00     0.078 C 
BRANCH  36  37
HETATM   37  C28 UNL     1       0.750  50.136 -15.489  1.00  0.00     0.027 A 
HETATM   38  C29 UNL     1       0.234  49.099 -16.235  1.00  0.00     0.114 A 
HETATM   39  N2  UNL     1       0.517  47.890 -15.653  1.00  0.00    -0.360 N 
HETATM   40  C30 UNL     1       1.182  48.177 -14.555  1.00  0.00     0.180 A 
ATOM     41  H2  UNL     1       0.266  46.964 -15.999  1.00  0.00     0.166 HD
HETATM   42  N3  UNL     1       1.369  49.524 -14.422  1.00  0.00    -0.355 N 
HETATM   43  H41 UNL     1       1.903  49.973 -13.683  1.00  0.00     0.166 HD
ENDBRANCH  36  37
ENDBRANCH  35  36
ENDBRANCH  33  35
ENDBRANCH  30  31
ENDBRANCH  29  30
ENDBRANCH  27  29
ENDBRANCH  26  27
ENDBRANCH  25  26
ENDBRANCH  23  25
ENDBRANCH  20  23
TORSDOF 11
ENDMDL
