MODEL 1
REMARK minimizedAffinity -8.46123695
REMARK CNNscore 0.36953488
REMARK CNNaffinity 6.89557457
REMARK  11 active torsions:
REMARK  status: ('A' for Active; 'I' for Inactive)
REMARK    1  A    between atoms: C2_2  and  C3_3 
REMARK    2  A    between atoms: C2_2  and  C4_5 
REMARK    3  A    between atoms: C3_3  and  O1_4 
REMARK    4  A    between atoms: C13_14  and  C14_15 
REMARK    5  A    between atoms: C14_15  and  C16_17 
REMARK    6  A    between atoms: C16_17  and  C17_18 
REMARK    7  A    between atoms: C17_18  and  C18_19 
REMARK    8  A    between atoms: C27_28  and  C28_29 
REMARK    9  A    between atoms: C28_29  and  C29_30 
REMARK   10  A    between atoms: C29_30  and  C30_31 
REMARK   11  A    between atoms: C30_31  and  O3_33 
ROOT
HETATM    1  C4  UNL     1      -6.116   7.335  15.503  1.00  0.00     0.025 C 
HETATM    2  C5  UNL     1      -5.303   8.644  15.703  1.00  0.00     0.010 C 
HETATM    3  C6  UNL     1      -3.805   8.572  15.393  1.00  0.00     0.007 C 
HETATM    4  C7  UNL     1      -3.336   7.184  14.969  1.00  0.00     0.004 C 
HETATM    5  C8  UNL     1      -4.208   6.589  13.840  1.00  0.00    -0.027 A 
HETATM    6  C9  UNL     1      -3.521   5.466  13.066  1.00  0.00     0.011 C 
HETATM    7  C10 UNL     1      -2.145   5.845  12.481  1.00  0.00     0.011 C 
HETATM    8  C11 UNL     1      -1.476   7.067  13.143  1.00  0.00    -0.032 C 
HETATM    9  C12 UNL     1      -1.961   8.354  12.412  1.00  0.00     0.016 C 
HETATM   10  C13 UNL     1       0.092   7.072  13.155  1.00  0.00    -0.002 C 
HETATM   11  C22 UNL     1       0.417   8.016  14.353  1.00  0.00     0.006 C 
HETATM   12  C23 UNL     1      -0.868   8.166  15.191  1.00  0.00     0.011 C 
HETATM   13  C24 UNL     1      -1.801   7.053  14.680  1.00  0.00    -0.032 C 
HETATM   14  C25 UNL     1      -1.321   5.748  15.415  1.00  0.00     0.016 C 
HETATM   15  C26 UNL     1      -5.253   7.345  13.030  1.00  0.00     0.022 A 
HETATM   16  C27 UNL     1      -5.722   6.544  14.218  1.00  0.00    -0.024 A 
ENDROOT
BRANCH  10  17
HETATM   17  C14 UNL     1       0.891   7.458  11.871  1.00  0.00    -0.014 C 
HETATM   18  C15 UNL     1       1.454   8.881  11.950  1.00  0.00     0.010 C 
BRANCH  17  19
HETATM   19  C16 UNL     1      -0.017   7.314  10.617  1.00  0.00     0.008 C 
BRANCH  19  20
HETATM   20  C17 UNL     1       0.116   8.460   9.609  1.00  0.00     0.028 C 
BRANCH  20  21
HETATM   21  C18 UNL     1       0.476   7.943   8.242  1.00  0.00    -0.025 C 
HETATM   22  C19 UNL     1       1.712   7.730   7.747  1.00  0.00    -0.091 C 
HETATM   23  C20 UNL     1       1.899   7.188   6.355  1.00  0.00     0.042 C 
HETATM   24  C21 UNL     1       2.993   8.015   8.481  1.00  0.00     0.042 C 
ENDBRANCH  20  21
ENDBRANCH  19  20
ENDBRANCH  17  19
ENDBRANCH  10  17
BRANCH  16  25
HETATM   25  C28 UNL     1      -6.378   5.160  14.063  1.00  0.00     0.021 C 
BRANCH  25  26
HETATM   26  C29 UNL     1      -7.271   4.884  12.857  1.00  0.00     0.111 C 
BRANCH  26  27
HETATM   27  C30 UNL     1      -7.471   3.427  12.538  1.00  0.00     0.139 C 
HETATM   28  O2  UNL     1      -8.400   2.703  12.847  1.00  0.00    -0.650 OA
BRANCH  27  29
HETATM   29  O3  UNL     1      -6.432   2.924  11.839  1.00  0.00    -0.776 OA
HETATM   30  H48 UNL     1      -6.662   1.979  11.718  1.00  0.00     0.167 HD
ENDBRANCH  27  29
ENDBRANCH  26  27
ENDBRANCH  25  26
ENDBRANCH  16  25
BRANCH   1  31
HETATM   31  C2  UNL     1      -7.598   7.686  15.658  1.00  0.00    -0.061 C 
HETATM   32  C1  UNL     1      -8.064   8.867  15.207  1.00  0.00     0.017 C 
BRANCH  31  33
HETATM   33  C3  UNL     1      -8.478   6.654  16.328  1.00  0.00     0.198 C 
BRANCH  33  34
HETATM   34  O1  UNL     1      -9.751   6.570  15.695  1.00  0.00    -0.397 OA
HETATM   35  H5  UNL     1     -10.277   5.961  16.235  1.00  0.00     0.209 HD
ENDBRANCH  33  34
ENDBRANCH  31  33
ENDBRANCH   1  31
TORSDOF 11
ENDMDL
