MODEL 1
REMARK minimizedAffinity -8.33077812
REMARK CNNscore 0.469591349
REMARK CNNaffinity 7.15295744
REMARK  16 active torsions:
REMARK  status: ('A' for Active; 'I' for Inactive)
REMARK    1  A    between atoms: C2_2  and  N1_3 
REMARK    2  A    between atoms: N1_3  and  C3_4 
REMARK    3  A    between atoms: C3_4  and  C4_5 
REMARK    4  A    between atoms: C9_11  and  S1_12 
REMARK    5  A    between atoms: S1_12  and  N2_15 
REMARK    6  A    between atoms: N2_15  and  C10_16 
REMARK    7  A    between atoms: N2_15  and  C14_20 
REMARK    8  A    between atoms: C10_16  and  C11_17 
REMARK    9  A    between atoms: C14_20  and  C15_21 
REMARK   10  A    between atoms: C15_21  and  O4_22 
REMARK   11  A    between atoms: C15_21  and  C16_23 
REMARK   12  A    between atoms: C16_23  and  C17_24 
REMARK   13  A    between atoms: C16_23  and  N3_31 
REMARK   14  A    between atoms: C17_24  and  C18_25 
REMARK       I    between atoms: N3_31  and  C24_32 
REMARK   15  A    between atoms: C24_32  and  O6_34 
REMARK   16  A    between atoms: O6_34  and  C25_35 
ROOT
HETATM    1  C15 UNL     1      -5.523  50.008 -20.762  1.00  0.00     0.155 C 
ENDROOT
BRANCH   1   2
HETATM    2  C14 UNL     1      -4.292  50.928 -20.707  1.00  0.00     0.141 C 
BRANCH   2   3
HETATM    3  N2  UNL     1      -2.923  50.295 -20.505  1.00  0.00    -0.204 NA
BRANCH   3   4
HETATM    4  S1  UNL     1      -2.071  51.013 -19.158  1.00  0.00     0.243 S 
HETATM    5  O2  UNL     1      -2.972  51.852 -18.400  1.00  0.00    -0.206 OA
HETATM    6  O3  UNL     1      -1.300  49.958 -18.530  1.00  0.00    -0.206 OA
BRANCH   4   7
HETATM    7  C9  UNL     1      -0.916  52.143 -19.922  1.00  0.00     0.075 A 
HETATM    8  C8  UNL     1      -0.145  52.983 -19.108  1.00  0.00     0.027 A 
HETATM    9  C7  UNL     1       0.800  53.845 -19.674  1.00  0.00     0.039 A 
HETATM   10  C6  UNL     1       0.928  53.809 -21.063  1.00  0.00     0.086 A 
HETATM   11  O1  UNL     1       1.785  54.573 -21.793  1.00  0.00    -0.321 OA
HETATM   12  C32 UNL     1       0.192  52.976 -21.900  1.00  0.00     0.009 A 
HETATM   13  C5  UNL     1       1.605  54.235 -23.095  1.00  0.00     0.152 A 
HETATM   14  C4  UNL     1       0.633  53.260 -23.231  1.00  0.00     0.005 A 
HETATM   15  C31 UNL     1      -0.744  52.105 -21.317  1.00  0.00     0.039 A 
BRANCH  14  16
HETATM   16  C3  UNL     1       0.141  52.662 -24.503  1.00  0.00     0.311 C 
BRANCH  16  17
HETATM   17  N1  UNL     1       0.914  53.142 -25.654  1.00  0.00     0.087 N 
HETATM   18  H6  UNL     1       0.389  53.915 -26.068  1.00  0.00     0.316 HD
BRANCH  17  19
HETATM   19  C2  UNL     1       1.110  52.123 -26.690  1.00  0.00     0.265 C 
HETATM   20  C1  UNL     1       2.502  51.518 -26.606  1.00  0.00     0.037 C 
ENDBRANCH  17  19
ENDBRANCH  16  17
ENDBRANCH  14  16
ENDBRANCH   4   7
ENDBRANCH   3   4
BRANCH   3  21
HETATM   21  C10 UNL     1      -3.095  48.797 -20.366  1.00  0.00     0.111 C 
BRANCH  21  22
HETATM   22  C11 UNL     1      -2.244  47.995 -21.368  1.00  0.00    -0.009 C 
HETATM   23  C12 UNL     1      -2.240  48.591 -22.772  1.00  0.00     0.011 C 
HETATM   24  C13 UNL     1      -0.815  47.766 -20.885  1.00  0.00     0.011 C 
ENDBRANCH  21  22
ENDBRANCH   3  21
ENDBRANCH   2   3
ENDBRANCH   1   2
BRANCH   1  25
HETATM   25  O4  UNL     1      -6.694  50.673 -20.293  1.00  0.00    -0.392 OA
HETATM   26  H24 UNL     1      -7.448  50.080 -20.461  1.00  0.00     0.210 HD
ENDBRANCH   1  25
BRANCH   1  27
HETATM   27  C16 UNL     1      -5.780  49.227 -22.085  1.00  0.00     0.120 C 
BRANCH  27  28
HETATM   28  C17 UNL     1      -5.960  50.140 -23.315  1.00  0.00     0.066 C 
BRANCH  28  29
HETATM   29  C18 UNL     1      -4.976  49.888 -24.441  1.00  0.00    -0.056 A 
HETATM   30  C19 UNL     1      -4.110  50.894 -24.891  1.00  0.00     0.007 A 
HETATM   31  C20 UNL     1      -3.219  50.644 -25.936  1.00  0.00     0.001 A 
HETATM   32  C21 UNL     1      -3.192  49.392 -26.550  1.00  0.00     0.000 A 
HETATM   33  C22 UNL     1      -4.058  48.389 -26.120  1.00  0.00     0.001 A 
HETATM   34  C23 UNL     1      -4.946  48.635 -25.074  1.00  0.00     0.007 A 
ENDBRANCH  28  29
ENDBRANCH  27  28
BRANCH  27  35
HETATM   35  N3  UNL     1      -6.973  48.373 -21.925  1.00  0.00    -0.329 N 
HETATM   36  C24 UNL     1      -6.956  47.028 -22.130  1.00  0.00     0.361 C 
HETATM   37  O5  UNL     1      -5.956  46.363 -22.347  1.00  0.00    -0.238 OA
HETATM   38  H33 UNL     1      -7.898  48.794 -21.924  1.00  0.00     0.165 HD
BRANCH  36  39
HETATM   39  O6  UNL     1      -8.218  46.547 -22.036  1.00  0.00    -0.296 OA
BRANCH  39  40
HETATM   40  C25 UNL     1      -9.192  47.193 -22.865  1.00  0.00     0.166 C 
HETATM   41  C26 UNL     1     -10.601  46.795 -22.459  1.00  0.00     0.204 C 
HETATM   42  O7  UNL     1     -11.412  46.920 -23.631  1.00  0.00    -0.358 OA
HETATM   43  C27 UNL     1     -10.550  46.904 -24.770  1.00  0.00     0.266 C 
HETATM   44  O8  UNL     1     -10.557  48.168 -25.446  1.00  0.00    -0.361 OA
HETATM   45  C30 UNL     1      -9.135  46.658 -24.288  1.00  0.00     0.075 C 
HETATM   46  C28 UNL     1      -9.209  48.632 -25.585  1.00  0.00     0.171 C 
HETATM   47  C29 UNL     1      -8.303  47.463 -25.255  1.00  0.00     0.038 C 
ENDBRANCH  39  40
ENDBRANCH  36  39
ENDBRANCH  27  35
ENDBRANCH   1  27
TORSDOF 16
ENDMDL
