MODEL 1
REMARK minimizedAffinity -9.21701431
REMARK  9 active torsions:
REMARK  status: ('A' for Active; 'I' for Inactive)
REMARK    1  A    between atoms: C2_2  and  C3_3 
REMARK    2  A    between atoms: C2_2  and  C9_11 
REMARK    3  A    between atoms: C3_3  and  C4_4 
REMARK    4  A    between atoms: C4_4  and  C5_5 
REMARK    5  A    between atoms: C5_5  and  O1_6 
REMARK    6  A    between atoms: C5_5  and  C6_7 
REMARK    7  A    between atoms: C6_7  and  O2_10 
REMARK    8  A    between atoms: C17_19  and  C18_20 
REMARK    9  A    between atoms: C18_20  and  O3_23 
ROOT
HETATM    1  C9  UNL     1      -3.746  50.315 -25.544  1.00  0.00    -0.002 C 
HETATM    2  C10 UNL     1      -3.831  51.855 -25.332  1.00  0.00     0.006 C 
HETATM    3  C11 UNL     1      -3.756  52.098 -23.800  1.00  0.00     0.011 C 
HETATM    4  C12 UNL     1      -3.921  50.697 -23.174  1.00  0.00    -0.032 C 
HETATM    5  C13 UNL     1      -5.465  50.428 -23.172  1.00  0.00     0.016 C 
HETATM    6  C14 UNL     1      -3.304  50.500 -21.760  1.00  0.00     0.003 C 
HETATM    7  C15 UNL     1      -3.802  51.490 -20.700  1.00  0.00     0.009 C 
HETATM    8  C16 UNL     1      -3.485  51.103 -19.256  1.00  0.00     0.042 C 
HETATM    9  C17 UNL     1      -2.315  50.112 -19.005  1.00  0.00     0.095 C 
HETATM   10  O4  UNL     1      -2.538  49.568 -17.663  1.00  0.00    -0.377 OA
HETATM   11  C21 UNL     1      -3.441  48.478 -17.588  1.00  0.00     0.169 C 
HETATM   12  C22 UNL     1      -2.839  47.250 -18.234  1.00  0.00     0.027 C 
HETATM   13  C23 UNL     1      -1.976  47.574 -19.448  1.00  0.00     0.010 C 
HETATM   14  C24 UNL     1      -2.203  48.964 -20.083  1.00  0.00     0.032 C 
HETATM   15  C25 UNL     1      -3.273  49.006 -21.265  1.00  0.00    -0.033 C 
HETATM   16  C26 UNL     1      -4.656  48.491 -20.811  1.00  0.00     0.016 C 
HETATM   17  C27 UNL     1      -2.799  48.034 -22.417  1.00  0.00     0.011 C 
HETATM   18  C28 UNL     1      -3.295  48.342 -23.850  1.00  0.00     0.011 C 
HETATM   19  C29 UNL     1      -3.111  49.824 -24.210  1.00  0.00    -0.032 C 
HETATM   20  C30 UNL     1      -1.574  50.102 -24.237  1.00  0.00     0.016 C 
ENDROOT
BRANCH   1  21
HETATM   21  C2  UNL     1      -3.147  49.822 -26.894  1.00  0.00    -0.014 C 
HETATM   22  C1  UNL     1      -4.099  48.778 -27.507  1.00  0.00     0.010 C 
BRANCH  21  23
HETATM   23  C3  UNL     1      -2.849  50.922 -27.941  1.00  0.00     0.007 C 
BRANCH  23  24
HETATM   24  C4  UNL     1      -1.440  51.524 -27.790  1.00  0.00     0.035 C 
BRANCH  24  25
HETATM   25  C5  UNL     1      -1.477  52.955 -27.217  1.00  0.00     0.151 C 
BRANCH  25  26
HETATM   26  O1  UNL     1      -1.831  53.886 -28.243  1.00  0.00    -0.393 OA
HETATM   27  H10 UNL     1      -1.329  53.657 -29.045  1.00  0.00     0.210 HD
ENDBRANCH  25  26
BRANCH  25  28
HETATM   28  C6  UNL     1      -0.154  53.382 -26.512  1.00  0.00     0.076 C 
HETATM   29  C7  UNL     1      -0.269  53.377 -24.984  1.00  0.00     0.048 C 
HETATM   30  C8  UNL     1       0.994  52.455 -26.937  1.00  0.00     0.048 C 
BRANCH  28  31
HETATM   31  O2  UNL     1       0.183  54.714 -26.923  1.00  0.00    -0.388 OA
HETATM   32  H17 UNL     1       1.043  54.943 -26.529  1.00  0.00     0.210 HD
ENDBRANCH  28  31
ENDBRANCH  25  28
ENDBRANCH  24  25
ENDBRANCH  23  24
ENDBRANCH  21  23
ENDBRANCH   1  21
BRANCH   9  33
HETATM   33  C18 UNL     1      -0.937  50.902 -18.802  1.00  0.00     0.082 C 
HETATM   34  C19 UNL     1      -0.052  51.020 -20.044  1.00  0.00     0.049 C 
HETATM   35  C20 UNL     1      -0.083  50.348 -17.646  1.00  0.00     0.049 C 
BRANCH  33  36
HETATM   36  O3  UNL     1      -1.260  52.256 -18.412  1.00  0.00    -0.388 OA
HETATM   37  H37 UNL     1      -1.980  52.154 -17.757  1.00  0.00     0.210 HD
ENDBRANCH  33  36
ENDBRANCH   9  33
TORSDOF 9
ENDMDL
