MODEL 1
REMARK minimizedAffinity -7.51720667
REMARK CNNscore 0.759258032
REMARK CNNaffinity 7.14835978
REMARK  6 active torsions:
REMARK  status: ('A' for Active; 'I' for Inactive)
REMARK    1  A    between atoms: C2_2  and  C30_31 
REMARK    2  A    between atoms: C3_3  and  C4_4 
REMARK    3  A    between atoms: C4_4  and  C5_5 
REMARK    4  A    between atoms: C5_5  and  C6_6 
REMARK    5  A    between atoms: C6_6  and  C8_8 
REMARK    6  A    between atoms: C30_31  and  O3_33 
ROOT
HETATM    1  C8  UNL     1       4.830  55.379  -8.686  1.00  0.00    -0.002 C 
HETATM    2  C9  UNL     1       4.126  56.662  -8.173  1.00  0.00     0.007 C 
HETATM    3  C10 UNL     1       2.623  56.500  -8.498  1.00  0.00     0.015 C 
HETATM    4  C11 UNL     1       2.549  55.298  -9.469  1.00  0.00    -0.013 C 
HETATM    5  C12 UNL     1       2.857  55.876 -10.890  1.00  0.00     0.021 C 
HETATM    6  C13 UNL     1       1.234  54.543  -9.612  1.00  0.00    -0.070 C 
HETATM    7  C14 UNL     1       0.039  55.154  -9.505  1.00  0.00    -0.022 C 
HETATM    8  C15 UNL     1      -1.281  54.492  -9.787  1.00  0.00     0.034 C 
HETATM    9  C16 UNL     1      -1.193  52.962  -9.980  1.00  0.00     0.013 C 
HETATM   10  C17 UNL     1      -2.534  52.250 -10.405  1.00  0.00     0.018 C 
HETATM   11  C18 UNL     1      -3.013  51.330  -9.260  1.00  0.00     0.023 C 
HETATM   12  C19 UNL     1      -3.685  53.233 -10.707  1.00  0.00     0.023 C 
HETATM   13  C20 UNL     1      -2.352  51.338 -11.627  1.00  0.00     0.135 C 
HETATM   14  O1  UNL     1      -3.225  51.224 -12.492  1.00  0.00    -0.297 OA
HETATM   15  C21 UNL     1      -1.110  50.484 -11.722  1.00  0.00     0.080 C 
HETATM   16  C22 UNL     1       0.084  51.038 -10.962  1.00  0.00     0.017 C 
HETATM   17  C23 UNL     1       0.077  52.577 -10.822  1.00  0.00    -0.031 C 
HETATM   18  C24 UNL     1       0.079  53.233 -12.227  1.00  0.00     0.016 C 
HETATM   19  C25 UNL     1       1.331  53.056  -9.986  1.00  0.00     0.024 C 
HETATM   20  C26 UNL     1       2.705  52.659 -10.584  1.00  0.00     0.010 C 
HETATM   21  C27 UNL     1       3.954  53.214  -9.856  1.00  0.00     0.011 C 
HETATM   22  C28 UNL     1       3.657  54.364  -8.873  1.00  0.00    -0.029 C 
HETATM   23  C29 UNL     1       3.282  53.743  -7.495  1.00  0.00     0.016 C 
ENDROOT
BRANCH   1  24
HETATM   24  C6  UNL     1       6.106  54.919  -7.917  1.00  0.00    -0.014 C 
HETATM   25  C7  UNL     1       6.972  54.080  -8.878  1.00  0.00     0.010 C 
BRANCH  24  26
HETATM   26  C5  UNL     1       6.966  56.056  -7.309  1.00  0.00     0.008 C 
BRANCH  26  27
HETATM   27  C4  UNL     1       6.800  56.241  -5.792  1.00  0.00     0.028 C 
BRANCH  27  28
HETATM   28  C3  UNL     1       6.797  57.668  -5.322  1.00  0.00    -0.013 C 
HETATM   29  C2  UNL     1       7.848  58.436  -4.968  1.00  0.00     0.008 C 
HETATM   30  C1  UNL     1       7.652  59.865  -4.547  1.00  0.00     0.055 C 
BRANCH  29  31
HETATM   31  C30 UNL     1       9.237  57.910  -4.943  1.00  0.00     0.171 C 
HETATM   32  O2  UNL     1       9.608  56.802  -4.598  1.00  0.00    -0.646 OA
BRANCH  31  33
HETATM   33  O3  UNL     1      10.130  58.827  -5.358  1.00  0.00    -0.773 OA
HETATM   34  H46 UNL     1      10.983  58.350  -5.293  1.00  0.00     0.167 HD
ENDBRANCH  31  33
ENDBRANCH  29  31
ENDBRANCH  27  28
ENDBRANCH  26  27
ENDBRANCH  24  26
ENDBRANCH   1  24
TORSDOF 6
ENDMDL
