MODEL 1
REMARK minimizedAffinity -7.35917377
REMARK  6 active torsions:
REMARK  status: ('A' for Active; 'I' for Inactive)
REMARK    1  A    between atoms: C9_10  and  C10_11 
REMARK    2  A    between atoms: C11_13  and  O3_14 
REMARK    3  A    between atoms: C12_15  and  C13_16 
REMARK    4  A    between atoms: C14_18  and  O5_19 
REMARK    5  A    between atoms: C16_21  and  C17_22 
REMARK    6  A    between atoms: C17_22  and  C18_23 
ROOT
HETATM    1  C1  UNL     1      17.820  -5.014  11.910  1.00  0.00     0.043 C 
HETATM    2  C2  UNL     1      18.720  -5.130  10.715  1.00  0.00    -0.087 C 
HETATM    3  C3  UNL     1      18.820  -4.209   9.736  1.00  0.00    -0.024 C 
HETATM    4  C4  UNL     1      17.993  -2.987   9.498  1.00  0.00     0.030 C 
HETATM    5  C5  UNL     1      16.619  -3.198   8.829  1.00  0.00     0.042 C 
HETATM    6  C6  UNL     1      16.411  -4.300   7.731  1.00  0.00     0.069 C 
HETATM    7  C7  UNL     1      17.522  -4.214   6.658  1.00  0.00     0.047 C 
HETATM    8  O1  UNL     1      15.209  -3.842   7.028  1.00  0.00    -0.338 OA
HETATM    9  C8  UNL     1      14.691  -4.768   6.162  1.00  0.00     0.095 A 
HETATM   10  C9  UNL     1      14.315  -4.394   4.869  1.00  0.00     0.070 A 
HETATM   11  C11 UNL     1      13.738  -5.342   4.010  1.00  0.00     0.097 A 
HETATM   12  C12 UNL     1      13.508  -6.645   4.467  1.00  0.00     0.069 A 
HETATM   13  C14 UNL     1      13.856  -6.996   5.783  1.00  0.00     0.091 A 
HETATM   14  C15 UNL     1      14.468  -6.065   6.630  1.00  0.00     0.015 A 
HETATM   15  C16 UNL     1      14.782  -6.333   8.087  1.00  0.00     0.032 C 
HETATM   16  C21 UNL     1      16.177  -5.731   8.416  1.00  0.00     0.034 C 
HETATM   17  C22 UNL     1      17.393  -6.674   8.302  1.00  0.00     0.006 A 
HETATM   18  C23 UNL     1      17.534  -7.681   9.442  1.00  0.00    -0.001 A 
HETATM   19  C24 UNL     1      18.691  -7.704  10.414  1.00  0.00     0.010 C 
HETATM   20  C25 UNL     1      19.519  -6.417  10.585  1.00  0.00     0.034 C 
HETATM   21  C26 UNL     1      17.617  -8.167   8.005  1.00  0.00    -0.039 A 
HETATM   22  C27 UNL     1      16.539  -9.093   7.509  1.00  0.00     0.015 C 
HETATM   23  C28 UNL     1      18.970  -8.513   7.411  1.00  0.00     0.015 C 
ENDROOT
BRANCH  15  24
HETATM   24  C17 UNL     1      13.618  -5.716   8.931  1.00  0.00     0.014 C 
BRANCH  24  25
HETATM   25  C18 UNL     1      12.190  -6.261   8.711  1.00  0.00    -0.022 C 
HETATM   26  C19 UNL     1      11.339  -5.389   7.798  1.00  0.00     0.009 C 
HETATM   27  C20 UNL     1      11.457  -6.557  10.019  1.00  0.00     0.009 C 
ENDBRANCH  24  25
ENDBRANCH  15  24
BRANCH  13  28
HETATM   28  O5  UNL     1      13.583  -8.237   6.298  1.00  0.00    -0.359 OA
HETATM   29  H15 UNL     1      13.162  -8.782   5.594  1.00  0.00     0.217 HD
ENDBRANCH  13  28
BRANCH  10  30
HETATM   30  C10 UNL     1      14.536  -3.005   4.424  1.00  0.00     0.275 C 
HETATM   31  O2  UNL     1      13.716  -2.131   4.694  1.00  0.00    -0.301 OA
ENDBRANCH  10  30
BRANCH  12  32
HETATM   32  C13 UNL     1      12.878  -7.632   3.568  1.00  0.00     0.275 C 
HETATM   33  O4  UNL     1      12.049  -8.430   4.003  1.00  0.00    -0.301 OA
ENDBRANCH  12  32
BRANCH  11  34
HETATM   34  O3  UNL     1      13.376  -5.023   2.724  1.00  0.00    -0.359 OA
HETATM   35  H13 UNL     1      13.591  -4.074   2.561  1.00  0.00     0.217 HD
ENDBRANCH  11  34
TORSDOF 6
ENDMDL
