MODEL 1
REMARK minimizedAffinity -8.48419666
REMARK CNNscore 0.435577661
REMARK CNNaffinity 6.91738081
REMARK  9 active torsions:
REMARK  status: ('A' for Active; 'I' for Inactive)
REMARK    1  A    between atoms: C2_2  and  C3_3 
REMARK    2  A    between atoms: C2_2  and  C9_12 
REMARK    3  A    between atoms: C3_3  and  C4_4 
REMARK    4  A    between atoms: C4_4  and  C5_5 
REMARK    5  A    between atoms: C5_5  and  O1_6 
REMARK    6  A    between atoms: C5_5  and  C6_7 
REMARK    7  A    between atoms: C6_7  and  O2_9 
REMARK    8  A    between atoms: C6_7  and  C8_10 
REMARK    9  A    between atoms: C8_10  and  O3_11 
ROOT
HETATM    1  C9  UNL     1      -5.706   7.313  15.228  1.00  0.00    -0.002 C 
HETATM    2  C10 UNL     1      -5.986   8.568  14.349  1.00  0.00     0.007 C 
HETATM    3  C11 UNL     1      -4.745   8.811  13.473  1.00  0.00     0.015 C 
HETATM    4  C12 UNL     1      -3.637   7.952  14.107  1.00  0.00    -0.005 C 
HETATM    5  C13 UNL     1      -3.056   8.771  15.302  1.00  0.00     0.021 C 
HETATM    6  C14 UNL     1      -2.415   7.544  13.297  1.00  0.00    -0.000 C 
HETATM    7  C15 UNL     1      -1.752   6.381  13.515  1.00  0.00    -0.060 C 
HETATM    8  C16 UNL     1      -2.261   5.423  14.611  1.00  0.00     0.036 C 
HETATM    9  C17 UNL     1      -3.560   5.793  15.362  1.00  0.00     0.015 C 
HETATM   10  C18 UNL     1      -4.475   6.676  14.510  1.00  0.00    -0.028 C 
HETATM   11  C19 UNL     1      -4.970   5.850  13.280  1.00  0.00     0.016 C 
HETATM   12  C20 UNL     1      -0.544   5.888  12.649  1.00  0.00    -0.014 C 
HETATM   13  C21 UNL     1      -1.074   4.651  11.865  1.00  0.00     0.020 C 
HETATM   14  C22 UNL     1       0.642   5.415  13.539  1.00  0.00     0.021 C 
HETATM   15  C23 UNL     1       1.666   6.503  13.804  1.00  0.00     0.080 C 
HETATM   16  C24 UNL     1       2.333   6.918  12.513  1.00  0.00     0.135 C 
HETATM   17  O4  UNL     1       3.507   7.290  12.515  1.00  0.00    -0.297 OA
HETATM   18  C25 UNL     1       1.499   6.868  11.224  1.00  0.00     0.018 C 
HETATM   19  C26 UNL     1       1.868   5.580  10.463  1.00  0.00     0.023 C 
HETATM   20  C27 UNL     1       1.941   8.042  10.318  1.00  0.00     0.023 C 
HETATM   21  C28 UNL     1      -0.040   6.950  11.575  1.00  0.00     0.020 C 
HETATM   22  C29 UNL     1      -0.423   8.384  11.968  1.00  0.00     0.090 C 
HETATM   23  C30 UNL     1      -1.880   8.496  12.293  1.00  0.00     0.157 C 
HETATM   24  O5  UNL     1      -2.567   9.390  11.807  1.00  0.00    -0.293 OA
ENDROOT
BRANCH   1  25
HETATM   25  C2  UNL     1      -6.998   6.472  15.469  1.00  0.00    -0.014 C 
HETATM   26  C1  UNL     1      -6.761   5.315  16.444  1.00  0.00     0.010 C 
BRANCH  25  27
HETATM   27  C3  UNL     1      -8.142   7.387  15.998  1.00  0.00     0.007 C 
BRANCH  27  28
HETATM   28  C4  UNL     1      -9.058   7.935  14.893  1.00  0.00     0.035 C 
BRANCH  28  29
HETATM   29  C5  UNL     1     -10.212   7.005  14.469  1.00  0.00     0.154 C 
BRANCH  29  30
HETATM   30  O1  UNL     1      -9.641   5.870  13.803  1.00  0.00    -0.392 OA
HETATM   31  H10 UNL     1      -9.588   6.128  12.860  1.00  0.00     0.210 HD
ENDBRANCH  29  30
BRANCH  29  32
HETATM   32  C6  UNL     1     -11.326   7.613  13.574  1.00  0.00     0.101 C 
HETATM   33  C7  UNL     1     -12.671   6.926  13.864  1.00  0.00     0.051 C 
BRANCH  32  34
HETATM   34  O2  UNL     1     -11.022   7.324  12.194  1.00  0.00    -0.385 OA
HETATM   35  H14 UNL     1     -11.641   7.883  11.680  1.00  0.00     0.210 HD
ENDBRANCH  32  34
BRANCH  32  36
HETATM   36  C8  UNL     1     -11.451   9.140  13.738  1.00  0.00     0.204 C 
BRANCH  36  37
HETATM   37  O3  UNL     1     -11.672   9.740  12.457  1.00  0.00    -0.398 OA
HETATM   38  H17 UNL     1     -11.769  10.697  12.604  1.00  0.00     0.209 HD
ENDBRANCH  36  37
ENDBRANCH  32  36
ENDBRANCH  29  32
ENDBRANCH  28  29
ENDBRANCH  27  28
ENDBRANCH  25  27
ENDBRANCH   1  25
TORSDOF 9
ENDMDL
