MODEL 1
REMARK minimizedAffinity -6.42355871
REMARK CNNscore 0.47949934
REMARK CNNaffinity 6.44153261
REMARK  13 active torsions:
REMARK  status: ('A' for Active; 'I' for Inactive)
REMARK    1  A    between atoms: C2_2  and  C3_3 
REMARK    2  A    between atoms: C3_3  and  C4_4 
REMARK    3  A    between atoms: C4_4  and  C5_5 
REMARK    4  A    between atoms: C5_5  and  C6_6 
REMARK    5  A    between atoms: C6_6  and  C7_7 
REMARK    6  A    between atoms: C7_7  and  C8_8 
REMARK    7  A    between atoms: C8_8  and  C9_9 
REMARK    8  A    between atoms: C9_9  and  C10_10 
REMARK    9  A    between atoms: C10_10  and  C11_11 
REMARK   10  A    between atoms: C11_11  and  C12_12 
REMARK   11  A    between atoms: C12_12  and  C13_13 
REMARK   12  A    between atoms: C13_13  and  O2_15 
REMARK   13  A    between atoms: O2_15  and  C14_16 
ROOT
HETATM    1  C14 UNL     1      -7.114  47.928 -29.674  1.00  0.00     0.140 C 
HETATM    2  C15 UNL     1      -7.787  48.875 -30.694  1.00  0.00     0.034 C 
HETATM    3  C16 UNL     1      -8.478  47.974 -31.733  1.00  0.00     0.008 C 
HETATM    4  C17 UNL     1      -8.349  46.571 -31.148  1.00  0.00     0.001 C 
HETATM    5  C18 UNL     1      -8.514  45.362 -32.074  1.00  0.00    -0.004 C 
HETATM    6  C19 UNL     1      -9.883  45.365 -32.782  1.00  0.00     0.010 C 
HETATM    7  C20 UNL     1     -10.100  44.138 -33.678  1.00  0.00     0.035 C 
HETATM    8  C21 UNL     1      -8.977  43.141 -33.521  1.00  0.00    -0.068 C 
HETATM    9  C22 UNL     1      -8.274  42.760 -34.603  1.00  0.00     0.053 C 
HETATM   10  C23 UNL     1      -7.007  42.007 -34.466  1.00  0.00     0.149 C 
HETATM   11  O3  UNL     1      -6.445  41.573 -35.466  1.00  0.00    -0.293 OA
HETATM   12  C24 UNL     1      -6.406  41.911 -33.089  1.00  0.00     0.084 C 
HETATM   13  C25 UNL     1      -7.507  41.670 -32.069  1.00  0.00     0.022 C 
HETATM   14  C26 UNL     1      -8.634  42.744 -32.080  1.00  0.00    -0.016 C 
HETATM   15  C27 UNL     1      -9.869  42.037 -31.450  1.00  0.00     0.020 C 
HETATM   16  C28 UNL     1      -8.354  44.053 -31.229  1.00  0.00     0.002 C 
HETATM   17  C29 UNL     1      -7.060  44.056 -30.375  1.00  0.00     0.007 C 
HETATM   18  C30 UNL     1      -6.864  45.351 -29.563  1.00  0.00     0.012 C 
HETATM   19  C31 UNL     1      -6.976  46.599 -30.449  1.00  0.00    -0.013 C 
HETATM   20  C32 UNL     1      -5.760  46.657 -31.411  1.00  0.00     0.018 C 
ENDROOT
BRANCH   1  21
HETATM   21  O2  UNL     1      -5.845  48.418 -29.236  1.00  0.00    -0.315 OA
BRANCH  21  22
HETATM   22  C13 UNL     1      -5.473  48.040 -27.981  1.00  0.00     0.259 C 
HETATM   23  O1  UNL     1      -6.234  47.675 -27.096  1.00  0.00    -0.265 OA
BRANCH  22  24
HETATM   24  C12 UNL     1      -3.976  48.156 -27.824  1.00  0.00     0.111 C 
BRANCH  24  25
HETATM   25  C11 UNL     1      -3.578  48.532 -26.400  1.00  0.00     0.010 C 
BRANCH  25  26
HETATM   26  C10 UNL     1      -4.739  48.555 -25.397  1.00  0.00     0.000 C 
BRANCH  26  27
HETATM   27  C9  UNL     1      -4.337  48.577 -23.918  1.00  0.00     0.000 C 
BRANCH  27  28
HETATM   28  C8  UNL     1      -2.854  48.840 -23.636  1.00  0.00     0.000 C 
BRANCH  28  29
HETATM   29  C7  UNL     1      -2.455  50.315 -23.510  1.00  0.00     0.000 C 
BRANCH  29  30
HETATM   30  C6  UNL     1      -3.069  51.003 -22.289  1.00  0.00     0.000 C 
BRANCH  30  31
HETATM   31  C5  UNL     1      -2.251  50.803 -21.008  1.00  0.00     0.000 C 
BRANCH  31  32
HETATM   32  C4  UNL     1      -0.983  51.660 -20.963  1.00  0.00     0.000 C 
BRANCH  32  33
HETATM   33  C3  UNL     1      -0.194  51.415 -19.674  1.00  0.00    -0.000 C 
BRANCH  33  34
HETATM   34  C2  UNL     1       0.112  52.700 -18.899  1.00  0.00    -0.005 C 
HETATM   35  C1  UNL     1       1.028  52.482 -17.704  1.00  0.00     0.005 C 
ENDBRANCH  33  34
ENDBRANCH  32  33
ENDBRANCH  31  32
ENDBRANCH  30  31
ENDBRANCH  29  30
ENDBRANCH  28  29
ENDBRANCH  27  28
ENDBRANCH  26  27
ENDBRANCH  25  26
ENDBRANCH  24  25
ENDBRANCH  22  24
ENDBRANCH  21  22
ENDBRANCH   1  21
TORSDOF 13
ENDMDL
