MODEL 1
REMARK minimizedAffinity -9.57656097
REMARK CNNscore 0.466060221
REMARK CNNaffinity 7.19584227
REMARK  11 active torsions:
REMARK  status: ('A' for Active; 'I' for Inactive)
REMARK    1  A    between atoms: C2_2  and  C4_4 
REMARK    2  A    between atoms: C4_4  and  C6_6 
REMARK    3  A    between atoms: C7_7  and  C8_8 
REMARK    4  A    between atoms: C8_8  and  C10_10 
REMARK    5  A    between atoms: C24_24  and  O1_25 
REMARK    6  A    between atoms: O1_25  and  C25_26 
REMARK    7  A    between atoms: C26_28  and  C27_29 
REMARK    8  A    between atoms: C27_29  and  O3_30 
REMARK    9  A    between atoms: C28_31  and  O4_32 
REMARK   10  A    between atoms: C29_33  and  O5_34 
REMARK   11  A    between atoms: C30_35  and  O6_36 
ROOT
HETATM    1  C10 UNL     1      -6.061   4.419  13.787  1.00  0.00     0.001 C 
HETATM    2  C11 UNL     1      -5.625   3.688  12.479  1.00  0.00     0.006 C 
HETATM    3  C12 UNL     1      -4.188   4.124  12.172  1.00  0.00     0.009 C 
HETATM    4  C13 UNL     1      -3.770   4.905  13.410  1.00  0.00     0.036 C 
HETATM    5  C14 UNL     1      -5.069   5.629  13.848  1.00  0.00    -0.033 C 
HETATM    6  C15 UNL     1      -5.537   6.753  12.896  1.00  0.00     0.016 C 
HETATM    7  C16 UNL     1      -4.783   6.202  15.249  1.00  0.00     0.010 C 
HETATM    8  C17 UNL     1      -3.597   7.183  15.233  1.00  0.00     0.010 C 
HETATM    9  C18 UNL     1      -2.296   6.589  14.640  1.00  0.00     0.039 C 
HETATM   10  C19 UNL     1      -2.513   5.778  13.318  1.00  0.00     0.123 C 
HETATM   11  C20 UNL     1      -1.277   4.924  13.114  1.00  0.00     0.014 C 
HETATM   12  C21 UNL     1      -0.144   5.629  13.044  1.00  0.00     0.014 C 
HETATM   13  C22 UNL     1      -0.367   7.129  13.096  1.00  0.00     0.124 C 
HETATM   14  C23 UNL     1       0.952   7.875  12.904  1.00  0.00     0.078 C 
HETATM   15  C24 UNL     1       1.915   7.697  14.091  1.00  0.00     0.128 C 
HETATM   16  C31 UNL     1       1.246   7.160  15.367  1.00  0.00     0.033 C 
HETATM   17  C32 UNL     1      -0.156   7.718  15.612  1.00  0.00     0.015 C 
HETATM   18  C33 UNL     1      -1.116   7.626  14.389  1.00  0.00     0.001 C 
HETATM   19  C34 UNL     1      -1.663   9.067  14.160  1.00  0.00     0.019 C 
HETATM   20  O7  UNL     1      -1.248   7.370  11.972  1.00  0.00    -0.223 OA
HETATM   21  O8  UNL     1      -2.586   6.717  12.222  1.00  0.00    -0.224 OA
ENDROOT
BRANCH  15  22
HETATM   22  O1  UNL     1       2.517   8.978  14.318  1.00  0.00    -0.353 OA
BRANCH  22  23
HETATM   23  C25 UNL     1       3.931   9.005  14.084  1.00  0.00     0.292 C 
HETATM   24  O2  UNL     1       4.301   8.069  13.078  1.00  0.00    -0.348 OA
HETATM   25  C26 UNL     1       5.709   8.063  12.816  1.00  0.00     0.179 C 
HETATM   26  C28 UNL     1       6.498   7.688  14.084  1.00  0.00     0.180 C 
HETATM   27  C29 UNL     1       6.123   8.639  15.223  1.00  0.00     0.183 C 
HETATM   28  C30 UNL     1       4.609   8.651  15.419  1.00  0.00     0.204 C 
BRANCH  25  29
HETATM   29  C27 UNL     1       6.003   7.069  11.681  1.00  0.00     0.198 C 
BRANCH  29  30
HETATM   30  O3  UNL     1       6.138   5.730  12.152  1.00  0.00    -0.398 OA
HETATM   31  H41 UNL     1       5.467   5.602  12.859  1.00  0.00     0.209 HD
ENDBRANCH  29  30
ENDBRANCH  25  29
BRANCH  26  32
HETATM   32  O4  UNL     1       7.910   7.752  13.851  1.00  0.00    -0.390 OA
HETATM   33  H43 UNL     1       8.312   7.768  14.750  1.00  0.00     0.210 HD
ENDBRANCH  26  32
BRANCH  27  34
HETATM   34  O5  UNL     1       6.790   8.216  16.423  1.00  0.00    -0.390 OA
HETATM   35  H45 UNL     1       6.330   8.688  17.149  1.00  0.00     0.210 HD
ENDBRANCH  27  34
BRANCH  28  36
HETATM   36  O6  UNL     1       4.289   9.604  16.444  1.00  0.00    -0.388 OA
HETATM   37  H47 UNL     1       3.308   9.624  16.479  1.00  0.00     0.210 HD
ENDBRANCH  28  36
ENDBRANCH  22  23
ENDBRANCH  15  22
BRANCH   1  38
HETATM   38  C8  UNL     1      -7.596   4.674  13.835  1.00  0.00     0.008 C 
HETATM   39  C9  UNL     1      -8.226   4.780  12.443  1.00  0.00     0.014 C 
BRANCH  38  40
HETATM   40  C7  UNL     1      -7.902   5.885  14.712  1.00  0.00    -0.026 C 
HETATM   41  C6  UNL     1      -8.791   6.870  14.490  1.00  0.00    -0.026 C 
BRANCH  41  42
HETATM   42  C4  UNL     1      -9.069   8.064  15.393  1.00  0.00     0.007 C 
HETATM   43  C5  UNL     1      -8.988   7.753  16.895  1.00  0.00     0.014 C 
BRANCH  42  44
HETATM   44  C2  UNL     1     -10.388   8.778  14.975  1.00  0.00    -0.015 C 
HETATM   45  C1  UNL     1     -10.213  10.276  14.694  1.00  0.00     0.010 C 
HETATM   46  C3  UNL     1     -11.051   8.106  13.767  1.00  0.00     0.010 C 
ENDBRANCH  42  44
ENDBRANCH  41  42
ENDBRANCH  38  40
ENDBRANCH   1  38
TORSDOF 11
ENDMDL
