MODEL 1
REMARK minimizedAffinity -8.38861752
REMARK CNNscore 0.86647284
REMARK CNNaffinity 7.59513283
REMARK  11 active torsions:
REMARK  status: ('A' for Active; 'I' for Inactive)
REMARK    1  A    between atoms: C4_4  and  C5_5 
REMARK    2  A    between atoms: C5_5  and  C6_6 
REMARK    3  A    between atoms: C6_6  and  C7_7 
REMARK    4  A    between atoms: C9_9  and  C10_10 
REMARK    5  A    between atoms: C10_10  and  C11_11 
REMARK    6  A    between atoms: C11_11  and  C12_12 
REMARK    7  A    between atoms: C14_14  and  C15_15 
REMARK    8  A    between atoms: C15_15  and  C16_16 
REMARK    9  A    between atoms: C16_16  and  O1_17 
REMARK   10  A    between atoms: O1_17  and  C17_18 
REMARK   11  A    between atoms: C23_24  and  O2_25 
ROOT
HETATM    1  C16 UNL     1      -4.055  50.316 -19.920  1.00  0.00     0.175 C 
ENDROOT
BRANCH   1   2
HETATM    2  C15 UNL     1      -5.312  49.561 -20.391  1.00  0.00     0.054 C 
BRANCH   2   3
HETATM    3  C14 UNL     1      -5.106  48.910 -21.737  1.00  0.00    -0.022 C 
HETATM    4  C12 UNL     1      -5.376  49.430 -22.953  1.00  0.00    -0.087 C 
HETATM    5  C13 UNL     1      -5.869  50.833 -23.187  1.00  0.00     0.043 C 
BRANCH   4   6
HETATM    6  C11 UNL     1      -5.176  48.594 -24.204  1.00  0.00     0.037 C 
BRANCH   6   7
HETATM    7  C10 UNL     1      -3.694  48.318 -24.495  1.00  0.00     0.031 C 
BRANCH   7   8
HETATM    8  C9  UNL     1      -3.108  49.357 -25.420  1.00  0.00    -0.024 C 
HETATM    9  C7  UNL     1      -3.227  49.419 -26.761  1.00  0.00    -0.087 C 
HETATM   10  C8  UNL     1      -4.029  48.429 -27.571  1.00  0.00     0.043 C 
BRANCH   9  11
HETATM   11  C6  UNL     1      -2.583  50.501 -27.623  1.00  0.00     0.037 C 
BRANCH  11  12
HETATM   12  C5  UNL     1      -1.641  51.499 -26.931  1.00  0.00     0.031 C 
BRANCH  12  13
HETATM   13  C4  UNL     1      -0.321  51.603 -27.649  1.00  0.00    -0.024 C 
HETATM   14  C2  UNL     1       0.903  51.718 -27.097  1.00  0.00    -0.091 C 
HETATM   15  C1  UNL     1       1.164  51.844 -25.620  1.00  0.00     0.042 C 
HETATM   16  C3  UNL     1       2.137  51.748 -27.960  1.00  0.00     0.042 C 
ENDBRANCH  12  13
ENDBRANCH  11  12
ENDBRANCH   9  11
ENDBRANCH   7   8
ENDBRANCH   6   7
ENDBRANCH   4   6
ENDBRANCH   2   3
ENDBRANCH   1   2
BRANCH   1  17
HETATM   17  O1  UNL     1      -2.880  49.520 -20.092  1.00  0.00    -0.355 OA
BRANCH  17  18
HETATM   18  C17 UNL     1      -1.758  50.181 -20.713  1.00  0.00     0.166 C 
HETATM   19  C18 UNL     1      -0.779  49.041 -21.035  1.00  0.00     0.079 C 
HETATM   20  C19 UNL     1      -2.307  50.869 -21.967  1.00  0.00     0.073 C 
HETATM   21  C20 UNL     1      -1.204  51.576 -22.733  1.00  0.00     0.047 C 
HETATM   22  C21 UNL     1      -0.318  52.338 -21.794  1.00  0.00    -0.021 A 
HETATM   23  C22 UNL     1       0.551  53.312 -22.302  1.00  0.00     0.046 A 
HETATM   24  C27 UNL     1      -0.314  52.070 -20.417  1.00  0.00     0.085 A 
HETATM   25  C23 UNL     1       1.387  54.015 -21.445  1.00  0.00     0.066 A 
HETATM   26  C24 UNL     1       1.371  53.779 -20.072  1.00  0.00     0.046 A 
HETATM   27  C25 UNL     1       0.513  52.804 -19.545  1.00  0.00    -0.025 A 
HETATM   28  C26 UNL     1       0.493  52.538 -18.065  1.00  0.00     0.051 C 
HETATM   29  O3  UNL     1      -1.102  51.110 -19.839  1.00  0.00    -0.314 OA
BRANCH  25  30
HETATM   30  O2  UNL     1       2.230  54.938 -21.998  1.00  0.00    -0.361 OA
HETATM   31  H36 UNL     1       2.774  55.317 -21.287  1.00  0.00     0.217 HD
ENDBRANCH  25  30
ENDBRANCH  17  18
ENDBRANCH   1  17
TORSDOF 11
ENDMDL
