MODEL 1
REMARK minimizedAffinity -9.24662113
REMARK CNNscore 0.241445109
REMARK CNNaffinity 6.92521048
REMARK  11 active torsions:
REMARK  status: ('A' for Active; 'I' for Inactive)
REMARK       I    between atoms: N1_1  and  C1_2 
REMARK       I    between atoms: C1_2  and  N2_3 
REMARK    1  A    between atoms: N3_4  and  C2_6 
REMARK    2  A    between atoms: C2_6  and  C3_7 
REMARK    3  A    between atoms: C3_7  and  C4_8 
REMARK    4  A    between atoms: C4_8  and  C5_9 
REMARK    5  A    between atoms: C4_8  and  C6_11 
REMARK    6  A    between atoms: C5_9  and  O1_10 
REMARK    7  A    between atoms: C6_11  and  C7_12 
REMARK    8  A    between atoms: C21_27  and  S1_28 
REMARK    9  A    between atoms: C30_40  and  C31_41 
REMARK   10  A    between atoms: C31_41  and  O6_42 
REMARK   11  A    between atoms: C37_48  and  O7_49 
ROOT
HETATM    1  C2  UNL     1      -1.234  10.227  15.635  1.00  0.00     0.171 C 
HETATM    2  O2  UNL     1      -2.417  11.090  15.782  1.00  0.00    -0.316 OA
HETATM    3  C13 UNL     1      -2.254  12.270  16.452  1.00  0.00     0.072 C 
HETATM    4  C14 UNL     1      -1.650  13.365  15.844  1.00  0.00     0.037 C 
HETATM    5  C15 UNL     1      -1.304  14.467  16.623  1.00  0.00     0.010 C 
HETATM    6  C16 UNL     1      -1.568  14.478  18.000  1.00  0.00    -0.058 C 
HETATM    7  C17 UNL     1      -2.302  13.428  18.564  1.00  0.00     0.010 C 
HETATM    8  C18 UNL     1      -2.668  12.334  17.783  1.00  0.00     0.037 C 
HETATM    9  C19 UNL     1      -0.978  15.558  18.876  1.00  0.00     0.040 C 
HETATM   10  C20 UNL     1       0.308  15.120  19.606  1.00  0.00     0.028 C 
HETATM   11  C21 UNL     1       1.518  14.710  18.728  1.00  0.00     0.140 C 
HETATM   12  C22 UNL     1       2.659  13.973  19.523  1.00  0.00     0.053 C 
HETATM   13  C23 UNL     1       2.827  14.474  20.951  1.00  0.00    -0.013 C 
HETATM   14  C24 UNL     1       2.682  13.662  22.014  1.00  0.00    -0.050 C 
HETATM   15  C25 UNL     1       2.088  12.308  21.829  1.00  0.00     0.043 C 
HETATM   16  C26 UNL     1       2.949  11.633  20.785  1.00  0.00     0.016 C 
HETATM   17  C27 UNL     1       4.408  11.454  21.309  1.00  0.00     0.039 C 
HETATM   18  C28 UNL     1       5.197  12.632  21.970  1.00  0.00     0.123 C 
HETATM   19  C29 UNL     1       6.640  12.086  22.193  1.00  0.00     0.039 C 
HETATM   20  C30 UNL     1       7.658  12.976  22.946  1.00  0.00     0.023 C 
HETATM   21  C32 UNL     1       7.886  14.338  22.258  1.00  0.00     0.101 C 
HETATM   22  C33 UNL     1       6.814  15.249  22.653  1.00  0.00    -0.101 C 
HETATM   23  C34 UNL     1       5.817  15.761  23.078  1.00  0.00    -0.066 C 
HETATM   24  C35 UNL     1       4.587  16.164  23.671  1.00  0.00     0.029 A 
HETATM   25  C36 UNL     1       4.493  17.488  24.125  1.00  0.00     0.057 A 
HETATM   26  C37 UNL     1       3.325  17.934  24.731  1.00  0.00     0.067 A 
HETATM   27  C38 UNL     1       2.248  17.082  24.900  1.00  0.00     0.037 A 
HETATM   28  C39 UNL     1       2.338  15.766  24.444  1.00  0.00     0.014 A 
HETATM   29  C40 UNL     1       3.509  15.273  23.819  1.00  0.00    -0.006 A 
HETATM   30  C41 UNL     1       3.454  13.832  23.294  1.00  0.00     0.185 C 
HETATM   31  O8  UNL     1       4.679  13.051  23.256  1.00  0.00    -0.371 OA
HETATM   32  C42 UNL     1       2.807  12.383  19.405  1.00  0.00     0.104 A 
HETATM   33  C43 UNL     1       1.825  11.696  18.447  1.00  0.00     0.082 A 
HETATM   34  C44 UNL     1       2.006  11.857  17.064  1.00  0.00     0.010 A 
HETATM   35  C45 UNL     1       1.075  11.353  16.145  1.00  0.00     0.011 A 
HETATM   36  C46 UNL     1      -0.053  10.634  16.573  1.00  0.00    -0.003 A 
HETATM   37  C47 UNL     1      -0.163  10.377  17.951  1.00  0.00     0.011 A 
HETATM   38  C48 UNL     1       0.737  10.927  18.872  1.00  0.00     0.010 A 
HETATM   39 NA1  UNL     1       1.052  12.423  18.352  1.00  0.00    -0.398 Na
ATOM     40  HA1 UNL     1       0.172  12.813  18.016  1.00  0.00     0.155 HD
ENDROOT
BRANCH   1  41
HETATM   41  N3  UNL     1      -1.470   8.780  15.888  1.00  0.00    -0.336 N 
HETATM   42  C1  UNL     1      -2.574   8.338  16.343  1.00  0.00     0.124 C 
HETATM   43  N1  UNL     1      -3.729   8.972  16.636  1.00  0.00    -0.279 NA
HETATM   44  N2  UNL     1      -2.719   7.015  16.581  1.00  0.00    -0.279 NA
HETATM   45  H1  UNL     1      -3.623   9.987  16.613  1.00  0.00     0.126 HD
HETATM   46  H2  UNL     1      -4.106   8.682  17.531  1.00  0.00     0.126 HD
HETATM   47  H3  UNL     1      -1.935   6.508  16.180  1.00  0.00     0.126 HD
HETATM   48  H4  UNL     1      -3.599   6.662  16.231  1.00  0.00     0.126 HD
ATOM     49  H3  UNL     1      -0.720   8.118  15.690  1.00  0.00     0.165 HD
ENDBRANCH   1  41
BRANCH   1  50
HETATM   50  C3  UNL     1      -0.809  10.297  14.125  1.00  0.00     0.074 C 
BRANCH  50  51
HETATM   51  C4  UNL     1      -0.884   8.984  13.294  1.00  0.00     0.018 C 
BRANCH  51  52
HETATM   52  C5  UNL     1       0.422   8.827  12.484  1.00  0.00     0.169 C 
BRANCH  52  53
HETATM   53  O1  UNL     1       1.463   9.668  12.969  1.00  0.00    -0.400 OA
HETATM   54  H10 UNL     1       1.731   9.335  13.843  1.00  0.00     0.209 HD
ENDBRANCH  52  53
ENDBRANCH  51  52
BRANCH  51  55
HETATM   55  C6  UNL     1      -2.119   8.945  12.367  1.00  0.00     0.045 C 
BRANCH  55  56
HETATM   56  C7  UNL     1      -3.186   7.976  12.826  1.00  0.00    -0.058 A 
HETATM   57  C8  UNL     1      -2.893   6.614  12.975  1.00  0.00     0.007 A 
HETATM   58  C9  UNL     1      -3.881   5.719  13.386  1.00  0.00     0.001 A 
HETATM   59  C10 UNL     1      -5.170   6.175  13.652  1.00  0.00     0.000 A 
HETATM   60  C11 UNL     1      -5.471   7.528  13.509  1.00  0.00     0.001 A 
HETATM   61  C12 UNL     1      -4.485   8.426  13.097  1.00  0.00     0.007 A 
ENDBRANCH  55  56
ENDBRANCH  51  55
ENDBRANCH  50  51
ENDBRANCH   1  50
BRANCH  11  62
HETATM   62  S1  UNL     1       2.245  16.126  17.838  1.00  0.00     0.106 S 
HETATM   63  O3  UNL     1       1.546  16.113  16.552  1.00  0.00    -0.595 OA
HETATM   64  O4  UNL     1       3.669  15.812  17.765  1.00  0.00    -0.595 OA
HETATM   65  O5  UNL     1       1.925  17.296  18.652  1.00  0.00    -0.595 OA
ENDBRANCH  11  62
BRANCH  20  66
HETATM   66  C31 UNL     1       8.995  12.231  23.091  1.00  0.00     0.169 C 
BRANCH  66  67
HETATM   67  O6  UNL     1       9.397  11.657  21.855  1.00  0.00    -0.400 OA
HETATM   68  H40 UNL     1      10.207  11.149  22.026  1.00  0.00     0.209 HD
ENDBRANCH  66  67
ENDBRANCH  20  66
BRANCH  26  69
HETATM   69  O7  UNL     1       3.202  19.217  25.176  1.00  0.00    -0.361 OA
HETATM   70  H44 UNL     1       3.950  19.728  24.819  1.00  0.00     0.217 HD
ENDBRANCH  26  69
TORSDOF 11
ENDMDL
