MODEL 1
REMARK minimizedAffinity -6.49768543
REMARK CNNscore 0.561644375
REMARK CNNaffinity 6.68019438
REMARK  14 active torsions:
REMARK  status: ('A' for Active; 'I' for Inactive)
REMARK    1  A    between atoms: C2_2  and  C30_34 
REMARK    2  A    between atoms: C3_3  and  C4_4 
REMARK    3  A    between atoms: C4_4  and  C5_5 
REMARK    4  A    between atoms: C5_5  and  C6_6 
REMARK    5  A    between atoms: C6_6  and  C8_8 
REMARK    6  A    between atoms: C16_16  and  C17_17 
REMARK    7  A    between atoms: C17_17  and  O1_19 
REMARK    8  A    between atoms: C17_17  and  C19_20 
REMARK    9  A    between atoms: C19_20  and  O2_21 
REMARK   10  A    between atoms: C20_22  and  C21_23 
REMARK   11  A    between atoms: C21_23  and  C22_24 
REMARK   12  A    between atoms: C22_24  and  C23_25 
REMARK   13  A    between atoms: C23_25  and  O4_27 
REMARK   14  A    between atoms: C30_34  and  O5_35 
ROOT
HETATM    1  C8  UNL     1      -4.405   7.026  15.358  1.00  0.00    -0.002 C 
HETATM    2  C9  UNL     1      -3.174   6.116  15.279  1.00  0.00     0.006 C 
HETATM    3  C10 UNL     1      -2.032   7.092  15.488  1.00  0.00     0.011 C 
HETATM    4  C11 UNL     1      -2.376   8.296  14.569  1.00  0.00    -0.032 C 
HETATM    5  C12 UNL     1      -1.756   7.974  13.181  1.00  0.00     0.016 C 
HETATM    6  C13 UNL     1      -1.689   9.587  15.127  1.00  0.00     0.004 C 
HETATM    7  C14 UNL     1      -1.765  10.821  14.154  1.00  0.00     0.007 C 
HETATM    8  C15 UNL     1      -1.559  12.248  14.748  1.00  0.00     0.009 C 
HETATM    9  C16 UNL     1      -1.883  12.408  16.267  1.00  0.00     0.031 C 
HETATM   10  C20 UNL     1      -1.258  11.185  16.951  1.00  0.00    -0.025 A 
HETATM   11  C24 UNL     1      -1.718  10.108  17.876  1.00  0.00     0.021 A 
HETATM   12  C25 UNL     1      -2.236  10.014  16.476  1.00  0.00    -0.027 A 
HETATM   13  C26 UNL     1      -3.762   9.937  16.595  1.00  0.00     0.011 C 
HETATM   14  C27 UNL     1      -4.499   9.603  15.307  1.00  0.00     0.011 C 
HETATM   15  C28 UNL     1      -3.978   8.336  14.571  1.00  0.00    -0.032 C 
HETATM   16  C29 UNL     1      -4.562   8.400  13.147  1.00  0.00     0.016 C 
ENDROOT
BRANCH   1  17
HETATM   17  C6  UNL     1      -5.731   6.248  15.090  1.00  0.00    -0.014 C 
HETATM   18  C7  UNL     1      -6.048   5.932  13.624  1.00  0.00     0.010 C 
BRANCH  17  19
HETATM   19  C5  UNL     1      -6.984   6.851  15.765  1.00  0.00     0.008 C 
BRANCH  19  20
HETATM   20  C4  UNL     1      -7.691   7.916  14.917  1.00  0.00     0.028 C 
BRANCH  20  21
HETATM   21  C3  UNL     1      -9.185   7.779  15.019  1.00  0.00    -0.022 C 
HETATM   22  C2  UNL     1     -10.012   7.054  14.237  1.00  0.00    -0.064 C 
HETATM   23  C1  UNL     1      -9.588   6.240  13.044  1.00  0.00     0.045 C 
BRANCH  22  24
HETATM   24  C30 UNL     1     -11.498   7.041  14.498  1.00  0.00     0.197 C 
BRANCH  24  25
HETATM   25  O5  UNL     1     -11.777   7.876  15.611  1.00  0.00    -0.397 OA
HETATM   26  H50 UNL     1     -11.387   8.744  15.405  1.00  0.00     0.209 HD
ENDBRANCH  24  25
ENDBRANCH  22  24
ENDBRANCH  20  21
ENDBRANCH  19  20
ENDBRANCH  17  19
ENDBRANCH   1  17
BRANCH  10  27
HETATM   27  C21 UNL     1       0.295  11.116  16.867  1.00  0.00     0.021 C 
BRANCH  27  28
HETATM   28  C22 UNL     1       0.980  11.080  18.239  1.00  0.00     0.111 C 
BRANCH  28  29
HETATM   29  C23 UNL     1       2.289  10.343  18.172  1.00  0.00     0.139 C 
HETATM   30  O3  UNL     1       3.370  10.698  18.610  1.00  0.00    -0.650 OA
BRANCH  29  31
HETATM   31  O4  UNL     1       2.173   9.177  17.505  1.00  0.00    -0.776 OA
HETATM   32  H38 UNL     1       3.077   8.802  17.517  1.00  0.00     0.167 HD
ENDBRANCH  29  31
ENDBRANCH  28  29
ENDBRANCH  27  28
ENDBRANCH  10  27
BRANCH   9  33
HETATM   33  C17 UNL     1      -1.524  13.802  16.865  1.00  0.00     0.080 C 
HETATM   34  C18 UNL     1      -1.618  13.756  18.401  1.00  0.00     0.048 C 
BRANCH  33  35
HETATM   35  O1  UNL     1      -0.196  14.187  16.494  1.00  0.00    -0.388 OA
HETATM   36  H30 UNL     1       0.021  15.021  16.948  1.00  0.00     0.210 HD
ENDBRANCH  33  35
BRANCH  33  37
HETATM   37  C19 UNL     1      -2.479  14.906  16.336  1.00  0.00     0.201 C 
BRANCH  37  38
HETATM   38  O2  UNL     1      -3.847  14.523  16.339  1.00  0.00    -0.398 OA
HETATM   39  H33 UNL     1      -4.162  14.534  17.258  1.00  0.00     0.209 HD
ENDBRANCH  37  38
ENDBRANCH  33  37
ENDBRANCH   9  33
TORSDOF 14
ENDMDL
