MODEL 1
REMARK minimizedAffinity -8.19101524
REMARK CNNscore 0.453492016
REMARK CNNaffinity 6.2647109
REMARK  9 active torsions:
REMARK  status: ('A' for Active; 'I' for Inactive)
REMARK    1  A    between atoms: C7_8  and  O1_9 
REMARK    2  A    between atoms: O1_9  and  C8_10 
REMARK    3  A    between atoms: C8_10  and  C9_11 
REMARK       I    between atoms: C9_11  and  N1_13 
REMARK    4  A    between atoms: N1_13  and  N2_14 
REMARK    5  A    between atoms: C10_16  and  C11_17 
REMARK    6  A    between atoms: C14_20  and  O3_21 
REMARK    7  A    between atoms: C16_23  and  O4_24 
REMARK    8  A    between atoms: C25_33  and  C26_34 
REMARK    9  A    between atoms: C32_42  and  O7_43 
ROOT
HETATM    1  C11 UNL     1      -1.195  11.263  17.376  1.00  0.00     0.028 C 
HETATM    2  C12 UNL     1      -2.242  10.465  18.215  1.00  0.00     0.021 C 
HETATM    3  C13 UNL     1      -3.623  10.332  17.557  1.00  0.00     0.033 C 
HETATM    4  C14 UNL     1      -3.602  10.473  16.041  1.00  0.00     0.121 C 
HETATM    5  C15 UNL     1      -2.941  11.777  15.563  1.00  0.00     0.070 C 
HETATM    6  C16 UNL     1      -1.947  12.378  16.585  1.00  0.00     0.073 C 
HETATM    7  C17 UNL     1      -0.999  13.371  15.892  1.00  0.00     0.039 C 
HETATM    8  C18 UNL     1       0.042  13.962  16.847  1.00  0.00     0.011 C 
HETATM    9  C19 UNL     1       0.841  12.873  17.591  1.00  0.00     0.026 C 
HETATM   10  C20 UNL     1      -0.105  11.884  18.325  1.00  0.00     0.009 C 
HETATM   11  C21 UNL     1       0.676  10.833  19.149  1.00  0.00     0.007 C 
HETATM   12  C22 UNL     1       2.188  10.910  18.975  1.00  0.00     0.013 C 
HETATM   13  C23 UNL     1       2.830  12.311  19.163  1.00  0.00    -0.005 C 
HETATM   14  C24 UNL     1       4.230  12.228  18.502  1.00  0.00     0.019 C 
HETATM   15  C25 UNL     1       3.008  12.773  20.646  1.00  0.00     0.028 C 
HETATM   16  C30 UNL     1       1.695  13.461  21.001  1.00  0.00     0.013 C 
HETATM   17  C31 UNL     1       1.358  14.249  19.744  1.00  0.00     0.040 C 
HETATM   18  C32 UNL     1       1.928  13.447  18.545  1.00  0.00     0.070 C 
ENDROOT
BRANCH   1  19
HETATM   19  C10 UNL     1      -0.459  10.346  16.378  1.00  0.00     0.093 C 
HETATM   20  N2  UNL     1      -0.222  10.711  15.162  1.00  0.00    -0.312 N 
ATOM     21  H2  UNL     1      -0.491  11.633  14.817  1.00  0.00     0.185 HD
BRANCH  20  22
HETATM   22  N1  UNL     1       0.407   9.805  14.361  1.00  0.00    -0.269 N 
HETATM   23  C9  UNL     1      -0.258   9.327  13.231  1.00  0.00     0.260 C 
HETATM   24  O2  UNL     1      -1.391   9.660  12.894  1.00  0.00    -0.269 OA
HETATM   25  H9  UNL     1       1.299   9.414  14.644  1.00  0.00     0.190 HD
BRANCH  23  26
HETATM   26  C8  UNL     1       0.584   8.312  12.446  1.00  0.00     0.280 C 
BRANCH  26  27
HETATM   27  O1  UNL     1       1.316   8.810  11.340  1.00  0.00    -0.342 OA
BRANCH  27  28
HETATM   28  C7  UNL     1       1.815   7.916  10.430  1.00  0.00     0.075 A 
HETATM   29  C2  UNL     1       1.109   7.834   9.212  1.00  0.00    -0.027 A 
HETATM   30  C1  UNL     1      -0.094   8.701   8.960  1.00  0.00     0.051 C 
HETATM   31  C3  UNL     1       1.533   6.932   8.223  1.00  0.00     0.033 A 
HETATM   32  C4  UNL     1       2.648   6.128   8.440  1.00  0.00     0.034 A 
HETATM   33 CL1  UNL     1       3.161   5.024   7.224  1.00  0.00    -0.084 Cl
HETATM   34  C5  UNL     1       3.349   6.209   9.640  1.00  0.00     0.026 A 
HETATM   35  C6  UNL     1       2.933   7.100  10.635  1.00  0.00     0.039 A 
ENDBRANCH  27  28
ENDBRANCH  26  27
ENDBRANCH  23  26
ENDBRANCH  20  22
ENDBRANCH   1  19
BRANCH   6  36
HETATM   36  O4  UNL     1      -2.761  13.161  17.481  1.00  0.00    -0.389 OA
HETATM   37  H19 UNL     1      -2.225  13.516  18.208  1.00  0.00     0.210 HD
ENDBRANCH   6  36
BRANCH   4  38
HETATM   38  O3  UNL     1      -4.940  10.406  15.552  1.00  0.00    -0.395 OA
HETATM   39  H16 UNL     1      -4.904  10.419  14.582  1.00  0.00     0.210 HD
ENDBRANCH   4  38
BRANCH  18  40
HETATM   40  O7  UNL     1       2.754  14.340  17.789  1.00  0.00    -0.389 OA
HETATM   41  H41 UNL     1       2.280  15.178  17.655  1.00  0.00     0.210 HD
ENDBRANCH  18  40
BRANCH  15  42
HETATM   42  C26 UNL     1       3.491  11.776  21.658  1.00  0.00    -0.045 A 
HETATM   43  C27 UNL     1       2.708  11.071  22.476  1.00  0.00     0.087 A 
HETATM   44  C28 UNL     1       3.573  10.190  23.257  1.00  0.00     0.283 A 
HETATM   45  O5  UNL     1       3.184   9.409  24.105  1.00  0.00    -0.260 OA
HETATM   46  O6  UNL     1       4.863  10.384  22.876  1.00  0.00    -0.314 OA
HETATM   47  C29 UNL     1       4.906  11.375  21.847  1.00  0.00     0.213 A 
ENDBRANCH  15  42
TORSDOF 9
ENDMDL
