MODEL 1
REMARK minimizedAffinity -10.1497288
REMARK  7 active torsions:
REMARK  status: ('A' for Active; 'I' for Inactive)
REMARK    1  A    between atoms: C2_2  and  C4_4 
REMARK    2  A    between atoms: C7_7  and  C8_8 
REMARK    3  A    between atoms: C8_8  and  O2_10 
REMARK    4  A    between atoms: C15_17  and  O3_18 
REMARK    5  A    between atoms: C21_24  and  O4_25 
REMARK    6  A    between atoms: C22_26  and  C24_28 
REMARK    7  A    between atoms: C24_28  and  O5_29 
ROOT
HETATM    1  C4  UNL     1       0.215  51.478 -16.800  1.00  0.00     0.019 C 
HETATM    2  C5  UNL     1       0.100  50.692 -15.466  1.00  0.00     0.011 C 
HETATM    3  C6  UNL     1      -0.589  49.357 -15.793  1.00  0.00     0.021 C 
HETATM    4  C7  UNL     1      -1.340  49.636 -17.098  1.00  0.00     0.050 C 
HETATM    5  C9  UNL     1      -1.691  48.398 -17.932  1.00  0.00     0.022 C 
HETATM    6  C10 UNL     1      -2.222  48.809 -19.321  1.00  0.00     0.011 C 
HETATM    7  C11 UNL     1      -1.275  49.760 -20.137  1.00  0.00    -0.032 C 
HETATM    8  C12 UNL     1      -0.043  48.875 -20.532  1.00  0.00     0.016 C 
HETATM    9  C13 UNL     1      -0.813  50.960 -19.223  1.00  0.00     0.003 C 
HETATM   10  C14 UNL     1       0.155  51.876 -19.971  1.00  0.00     0.038 C 
HETATM   11  C15 UNL     1      -0.392  52.404 -21.306  1.00  0.00     0.124 C 
HETATM   12  C16 UNL     1      -0.962  51.296 -22.248  1.00  0.00     0.032 C 
HETATM   13  C17 UNL     1      -1.437  51.769 -23.717  1.00  0.00    -0.033 C 
HETATM   14  C18 UNL     1      -2.553  52.838 -23.633  1.00  0.00     0.016 C 
HETATM   15  C19 UNL     1      -0.242  52.416 -24.487  1.00  0.00     0.012 C 
HETATM   16  C20 UNL     1      -0.466  52.619 -25.988  1.00  0.00     0.033 C 
HETATM   17  C21 UNL     1      -0.865  51.333 -26.698  1.00  0.00     0.128 C 
HETATM   18  C22 UNL     1      -2.111  50.639 -26.070  1.00  0.00     0.007 C 
HETATM   19  C23 UNL     1      -3.378  51.456 -26.396  1.00  0.00     0.020 C 
HETATM   20  C25 UNL     1      -1.860  50.466 -24.516  1.00  0.00     0.007 C 
HETATM   21  C26 UNL     1      -2.960  49.688 -23.774  1.00  0.00     0.007 C 
HETATM   22  C27 UNL     1      -2.489  49.237 -22.391  1.00  0.00     0.011 C 
HETATM   23  C28 UNL     1      -1.998  50.375 -21.460  1.00  0.00    -0.030 C 
HETATM   24  C29 UNL     1      -3.264  51.187 -21.043  1.00  0.00     0.016 C 
HETATM   25  C30 UNL     1      -0.275  50.462 -17.860  1.00  0.00     0.017 C 
ENDROOT
BRANCH   4  26
HETATM   26  C8  UNL     1      -2.631  50.387 -16.732  1.00  0.00     0.149 C 
HETATM   27  O1  UNL     1      -3.067  51.410 -17.230  1.00  0.00    -0.649 OA
BRANCH  26  28
HETATM   28  O2  UNL     1      -3.303  49.811 -15.714  1.00  0.00    -0.776 OA
HETATM   29  H11 UNL     1      -4.081  50.394 -15.586  1.00  0.00     0.167 HD
ENDBRANCH  26  28
ENDBRANCH   4  26
BRANCH   1  30
HETATM   30  C2  UNL     1       1.601  52.090 -16.934  1.00  0.00    -0.088 C 
HETATM   31  C1  UNL     1       2.629  51.868 -16.098  1.00  0.00     0.014 C 
HETATM   32  C3  UNL     1       1.769  53.018 -18.111  1.00  0.00     0.043 C 
ENDBRANCH   1  30
BRANCH  11  33
HETATM   33  O3  UNL     1       0.686  53.114 -21.913  1.00  0.00    -0.395 OA
HETATM   34  H23 UNL     1       1.402  52.477 -22.085  1.00  0.00     0.210 HD
ENDBRANCH  11  33
BRANCH  18  35
HETATM   35  C24 UNL     1      -2.239  49.244 -26.768  1.00  0.00     0.176 C 
BRANCH  35  36
HETATM   36  O5  UNL     1      -3.232  49.206 -27.791  1.00  0.00    -0.400 OA
HETATM   37  H39 UNL     1      -2.869  49.656 -28.572  1.00  0.00     0.209 HD
ENDBRANCH  35  36
ENDBRANCH  18  35
BRANCH  17  38
HETATM   38  O4  UNL     1       0.254  50.440 -26.670  1.00  0.00    -0.395 OA
HETATM   39  H33 UNL     1       1.012  50.902 -27.069  1.00  0.00     0.210 HD
ENDBRANCH  17  38
TORSDOF 7
ENDMDL
