MODEL 1
REMARK minimizedAffinity -9.87531471
REMARK  7 active torsions:
REMARK  status: ('A' for Active; 'I' for Inactive)
REMARK    1  A    between atoms: C2_2  and  C30_33 
REMARK    2  A    between atoms: C3_3  and  C4_4 
REMARK    3  A    between atoms: C4_4  and  C5_5 
REMARK    4  A    between atoms: C5_5  and  C6_6 
REMARK    5  A    between atoms: C6_6  and  C8_8 
REMARK    6  A    between atoms: C10_10  and  O1_11 
REMARK    7  A    between atoms: C30_33  and  O5_35 
ROOT
HETATM    1  C8  UNL     1      -3.383  49.871 -24.369  1.00  0.00     0.001 C 
HETATM    2  C9  UNL     1      -4.911  49.838 -24.108  1.00  0.00     0.038 C 
HETATM    3  C10 UNL     1      -5.096  49.937 -22.574  1.00  0.00     0.131 C 
HETATM    4  C11 UNL     1      -3.717  50.412 -22.036  1.00  0.00     0.014 C 
HETATM    5  C12 UNL     1      -3.632  51.964 -22.200  1.00  0.00     0.023 C 
HETATM    6  C13 UNL     1      -3.322  50.155 -20.583  1.00  0.00    -0.058 C 
HETATM    7  C14 UNL     1      -2.016  50.064 -20.215  1.00  0.00    -0.000 C 
HETATM    8  C15 UNL     1      -0.943  50.092 -21.302  1.00  0.00     0.157 C 
HETATM    9  O2  UNL     1       0.252  50.128 -21.013  1.00  0.00    -0.293 OA
HETATM   10  C16 UNL     1      -1.339  50.081 -22.775  1.00  0.00     0.094 C 
HETATM   11  C17 UNL     1      -2.768  49.581 -22.967  1.00  0.00    -0.019 C 
HETATM   12  C18 UNL     1      -2.779  48.051 -22.668  1.00  0.00     0.017 C 
HETATM   13  C19 UNL     1      -1.558  49.918 -18.741  1.00  0.00    -0.008 C 
HETATM   14  C20 UNL     1      -1.071  48.458 -18.580  1.00  0.00     0.021 C 
HETATM   15  C21 UNL     1      -0.378  50.885 -18.399  1.00  0.00     0.022 C 
HETATM   16  C22 UNL     1      -0.296  51.359 -16.949  1.00  0.00     0.080 C 
HETATM   17  C23 UNL     1      -0.944  50.387 -15.995  1.00  0.00     0.135 C 
HETATM   18  O3  UNL     1      -0.323  49.934 -15.035  1.00  0.00    -0.297 OA
HETATM   19  C24 UNL     1      -2.424  50.078 -16.239  1.00  0.00     0.018 C 
HETATM   20  C25 UNL     1      -2.761  48.676 -15.698  1.00  0.00     0.023 C 
HETATM   21  C26 UNL     1      -3.228  51.098 -15.405  1.00  0.00     0.023 C 
HETATM   22  C27 UNL     1      -2.741  50.276 -17.763  1.00  0.00     0.014 C 
HETATM   23  C28 UNL     1      -4.047  49.607 -18.204  1.00  0.00     0.011 C 
HETATM   24  C29 UNL     1      -4.457  50.089 -19.590  1.00  0.00     0.036 C 
ENDROOT
BRANCH   1  25
HETATM   25  C6  UNL     1      -2.857  49.063 -25.591  1.00  0.00    -0.013 C 
HETATM   26  C7  UNL     1      -3.929  48.307 -26.387  1.00  0.00     0.010 C 
BRANCH  25  27
HETATM   27  C5  UNL     1      -2.076  50.017 -26.535  1.00  0.00     0.008 C 
BRANCH  27  28
HETATM   28  C4  UNL     1      -1.120  50.968 -25.808  1.00  0.00     0.028 C 
BRANCH  28  29
HETATM   29  C3  UNL     1       0.248  50.947 -26.434  1.00  0.00    -0.013 C 
HETATM   30  C2  UNL     1       0.850  51.907 -27.166  1.00  0.00     0.008 C 
HETATM   31  C1  UNL     1       2.193  51.687 -27.802  1.00  0.00     0.055 C 
BRANCH  30  32
HETATM   32  C30 UNL     1       0.276  53.244 -27.444  1.00  0.00     0.171 C 
HETATM   33  O4  UNL     1       0.305  54.194 -26.682  1.00  0.00    -0.646 OA
BRANCH  32  34
HETATM   34  O5  UNL     1      -0.391  53.311 -28.607  1.00  0.00    -0.773 OA
HETATM   35  H44 UNL     1      -0.736  54.227 -28.616  1.00  0.00     0.167 HD
ENDBRANCH  32  34
ENDBRANCH  30  32
ENDBRANCH  28  29
ENDBRANCH  27  28
ENDBRANCH  25  27
ENDBRANCH   1  25
BRANCH   3  36
HETATM   36  O1  UNL     1      -6.160  50.820 -22.250  1.00  0.00    -0.394 OA
HETATM   37  H17 UNL     1      -6.961  50.487 -22.690  1.00  0.00     0.210 HD
ENDBRANCH   3  36
TORSDOF 7
ENDMDL
