MODEL 1
REMARK minimizedAffinity -7.32274294
REMARK CNNscore 0.542354703
REMARK CNNaffinity 6.6295085
REMARK  7 active torsions:
REMARK  status: ('A' for Active; 'I' for Inactive)
REMARK    1  A    between atoms: C2_2  and  C3_3 
REMARK    2  A    between atoms: C2_2  and  C9_11 
REMARK    3  A    between atoms: C3_3  and  C4_4 
REMARK    4  A    between atoms: C5_5  and  C6_6 
REMARK    5  A    between atoms: C6_6  and  O1_9 
REMARK    6  A    between atoms: O1_9  and  O2_10 
REMARK    7  A    between atoms: C10_12  and  O3_13 
ROOT
HETATM    1  C9  UNL     1      -1.047   7.441  13.654  1.00  0.00     0.028 C 
HETATM    2  C10 UNL     1      -2.371   7.524  12.841  1.00  0.00     0.124 C 
HETATM    3  C11 UNL     1      -3.343   8.421  13.646  1.00  0.00     0.046 C 
HETATM    4  C12 UNL     1      -2.638   8.675  15.001  1.00  0.00    -0.010 C 
HETATM    5  C13 UNL     1      -3.028   7.485  15.934  1.00  0.00     0.021 C 
HETATM    6  C14 UNL     1      -2.996   9.932  15.787  1.00  0.00    -0.070 C 
HETATM    7  C15 UNL     1      -4.245  10.446  15.779  1.00  0.00    -0.022 C 
HETATM    8  C16 UNL     1      -4.698  11.605  16.623  1.00  0.00     0.034 C 
HETATM    9  C17 UNL     1      -3.526  12.312  17.324  1.00  0.00     0.013 C 
HETATM   10  C18 UNL     1      -3.903  13.522  18.236  1.00  0.00     0.018 C 
HETATM   11  C19 UNL     1      -4.732  14.552  17.441  1.00  0.00     0.023 C 
HETATM   12  C20 UNL     1      -4.682  13.156  19.505  1.00  0.00     0.023 C 
HETATM   13  C21 UNL     1      -2.600  14.219  18.668  1.00  0.00     0.135 C 
HETATM   14  O4  UNL     1      -2.599  15.337  19.187  1.00  0.00    -0.297 OA
HETATM   15  C22 UNL     1      -1.296  13.489  18.417  1.00  0.00     0.080 C 
HETATM   16  C23 UNL     1      -1.450  12.023  18.794  1.00  0.00     0.017 C 
HETATM   17  C24 UNL     1      -2.514  11.268  17.943  1.00  0.00    -0.031 C 
HETATM   18  C25 UNL     1      -3.182  10.217  18.871  1.00  0.00     0.016 C 
HETATM   19  C26 UNL     1      -1.888  10.527  16.688  1.00  0.00     0.024 C 
HETATM   20  C27 UNL     1      -0.758   9.511  17.002  1.00  0.00     0.010 C 
HETATM   21  C28 UNL     1      -0.232   8.683  15.805  1.00  0.00     0.011 C 
HETATM   22  C29 UNL     1      -1.136   8.716  14.560  1.00  0.00    -0.026 C 
HETATM   23  C30 UNL     1      -0.770   9.972  13.707  1.00  0.00     0.016 C 
ENDROOT
BRANCH   1  24
HETATM   24  C2  UNL     1       0.285   7.251  12.858  1.00  0.00    -0.008 C 
HETATM   25  C1  UNL     1       1.514   6.865  13.691  1.00  0.00     0.011 C 
BRANCH  24  26
HETATM   26  C3  UNL     1       0.617   8.471  11.956  1.00  0.00     0.031 C 
BRANCH  26  27
HETATM   27  C4  UNL     1       0.928   8.149  10.521  1.00  0.00    -0.027 C 
HETATM   28  C5  UNL     1       2.130   7.721  10.096  1.00  0.00     0.009 C 
BRANCH  28  29
HETATM   29  C6  UNL     1       2.547   7.363   8.677  1.00  0.00     0.106 C 
HETATM   30  C7  UNL     1       1.471   7.654   7.617  1.00  0.00     0.053 C 
HETATM   31  C8  UNL     1       2.913   5.874   8.592  1.00  0.00     0.053 C 
BRANCH  29  32
HETATM   32  O1  UNL     1       3.681   8.173   8.288  1.00  0.00    -0.229 OA
BRANCH  32  33
HETATM   33  O2  UNL     1       3.187   9.340   7.558  1.00  0.00    -0.249 OA
HETATM   34  H15 UNL     1       3.577   9.092   6.702  1.00  0.00     0.253 HD
ENDBRANCH  32  33
ENDBRANCH  29  32
ENDBRANCH  28  29
ENDBRANCH  26  27
ENDBRANCH  24  26
ENDBRANCH   1  24
BRANCH   2  35
HETATM   35  O3  UNL     1      -2.934   6.234  12.641  1.00  0.00    -0.395 OA
HETATM   36  H18 UNL     1      -3.195   5.872  13.504  1.00  0.00     0.210 HD
ENDBRANCH   2  35
TORSDOF 7
ENDMDL
