MODEL 1
REMARK minimizedAffinity -9.36507797
REMARK CNNscore 0.363065481
REMARK CNNaffinity 7.43256044
REMARK  15 active torsions:
REMARK  status: ('A' for Active; 'I' for Inactive)
REMARK    1  A    between atoms: C2_2  and  C3_3 
REMARK    2  A    between atoms: C2_2  and  C37_47 
REMARK    3  A    between atoms: C3_3  and  C4_4 
REMARK    4  A    between atoms: C4_4  and  C5_5 
REMARK    5  A    between atoms: C5_5  and  C6_6 
REMARK    6  A    between atoms: C5_5  and  C13_20 
REMARK    7  A    between atoms: C6_6  and  O2_8 
REMARK    8  A    between atoms: O2_8  and  C7_9 
REMARK    9  A    between atoms: C8_11  and  C9_12 
REMARK   10  A    between atoms: C9_12  and  O4_13 
REMARK   11  A    between atoms: C10_14  and  O5_15 
REMARK   12  A    between atoms: C11_16  and  O6_17 
REMARK   13  A    between atoms: C12_18  and  O7_19 
REMARK   14  A    between atoms: C14_21  and  O8_22 
REMARK   15  A    between atoms: O8_22  and  C15_23 
ROOT
HETATM    1  C13 UNL     1      -3.022  49.298 -22.023  1.00  0.00     0.038 C 
HETATM    2  C14 UNL     1      -2.956  50.447 -20.975  1.00  0.00     0.138 C 
HETATM    3  C17 UNL     1      -4.031  50.144 -19.899  1.00  0.00     0.047 C 
HETATM    4  C18 UNL     1      -4.541  48.724 -20.222  1.00  0.00    -0.010 C 
HETATM    5  C19 UNL     1      -3.578  47.716 -19.521  1.00  0.00     0.021 C 
HETATM    6  C20 UNL     1      -5.938  48.307 -19.763  1.00  0.00    -0.068 C 
HETATM    7  C21 UNL     1      -6.649  47.392 -20.473  1.00  0.00    -0.068 C 
HETATM    8  C22 UNL     1      -6.109  46.813 -21.787  1.00  0.00     0.036 C 
HETATM    9  C23 UNL     1      -4.747  47.327 -22.294  1.00  0.00     0.015 C 
HETATM   10  C24 UNL     1      -4.464  48.743 -21.794  1.00  0.00    -0.026 C 
HETATM   11  C25 UNL     1      -5.508  49.709 -22.445  1.00  0.00     0.016 C 
HETATM   12  C26 UNL     1      -8.058  46.919 -20.025  1.00  0.00    -0.015 C 
HETATM   13  C27 UNL     1      -9.077  47.742 -20.843  1.00  0.00     0.020 C 
HETATM   14  C28 UNL     1      -8.252  45.408 -20.287  1.00  0.00     0.021 C 
HETATM   15  C29 UNL     1      -9.595  44.845 -19.855  1.00  0.00     0.080 C 
HETATM   16  C30 UNL     1     -10.344  45.661 -18.834  1.00  0.00     0.135 C 
HETATM   17  O10 UNL     1     -11.567  45.506 -18.733  1.00  0.00    -0.297 OA
HETATM   18  C31 UNL     1      -9.574  46.584 -17.879  1.00  0.00     0.018 C 
HETATM   19  C32 UNL     1      -9.271  45.733 -16.625  1.00  0.00     0.023 C 
HETATM   20  C33 UNL     1     -10.535  47.723 -17.454  1.00  0.00     0.023 C 
HETATM   21  C34 UNL     1      -8.218  47.106 -18.479  1.00  0.00     0.013 C 
HETATM   22  C35 UNL     1      -7.851  48.543 -18.071  1.00  0.00     0.011 C 
HETATM   23  C36 UNL     1      -6.424  48.909 -18.469  1.00  0.00     0.036 C 
ENDROOT
BRANCH   1  24
HETATM   24  C5  UNL     1      -2.636  49.651 -23.490  1.00  0.00     0.093 C 
BRANCH  24  25
HETATM   25  C4  UNL     1      -3.758  49.512 -24.544  1.00  0.00     0.019 C 
BRANCH  25  26
HETATM   26  C3  UNL     1      -3.554  48.311 -25.482  1.00  0.00     0.034 C 
BRANCH  26  27
HETATM   27  C2  UNL     1      -4.327  48.467 -26.778  1.00  0.00    -0.086 C 
HETATM   28  C1  UNL     1      -3.867  49.285 -27.743  1.00  0.00     0.014 C 
BRANCH  27  29
HETATM   29  C37 UNL     1      -5.626  47.675 -26.889  1.00  0.00     0.005 C 
HETATM   30  C38 UNL     1      -6.381  47.880 -28.208  1.00  0.00     0.014 C 
HETATM   31  C39 UNL     1      -6.548  47.982 -25.707  1.00  0.00     0.014 C 
ENDBRANCH  27  29
ENDBRANCH  26  27
ENDBRANCH  25  26
ENDBRANCH  24  25
BRANCH  24  32
HETATM   32  C6  UNL     1      -2.123  51.091 -23.533  1.00  0.00     0.266 C 
HETATM   33  O1  UNL     1      -2.830  52.069 -23.337  1.00  0.00    -0.265 OA
BRANCH  32  34
HETATM   34  O2  UNL     1      -0.795  51.132 -23.821  1.00  0.00    -0.287 OA
BRANCH  34  35
HETATM   35  C7  UNL     1      -0.357  52.324 -24.487  1.00  0.00     0.301 C 
HETATM   36  O3  UNL     1       1.043  52.186 -24.825  1.00  0.00    -0.348 OA
HETATM   37  C8  UNL     1       1.230  51.607 -26.115  1.00  0.00     0.179 C 
HETATM   38  C10 UNL     1       0.809  52.616 -27.209  1.00  0.00     0.180 C 
HETATM   39  C11 UNL     1      -0.394  53.461 -26.740  1.00  0.00     0.183 C 
HETATM   40  C12 UNL     1      -1.239  52.673 -25.725  1.00  0.00     0.205 C 
BRANCH  37  41
HETATM   41  C9  UNL     1       2.699  51.213 -26.295  1.00  0.00     0.198 C 
BRANCH  41  42
HETATM   42  O4  UNL     1       3.302  52.016 -27.309  1.00  0.00    -0.398 OA
HETATM   43  H12 UNL     1       4.240  51.759 -27.350  1.00  0.00     0.209 HD
ENDBRANCH  41  42
ENDBRANCH  37  41
BRANCH  38  44
HETATM   44  O5  UNL     1       0.485  51.922 -28.418  1.00  0.00    -0.390 OA
HETATM   45  H14 UNL     1       1.236  51.312 -28.587  1.00  0.00     0.210 HD
ENDBRANCH  38  44
BRANCH  39  46
HETATM   46  O6  UNL     1       0.041  54.702 -26.163  1.00  0.00    -0.390 OA
HETATM   47  H16 UNL     1       0.787  54.514 -25.565  1.00  0.00     0.210 HD
ENDBRANCH  39  46
BRANCH  40  48
HETATM   48  O7  UNL     1      -1.766  51.477 -26.330  1.00  0.00    -0.388 OA
HETATM   49  H18 UNL     1      -2.013  51.688 -27.249  1.00  0.00     0.210 HD
ENDBRANCH  40  48
ENDBRANCH  34  35
ENDBRANCH  32  34
ENDBRANCH  24  32
ENDBRANCH   1  24
BRANCH   2  50
HETATM   50  O8  UNL     1      -1.644  50.475 -20.392  1.00  0.00    -0.316 OA
BRANCH  50  51
HETATM   51  C15 UNL     1      -1.366  51.561 -19.618  1.00  0.00     0.255 C 
HETATM   52  C16 UNL     1       0.007  52.072 -19.925  1.00  0.00     0.126 C 
HETATM   53  O9  UNL     1      -2.114  52.055 -18.786  1.00  0.00    -0.266 OA
ENDBRANCH  50  51
ENDBRANCH   2  50
TORSDOF 15
ENDMDL
