MODEL 1
REMARK minimizedAffinity -7.47958279
REMARK CNNscore 0.329107106
REMARK CNNaffinity 7.20559645
REMARK  10 active torsions:
REMARK  status: ('A' for Active; 'I' for Inactive)
REMARK    1  A    between atoms: O1_2  and  C2_3 
REMARK    2  A    between atoms: C2_3  and  C3_4 
REMARK    3  A    between atoms: C3_4  and  C4_5 
REMARK    4  A    between atoms: C4_5  and  O2_6 
REMARK    5  A    between atoms: O2_6  and  C5_7 
REMARK    6  A    between atoms: C29_35  and  O6_36 
REMARK    7  A    between atoms: C30_38  and  O7_39 
REMARK    8  A    between atoms: C31_40  and  O8_42 
REMARK    9  A    between atoms: C38_48  and  O9_49 
REMARK   10  A    between atoms: C39_50  and  C40_51 
ROOT
HETATM    1  C5  UNL     1      -1.170  50.117 -17.295  1.00  0.00     0.122 C 
HETATM    2  C6  UNL     1       0.304  50.196 -16.868  1.00  0.00     0.033 C 
HETATM    3  C7  UNL     1       0.512  49.926 -15.380  1.00  0.00     0.014 C 
HETATM    4  C8  UNL     1      -0.270  50.930 -14.463  1.00  0.00    -0.010 C 
HETATM    5  C9  UNL     1       0.575  52.237 -14.453  1.00  0.00     0.018 C 
HETATM    6  C10 UNL     1      -1.625  51.355 -15.129  1.00  0.00     0.073 C 
HETATM    7  C11 UNL     1      -2.148  50.316 -16.128  1.00  0.00     0.045 C 
HETATM    8  C12 UNL     1      -2.731  51.825 -14.182  1.00  0.00     0.161 C 
HETATM    9  O3  UNL     1      -3.811  52.218 -14.626  1.00  0.00    -0.292 OA
HETATM   10  C13 UNL     1      -2.521  51.831 -12.705  1.00  0.00    -0.005 C 
HETATM   11  C14 UNL     1      -1.479  51.148 -12.182  1.00  0.00    -0.013 C 
HETATM   12  C15 UNL     1      -0.493  50.305 -12.994  1.00  0.00     0.058 C 
HETATM   13  C16 UNL     1      -1.143  48.954 -13.164  1.00  0.00    -0.091 C 
HETATM   14  C17 UNL     1      -1.575  47.862 -13.431  1.00  0.00    -0.104 C 
HETATM   15  C18 UNL     1      -2.009  46.575 -13.988  1.00  0.00     0.115 C 
HETATM   16  C19 UNL     1      -2.340  45.690 -12.836  1.00  0.00     0.090 A 
HETATM   17  C20 UNL     1      -2.272  44.209 -13.027  1.00  0.00     0.120 A 
HETATM   18  N1  UNL     1      -1.413  44.884 -12.094  1.00  0.00    -0.243 NA
HETATM   19  C21 UNL     1      -0.025  44.909 -12.277  1.00  0.00     0.233 C 
HETATM   20  O4  UNL     1       0.528  44.991 -13.372  1.00  0.00    -0.277 OA
HETATM   21  C22 UNL     1       0.718  44.655 -10.935  1.00  0.00     0.309 C 
HETATM   22  C23 UNL     1      -0.008  45.319  -9.747  1.00  0.00     0.053 C 
HETATM   23  C24 UNL     1       0.929  45.484  -8.544  1.00  0.00     0.028 C 
HETATM   24  C25 UNL     1       0.266  46.221  -7.386  1.00  0.00     0.020 C 
HETATM   25  C26 UNL     1       0.926  45.825  -6.065  1.00  0.00     0.013 C 
HETATM   26  C27 UNL     1       0.468  47.677  -7.829  1.00  0.00     0.158 C 
HETATM   27  O5  UNL     1       1.775  47.722  -8.434  1.00  0.00    -0.373 OA
HETATM   28  C28 UNL     1       2.106  46.396  -8.920  1.00  0.00     0.185 C 
HETATM   29  C29 UNL     1       2.370  46.376 -10.455  1.00  0.00     0.384 C 
HETATM   30  N2  UNL     1       2.148  45.055 -11.026  1.00  0.00     0.128 N 
HETATM   31  C30 UNL     1       0.240  48.779  -6.764  1.00  0.00     0.181 C 
HETATM   32  C31 UNL     1       0.291  50.292  -7.276  1.00  0.00     0.087 C 
HETATM   33  C32 UNL     1      -0.087  51.165  -6.057  1.00  0.00     0.049 C 
HETATM   34  C33 UNL     1      -0.636  50.565  -8.512  1.00  0.00     0.035 C 
HETATM   35  C34 UNL     1      -1.953  51.440  -8.391  1.00  0.00     0.016 C 
HETATM   36  C35 UNL     1      -2.235  51.950  -9.835  1.00  0.00     0.026 C 
HETATM   37  C36 UNL     1      -3.655  52.050 -10.358  1.00  0.00     0.013 C 
HETATM   38  C37 UNL     1      -3.605  52.487 -11.850  1.00  0.00     0.043 C 
HETATM   39  C38 UNL     1      -1.436  50.979 -10.697  1.00  0.00     0.096 C 
HETATM   40  C39 UNL     1      -0.062  50.973  -9.951  1.00  0.00     0.005 C 
HETATM   41  C46 UNL     1       0.749  49.862 -10.676  1.00  0.00     0.016 C 
HETATM   42  C47 UNL     1       0.857  50.037 -12.217  1.00  0.00     0.029 C 
HETATM   43  H38 UNL     1       2.694  44.384 -10.485  1.00  0.00     0.320 HD
ENDROOT
BRANCH   1  44
HETATM   44  O2  UNL     1      -1.355  51.165 -18.258  1.00  0.00    -0.386 OA
BRANCH  44  45
HETATM   45  C4  UNL     1      -0.238  51.404 -19.112  1.00  0.00     0.170 C 
BRANCH  45  46
HETATM   46  C3  UNL     1       0.068  52.892 -19.228  1.00  0.00     0.052 C 
BRANCH  46  47
HETATM   47  C2  UNL     1       1.300  53.162 -20.082  1.00  0.00     0.169 C 
BRANCH  47  48
HETATM   48  O1  UNL     1       1.220  54.468 -20.654  1.00  0.00    -0.396 OA
HETATM   49  C1  UNL     1       1.436  54.469 -22.058  1.00  0.00     0.201 C 
ENDBRANCH  47  48
ENDBRANCH  46  47
ENDBRANCH  45  46
ENDBRANCH  44  45
ENDBRANCH   1  44
BRANCH  39  50
HETATM   50  O9  UNL     1      -2.082  49.677 -10.515  1.00  0.00    -0.384 OA
HETATM   51  H53 UNL     1      -2.767  49.563 -11.196  1.00  0.00     0.211 HD
ENDBRANCH  39  50
BRANCH  40  52
HETATM   52  C40 UNL     1       0.807  52.363  -9.937  1.00  0.00    -0.002 C 
HETATM   53  C41 UNL     1       0.315  53.568 -10.783  1.00  0.00     0.005 C 
HETATM   54  C42 UNL     1       1.151  54.841 -10.593  1.00  0.00     0.000 C 
HETATM   55  C43 UNL     1       2.623  54.605 -10.881  1.00  0.00     0.000 C 
HETATM   56  C44 UNL     1       3.137  53.464 -10.024  1.00  0.00     0.000 C 
HETATM   57  C45 UNL     1       2.307  52.200 -10.236  1.00  0.00     0.005 C 
ENDBRANCH  40  52
BRANCH  32  58
HETATM   58  O8  UNL     1       1.645  50.593  -7.621  1.00  0.00    -0.387 OA
HETATM   59  H44 UNL     1       2.164  49.768  -7.496  1.00  0.00     0.210 HD
ENDBRANCH  32  58
BRANCH  31  60
HETATM   60  O7  UNL     1       1.240  48.616  -5.739  1.00  0.00    -0.390 OA
HETATM   61  H40 UNL     1       0.979  49.143  -4.966  1.00  0.00     0.210 HD
ENDBRANCH  31  60
BRANCH  29  62
HETATM   62  O6  UNL     1       3.716  46.715 -10.717  1.00  0.00    -0.366 OA
HETATM   63  H37 UNL     1       4.050  45.955 -11.232  1.00  0.00     0.212 HD
ENDBRANCH  29  62
TORSDOF 10
ENDMDL
