MODEL 1
REMARK minimizedAffinity -8.97374344
REMARK CNNscore 0.426815689
REMARK CNNaffinity 7.44792175
REMARK  8 active torsions:
REMARK  status: ('A' for Active; 'I' for Inactive)
REMARK    1  A    between atoms: C2_2  and  N1_3 
REMARK    2  A    between atoms: C2_2  and  C24_33 
REMARK       I    between atoms: N1_3  and  C3_4 
REMARK    3  A    between atoms: C3_4  and  C4_6 
REMARK    4  A    between atoms: C4_6  and  C5_7 
REMARK    5  A    between atoms: C10_12  and  C12_14 
REMARK    6  A    between atoms: C12_14  and  O2_15 
REMARK    7  A    between atoms: C13_16  and  O3_17 
REMARK    8  A    between atoms: C18_23  and  C19_24 
ROOT
HETATM    1  C5  UNL     1      -1.836   5.929  12.652  1.00  0.00     0.054 C 
HETATM    2  C6  UNL     1      -0.790   6.704  11.881  1.00  0.00     0.028 A 
HETATM    3  C7  UNL     1      -0.297   7.932  12.277  1.00  0.00     0.008 A 
HETATM    4  C8  UNL     1      -0.732   8.693  13.495  1.00  0.00     0.054 C 
HETATM    5  C9  UNL     1      -2.119   8.137  13.923  1.00  0.00     0.012 C 
HETATM    6  C10 UNL     1      -2.919   8.914  15.026  1.00  0.00     0.008 C 
HETATM    7  C11 UNL     1      -2.967  10.426  14.672  1.00  0.00     0.020 C 
HETATM    8  C13 UNL     1      -4.401   8.394  14.992  1.00  0.00     0.128 C 
HETATM    9  C14 UNL     1      -4.582   6.973  14.434  1.00  0.00     0.033 C 
HETATM   10  C15 UNL     1      -3.401   6.060  14.739  1.00  0.00     0.013 C 
HETATM   11  C16 UNL     1      -2.064   6.553  14.111  1.00  0.00    -0.030 C 
HETATM   12  C17 UNL     1      -0.929   6.097  15.061  1.00  0.00     0.016 C 
HETATM   13  S1  UNL     1       0.866   8.485  11.171  1.00  0.00    -0.074 SA
HETATM   14  C18 UNL     1       0.593   7.083  10.188  1.00  0.00     0.086 A 
HETATM   15  N3  UNL     1      -0.317   6.250  10.666  1.00  0.00    -0.352 N 
ATOM     16  H3  UNL     1      -0.626   5.395  10.203  1.00  0.00     0.166 HD
ENDROOT
BRANCH   1  17
HETATM   17  C4  UNL     1      -1.647   4.403  12.542  1.00  0.00     0.114 C 
BRANCH  17  18
HETATM   18  C3  UNL     1      -2.868   3.544  12.243  1.00  0.00     0.218 C 
HETATM   19  N1  UNL     1      -3.458   3.882  11.042  1.00  0.00    -0.353 N 
HETATM   20  H5  UNL     1      -2.997   4.538  10.425  1.00  0.00     0.163 HD
HETATM   21  O1  UNL     1      -3.316   2.667  12.971  1.00  0.00    -0.274 OA
BRANCH  19  22
HETATM   22  C2  UNL     1      -4.643   3.203  10.546  1.00  0.00     0.113 C 
HETATM   23  C1  UNL     1      -5.014   3.691   9.144  1.00  0.00     0.037 C 
BRANCH  22  24
HETATM   24  C24 UNL     1      -5.760   3.351  11.566  1.00  0.00    -0.036 A 
HETATM   25  C25 UNL     1      -6.517   2.219  11.919  1.00  0.00     0.009 A 
HETATM   26  C26 UNL     1      -7.534   2.306  12.872  1.00  0.00     0.001 A 
HETATM   27  C27 UNL     1      -7.801   3.522  13.497  1.00  0.00     0.000 A 
HETATM   28  C28 UNL     1      -7.052   4.651  13.170  1.00  0.00     0.001 A 
HETATM   29  C29 UNL     1      -6.033   4.566  12.215  1.00  0.00     0.009 A 
ENDBRANCH  22  24
ENDBRANCH  19  22
ENDBRANCH  17  18
ENDBRANCH   1  17
BRANCH  14  30
HETATM   30  C19 UNL     1       1.306   6.865   8.921  1.00  0.00     0.013 A 
HETATM   31  C20 UNL     1       1.042   7.550   7.728  1.00  0.00     0.017 A 
HETATM   32  C21 UNL     1       1.769   7.259   6.572  1.00  0.00     0.018 A 
HETATM   33  C22 UNL     1       2.751   6.285   6.638  1.00  0.00     0.087 A 
HETATM   34  N2  UNL     1       3.045   5.598   7.760  1.00  0.00    -0.374 N 
HETATM   35  C23 UNL     1       2.319   5.907   8.867  1.00  0.00     0.101 A 
ATOM     36  H2  UNL     1       3.772   4.884   7.777  1.00  0.00     0.164 HD
ENDBRANCH  14  30
BRANCH   6  37
HETATM   37  C12 UNL     1      -2.327   8.820  16.451  1.00  0.00     0.176 C 
BRANCH  37  38
HETATM   38  O2  UNL     1      -2.689   7.599  17.079  1.00  0.00    -0.400 OA
HETATM   39  H17 UNL     1      -2.319   7.622  17.979  1.00  0.00     0.209 HD
ENDBRANCH  37  38
ENDBRANCH   6  37
BRANCH   8  40
HETATM   40  O3  UNL     1      -5.000   8.447  16.286  1.00  0.00    -0.395 OA
HETATM   41  H19 UNL     1      -5.218   9.378  16.470  1.00  0.00     0.210 HD
ENDBRANCH   8  40
TORSDOF 8
ENDMDL
