MODEL 1
REMARK minimizedAffinity -9.94611359
REMARK  8 active torsions:
REMARK  status: ('A' for Active; 'I' for Inactive)
REMARK    1  A    between atoms: C2_2  and  C3_3 
REMARK    2  A    between atoms: C2_2  and  C11_14 
REMARK    3  A    between atoms: C3_3  and  C4_4 
REMARK    4  A    between atoms: C4_4  and  C5_5 
REMARK       I    between atoms: C5_5  and  N1_7 
REMARK    5  A    between atoms: N1_7  and  C6_8 
REMARK    6  A    between atoms: C6_8  and  C7_9 
REMARK    7  A    between atoms: C16_19  and  O3_20 
REMARK    8  A    between atoms: C20_24  and  O4_25 
ROOT
HETATM    1  C11 UNL     1      -6.033   6.764  13.882  1.00  0.00    -0.002 C 
HETATM    2  C12 UNL     1      -6.012   8.304  14.122  1.00  0.00     0.006 C 
HETATM    3  C13 UNL     1      -4.593   8.798  13.822  1.00  0.00     0.006 C 
HETATM    4  C14 UNL     1      -3.919   7.600  13.175  1.00  0.00     0.001 C 
HETATM    5  C15 UNL     1      -2.383   7.597  13.088  1.00  0.00     0.024 C 
HETATM    6  C16 UNL     1      -1.885   8.827  12.290  1.00  0.00     0.123 C 
HETATM    7  C17 UNL     1      -0.538   8.606  11.590  1.00  0.00     0.037 C 
HETATM    8  C18 UNL     1       0.330   7.622  12.385  1.00  0.00    -0.001 C 
HETATM    9  C19 UNL     1       1.806   7.653  11.934  1.00  0.00     0.037 C 
HETATM   10  C20 UNL     1       2.116   6.837  10.687  1.00  0.00     0.118 C 
HETATM   11  C21 UNL     1       1.586   5.414  10.805  1.00  0.00     0.032 C 
HETATM   12  C22 UNL     1       0.091   5.393  11.119  1.00  0.00     0.012 C 
HETATM   13  C23 UNL     1      -0.309   6.191  12.394  1.00  0.00    -0.036 C 
HETATM   14  C24 UNL     1       0.243   5.449  13.639  1.00  0.00     0.016 C 
HETATM   15  C25 UNL     1      -1.895   6.284  12.421  1.00  0.00     0.001 C 
HETATM   16  C26 UNL     1      -2.589   5.017  12.981  1.00  0.00     0.007 C 
HETATM   17  C27 UNL     1      -4.115   5.142  13.113  1.00  0.00     0.010 C 
HETATM   18  C28 UNL     1      -4.517   6.385  13.929  1.00  0.00    -0.036 C 
HETATM   19  C29 UNL     1      -4.021   6.269  15.391  1.00  0.00     0.016 C 
ENDROOT
BRANCH   1  20
HETATM   20  C2  UNL     1      -7.043   6.049  14.831  1.00  0.00    -0.013 C 
HETATM   21  C1  UNL     1      -6.569   6.028  16.285  1.00  0.00     0.010 C 
BRANCH  20  22
HETATM   22  C3  UNL     1      -7.316   4.603  14.324  1.00  0.00     0.014 C 
BRANCH  22  23
HETATM   23  C4  UNL     1      -7.775   4.513  12.864  1.00  0.00     0.103 C 
BRANCH  23  24
HETATM   24  C5  UNL     1      -8.818   5.540  12.461  1.00  0.00     0.217 C 
HETATM   25  O1  UNL     1      -8.934   6.002  11.333  1.00  0.00    -0.274 OA
HETATM   26  N1  UNL     1      -9.628   5.909  13.516  1.00  0.00    -0.359 N 
HETATM   27  H9  UNL     1      -9.283   5.752  14.456  1.00  0.00     0.162 HD
BRANCH  26  28
HETATM   28  C6  UNL     1     -10.598   6.979  13.370  1.00  0.00     0.154 C 
BRANCH  28  29
HETATM   29  C7  UNL     1     -11.610   6.957  14.523  1.00  0.00     0.139 C 
HETATM   30  C8  UNL     1     -12.859   6.152  14.204  1.00  0.00     0.035 C 
HETATM   31  C9  UNL     1     -13.772   7.186  13.593  1.00  0.00     0.029 C 
HETATM   32  C10 UNL     1     -13.431   8.423  14.394  1.00  0.00     0.168 C 
HETATM   33  O2  UNL     1     -12.052   8.312  14.771  1.00  0.00    -0.384 OA
ENDBRANCH  28  29
ENDBRANCH  26  28
ENDBRANCH  23  24
ENDBRANCH  22  23
ENDBRANCH  20  22
ENDBRANCH   1  20
BRANCH   6  34
HETATM   34  O3  UNL     1      -1.765   9.922  13.202  1.00  0.00    -0.395 OA
HETATM   35  H27 UNL     1      -1.489  10.700  12.687  1.00  0.00     0.210 HD
ENDBRANCH   6  34
BRANCH  10  36
HETATM   36  O4  UNL     1       1.550   7.473   9.544  1.00  0.00    -0.396 OA
HETATM   37  H34 UNL     1       1.885   6.997   8.763  1.00  0.00     0.210 HD
ENDBRANCH  10  36
TORSDOF 8
ENDMDL
