MODEL 1
REMARK minimizedAffinity -6.04070139
REMARK CNNscore 0.672327936
REMARK CNNaffinity 6.19159937
REMARK  12 active torsions:
REMARK  status: ('A' for Active; 'I' for Inactive)
REMARK    1  A    between atoms: C2_2  and  O2_4 
REMARK    2  A    between atoms: O2_4  and  C3_5 
REMARK    3  A    between atoms: C4_6  and  O3_7 
REMARK    4  A    between atoms: O3_7  and  C5_8 
REMARK    5  A    between atoms: C5_8  and  C6_10 
REMARK    6  A    between atoms: C12_16  and  C13_17 
REMARK    7  A    between atoms: C13_17  and  O5_18 
REMARK    8  A    between atoms: O5_18  and  C14_19 
REMARK    9  A    between atoms: C14_19  and  C15_21 
REMARK   10  A    between atoms: C20_28  and  O7_29 
REMARK   11  A    between atoms: O7_29  and  C21_30 
REMARK   12  A    between atoms: C21_30  and  C22_32 
ROOT
HETATM    1  C3  UNL     1      15.805  -2.616   3.995  1.00  0.00     0.169 C 
HETATM    2  C4  UNL     1      15.082  -3.822   4.674  1.00  0.00     0.178 C 
HETATM    3  C12 UNL     1      15.931  -4.602   5.753  1.00  0.00     0.069 C 
HETATM    4  C20 UNL     1      15.498  -6.102   5.808  1.00  0.00     0.148 C 
HETATM    5  C25 UNL     1      16.248  -6.899   6.886  1.00  0.00     0.034 C 
HETATM    6  C26 UNL     1      17.707  -6.483   7.067  1.00  0.00     0.010 C 
HETATM    7  C27 UNL     1      18.309  -5.809   5.828  1.00  0.00     0.017 C 
HETATM    8  C28 UNL     1      18.554  -6.857   4.729  1.00  0.00     0.013 C 
HETATM    9  C29 UNL     1      17.480  -4.558   5.392  1.00  0.00     0.080 C 
HETATM   10  C30 UNL     1      17.706  -4.182   3.920  1.00  0.00     0.050 C 
HETATM   11  C31 UNL     1      17.353  -2.705   3.976  1.00  0.00     0.054 C 
HETATM   12  C32 UNL     1      18.151  -2.290   5.231  1.00  0.00     0.061 C 
HETATM   13  C33 UNL     1      19.656  -2.121   4.916  1.00  0.00     0.046 C 
HETATM   14  C34 UNL     1      17.726  -1.016   5.961  1.00  0.00     0.046 C 
HETATM   15  O9  UNL     1      18.036  -3.420   6.122  1.00  0.00    -0.368 OA
ENDROOT
BRANCH   3  16
HETATM   16  C13 UNL     1      15.633  -3.919   7.135  1.00  0.00     0.197 C 
BRANCH  16  17
HETATM   17  O5  UNL     1      16.723  -4.126   8.052  1.00  0.00    -0.316 OA
BRANCH  17  18
HETATM   18  C14 UNL     1      16.697  -3.396   9.191  1.00  0.00     0.294 C 
HETATM   19  O6  UNL     1      16.072  -2.366   9.375  1.00  0.00    -0.259 OA
BRANCH  18  20
HETATM   20  C15 UNL     1      17.569  -4.027  10.204  1.00  0.00     0.054 A 
HETATM   21  C16 UNL     1      18.725  -3.425  10.711  1.00  0.00     0.020 A 
HETATM   22  C17 UNL     1      19.479  -4.095  11.673  1.00  0.00     0.018 A 
HETATM   23  C18 UNL     1      19.051  -5.345  12.093  1.00  0.00     0.087 A 
HETATM   24  N1  UNL     1      17.945  -5.959  11.617  1.00  0.00    -0.374 N 
HETATM   25  C19 UNL     1      17.230  -5.286  10.679  1.00  0.00     0.105 A 
ATOM     26  H1  UNL     1      17.661  -6.882  11.946  1.00  0.00     0.164 HD
ENDBRANCH  18  20
ENDBRANCH  17  18
ENDBRANCH  16  17
ENDBRANCH   3  16
BRANCH   2  27
HETATM   27  O3  UNL     1      14.699  -4.749   3.614  1.00  0.00    -0.308 OA
BRANCH  27  28
HETATM   28  C5  UNL     1      13.753  -4.308   2.744  1.00  0.00     0.293 C 
HETATM   29  O4  UNL     1      12.698  -3.775   3.051  1.00  0.00    -0.259 OA
BRANCH  28  30
HETATM   30  C6  UNL     1      14.161  -4.572   1.340  1.00  0.00     0.039 A 
HETATM   31  C7  UNL     1      15.358  -4.087   0.798  1.00  0.00     0.017 A 
HETATM   32  C8  UNL     1      15.706  -4.392  -0.521  1.00  0.00     0.001 A 
HETATM   33  C9  UNL     1      14.860  -5.178  -1.303  1.00  0.00     0.000 A 
HETATM   34  C10 UNL     1      13.667  -5.664  -0.771  1.00  0.00     0.001 A 
HETATM   35  C11 UNL     1      13.318  -5.363   0.546  1.00  0.00     0.017 A 
ENDBRANCH  28  30
ENDBRANCH  27  28
ENDBRANCH   2  27
BRANCH   4  36
HETATM   36  O7  UNL     1      14.078  -6.234   6.031  1.00  0.00    -0.315 OA
BRANCH  36  37
HETATM   37  C21 UNL     1      13.654  -6.180   7.326  1.00  0.00     0.262 C 
HETATM   38  O8  UNL     1      14.219  -6.709   8.272  1.00  0.00    -0.265 OA
BRANCH  37  39
HETATM   39  C22 UNL     1      12.379  -5.363   7.413  1.00  0.00     0.077 C 
HETATM   40  C23 UNL     1      11.640  -5.706   8.701  1.00  0.00     0.020 C 
HETATM   41  C24 UNL     1      11.498  -5.603   6.192  1.00  0.00     0.020 C 
ENDBRANCH  37  39
ENDBRANCH  36  37
ENDBRANCH   4  36
BRANCH   1  42
HETATM   42  O2  UNL     1      15.298  -1.395   4.557  1.00  0.00    -0.313 OA
BRANCH  42  43
HETATM   43  C2  UNL     1      14.637  -0.569   3.699  1.00  0.00     0.255 C 
HETATM   44  C1  UNL     1      15.600   0.390   3.069  1.00  0.00     0.126 C 
HETATM   45  O1  UNL     1      13.440  -0.610   3.453  1.00  0.00    -0.266 OA
ENDBRANCH  42  43
ENDBRANCH   1  42
TORSDOF 12
ENDMDL
