MODEL 1
REMARK minimizedAffinity -9.29742813
REMARK CNNscore 0.579904437
REMARK CNNaffinity 6.70097303
REMARK  14 active torsions:
REMARK  status: ('A' for Active; 'I' for Inactive)
REMARK    1  A    between atoms: O1_2  and  C2_3 
REMARK    2  A    between atoms: C2_3  and  C3_5 
REMARK    3  A    between atoms: C3_5  and  C4_6 
REMARK    4  A    between atoms: C3_5  and  N2_16 
REMARK    5  A    between atoms: C4_6  and  C5_7 
REMARK       I    between atoms: N2_16  and  C13_17 
REMARK    6  A    between atoms: C13_17  and  C14_19 
REMARK    7  A    between atoms: C14_19  and  C15_20 
REMARK    8  A    between atoms: C15_20  and  C16_21 
REMARK    9  A    between atoms: C16_21  and  O5_23 
REMARK   10  A    between atoms: O5_23  and  C17_24 
REMARK   11  A    between atoms: C17_24  and  C18_25 
REMARK   12  A    between atoms: C18_25  and  C19_27 
REMARK   13  A    between atoms: C19_27  and  O7_28 
REMARK   14  A    between atoms: C34_44  and  O9_45 
ROOT
HETATM    1  C17 UNL     1      -8.936  48.135 -29.643  1.00  0.00     0.260 C 
ENDROOT
BRANCH   1   2
HETATM    2  O5  UNL     1      -7.619  48.417 -29.158  1.00  0.00    -0.314 OA
BRANCH   2   3
HETATM    3  C16 UNL     1      -6.630  47.828 -29.886  1.00  0.00     0.259 C 
HETATM    4  O4  UNL     1      -6.807  47.231 -30.940  1.00  0.00    -0.265 OA
BRANCH   3   5
HETATM    5  C15 UNL     1      -5.290  48.007 -29.226  1.00  0.00     0.120 C 
BRANCH   5   6
HETATM    6  C14 UNL     1      -5.452  47.895 -27.716  1.00  0.00     0.112 C 
BRANCH   6   7
HETATM    7  C13 UNL     1      -4.270  48.470 -26.971  1.00  0.00     0.218 C 
HETATM    8  N2  UNL     1      -4.638  49.157 -25.840  1.00  0.00    -0.347 N 
HETATM    9  H13 UNL     1      -5.621  49.273 -25.609  1.00  0.00     0.163 HD
HETATM   10  O3  UNL     1      -3.105  48.340 -27.329  1.00  0.00    -0.274 OA
BRANCH   8  11
HETATM   11  C3  UNL     1      -3.662  49.791 -24.940  1.00  0.00     0.188 C 
BRANCH  11  12
HETATM   12  C2  UNL     1      -4.379  50.013 -23.608  1.00  0.00     0.281 C 
HETATM   13  O2  UNL     1      -5.519  50.460 -23.519  1.00  0.00    -0.263 OA
BRANCH  12  14
HETATM   14  O1  UNL     1      -3.596  49.647 -22.557  1.00  0.00    -0.325 OA
HETATM   15  C1  UNL     1      -3.244  48.264 -22.534  1.00  0.00     0.213 C 
ENDBRANCH  12  14
ENDBRANCH  11  12
BRANCH  11  16
HETATM   16  C4  UNL     1      -3.163  51.128 -25.506  1.00  0.00     0.076 C 
BRANCH  16  17
HETATM   17  C5  UNL     1      -1.712  51.392 -25.235  1.00  0.00    -0.028 A 
HETATM   18  C6  UNL     1      -1.139  51.590 -23.995  1.00  0.00     0.096 A 
HETATM   19  N1  UNL     1       0.198  51.822 -24.169  1.00  0.00    -0.365 N 
HETATM   20  C7  UNL     1       0.519  51.774 -25.505  1.00  0.00     0.042 A 
HETATM   21  H8  UNL     1       0.860  52.002 -23.427  1.00  0.00     0.165 HD
HETATM   22  C8  UNL     1       1.752  51.953 -26.142  1.00  0.00     0.030 A 
HETATM   23  C12 UNL     1      -0.660  51.504 -26.201  1.00  0.00    -0.002 A 
HETATM   24  C9  UNL     1       1.782  51.854 -27.535  1.00  0.00     0.002 A 
HETATM   25  C10 UNL     1       0.625  51.584 -28.260  1.00  0.00     0.001 A 
HETATM   26  C11 UNL     1      -0.600  51.408 -27.607  1.00  0.00     0.014 A 
ENDBRANCH  16  17
ENDBRANCH  11  16
ENDBRANCH   8  11
ENDBRANCH   6   7
ENDBRANCH   5   6
ENDBRANCH   3   5
ENDBRANCH   2   3
ENDBRANCH   1   2
BRANCH   1  27
HETATM   27  C18 UNL     1      -9.766  47.388 -28.603  1.00  0.00     0.185 C 
HETATM   28  O6  UNL     1      -9.439  47.370 -27.406  1.00  0.00    -0.292 OA
BRANCH  27  29
HETATM   29  C19 UNL     1     -11.054  46.660 -29.032  1.00  0.00     0.128 C 
HETATM   30  C20 UNL     1     -12.159  47.510 -29.671  1.00  0.00     0.047 C 
HETATM   31  C21 UNL     1     -13.475  46.768 -29.392  1.00  0.00     0.009 C 
HETATM   32  C22 UNL     1     -13.113  45.527 -28.557  1.00  0.00     0.002 C 
HETATM   33  C23 UNL     1     -14.207  45.033 -27.587  1.00  0.00    -0.002 C 
HETATM   34  C36 UNL     1     -11.778  45.901 -27.874  1.00  0.00     0.001 C 
HETATM   35  C24 UNL     1     -15.496  44.707 -28.358  1.00  0.00     0.010 C 
HETATM   36  C33 UNL     1     -14.460  45.987 -26.377  1.00  0.00     0.035 C 
HETATM   37  C25 UNL     1     -16.554  44.109 -27.445  1.00  0.00     0.036 C 
HETATM   38  C26 UNL     1     -16.827  45.059 -26.311  1.00  0.00    -0.064 A 
HETATM   39  C27 UNL     1     -18.068  45.553 -26.148  1.00  0.00     0.058 A 
HETATM   40  C31 UNL     1     -15.621  45.450 -25.432  1.00  0.00     0.004 A 
HETATM   41  C28 UNL     1     -18.387  46.538 -25.097  1.00  0.00     0.172 A 
HETATM   42  O8  UNL     1     -19.524  46.966 -24.950  1.00  0.00    -0.289 OA
HETATM   43  C29 UNL     1     -17.278  46.986 -24.241  1.00  0.00     0.052 A 
HETATM   44  C30 UNL     1     -16.043  46.493 -24.400  1.00  0.00    -0.009 A 
HETATM   45  C32 UNL     1     -15.175  44.210 -24.624  1.00  0.00     0.025 C 
HETATM   46  C34 UNL     1     -13.098  46.261 -25.677  1.00  0.00     0.124 C 
HETATM   47  C35 UNL     1     -12.048  46.807 -26.654  1.00  0.00     0.045 C 
HETATM   48  C37 UNL     1     -11.018  44.637 -27.422  1.00  0.00     0.019 C 
BRANCH  29  49
HETATM   49  O7  UNL     1     -10.649  45.711 -30.039  1.00  0.00    -0.381 OA
HETATM   50  H20 UNL     1      -9.773  45.372 -29.766  1.00  0.00     0.211 HD
ENDBRANCH  29  49
BRANCH  46  51
HETATM   51  O9  UNL     1     -13.230  47.241 -24.652  1.00  0.00    -0.395 OA
HETATM   52  H39 UNL     1     -12.386  47.286 -24.169  1.00  0.00     0.210 HD
ENDBRANCH  46  51
ENDBRANCH  27  29
ENDBRANCH   1  27
TORSDOF 14
ENDMDL
