MODEL 1
REMARK minimizedAffinity -9.87931919
REMARK CNNscore 0.767555118
REMARK CNNaffinity 7.27342033
REMARK  8 active torsions:
REMARK  status: ('A' for Active; 'I' for Inactive)
REMARK    1  A    between atoms: C2_2  and  C3_3 
REMARK    2  A    between atoms: C2_2  and  C27_30 
REMARK    3  A    between atoms: C3_3  and  C4_4 
REMARK    4  A    between atoms: C4_4  and  C5_5 
REMARK    5  A    between atoms: C5_5  and  C7_7 
REMARK    6  A    between atoms: C26_28  and  O3_29 
REMARK    7  A    between atoms: C27_30  and  C29_32 
REMARK    8  A    between atoms: C29_32  and  O5_34 
ROOT
HETATM    1  C7  UNL     1      -0.014  50.397 -18.489  1.00  0.00    -0.002 C 
HETATM    2  C8  UNL     1      -0.840  49.147 -18.089  1.00  0.00     0.006 C 
HETATM    3  C9  UNL     1      -1.698  48.784 -19.307  1.00  0.00     0.010 C 
HETATM    4  C10 UNL     1      -1.077  49.582 -20.456  1.00  0.00     0.027 C 
HETATM    5  C11 UNL     1      -1.755  49.741 -21.804  1.00  0.00    -0.036 C 
HETATM    6  C12 UNL     1      -1.393  50.753 -22.635  1.00  0.00     0.002 C 
HETATM    7  C13 UNL     1      -0.437  51.816 -22.121  1.00  0.00     0.157 C 
HETATM    8  O1  UNL     1      -0.136  52.785 -22.818  1.00  0.00    -0.293 OA
HETATM    9  C14 UNL     1       0.190  51.676 -20.744  1.00  0.00     0.093 C 
HETATM   10  C15 UNL     1      -0.722  50.928 -19.774  1.00  0.00    -0.026 C 
HETATM   11  C16 UNL     1      -1.967  51.789 -19.466  1.00  0.00     0.016 C 
HETATM   12  C17 UNL     1      -1.907  50.886 -24.087  1.00  0.00    -0.008 C 
HETATM   13  C18 UNL     1      -2.994  51.993 -24.075  1.00  0.00     0.021 C 
HETATM   14  C19 UNL     1      -0.770  51.293 -25.085  1.00  0.00     0.022 C 
HETATM   15  C20 UNL     1      -0.884  50.732 -26.503  1.00  0.00     0.080 C 
HETATM   16  C21 UNL     1      -2.314  50.495 -26.904  1.00  0.00     0.131 C 
HETATM   17  O2  UNL     1      -2.767  50.927 -27.962  1.00  0.00    -0.298 OA
HETATM   18  C22 UNL     1      -3.148  49.621 -25.980  1.00  0.00     0.056 C 
HETATM   19  C23 UNL     1      -3.340  48.261 -26.650  1.00  0.00     0.018 C 
HETATM   20  C24 UNL     1      -2.478  49.512 -24.588  1.00  0.00     0.012 C 
HETATM   21  C25 UNL     1      -3.430  48.908 -23.557  1.00  0.00     0.042 C 
HETATM   22  C26 UNL     1      -2.734  48.669 -22.218  1.00  0.00     0.148 C 
ENDROOT
BRANCH   1  23
HETATM   23  C5  UNL     1       0.350  51.320 -17.288  1.00  0.00    -0.014 C 
HETATM   24  C6  UNL     1       1.169  52.567 -17.630  1.00  0.00     0.010 C 
BRANCH  23  25
HETATM   25  C4  UNL     1       0.986  50.512 -16.130  1.00  0.00     0.009 C 
BRANCH  25  26
HETATM   26  C3  UNL     1       1.381  51.347 -14.895  1.00  0.00     0.034 C 
BRANCH  26  27
HETATM   27  C2  UNL     1       2.850  51.489 -14.528  1.00  0.00    -0.075 C 
HETATM   28  C1  UNL     1       3.778  51.969 -15.376  1.00  0.00     0.015 C 
BRANCH  27  29
HETATM   29  C27 UNL     1       3.275  51.005 -13.141  1.00  0.00     0.107 C 
HETATM   30  C28 UNL     1       2.147  51.047 -12.111  1.00  0.00     0.026 C 
BRANCH  29  31
HETATM   31  C29 UNL     1       3.861  49.601 -13.212  1.00  0.00     0.147 C 
HETATM   32  O4  UNL     1       3.256  48.545 -13.110  1.00  0.00    -0.650 OA
BRANCH  31  33
HETATM   33  O5  UNL     1       5.196  49.600 -13.413  1.00  0.00    -0.776 OA
HETATM   34  H42 UNL     1       5.425  48.649 -13.462  1.00  0.00     0.167 HD
ENDBRANCH  31  33
ENDBRANCH  29  31
ENDBRANCH  27  29
ENDBRANCH  26  27
ENDBRANCH  25  26
ENDBRANCH  23  25
ENDBRANCH   1  23
BRANCH  22  35
HETATM   35  O3  UNL     1      -3.763  48.567 -21.242  1.00  0.00    -0.391 OA
HETATM   36  H37 UNL     1      -4.311  47.798 -21.471  1.00  0.00     0.210 HD
ENDBRANCH  22  35
TORSDOF 8
ENDMDL
