MODEL 1
REMARK minimizedAffinity -7.77602148
REMARK CNNscore 0.756040692
REMARK CNNaffinity 6.99683332
REMARK  4 active torsions:
REMARK  status: ('A' for Active; 'I' for Inactive)
REMARK    1  A    between atoms: C4_4  and  C5_5 
REMARK    2  A    between atoms: C5_5  and  C6_6 
REMARK    3  A    between atoms: C6_6  and  C7_7 
REMARK    4  A    between atoms: C7_7  and  C9_9 
ROOT
HETATM    1  C9  UNL     1       2.667  53.473 -10.842  1.00  0.00    -0.002 C 
HETATM    2  C10 UNL     1       1.285  54.196 -10.868  1.00  0.00     0.006 C 
HETATM    3  C11 UNL     1       1.360  55.379  -9.882  1.00  0.00     0.011 C 
HETATM    4  C12 UNL     1       2.857  55.528  -9.563  1.00  0.00    -0.032 C 
HETATM    5  C13 UNL     1       3.459  56.334 -10.771  1.00  0.00     0.016 C 
HETATM    6  C14 UNL     1       3.265  56.310  -8.269  1.00  0.00     0.004 C 
HETATM    7  C15 UNL     1       2.151  56.561  -7.253  1.00  0.00     0.007 C 
HETATM    8  C16 UNL     1       2.603  57.397  -6.045  1.00  0.00     0.007 C 
HETATM    9  C17 UNL     1       4.111  57.761  -5.991  1.00  0.00     0.010 C 
HETATM   10  C18 UNL     1       4.540  58.360  -4.610  1.00  0.00     0.018 C 
HETATM   11  C19 UNL     1       3.802  59.689  -4.350  1.00  0.00     0.023 C 
HETATM   12  C20 UNL     1       4.275  57.425  -3.417  1.00  0.00     0.023 C 
HETATM   13  C21 UNL     1       6.051  58.636  -4.659  1.00  0.00     0.135 C 
HETATM   14  O1  UNL     1       6.542  59.721  -4.350  1.00  0.00    -0.297 OA
HETATM   15  C22 UNL     1       6.939  57.483  -5.057  1.00  0.00     0.080 C 
HETATM   16  C23 UNL     1       6.507  56.962  -6.413  1.00  0.00     0.018 C 
HETATM   17  C24 UNL     1       5.033  56.605  -6.438  1.00  0.00    -0.026 A 
HETATM   18  C25 UNL     1       4.597  55.190  -6.175  1.00  0.00     0.021 A 
HETATM   19  C26 UNL     1       4.532  55.730  -7.603  1.00  0.00    -0.027 A 
HETATM   20  C27 UNL     1       5.495  55.074  -8.583  1.00  0.00     0.011 C 
HETATM   21  C28 UNL     1       4.851  53.963  -9.441  1.00  0.00     0.011 C 
HETATM   22  C29 UNL     1       3.310  54.021  -9.523  1.00  0.00    -0.032 C 
HETATM   23  C30 UNL     1       2.717  53.219  -8.328  1.00  0.00     0.016 C 
ENDROOT
BRANCH   1  24
HETATM   24  C7  UNL     1       2.535  51.937 -11.080  1.00  0.00    -0.014 C 
HETATM   25  C8  UNL     1       3.894  51.230 -11.022  1.00  0.00     0.010 C 
BRANCH  24  26
HETATM   26  C6  UNL     1       1.847  51.670 -12.450  1.00  0.00     0.008 C 
BRANCH  26  27
HETATM   27  C5  UNL     1       2.821  51.414 -13.609  1.00  0.00     0.028 C 
BRANCH  27  28
HETATM   28  C4  UNL     1       2.208  51.828 -14.920  1.00  0.00    -0.025 C 
HETATM   29  C2  UNL     1       2.831  52.248 -16.040  1.00  0.00    -0.091 C 
HETATM   30  C1  UNL     1       2.036  52.608 -17.268  1.00  0.00     0.042 C 
HETATM   31  C3  UNL     1       4.318  52.402 -16.207  1.00  0.00     0.042 C 
ENDBRANCH  27  28
ENDBRANCH  26  27
ENDBRANCH  24  26
ENDBRANCH   1  24
TORSDOF 4
ENDMDL
