MODEL 1
REMARK minimizedAffinity -9.72084141
REMARK  8 active torsions:
REMARK  status: ('A' for Active; 'I' for Inactive)
REMARK    1  A    between atoms: C5_5  and  O1_6 
REMARK    2  A    between atoms: C9_10  and  C10_11 
REMARK    3  A    between atoms: C10_11  and  C11_12 
REMARK    4  A    between atoms: C11_12  and  C12_13 
REMARK    5  A    between atoms: C14_15  and  C15_16 
REMARK    6  A    between atoms: C15_16  and  C16_17 
REMARK    7  A    between atoms: C16_17  and  C17_18 
REMARK    8  A    between atoms: C23_24  and  O2_25 
ROOT
HETATM    1  C12 UNL     1      -1.463   8.114  12.156  1.00  0.00    -0.087 C 
HETATM    2  C13 UNL     1      -1.211   6.667  12.502  1.00  0.00     0.043 C 
HETATM    3  C14 UNL     1      -2.369   8.893  12.785  1.00  0.00    -0.024 C 
ENDROOT
BRANCH   3   4
HETATM    4  C15 UNL     1      -3.269   8.473  13.915  1.00  0.00     0.030 C 
BRANCH   4   5
HETATM    5  C16 UNL     1      -4.705   8.077  13.523  1.00  0.00     0.042 C 
BRANCH   5   6
HETATM    6  C17 UNL     1      -5.182   6.631  13.836  1.00  0.00     0.065 C 
HETATM    7  C18 UNL     1      -4.723   6.186  15.236  1.00  0.00     0.046 C 
HETATM    8  C19 UNL     1      -6.720   6.634  13.708  1.00  0.00     0.043 C 
HETATM    9  C20 UNL     1      -7.296   5.236  13.841  1.00  0.00     0.044 C 
HETATM   10  C21 UNL     1      -6.511   4.269  13.008  1.00  0.00    -0.021 A 
HETATM   11  C22 UNL     1      -7.071   3.024  12.686  1.00  0.00     0.046 A 
HETATM   12  C27 UNL     1      -5.213   4.576  12.577  1.00  0.00     0.082 A 
HETATM   13  C23 UNL     1      -6.347   2.115  11.924  1.00  0.00     0.066 A 
HETATM   14  C24 UNL     1      -5.068   2.420  11.478  1.00  0.00     0.046 A 
HETATM   15  C25 UNL     1      -4.491   3.656  11.796  1.00  0.00    -0.025 A 
HETATM   16  C26 UNL     1      -3.104   3.977  11.325  1.00  0.00     0.051 C 
HETATM   17  O3  UNL     1      -4.587   5.764  12.853  1.00  0.00    -0.340 OA
BRANCH  13  18
HETATM   18  O2  UNL     1      -6.864   0.899  11.586  1.00  0.00    -0.361 OA
HETATM   19  H36 UNL     1      -7.771   0.842  11.930  1.00  0.00     0.217 HD
ENDBRANCH  13  18
ENDBRANCH   5   6
ENDBRANCH   4   5
ENDBRANCH   3   4
BRANCH   1  20
HETATM   20  C11 UNL     1      -0.545   8.689  11.089  1.00  0.00     0.034 C 
BRANCH  20  21
HETATM   21  C10 UNL     1       0.168   7.609  10.257  1.00  0.00     0.014 C 
BRANCH  21  22
HETATM   22  C9  UNL     1       1.709   7.797  10.201  1.00  0.00     0.024 C 
HETATM   23  C2  UNL     1       2.342   7.911   8.818  1.00  0.00    -0.084 C 
HETATM   24  C1  UNL     1       1.792   7.505   7.663  1.00  0.00     0.015 C 
HETATM   25  C3  UNL     1       3.748   8.478   8.842  1.00  0.00     0.036 C 
HETATM   26  C4  UNL     1       4.517   8.041  10.092  1.00  0.00     0.037 C 
HETATM   27  C5  UNL     1       4.018   6.688  10.601  1.00  0.00     0.127 C 
HETATM   28  C6  UNL     1       2.514   6.735  11.055  1.00  0.00    -0.014 C 
HETATM   29  C7  UNL     1       2.402   7.115  12.552  1.00  0.00     0.018 C 
HETATM   30  C8  UNL     1       1.942   5.307  10.901  1.00  0.00     0.018 C 
BRANCH  27  31
HETATM   31  O1  UNL     1       4.880   6.216  11.635  1.00  0.00    -0.395 OA
HETATM   32  H8  UNL     1       4.997   6.931  12.283  1.00  0.00     0.210 HD
ENDBRANCH  27  31
ENDBRANCH  21  22
ENDBRANCH  20  21
ENDBRANCH   1  20
TORSDOF 8
ENDMDL
