MODEL 1
REMARK minimizedAffinity -8.3301487
REMARK CNNscore 0.142982453
REMARK CNNaffinity 5.06213427
REMARK  15 active torsions:
REMARK  status: ('A' for Active; 'I' for Inactive)
REMARK    1  A    between atoms: C2_2  and  C3_3 
REMARK    2  A    between atoms: C3_3  and  C4_4 
REMARK    3  A    between atoms: C4_4  and  O1_5 
REMARK    4  A    between atoms: C4_4  and  C5_6 
REMARK    5  A    between atoms: C5_6  and  C6_7 
REMARK    6  A    between atoms: C6_7  and  O2_8 
REMARK    7  A    between atoms: C6_7  and  C7_9 
REMARK    8  A    between atoms: C7_9  and  C8_10 
REMARK    9  A    between atoms: C8_10  and  C9_12 
REMARK   10  A    between atoms: C9_12  and  C10_13 
REMARK   11  A    between atoms: C10_13  and  C11_14 
REMARK   12  A    between atoms: C25_29  and  O5_30 
REMARK   13  A    between atoms: C29_34  and  C30_35 
REMARK   14  A    between atoms: C30_35  and  N1_36 
REMARK   15  A    between atoms: C30_35  and  N2_37 
ROOT
HETATM    1  C11 UNL     1       9.469  13.275  19.204  1.00  0.00    -0.055 A 
HETATM    2  C12 UNL     1      10.103  13.533  20.421  1.00  0.00     0.010 A 
HETATM    3  C13 UNL     1       9.518  13.129  21.618  1.00  0.00     0.041 A 
HETATM    4  C14 UNL     1       8.270  12.501  21.632  1.00  0.00     0.120 A 
HETATM    5  O4  UNL     1       7.911  12.094  22.902  1.00  0.00    -0.258 OA
HETATM    6  C15 UNL     1       6.638  11.787  23.032  1.00  0.00     0.061 C 
HETATM    7  C16 UNL     1       5.471  11.571  22.903  1.00  0.00    -0.064 C 
HETATM    8  C17 UNL     1       4.147  11.449  22.285  1.00  0.00     0.044 C 
HETATM    9  C18 UNL     1       3.072  11.518  23.387  1.00  0.00     0.024 C 
HETATM   10  C19 UNL     1       3.050  10.122  24.013  1.00  0.00     0.002 C 
HETATM   11  C20 UNL     1       3.607   9.170  22.959  1.00  0.00     0.002 C 
HETATM   12  C21 UNL     1       3.938  10.027  21.734  1.00  0.00     0.024 C 
HETATM   13  C22 UNL     1       4.037  12.595  21.200  1.00  0.00     0.135 C 
HETATM   14  C23 UNL     1       2.654  12.591  20.606  1.00  0.00    -0.093 C 
HETATM   15  C24 UNL     1       1.559  12.342  20.167  1.00  0.00    -0.069 C 
HETATM   16  C25 UNL     1       0.289  11.694  19.762  1.00  0.00     0.230 C 
HETATM   17  C26 UNL     1      -0.488  12.331  18.622  1.00  0.00    -0.011 A 
HETATM   18  C27 UNL     1      -1.495  13.243  19.022  1.00  0.00     0.012 A 
HETATM   19  C28 UNL     1      -2.406  13.784  18.112  1.00  0.00     0.012 A 
HETATM   20  C29 UNL     1      -2.351  13.438  16.762  1.00  0.00     0.004 A 
HETATM   21  C31 UNL     1      -1.311  12.599  16.340  1.00  0.00     0.019 A 
HETATM   22  C32 UNL     1      -0.369  12.035  17.234  1.00  0.00    -0.043 A 
HETATM   23  C33 UNL     1       0.729  11.198  16.584  1.00  0.00     0.080 C 
HETATM   24  C34 UNL     1       1.951  12.022  16.342  1.00  0.00    -0.025 C 
HETATM   25  C35 UNL     1       2.127  13.073  15.503  1.00  0.00     0.096 C 
HETATM   26  N3  UNL     1       3.226  13.905  15.796  1.00  0.00    -0.364 N 
ATOM     27  H3  UNL     1       3.551  14.739  15.307  1.00  0.00     0.165 HD
HETATM   28  C36 UNL     1       3.714  13.334  16.847  1.00  0.00     0.060 C 
HETATM   29  C37 UNL     1       4.734  13.643  17.851  1.00  0.00     0.123 C 
HETATM   30  N4  UNL     1       4.734  12.690  18.727  1.00  0.00    -0.335 N 
HETATM   31  C38 UNL     1       3.781  11.637  18.224  1.00  0.00     0.107 C 
HETATM   32  C39 UNL     1       3.056  12.097  17.210  1.00  0.00     0.015 C 
HETATM   33  C40 UNL     1       5.254  12.677  20.119  1.00  0.00     0.251 C 
HETATM   34  O6  UNL     1       6.325  11.735  20.343  1.00  0.00    -0.321 OA
HETATM   35  C41 UNL     1       7.569  12.332  20.421  1.00  0.00     0.106 A 
HETATM   36  C42 UNL     1       8.195  12.685  19.214  1.00  0.00     0.047 A 
ENDROOT
BRANCH   1  37
HETATM   37  C10 UNL     1      10.190  13.575  17.905  1.00  0.00     0.046 C 
BRANCH  37  38
HETATM   38  C9  UNL     1      11.542  12.868  17.800  1.00  0.00     0.083 C 
BRANCH  38  39
HETATM   39  C8  UNL     1      12.715  13.822  17.669  1.00  0.00     0.129 C 
HETATM   40  O3  UNL     1      12.614  14.998  18.018  1.00  0.00    -0.298 OA
BRANCH  39  41
HETATM   41  C7  UNL     1      13.988  13.288  17.039  1.00  0.00     0.110 C 
BRANCH  41  42
HETATM   42  C6  UNL     1      14.973  12.792  18.102  1.00  0.00     0.127 C 
BRANCH  42  43
HETATM   43  C5  UNL     1      15.004  13.718  19.323  1.00  0.00     0.063 C 
BRANCH  43  44
HETATM   44  C4  UNL     1      15.690  13.107  20.558  1.00  0.00     0.120 C 
BRANCH  44  45
HETATM   45  C3  UNL     1      16.959  12.304  20.234  1.00  0.00     0.031 C 
BRANCH  45  46
HETATM   46  C2  UNL     1      18.221  13.161  20.023  1.00  0.00    -0.002 C 
HETATM   47  C1  UNL     1      18.961  12.877  18.724  1.00  0.00     0.005 C 
ENDBRANCH  45  46
ENDBRANCH  44  45
BRANCH  44  48
HETATM   48  O1  UNL     1      14.731  12.249  21.179  1.00  0.00    -0.395 OA
HETATM   49  H9  UNL     1      14.032  12.803  21.567  1.00  0.00     0.210 HD
ENDBRANCH  44  48
ENDBRANCH  43  44
ENDBRANCH  42  43
BRANCH  42  50
HETATM   50  O2  UNL     1      14.517  11.500  18.513  1.00  0.00    -0.395 OA
HETATM   51  H13 UNL     1      15.015  10.833  18.007  1.00  0.00     0.210 HD
ENDBRANCH  42  50
ENDBRANCH  41  42
ENDBRANCH  39  41
ENDBRANCH  38  39
ENDBRANCH  37  38
ENDBRANCH   1  37
BRANCH  16  52
HETATM   52  O5  UNL     1       0.604  10.329  19.476  1.00  0.00    -0.379 OA
HETATM   53  H32 UNL     1       0.372   9.834  20.285  1.00  0.00     0.211 HD
ENDBRANCH  16  52
BRANCH  20  54
HETATM   54  C30 UNL     1      -3.383  13.989  15.801  1.00  0.00     0.479 C 
BRANCH  54  55
HETATM   55  N1  UNL     1      -4.266  14.955  16.411  1.00  0.00     0.116 N 
HETATM   56  H36 UNL     1      -3.742  15.820  16.538  1.00  0.00     0.316 HD
HETATM   57  H37 UNL     1      -4.984  15.159  15.718  1.00  0.00     0.316 HD
ENDBRANCH  54  55
BRANCH  54  58
HETATM   58  N2  UNL     1      -4.294  12.984  15.343  1.00  0.00     0.116 N 
HETATM   59  H38 UNL     1      -4.832  12.672  16.146  1.00  0.00     0.316 HD
HETATM   60  H39 UNL     1      -3.769  12.178  15.011  1.00  0.00     0.316 HD
ENDBRANCH  54  58
ENDBRANCH  20  54
TORSDOF 15
ENDMDL
