MODEL 1
REMARK minimizedAffinity -9.64939404
REMARK  5 active torsions:
REMARK  status: ('A' for Active; 'I' for Inactive)
REMARK    1  A    between atoms: C3_3  and  C4_4 
REMARK    2  A    between atoms: C4_4  and  O1_5 
REMARK    3  A    between atoms: C6_9  and  C7_10 
REMARK    4  A    between atoms: C20_24  and  O5_25 
REMARK    5  A    between atoms: C21_26  and  O6_27 
ROOT
HETATM    1  C7  UNL     1       6.259   7.201  11.978  1.00  0.00     0.089 C 
HETATM    2  C8  UNL     1       6.636   5.757  11.581  1.00  0.00     0.049 C 
HETATM    3  O4  UNL     1       4.911   7.279  12.542  1.00  0.00    -0.365 OA
HETATM    4  C9  UNL     1       4.159   8.251  11.735  1.00  0.00     0.074 C 
HETATM    5  C10 UNL     1       4.783   9.642  12.006  1.00  0.00     0.040 C 
HETATM    6  C11 UNL     1       6.092   9.579  11.193  1.00  0.00     0.011 C 
HETATM    7  C12 UNL     1       6.100   8.104  10.716  1.00  0.00     0.034 C 
HETATM    8  C13 UNL     1       4.597   7.914  10.305  1.00  0.00    -0.006 C 
HETATM    9  C14 UNL     1       4.145   8.894   9.190  1.00  0.00     0.019 C 
HETATM   10  C15 UNL     1       4.057   6.518   9.915  1.00  0.00     0.013 C 
HETATM   11  C16 UNL     1       2.535   6.403  10.132  1.00  0.00     0.007 C 
HETATM   12  C17 UNL     1       2.139   6.690  11.606  1.00  0.00     0.011 C 
HETATM   13  C18 UNL     1       2.650   8.119  11.996  1.00  0.00     0.029 C 
HETATM   14  C19 UNL     1       2.301   8.474  13.450  1.00  0.00     0.043 C 
HETATM   15  C20 UNL     1       0.809   8.309  13.756  1.00  0.00     0.154 C 
HETATM   16  C21 UNL     1       0.323   6.883  13.409  1.00  0.00     0.098 C 
HETATM   17  C22 UNL     1      -1.160   6.689  13.794  1.00  0.00     0.042 C 
HETATM   18  C23 UNL     1      -1.610   5.244  13.575  1.00  0.00     0.010 C 
HETATM   19  C24 UNL     1      -1.285   4.726  12.183  1.00  0.00     0.079 C 
HETATM   20  C25 UNL     1       0.147   5.038  11.776  1.00  0.00     0.138 C 
HETATM   21  O7  UNL     1       0.847   4.151  11.288  1.00  0.00    -0.297 OA
HETATM   22  C26 UNL     1       0.601   6.509  11.909  1.00  0.00     0.054 C 
HETATM   23  C27 UNL     1      -0.240   7.313  10.886  1.00  0.00     0.027 C 
ENDROOT
BRANCH   1  24
HETATM   24  C6  UNL     1       7.251   7.677  13.090  1.00  0.00     0.170 C 
HETATM   25  O3  UNL     1       6.534   7.913  14.316  1.00  0.00    -0.309 OA
HETATM   26  C5  UNL     1       7.193   8.452  15.375  1.00  0.00     0.292 C 
HETATM   27  C3  UNL     1       8.531   9.054  15.118  1.00  0.00     0.042 C 
HETATM   28  O2  UNL     1       6.698   8.456  16.497  1.00  0.00    -0.260 OA
HETATM   29  C2  UNL     1       8.928   9.317  13.855  1.00  0.00    -0.067 C 
HETATM   30  C1  UNL     1      10.204  10.015  13.480  1.00  0.00     0.044 C 
HETATM   31  C28 UNL     1       8.050   8.923  12.695  1.00  0.00     0.070 C 
BRANCH  27  32
HETATM   32  C4  UNL     1       9.322   9.348  16.357  1.00  0.00     0.209 C 
BRANCH  32  33
HETATM   33  O1  UNL     1       9.476   8.161  17.120  1.00  0.00    -0.396 OA
HETATM   34  H6  UNL     1      10.255   7.698  16.758  1.00  0.00     0.209 HD
ENDBRANCH  32  33
ENDBRANCH  27  32
ENDBRANCH   1  24
BRANCH  15  35
HETATM   35  O5  UNL     1       0.052   9.305  13.072  1.00  0.00    -0.392 OA
HETATM   36  H28 UNL     1       0.370  10.175  13.373  1.00  0.00     0.210 HD
ENDBRANCH  15  35
BRANCH  16  37
HETATM   37  O6  UNL     1       1.082   5.975  14.243  1.00  0.00    -0.386 OA
HETATM   38  H29 UNL     1       0.887   6.172  15.176  1.00  0.00     0.210 HD
ENDBRANCH  16  37
TORSDOF 5
ENDMDL
