MODEL 1
REMARK minimizedAffinity -7.58942604
REMARK CNNscore 0.545580685
REMARK CNNaffinity 6.10136414
REMARK  13 active torsions:
REMARK  status: ('A' for Active; 'I' for Inactive)
REMARK    1  A    between atoms: C3_3  and  O1_4 
REMARK    2  A    between atoms: N1_14  and  O2_16 
REMARK    3  A    between atoms: O2_16  and  C13_17 
REMARK    4  A    between atoms: C13_17  and  C14_18 
REMARK       I    between atoms: C14_18  and  N2_20 
REMARK    5  A    between atoms: N2_20  and  C15_21 
REMARK    6  A    between atoms: C15_21  and  C16_22 
REMARK    7  A    between atoms: C15_21  and  C21_32 
REMARK       I    between atoms: C16_22  and  N3_24 
REMARK    8  A    between atoms: N3_24  and  C17_25 
REMARK    9  A    between atoms: C17_25  and  C18_26 
REMARK   10  A    between atoms: C17_25  and  C19_28 
REMARK   11  A    between atoms: C18_26  and  S1_27 
REMARK   12  A    between atoms: C19_28  and  C20_29 
REMARK   13  A    between atoms: C20_29  and  O6_31 
ROOT
HETATM    1  C1  UNL     1       1.269  52.499 -21.182  1.00  0.00     0.015 C 
HETATM    2  C2  UNL     1       0.295  51.846 -20.922  1.00  0.00    -0.078 C 
HETATM    3  C3  UNL     1      -0.888  51.040 -20.585  1.00  0.00     0.128 C 
HETATM    4  C4  UNL     1      -1.735  51.684 -19.457  1.00  0.00     0.052 C 
HETATM    5  C5  UNL     1      -3.202  51.293 -19.735  1.00  0.00     0.010 C 
HETATM    6  C6  UNL     1      -3.120  50.330 -20.916  1.00  0.00     0.002 C 
HETATM    7  C7  UNL     1      -4.392  49.973 -21.700  1.00  0.00    -0.004 C 
HETATM    8  C8  UNL     1      -5.265  51.170 -22.125  1.00  0.00     0.010 C 
HETATM    9  C9  UNL     1      -5.928  51.005 -23.487  1.00  0.00     0.035 C 
HETATM   10  C10 UNL     1      -6.399  49.591 -23.645  1.00  0.00    -0.069 C 
HETATM   11  C11 UNL     1      -7.714  49.302 -23.691  1.00  0.00     0.030 C 
HETATM   12  C12 UNL     1      -8.200  47.902 -23.784  1.00  0.00     0.032 C 
HETATM   13  N1  UNL     1      -9.474  47.709 -23.984  1.00  0.00    -0.271 N 
ATOM     14  H1  UNL     1     -10.171  48.451 -24.038  1.00  0.00     0.194 HD
HETATM   15  C24 UNL     1      -7.189  46.774 -23.662  1.00  0.00     0.060 C 
HETATM   16  C25 UNL     1      -5.872  47.237 -23.049  1.00  0.00     0.020 C 
HETATM   17  C26 UNL     1      -5.301  48.533 -23.689  1.00  0.00    -0.016 C 
HETATM   18  C27 UNL     1      -4.960  48.255 -25.170  1.00  0.00     0.020 C 
HETATM   19  C28 UNL     1      -4.031  48.971 -22.847  1.00  0.00     0.002 C 
HETATM   20  C29 UNL     1      -2.798  49.434 -23.669  1.00  0.00     0.007 C 
HETATM   21  C30 UNL     1      -1.580  49.778 -22.791  1.00  0.00     0.014 C 
HETATM   22  C31 UNL     1      -1.917  50.852 -21.744  1.00  0.00     0.003 C 
HETATM   23  C32 UNL     1      -2.160  52.202 -22.470  1.00  0.00     0.020 C 
ENDROOT
BRANCH   3  24
HETATM   24  O1  UNL     1      -0.434  49.768 -20.116  1.00  0.00    -0.377 OA
HETATM   25  H2  UNL     1       0.234  49.940 -19.428  1.00  0.00     0.211 HD
ENDBRANCH   3  24
BRANCH  13  26
HETATM   26  O2  UNL     1      -9.755  46.338 -24.113  1.00  0.00    -0.271 OA
BRANCH  26  27
HETATM   27  C13 UNL     1     -10.298  46.088 -25.400  1.00  0.00     0.303 C 
BRANCH  27  28
HETATM   28  C14 UNL     1     -11.515  45.179 -25.275  1.00  0.00     0.244 C 
HETATM   29  O3  UNL     1     -11.581  44.204 -24.528  1.00  0.00    -0.271 OA
HETATM   30  N2  UNL     1     -12.578  45.545 -26.080  1.00  0.00    -0.346 N 
HETATM   31  H16 UNL     1     -12.622  46.502 -26.411  1.00  0.00     0.163 HD
BRANCH  30  32
HETATM   32  C15 UNL     1     -13.815  44.753 -26.126  1.00  0.00     0.180 C 
BRANCH  32  33
HETATM   33  C16 UNL     1     -14.938  45.604 -25.478  1.00  0.00     0.241 C 
HETATM   34  O4  UNL     1     -14.922  46.833 -25.430  1.00  0.00    -0.271 OA
HETATM   35  N3  UNL     1     -15.964  44.849 -24.944  1.00  0.00    -0.353 N 
HETATM   36  H18 UNL     1     -15.788  43.846 -24.852  1.00  0.00     0.163 HD
BRANCH  35  37
HETATM   37  C17 UNL     1     -17.048  45.440 -24.153  1.00  0.00     0.103 C 
BRANCH  37  38
HETATM   38  C18 UNL     1     -16.962  45.020 -22.666  1.00  0.00     0.096 C 
BRANCH  38  39
HETATM   39  S1  UNL     1     -16.596  46.394 -21.518  1.00  0.00    -0.180 SA
HETATM   40  H22 UNL     1     -16.642  45.665 -20.392  1.00  0.00     0.101 HD
ENDBRANCH  38  39
ENDBRANCH  37  38
BRANCH  37  41
HETATM   41  C19 UNL     1     -18.397  45.118 -24.812  1.00  0.00     0.136 C 
BRANCH  41  42
HETATM   42  C20 UNL     1     -19.242  46.347 -24.992  1.00  0.00     0.141 C 
HETATM   43  O5  UNL     1     -20.435  46.391 -25.241  1.00  0.00    -0.650 OA
BRANCH  42  44
HETATM   44  O6  UNL     1     -18.537  47.480 -24.816  1.00  0.00    -0.776 OA
HETATM   45  H25 UNL     1     -19.190  48.200 -24.938  1.00  0.00     0.167 HD
ENDBRANCH  42  44
ENDBRANCH  41  42
ENDBRANCH  37  41
ENDBRANCH  35  37
ENDBRANCH  32  33
BRANCH  32  46
HETATM   46  C21 UNL     1     -14.149  44.332 -27.577  1.00  0.00     0.009 C 
HETATM   47  C22 UNL     1     -14.870  45.452 -28.339  1.00  0.00     0.012 C 
HETATM   48  C23 UNL     1     -12.879  43.957 -28.350  1.00  0.00     0.012 C 
ENDBRANCH  32  46
ENDBRANCH  30  32
ENDBRANCH  27  28
ENDBRANCH  26  27
ENDBRANCH  13  26
TORSDOF 13
ENDMDL
