MODEL 1
REMARK minimizedAffinity -10.1849337
REMARK CNNscore 0.59732753
REMARK CNNaffinity 7.22220373
REMARK  13 active torsions:
REMARK  status: ('A' for Active; 'I' for Inactive)
REMARK    1  A    between atoms: C12_13  and  O2_14 
REMARK    2  A    between atoms: C19_21  and  O3_22 
REMARK    3  A    between atoms: C19_21  and  C20_23 
REMARK    4  A    between atoms: C20_23  and  C21_25 
REMARK    5  A    between atoms: C21_25  and  O5_26 
REMARK    6  A    between atoms: O5_26  and  C22_27 
REMARK    7  A    between atoms: C22_27  and  C23_29 
REMARK    8  A    between atoms: C23_29  and  C24_30 
REMARK    9  A    between atoms: C24_30  and  C25_31 
REMARK       I    between atoms: C25_31  and  N1_33 
REMARK   10  A    between atoms: N1_33  and  C26_34 
REMARK   11  A    between atoms: C26_34  and  C27_35 
REMARK   12  A    between atoms: C30_38  and  C31_39 
REMARK   13  A    between atoms: C31_39  and  O9_41 
ROOT
HETATM    1  C1  UNL     1       4.348   8.065  10.104  1.00  0.00     0.020 C 
HETATM    2  C2  UNL     1       2.921   7.472  10.171  1.00  0.00    -0.014 C 
HETATM    3  C3  UNL     1       2.973   6.034  10.753  1.00  0.00     0.022 C 
HETATM    4  C4  UNL     1       3.717   5.045   9.857  1.00  0.00     0.084 C 
HETATM    5  C5  UNL     1       3.249   5.101   8.424  1.00  0.00     0.149 C 
HETATM    6  O1  UNL     1       3.487   4.195   7.626  1.00  0.00    -0.293 OA
HETATM    7  C6  UNL     1       2.514   6.299   7.958  1.00  0.00     0.053 C 
HETATM    8  C7  UNL     1       2.362   7.379   8.744  1.00  0.00    -0.068 C 
HETATM    9  C8  UNL     1       1.529   8.547   8.290  1.00  0.00     0.035 C 
HETATM   10  C9  UNL     1       0.300   8.719   9.192  1.00  0.00     0.010 C 
HETATM   11  C10 UNL     1       0.526   8.251  10.653  1.00  0.00    -0.002 C 
HETATM   12  C11 UNL     1       2.019   8.447  11.031  1.00  0.00     0.031 C 
HETATM   13  C12 UNL     1       2.286   8.394  12.552  1.00  0.00     0.124 C 
HETATM   14  C13 UNL     1       1.124   7.794  13.347  1.00  0.00     0.045 C 
HETATM   15  C14 UNL     1      -0.238   8.504  13.122  1.00  0.00     0.001 C 
HETATM   16  C15 UNL     1      -0.326   9.762  14.027  1.00  0.00     0.019 C 
HETATM   17  C16 UNL     1      -0.432   8.955  11.637  1.00  0.00     0.002 C 
HETATM   18  C17 UNL     1      -1.917   8.687  11.302  1.00  0.00     0.009 C 
HETATM   19  C18 UNL     1      -2.588   8.233  12.595  1.00  0.00     0.047 C 
HETATM   20  C19 UNL     1      -1.459   7.558  13.370  1.00  0.00     0.128 C 
ENDROOT
BRANCH  20  21
HETATM   21  O3  UNL     1      -1.236   6.286  12.732  1.00  0.00    -0.381 OA
HETATM   22  H27 UNL     1      -0.838   5.702  13.411  1.00  0.00     0.211 HD
ENDBRANCH  20  21
BRANCH  20  23
HETATM   23  C20 UNL     1      -1.743   7.251  14.853  1.00  0.00     0.185 C 
HETATM   24  O4  UNL     1      -0.791   7.003  15.606  1.00  0.00    -0.292 OA
BRANCH  23  25
HETATM   25  C21 UNL     1      -3.186   7.269  15.350  1.00  0.00     0.260 C 
BRANCH  25  26
HETATM   26  O5  UNL     1      -4.041   6.439  14.563  1.00  0.00    -0.314 OA
BRANCH  26  27
HETATM   27  C22 UNL     1      -5.278   6.244  15.096  1.00  0.00     0.259 C 
HETATM   28  O6  UNL     1      -5.509   6.061  16.285  1.00  0.00    -0.265 OA
BRANCH  27  29
HETATM   29  C23 UNL     1      -6.328   6.321  14.015  1.00  0.00     0.120 C 
BRANCH  29  30
HETATM   30  C24 UNL     1      -7.440   5.310  14.267  1.00  0.00     0.112 C 
BRANCH  30  31
HETATM   31  C25 UNL     1      -7.315   4.112  13.345  1.00  0.00     0.218 C 
HETATM   32  O7  UNL     1      -8.082   3.157  13.385  1.00  0.00    -0.274 OA
HETATM   33  N1  UNL     1      -6.236   4.192  12.494  1.00  0.00    -0.357 N 
HETATM   34  H34 UNL     1      -5.778   5.088  12.388  1.00  0.00     0.162 HD
BRANCH  33  35
HETATM   35  C26 UNL     1      -6.049   3.235  11.428  1.00  0.00     0.161 C 
BRANCH  35  36
HETATM   36  C27 UNL     1      -4.609   2.790  11.361  1.00  0.00    -0.040 A 
HETATM   37  C28 UNL     1      -4.274   1.449  11.601  1.00  0.00     0.010 A 
HETATM   38  C29 UNL     1      -2.951   1.017  11.500  1.00  0.00     0.019 A 
HETATM   39  C30 UNL     1      -1.941   1.920  11.150  1.00  0.00     0.037 A 
HETATM   40  C32 UNL     1      -2.268   3.260  10.907  1.00  0.00     0.019 A 
HETATM   41  C33 UNL     1      -3.595   3.690  11.008  1.00  0.00     0.010 A 
BRANCH  39  42
HETATM   42  C31 UNL     1      -0.552   1.414  11.041  1.00  0.00     0.176 C 
HETATM   43  O8  UNL     1      -0.217   0.245  11.016  1.00  0.00    -0.646 OA
BRANCH  42  44
HETATM   44  O9  UNL     1       0.358   2.401  10.959  1.00  0.00    -0.773 OA
HETATM   45  H39 UNL     1       1.210   1.924  10.881  1.00  0.00     0.167 HD
ENDBRANCH  42  44
ENDBRANCH  39  42
ENDBRANCH  35  36
ENDBRANCH  33  35
ENDBRANCH  30  31
ENDBRANCH  29  30
ENDBRANCH  27  29
ENDBRANCH  26  27
ENDBRANCH  25  26
ENDBRANCH  23  25
ENDBRANCH  20  23
BRANCH  13  46
HETATM   46  O2  UNL     1       2.534   9.717  13.030  1.00  0.00    -0.395 OA
HETATM   47  H16 UNL     1       3.353  10.036  12.613  1.00  0.00     0.210 HD
ENDBRANCH  13  46
TORSDOF 13
ENDMDL
