MODEL 1
REMARK minimizedAffinity -10.6038189
REMARK  4 active torsions:
REMARK  status: ('A' for Active; 'I' for Inactive)
REMARK    1  A    between atoms: C3_3  and  C4_4 
REMARK    2  A    between atoms: C4_4  and  O1_5 
REMARK    3  A    between atoms: C6_9  and  C7_10 
REMARK    4  A    between atoms: C7_10  and  C9_12 
ROOT
HETATM    1  C9  UNL     1      -0.409  50.948 -19.427  1.00  0.00     0.000 C 
HETATM    2  C10 UNL     1      -0.737  49.498 -18.964  1.00  0.00     0.006 C 
HETATM    3  C11 UNL     1      -1.567  48.839 -20.076  1.00  0.00     0.006 C 
HETATM    4  C12 UNL     1      -1.510  49.846 -21.215  1.00  0.00    -0.001 C 
HETATM    5  C13 UNL     1      -2.551  49.741 -22.340  1.00  0.00     0.000 C 
HETATM    6  C14 UNL     1      -2.640  48.331 -22.946  1.00  0.00     0.010 C 
HETATM    7  C15 UNL     1      -3.722  48.251 -24.023  1.00  0.00     0.036 C 
HETATM    8  C16 UNL     1      -3.588  49.346 -25.057  1.00  0.00    -0.063 A 
HETATM    9  C17 UNL     1      -3.533  49.036 -26.364  1.00  0.00     0.058 A 
HETATM   10  C18 UNL     1      -3.367  50.069 -27.409  1.00  0.00     0.172 A 
HETATM   11  O4  UNL     1      -3.357  49.778 -28.600  1.00  0.00    -0.289 OA
HETATM   12  C19 UNL     1      -3.202  51.463 -26.962  1.00  0.00     0.052 A 
HETATM   13  C20 UNL     1      -3.253  51.780 -25.661  1.00  0.00    -0.008 A 
HETATM   14  C21 UNL     1      -3.485  50.786 -24.524  1.00  0.00     0.005 A 
HETATM   15  C22 UNL     1      -4.866  51.175 -23.939  1.00  0.00     0.025 C 
HETATM   16  C23 UNL     1      -2.299  50.841 -23.448  1.00  0.00    -0.025 C 
HETATM   17  C24 UNL     1      -0.939  50.593 -24.183  1.00  0.00     0.017 C 
HETATM   18  C25 UNL     1      -2.185  52.236 -22.750  1.00  0.00     0.012 C 
HETATM   19  C26 UNL     1      -1.209  52.289 -21.555  1.00  0.00     0.011 C 
HETATM   20  C27 UNL     1      -1.524  51.222 -20.490  1.00  0.00    -0.036 C 
HETATM   21  C28 UNL     1      -2.868  51.554 -19.795  1.00  0.00     0.016 C 
ENDROOT
BRANCH   1  22
HETATM   22  C7  UNL     1      -0.206  51.932 -18.230  1.00  0.00     0.016 C 
HETATM   23  C8  UNL     1       0.211  53.326 -18.727  1.00  0.00     0.013 C 
BRANCH  22  24
HETATM   24  C6  UNL     1       0.867  51.469 -17.192  1.00  0.00     0.140 C 
HETATM   25  O3  UNL     1       0.223  51.098 -15.962  1.00  0.00    -0.311 OA
HETATM   26  C5  UNL     1       0.966  50.782 -14.873  1.00  0.00     0.292 C 
HETATM   27  C3  UNL     1       2.424  51.090 -14.928  1.00  0.00     0.042 C 
HETATM   28  O2  UNL     1       0.449  50.279 -13.883  1.00  0.00    -0.260 OA
HETATM   29  C2  UNL     1       2.904  51.922 -15.880  1.00  0.00    -0.067 C 
HETATM   30  C1  UNL     1       4.338  52.356 -15.999  1.00  0.00     0.044 C 
HETATM   31  C29 UNL     1       1.974  52.487 -16.925  1.00  0.00     0.067 C 
BRANCH  27  32
HETATM   32  C4  UNL     1       3.251  50.416 -13.872  1.00  0.00     0.209 C 
BRANCH  32  33
HETATM   33  O1  UNL     1       4.613  50.290 -14.267  1.00  0.00    -0.396 OA
HETATM   34  H6  UNL     1       4.709  50.643 -15.170  1.00  0.00     0.209 HD
ENDBRANCH  32  33
ENDBRANCH  27  32
ENDBRANCH  22  24
ENDBRANCH   1  22
TORSDOF 4
ENDMDL
