MODEL 1
REMARK minimizedAffinity -9.83212185
REMARK CNNscore 0.67411232
REMARK CNNaffinity 6.66662169
REMARK  11 active torsions:
REMARK  status: ('A' for Active; 'I' for Inactive)
REMARK    1  A    between atoms: C5_7  and  C6_8 
REMARK    2  A    between atoms: C6_8  and  C7_9 
REMARK    3  A    between atoms: C7_9  and  O3_10 
REMARK    4  A    between atoms: C7_9  and  C15_19 
REMARK    5  A    between atoms: O3_10  and  C8_11 
REMARK    6  A    between atoms: C8_11  and  C9_13 
REMARK    7  A    between atoms: C15_19  and  O5_21 
REMARK    8  A    between atoms: C15_19  and  C17_22 
REMARK    9  A    between atoms: C20_25  and  O6_26 
REMARK   10  A    between atoms: C26_33  and  O8_34 
REMARK   11  A    between atoms: C27_35  and  O9_36 
ROOT
HETATM    1  C17 UNL     1      -9.526  47.440 -28.384  1.00  0.00     0.034 C 
HETATM    2  C18 UNL     1      -9.419  48.215 -27.063  1.00  0.00     0.012 C 
HETATM    3  C19 UNL     1     -10.341  47.430 -26.144  1.00  0.00     0.044 C 
HETATM    4  C20 UNL     1     -11.606  47.216 -26.990  1.00  0.00     0.089 C 
HETATM    5  C21 UNL     1     -12.474  46.019 -26.630  1.00  0.00    -0.037 C 
HETATM    6  C22 UNL     1     -12.312  45.271 -25.527  1.00  0.00     0.057 C 
HETATM    7  C23 UNL     1     -13.107  44.050 -25.278  1.00  0.00     0.154 C 
HETATM    8  O7  UNL     1     -12.853  43.388 -24.272  1.00  0.00    -0.293 OA
HETATM    9  C24 UNL     1     -14.165  43.616 -26.281  1.00  0.00     0.071 C 
HETATM   10  C25 UNL     1     -13.651  42.391 -27.047  1.00  0.00     0.047 C 
HETATM   11  C26 UNL     1     -14.531  41.974 -28.227  1.00  0.00     0.147 C 
HETATM   12  C27 UNL     1     -15.841  42.763 -28.332  1.00  0.00     0.147 C 
HETATM   13  C28 UNL     1     -15.583  44.267 -28.347  1.00  0.00     0.044 C 
HETATM   14  C29 UNL     1     -14.685  44.781 -27.172  1.00  0.00    -0.023 C 
HETATM   15  C30 UNL     1     -15.602  45.668 -26.270  1.00  0.00     0.016 C 
HETATM   16  C31 UNL     1     -13.511  45.695 -27.688  1.00  0.00     0.027 C 
HETATM   17  C32 UNL     1     -12.766  45.231 -28.959  1.00  0.00     0.011 C 
HETATM   18  C33 UNL     1     -11.316  45.736 -29.070  1.00  0.00     0.014 C 
HETATM   19  C34 UNL     1     -11.089  47.165 -28.498  1.00  0.00    -0.002 C 
HETATM   20  C35 UNL     1     -11.841  48.190 -29.374  1.00  0.00     0.019 C 
ENDROOT
BRANCH   1  21
HETATM   21  C15 UNL     1      -8.718  48.092 -29.556  1.00  0.00     0.085 C 
HETATM   22  C16 UNL     1      -9.517  48.061 -30.870  1.00  0.00     0.049 C 
BRANCH  21  23
HETATM   23  C7  UNL     1      -7.309  47.403 -29.774  1.00  0.00     0.167 C 
BRANCH  23  24
HETATM   24  C6  UNL     1      -6.424  48.077 -30.849  1.00  0.00     0.043 C 
BRANCH  24  25
HETATM   25  C5  UNL     1      -6.444  47.331 -32.209  1.00  0.00     0.026 C 
HETATM   26  C2  UNL     1      -5.505  47.998 -33.215  1.00  0.00     0.087 C 
HETATM   27  C1  UNL     1      -5.940  47.798 -34.662  1.00  0.00     0.021 C 
HETATM   28  C3  UNL     1      -4.206  47.276 -32.971  1.00  0.00     0.263 C 
HETATM   29  O1  UNL     1      -3.105  47.654 -33.337  1.00  0.00    -0.265 OA
HETATM   30  O2  UNL     1      -4.434  46.112 -32.298  1.00  0.00    -0.321 OA
HETATM   31  C4  UNL     1      -5.840  45.939 -32.114  1.00  0.00     0.184 C 
ENDBRANCH  24  25
ENDBRANCH  23  24
BRANCH  23  32
HETATM   32  O3  UNL     1      -6.565  47.394 -28.531  1.00  0.00    -0.309 OA
BRANCH  32  33
HETATM   33  C8  UNL     1      -5.326  47.950 -28.571  1.00  0.00     0.293 C 
HETATM   34  O4  UNL     1      -4.721  48.250 -29.589  1.00  0.00    -0.259 OA
BRANCH  33  35
HETATM   35  C9  UNL     1      -4.809  48.180 -27.197  1.00  0.00     0.039 A 
HETATM   36  C10 UNL     1      -5.637  48.138 -26.067  1.00  0.00     0.017 A 
HETATM   37  C11 UNL     1      -5.102  48.367 -24.798  1.00  0.00     0.001 A 
HETATM   38  C12 UNL     1      -3.741  48.636 -24.650  1.00  0.00     0.000 A 
HETATM   39  C13 UNL     1      -2.911  48.671 -25.769  1.00  0.00     0.001 A 
HETATM   40  C14 UNL     1      -3.441  48.441 -27.041  1.00  0.00     0.017 A 
ENDBRANCH  33  35
ENDBRANCH  32  33
ENDBRANCH  23  32
ENDBRANCH  21  23
BRANCH  21  41
HETATM   41  O5  UNL     1      -8.503  49.479 -29.264  1.00  0.00    -0.387 OA
HETATM   42  H19 UNL     1      -7.674  49.581 -28.753  1.00  0.00     0.210 HD
ENDBRANCH  21  41
ENDBRANCH   1  21
BRANCH   4  43
HETATM   43  O6  UNL     1     -12.425  48.371 -26.783  1.00  0.00    -0.384 OA
HETATM   44  H25 UNL     1     -12.778  48.323 -25.877  1.00  0.00     0.211 HD
ENDBRANCH   4  43
BRANCH  12  45
HETATM   45  O9  UNL     1     -16.708  42.433 -27.245  1.00  0.00    -0.393 OA
HETATM   46  H33 UNL     1     -16.537  41.491 -27.039  1.00  0.00     0.210 HD
ENDBRANCH  12  45
BRANCH  11  47
HETATM   47  O8  UNL     1     -14.848  40.583 -28.090  1.00  0.00    -0.393 OA
HETATM   48  H31 UNL     1     -15.225  40.282 -28.936  1.00  0.00     0.210 HD
ENDBRANCH  11  47
TORSDOF 11
ENDMDL
