MODEL 1
REMARK minimizedAffinity -9.65235996
REMARK  4 active torsions:
REMARK  status: ('A' for Active; 'I' for Inactive)
REMARK    1  A    between atoms: C2_2  and  C3_3 
REMARK    2  A    between atoms: C2_2  and  C9_9 
REMARK    3  A    between atoms: C4_4  and  C5_5 
REMARK    4  A    between atoms: C23_23  and  O1_24 
ROOT
HETATM    1  C9  UNL     1      -5.770   7.023  13.802  1.00  0.00     0.001 C 
HETATM    2  C10 UNL     1      -5.661   8.536  14.164  1.00  0.00     0.006 C 
HETATM    3  C11 UNL     1      -4.204   8.957  13.926  1.00  0.00     0.009 C 
HETATM    4  C12 UNL     1      -3.577   7.737  13.265  1.00  0.00     0.036 C 
HETATM    5  C13 UNL     1      -4.292   6.527  13.919  1.00  0.00    -0.033 C 
HETATM    6  C14 UNL     1      -3.918   6.280  15.398  1.00  0.00     0.016 C 
HETATM    7  C15 UNL     1      -3.935   5.291  13.070  1.00  0.00     0.010 C 
HETATM    8  C16 UNL     1      -2.414   5.081  12.957  1.00  0.00     0.010 C 
HETATM    9  C17 UNL     1      -1.665   6.319  12.424  1.00  0.00     0.039 C 
HETATM   10  C18 UNL     1      -2.050   7.647  13.158  1.00  0.00     0.123 C 
HETATM   11  C19 UNL     1      -1.254   7.874  14.418  1.00  0.00     0.014 C 
HETATM   12  C20 UNL     1       0.070   7.894  14.215  1.00  0.00     0.014 C 
HETATM   13  C21 UNL     1       0.476   7.594  12.785  1.00  0.00     0.124 C 
HETATM   14  C22 UNL     1       1.989   7.742  12.580  1.00  0.00     0.078 C 
HETATM   15  C23 UNL     1       2.484   7.188  11.238  1.00  0.00     0.121 C 
HETATM   16  C24 UNL     1       1.376   6.790  10.272  1.00  0.00     0.033 C 
HETATM   17  C25 UNL     1       0.359   5.829  10.895  1.00  0.00     0.015 C 
HETATM   18  C26 UNL     1      -0.082   6.194  12.350  1.00  0.00     0.001 C 
HETATM   19  C27 UNL     1       0.467   5.080  13.284  1.00  0.00     0.019 C 
HETATM   20  O2  UNL     1      -0.173   8.591  11.945  1.00  0.00    -0.223 OA
HETATM   21  O3  UNL     1      -1.624   8.725  12.279  1.00  0.00    -0.224 OA
ENDROOT
BRANCH   1  22
HETATM   22  C2  UNL     1      -6.887   6.304  14.607  1.00  0.00     0.008 C 
HETATM   23  C1  UNL     1      -6.532   6.103  16.085  1.00  0.00     0.014 C 
BRANCH  22  24
HETATM   24  C3  UNL     1      -7.268   4.996  13.929  1.00  0.00    -0.026 C 
HETATM   25  C4  UNL     1      -6.858   4.556  12.728  1.00  0.00    -0.025 C 
BRANCH  25  26
HETATM   26  C5  UNL     1      -7.240   3.281  12.113  1.00  0.00     0.012 A 
HETATM   27  C6  UNL     1      -7.387   2.073  13.007  1.00  0.00     0.013 A 
HETATM   28  C7  UNL     1      -6.233   2.158  12.046  1.00  0.00    -0.010 A 
HETATM   29  C8  UNL     1      -6.185   1.268  10.851  1.00  0.00     0.010 C 
ENDBRANCH  25  26
ENDBRANCH  22  24
ENDBRANCH   1  22
BRANCH  15  30
HETATM   30  O1  UNL     1       3.301   6.044  11.503  1.00  0.00    -0.395 OA
HETATM   31  H33 UNL     1       3.682   5.755  10.655  1.00  0.00     0.210 HD
ENDBRANCH  15  30
TORSDOF 4
ENDMDL
