MODEL 1
REMARK minimizedAffinity -7.42123175
REMARK CNNscore 0.793358505
REMARK CNNaffinity 7.2173419
REMARK  6 active torsions:
REMARK  status: ('A' for Active; 'I' for Inactive)
REMARK    1  A    between atoms: C2_2  and  C30_32 
REMARK    2  A    between atoms: C3_3  and  C4_4 
REMARK    3  A    between atoms: C4_4  and  C5_5 
REMARK    4  A    between atoms: C5_5  and  C6_6 
REMARK    5  A    between atoms: C6_6  and  C8_8 
REMARK    6  A    between atoms: C30_32  and  O4_34 
ROOT
HETATM    1  C8  UNL     1      -1.523  52.212 -10.197  1.00  0.00    -0.002 C 
HETATM    2  C9  UNL     1      -0.735  50.880 -10.376  1.00  0.00     0.007 C 
HETATM    3  C10 UNL     1       0.749  51.173 -10.094  1.00  0.00     0.015 C 
HETATM    4  C11 UNL     1       0.761  52.556  -9.418  1.00  0.00    -0.005 C 
HETATM    5  C12 UNL     1       0.456  52.329  -7.905  1.00  0.00     0.021 C 
HETATM    6  C13 UNL     1       2.025  53.403  -9.439  1.00  0.00    -0.000 C 
HETATM    7  C14 UNL     1       1.970  54.759  -9.404  1.00  0.00    -0.060 C 
HETATM    8  C15 UNL     1       0.611  55.480  -9.433  1.00  0.00     0.036 C 
HETATM    9  C16 UNL     1      -0.662  54.613  -9.538  1.00  0.00     0.015 C 
HETATM   10  C17 UNL     1      -0.383  53.276 -10.236  1.00  0.00    -0.028 C 
HETATM   11  C18 UNL     1       0.006  53.558 -11.722  1.00  0.00     0.016 C 
HETATM   12  C19 UNL     1       3.223  55.667  -9.370  1.00  0.00    -0.014 C 
HETATM   13  C20 UNL     1       3.377  56.293 -10.784  1.00  0.00     0.020 C 
HETATM   14  C21 UNL     1       3.035  56.826  -8.346  1.00  0.00     0.021 C 
HETATM   15  C22 UNL     1       4.350  57.364  -7.810  1.00  0.00     0.080 C 
HETATM   16  C23 UNL     1       5.032  56.286  -7.001  1.00  0.00     0.135 C 
HETATM   17  O1  UNL     1       5.639  56.579  -5.971  1.00  0.00    -0.297 OA
HETATM   18  C24 UNL     1       4.947  54.838  -7.525  1.00  0.00     0.018 C 
HETATM   19  C25 UNL     1       6.353  54.220  -7.348  1.00  0.00     0.023 C 
HETATM   20  C26 UNL     1       3.973  54.071  -6.621  1.00  0.00     0.023 C 
HETATM   21  C27 UNL     1       4.551  54.882  -9.048  1.00  0.00     0.020 C 
HETATM   22  C28 UNL     1       4.565  53.530  -9.766  1.00  0.00     0.090 C 
HETATM   23  C29 UNL     1       3.347  52.710  -9.455  1.00  0.00     0.157 C 
HETATM   24  O2  UNL     1       3.443  51.502  -9.253  1.00  0.00    -0.293 OA
ENDROOT
BRANCH   1  25
HETATM   25  C6  UNL     1      -2.727  52.310 -11.185  1.00  0.00    -0.014 C 
HETATM   26  C7  UNL     1      -3.738  53.380 -10.758  1.00  0.00     0.010 C 
BRANCH  25  27
HETATM   27  C5  UNL     1      -3.432  50.930 -11.307  1.00  0.00     0.008 C 
BRANCH  27  28
HETATM   28  C4  UNL     1      -4.099  50.454 -10.010  1.00  0.00     0.028 C 
BRANCH  28  29
HETATM   29  C3  UNL     1      -5.598  50.450 -10.141  1.00  0.00    -0.013 C 
HETATM   30  C2  UNL     1      -6.438  49.430  -9.865  1.00  0.00     0.008 C 
HETATM   31  C1  UNL     1      -6.021  48.060  -9.420  1.00  0.00     0.055 C 
BRANCH  30  32
HETATM   32  C30 UNL     1      -7.910  49.595 -10.008  1.00  0.00     0.171 C 
HETATM   33  O3  UNL     1      -8.539  49.425 -11.037  1.00  0.00    -0.646 OA
BRANCH  32  34
HETATM   34  O4  UNL     1      -8.534  49.960  -8.875  1.00  0.00    -0.773 OA
HETATM   35  H44 UNL     1      -9.473  50.023  -9.143  1.00  0.00     0.167 HD
ENDBRANCH  32  34
ENDBRANCH  30  32
ENDBRANCH  28  29
ENDBRANCH  27  28
ENDBRANCH  25  27
ENDBRANCH   1  25
TORSDOF 6
ENDMDL
