MODEL 1
REMARK minimizedAffinity -9.16919899
REMARK  7 active torsions:
REMARK  status: ('A' for Active; 'I' for Inactive)
REMARK    1  A    between atoms: C2_2  and  O2_4 
REMARK    2  A    between atoms: O2_4  and  C3_5 
REMARK    3  A    between atoms: C3_5  and  C4_6 
REMARK    4  A    between atoms: C3_5  and  C9_12 
REMARK    5  A    between atoms: C5_7  and  C6_8 
REMARK    6  A    between atoms: C6_8  and  O3_11 
REMARK    7  A    between atoms: C9_12  and  C11_14 
ROOT
HETATM    1  C11 UNL     1       1.256   7.055  13.149  1.00  0.00     0.001 C 
HETATM    2  C12 UNL     1       0.392   8.113  13.899  1.00  0.00     0.007 C 
HETATM    3  C13 UNL     1      -1.061   7.604  13.933  1.00  0.00     0.015 C 
HETATM    4  C14 UNL     1      -0.964   6.120  13.552  1.00  0.00    -0.013 C 
HETATM    5  C15 UNL     1      -0.581   5.340  14.849  1.00  0.00     0.021 C 
HETATM    6  C16 UNL     1      -2.206   5.410  13.018  1.00  0.00    -0.068 C 
HETATM    7  C17 UNL     1      -2.075   4.355  12.172  1.00  0.00    -0.068 C 
HETATM    8  C18 UNL     1      -0.695   3.917  11.656  1.00  0.00     0.036 C 
HETATM    9  C19 UNL     1       0.532   4.731  12.116  1.00  0.00     0.015 C 
HETATM   10  C20 UNL     1       0.160   6.182  12.446  1.00  0.00    -0.029 C 
HETATM   11  C21 UNL     1      -0.314   6.897  11.139  1.00  0.00     0.016 C 
HETATM   12  C22 UNL     1      -3.301   3.549  11.656  1.00  0.00    -0.015 C 
HETATM   13  C23 UNL     1      -3.514   3.952  10.175  1.00  0.00     0.020 C 
HETATM   14  C24 UNL     1      -3.013   2.019  11.732  1.00  0.00     0.021 C 
HETATM   15  C25 UNL     1      -4.239   1.114  11.810  1.00  0.00     0.080 C 
HETATM   16  C26 UNL     1      -5.515   1.790  11.374  1.00  0.00     0.135 C 
HETATM   17  O4  UNL     1      -6.257   1.251  10.553  1.00  0.00    -0.297 OA
HETATM   18  C27 UNL     1      -5.877   3.108  12.068  1.00  0.00     0.018 C 
HETATM   19  C28 UNL     1      -6.753   3.959  11.125  1.00  0.00     0.023 C 
HETATM   20  C29 UNL     1      -6.744   2.740  13.292  1.00  0.00     0.023 C 
HETATM   21  C30 UNL     1      -4.567   3.823  12.548  1.00  0.00     0.013 C 
HETATM   22  C31 UNL     1      -4.745   5.325  12.798  1.00  0.00     0.011 C 
HETATM   23  C32 UNL     1      -3.538   5.901  13.529  1.00  0.00     0.036 C 
ENDROOT
BRANCH   1  24
HETATM   24  C9  UNL     1       2.398   7.697  12.290  1.00  0.00     0.020 C 
HETATM   25  C10 UNL     1       1.840   8.707  11.270  1.00  0.00     0.013 C 
BRANCH  24  26
HETATM   26  C3  UNL     1       3.276   6.675  11.490  1.00  0.00     0.158 C 
BRANCH  26  27
HETATM   27  O2  UNL     1       4.667   6.854  11.831  1.00  0.00    -0.312 OA
BRANCH  27  28
HETATM   28  C2  UNL     1       5.581   6.271  11.009  1.00  0.00     0.255 C 
HETATM   29  C1  UNL     1       6.813   7.121  10.931  1.00  0.00     0.126 C 
HETATM   30  O1  UNL     1       5.455   5.197  10.440  1.00  0.00    -0.266 OA
ENDBRANCH  27  28
ENDBRANCH  26  27
BRANCH  26  31
HETATM   31  C4  UNL     1       3.190   6.788   9.989  1.00  0.00     0.005 C 
HETATM   32  C5  UNL     1       2.188   7.408   9.340  1.00  0.00     0.008 C 
BRANCH  32  33
HETATM   33  C6  UNL     1       2.013   7.563   7.847  1.00  0.00     0.068 C 
HETATM   34  C7  UNL     1       0.565   7.949   7.531  1.00  0.00     0.050 C 
HETATM   35  C8  UNL     1       2.423   6.352   7.002  1.00  0.00     0.050 C 
BRANCH  33  36
HETATM   36  O3  UNL     1       2.838   8.664   7.460  1.00  0.00    -0.387 OA
HETATM   37  H13 UNL     1       3.748   8.440   7.724  1.00  0.00     0.211 HD
ENDBRANCH  33  36
ENDBRANCH  32  33
ENDBRANCH  26  31
ENDBRANCH  24  26
ENDBRANCH   1  24
TORSDOF 7
ENDMDL
