MODEL 1
REMARK minimizedAffinity -8.18627071
REMARK CNNscore 0.686751306
REMARK CNNaffinity 6.77931786
REMARK  7 active torsions:
REMARK  status: ('A' for Active; 'I' for Inactive)
REMARK    1  A    between atoms: C2_2  and  C30_33 
REMARK    2  A    between atoms: C3_3  and  C4_4 
REMARK    3  A    between atoms: C4_4  and  C5_5 
REMARK    4  A    between atoms: C5_5  and  C6_6 
REMARK    5  A    between atoms: C6_6  and  C8_8 
REMARK    6  A    between atoms: C19_20  and  O2_21 
REMARK    7  A    between atoms: C30_33  and  O5_35 
ROOT
HETATM    1  C8  UNL     1      -0.773   6.838  12.553  1.00  0.00    -0.002 C 
HETATM    2  C9  UNL     1      -0.570   7.864  11.404  1.00  0.00     0.007 C 
HETATM    3  C10 UNL     1      -1.136   9.212  11.916  1.00  0.00     0.018 C 
HETATM    4  C11 UNL     1      -1.882   8.853  13.214  1.00  0.00     0.025 C 
HETATM    5  C12 UNL     1      -3.305   8.406  12.778  1.00  0.00     0.024 C 
HETATM    6  C13 UNL     1      -2.045   9.968  14.257  1.00  0.00     0.147 C 
HETATM    7  O1  UNL     1      -1.920  11.145  13.916  1.00  0.00    -0.296 OA
HETATM    8  C14 UNL     1      -2.487   9.557  15.716  1.00  0.00     0.055 C 
HETATM    9  C15 UNL     1      -1.849   8.184  16.117  1.00  0.00     0.021 C 
HETATM   10  C16 UNL     1      -1.635   7.131  15.015  1.00  0.00     0.012 C 
HETATM   11  C17 UNL     1      -0.944   7.754  13.797  1.00  0.00    -0.026 C 
HETATM   12  C18 UNL     1       0.440   8.314  14.245  1.00  0.00     0.016 C 
HETATM   13  C19 UNL     1      -4.062   9.569  15.697  1.00  0.00     0.135 C 
HETATM   14  C20 UNL     1      -4.555  10.772  16.523  1.00  0.00     0.039 C 
HETATM   15  C21 UNL     1      -3.339  11.687  16.599  1.00  0.00     0.012 C 
HETATM   16  C22 UNL     1      -3.396  12.905  17.560  1.00  0.00     0.018 C 
HETATM   17  C23 UNL     1      -4.010  14.113  16.819  1.00  0.00     0.023 C 
HETATM   18  C24 UNL     1      -4.235  12.680  18.828  1.00  0.00     0.023 C 
HETATM   19  C25 UNL     1      -1.953  13.287  17.924  1.00  0.00     0.135 C 
HETATM   20  O3  UNL     1      -1.675  13.908  18.951  1.00  0.00    -0.297 OA
HETATM   21  C26 UNL     1      -0.876  12.918  16.921  1.00  0.00     0.080 C 
HETATM   22  C27 UNL     1      -0.799  11.409  16.680  1.00  0.00     0.018 C 
HETATM   23  C28 UNL     1      -2.166  10.685  16.816  1.00  0.00    -0.022 C 
HETATM   24  C29 UNL     1      -2.192  10.082  18.256  1.00  0.00     0.017 C 
ENDROOT
BRANCH  13  25
HETATM   25  O2  UNL     1      -4.653   8.364  16.159  1.00  0.00    -0.394 OA
HETATM   26  H29 UNL     1      -4.580   8.329  17.127  1.00  0.00     0.210 HD
ENDBRANCH  13  25
BRANCH   1  27
HETATM   27  C6  UNL     1       0.215   5.636  12.605  1.00  0.00    -0.014 C 
HETATM   28  C7  UNL     1      -0.393   4.469  11.802  1.00  0.00     0.010 C 
BRANCH  27  29
HETATM   29  C5  UNL     1       1.653   5.912  12.109  1.00  0.00     0.008 C 
BRANCH  29  30
HETATM   30  C4  UNL     1       1.974   5.252  10.760  1.00  0.00     0.028 C 
BRANCH  30  31
HETATM   31  C3  UNL     1       1.975   6.260   9.641  1.00  0.00    -0.013 C 
HETATM   32  C2  UNL     1       2.940   7.142   9.310  1.00  0.00     0.008 C 
HETATM   33  C1  UNL     1       2.762   8.101   8.167  1.00  0.00     0.055 C 
BRANCH  32  34
HETATM   34  C30 UNL     1       4.246   7.176  10.013  1.00  0.00     0.171 C 
HETATM   35  O4  UNL     1       4.968   6.232  10.284  1.00  0.00    -0.646 OA
BRANCH  34  36
HETATM   36  O5  UNL     1       4.608   8.431  10.333  1.00  0.00    -0.773 OA
HETATM   37  H46 UNL     1       5.476   8.307  10.767  1.00  0.00     0.167 HD
ENDBRANCH  34  36
ENDBRANCH  32  34
ENDBRANCH  30  31
ENDBRANCH  29  30
ENDBRANCH  27  29
ENDBRANCH   1  27
TORSDOF 7
ENDMDL
