MODEL 1
REMARK minimizedAffinity -10.0761042
REMARK CNNscore 0.553550422
REMARK CNNaffinity 6.72705269
REMARK  13 active torsions:
REMARK  status: ('A' for Active; 'I' for Inactive)
REMARK    1  A    between atoms: C12_13  and  O2_14 
REMARK    2  A    between atoms: C19_21  and  O3_22 
REMARK    3  A    between atoms: C19_21  and  C20_23 
REMARK    4  A    between atoms: C20_23  and  C21_25 
REMARK    5  A    between atoms: C21_25  and  O5_26 
REMARK    6  A    between atoms: O5_26  and  C22_27 
REMARK    7  A    between atoms: C22_27  and  C23_29 
REMARK    8  A    between atoms: C23_29  and  C24_30 
REMARK    9  A    between atoms: C24_30  and  C25_31 
REMARK       I    between atoms: C25_31  and  N1_33 
REMARK   10  A    between atoms: N1_33  and  C26_34 
REMARK   11  A    between atoms: C26_34  and  C27_35 
REMARK   12  A    between atoms: C30_38  and  C31_39 
REMARK   13  A    between atoms: C31_39  and  O9_41 
ROOT
HETATM    1  C1  UNL     1      -5.886   5.516  15.645  1.00  0.00     0.020 C 
HETATM    2  C2  UNL     1      -5.754   5.969  14.170  1.00  0.00    -0.014 C 
HETATM    3  C3  UNL     1      -7.116   6.538  13.693  1.00  0.00     0.022 C 
HETATM    4  C4  UNL     1      -8.233   5.498  13.677  1.00  0.00     0.084 C 
HETATM    5  C5  UNL     1      -7.819   4.220  12.987  1.00  0.00     0.149 C 
HETATM    6  O1  UNL     1      -8.644   3.391  12.604  1.00  0.00    -0.293 OA
HETATM    7  C6  UNL     1      -6.378   3.950  12.782  1.00  0.00     0.053 C 
HETATM    8  C7  UNL     1      -5.426   4.745  13.304  1.00  0.00    -0.068 C 
HETATM    9  C8  UNL     1      -3.975   4.494  12.959  1.00  0.00     0.035 C 
HETATM   10  C9  UNL     1      -2.990   5.002  14.007  1.00  0.00     0.010 C 
HETATM   11  C10 UNL     1      -3.233   6.460  14.453  1.00  0.00    -0.002 C 
HETATM   12  C11 UNL     1      -4.606   7.017  13.949  1.00  0.00     0.031 C 
HETATM   13  C12 UNL     1      -4.865   8.463  14.449  1.00  0.00     0.124 C 
HETATM   14  C13 UNL     1      -3.674   9.410  14.164  1.00  0.00     0.045 C 
HETATM   15  C14 UNL     1      -2.307   8.855  14.629  1.00  0.00     0.001 C 
HETATM   16  C15 UNL     1      -2.242   8.855  16.183  1.00  0.00     0.019 C 
HETATM   17  C16 UNL     1      -2.138   7.440  14.008  1.00  0.00     0.002 C 
HETATM   18  C17 UNL     1      -0.680   7.105  14.297  1.00  0.00     0.009 C 
HETATM   19  C18 UNL     1       0.059   8.451  14.163  1.00  0.00     0.047 C 
HETATM   20  C19 UNL     1      -1.031   9.557  14.048  1.00  0.00     0.128 C 
ENDROOT
BRANCH  20  21
HETATM   21  O3  UNL     1      -1.185   9.788  12.643  1.00  0.00    -0.381 OA
HETATM   22  H27 UNL     1      -1.860  10.478  12.516  1.00  0.00     0.211 HD
ENDBRANCH  20  21
BRANCH  20  23
HETATM   23  C20 UNL     1      -0.600  10.838  14.822  1.00  0.00     0.185 C 
HETATM   24  O4  UNL     1      -1.191  11.915  14.689  1.00  0.00    -0.292 OA
BRANCH  23  25
HETATM   25  C21 UNL     1       0.693  10.784  15.638  1.00  0.00     0.260 C 
BRANCH  25  26
HETATM   26  O5  UNL     1       0.547  10.796  17.056  1.00  0.00    -0.314 OA
BRANCH  26  27
HETATM   27  C22 UNL     1       1.668  10.409  17.734  1.00  0.00     0.259 C 
HETATM   28  O6  UNL     1       2.287   9.379  17.516  1.00  0.00    -0.265 OA
BRANCH  27  29
HETATM   29  C23 UNL     1       2.035  11.447  18.764  1.00  0.00     0.120 C 
BRANCH  29  30
HETATM   30  C24 UNL     1       1.394  11.109  20.104  1.00  0.00     0.112 C 
BRANCH  30  31
HETATM   31  C25 UNL     1       2.363  10.377  21.010  1.00  0.00     0.218 C 
HETATM   32  O7  UNL     1       2.667   9.202  20.839  1.00  0.00    -0.274 OA
HETATM   33  N1  UNL     1       2.817  11.143  22.056  1.00  0.00    -0.357 N 
HETATM   34  H34 UNL     1       2.598  12.131  22.077  1.00  0.00     0.162 HD
BRANCH  33  35
HETATM   35  C26 UNL     1       3.867  10.687  22.938  1.00  0.00     0.161 C 
BRANCH  35  36
HETATM   36  C27 UNL     1       4.996  11.688  22.962  1.00  0.00    -0.040 A 
HETATM   37  C28 UNL     1       6.325  11.245  23.041  1.00  0.00     0.010 A 
HETATM   38  C29 UNL     1       7.381  12.161  23.051  1.00  0.00     0.019 A 
HETATM   39  C30 UNL     1       7.120  13.533  22.972  1.00  0.00     0.037 A 
HETATM   40  C32 UNL     1       5.796  13.981  22.882  1.00  0.00     0.019 A 
HETATM   41  C33 UNL     1       4.742  13.063  22.877  1.00  0.00     0.010 A 
BRANCH  39  42
HETATM   42  C31 UNL     1       8.268  14.471  22.993  1.00  0.00     0.176 C 
HETATM   43  O8  UNL     1       8.836  14.933  22.020  1.00  0.00    -0.646 OA
BRANCH  42  44
HETATM   44  O9  UNL     1       8.659  14.791  24.240  1.00  0.00    -0.773 OA
HETATM   45  H39 UNL     1       9.411  15.403  24.093  1.00  0.00     0.167 HD
ENDBRANCH  42  44
ENDBRANCH  39  42
ENDBRANCH  35  36
ENDBRANCH  33  35
ENDBRANCH  30  31
ENDBRANCH  29  30
ENDBRANCH  27  29
ENDBRANCH  26  27
ENDBRANCH  25  26
ENDBRANCH  23  25
ENDBRANCH  20  23
BRANCH  13  46
HETATM   46  O2  UNL     1      -5.185   8.477  15.829  1.00  0.00    -0.395 OA
HETATM   47  H16 UNL     1      -5.458   9.379  16.069  1.00  0.00     0.210 HD
ENDBRANCH  13  46
TORSDOF 13
ENDMDL
