MODEL 1
REMARK minimizedAffinity -7.78484344
REMARK CNNscore 0.439366072
REMARK CNNaffinity 6.1824379
REMARK  4 active torsions:
REMARK  status: ('A' for Active; 'I' for Inactive)
REMARK    1  A    between atoms: C3_3  and  C4_4 
REMARK    2  A    between atoms: C4_4  and  O1_5 
REMARK    3  A    between atoms: C6_9  and  C7_10 
REMARK    4  A    between atoms: C7_10  and  C9_12 
ROOT
HETATM    1  C9  UNL     1      -8.141  47.554 -26.008  1.00  0.00     0.000 C 
HETATM    2  C10 UNL     1      -7.791  47.710 -27.516  1.00  0.00     0.006 C 
HETATM    3  C11 UNL     1      -8.960  47.122 -28.321  1.00  0.00     0.006 C 
HETATM    4  C12 UNL     1     -10.021  46.843 -27.268  1.00  0.00    -0.001 C 
HETATM    5  C13 UNL     1     -11.164  45.879 -27.616  1.00  0.00     0.000 C 
HETATM    6  C14 UNL     1     -11.873  46.238 -28.932  1.00  0.00     0.010 C 
HETATM    7  C15 UNL     1     -12.967  45.226 -29.272  1.00  0.00     0.036 C 
HETATM    8  C16 UNL     1     -13.917  44.994 -28.119  1.00  0.00    -0.063 A 
HETATM    9  C17 UNL     1     -15.242  45.131 -28.298  1.00  0.00     0.058 A 
HETATM   10  C18 UNL     1     -16.207  44.949 -27.192  1.00  0.00     0.172 A 
HETATM   11  O4  UNL     1     -17.415  45.038 -27.375  1.00  0.00    -0.289 OA
HETATM   12  C19 UNL     1     -15.656  44.664 -25.855  1.00  0.00     0.052 A 
HETATM   13  C20 UNL     1     -14.337  44.529 -25.668  1.00  0.00    -0.008 A 
HETATM   14  C21 UNL     1     -13.278  44.638 -26.765  1.00  0.00     0.005 A 
HETATM   15  C22 UNL     1     -12.686  43.211 -26.880  1.00  0.00     0.025 C 
HETATM   16  C23 UNL     1     -12.185  45.755 -26.415  1.00  0.00    -0.025 C 
HETATM   17  C24 UNL     1     -12.918  47.115 -26.161  1.00  0.00     0.017 C 
HETATM   18  C25 UNL     1     -11.386  45.426 -25.111  1.00  0.00     0.012 C 
HETATM   19  C26 UNL     1     -10.176  46.346 -24.838  1.00  0.00     0.011 C 
HETATM   20  C27 UNL     1      -9.197  46.399 -26.026  1.00  0.00    -0.036 C 
HETATM   21  C28 UNL     1      -8.498  45.026 -26.191  1.00  0.00     0.016 C 
ENDROOT
BRANCH   1  22
HETATM   22  C7  UNL     1      -6.873  47.445 -25.102  1.00  0.00     0.016 C 
HETATM   23  C8  UNL     1      -7.203  47.809 -23.644  1.00  0.00     0.013 C 
BRANCH  22  24
HETATM   24  C6  UNL     1      -5.683  48.355 -25.548  1.00  0.00     0.140 C 
HETATM   25  O3  UNL     1      -5.154  47.881 -26.798  1.00  0.00    -0.311 OA
HETATM   26  C5  UNL     1      -4.034  48.441 -27.318  1.00  0.00     0.292 C 
HETATM   27  C3  UNL     1      -3.251  49.352 -26.434  1.00  0.00     0.042 C 
HETATM   28  O2  UNL     1      -3.679  48.191 -28.463  1.00  0.00    -0.260 OA
HETATM   29  C2  UNL     1      -3.477  49.359 -25.100  1.00  0.00    -0.067 C 
HETATM   30  C1  UNL     1      -2.713  50.183 -24.104  1.00  0.00     0.044 C 
HETATM   31  C29 UNL     1      -4.566  48.493 -24.517  1.00  0.00     0.067 C 
BRANCH  27  32
HETATM   32  C4  UNL     1      -2.243  50.208 -27.145  1.00  0.00     0.209 C 
BRANCH  32  33
HETATM   33  O1  UNL     1      -2.770  50.758 -28.347  1.00  0.00    -0.396 OA
HETATM   34  H6  UNL     1      -3.677  50.425 -28.471  1.00  0.00     0.209 HD
ENDBRANCH  32  33
ENDBRANCH  27  32
ENDBRANCH  22  24
ENDBRANCH   1  22
TORSDOF 4
ENDMDL
