MODEL 1
REMARK minimizedAffinity -7.78277493
REMARK CNNscore 0.733144045
REMARK CNNaffinity 7.24017382
REMARK  9 active torsions:
REMARK  status: ('A' for Active; 'I' for Inactive)
REMARK       I    between atoms: N1_1  and  C1_2 
REMARK       I    between atoms: C1_2  and  N2_3 
REMARK    1  A    between atoms: N3_4  and  C2_6 
REMARK    2  A    between atoms: C11_16  and  S1_17 
REMARK    3  A    between atoms: S1_17  and  O4_20 
REMARK    4  A    between atoms: C18_27  and  C19_28 
REMARK    5  A    between atoms: C19_28  and  C20_29 
REMARK    6  A    between atoms: C20_29  and  C21_30 
REMARK    7  A    between atoms: C21_30  and  O5_31 
REMARK    8  A    between atoms: C22_33  and  C23_34 
REMARK    9  A    between atoms: C26_37  and  O7_38 
ROOT
HETATM    1  C2  UNL     1      -2.706  10.125  17.349  1.00  0.00     0.263 C 
HETATM    2  O1  UNL     1      -3.498  11.330  17.615  1.00  0.00    -0.322 OA
HETATM    3  C3  UNL     1      -2.867  12.518  17.342  1.00  0.00     0.071 C 
HETATM    4  C4  UNL     1      -2.802  13.440  18.390  1.00  0.00     0.037 C 
HETATM    5  C5  UNL     1      -1.929  14.525  18.307  1.00  0.00     0.010 C 
HETATM    6  C6  UNL     1      -1.150  14.714  17.155  1.00  0.00    -0.058 C 
HETATM    7  C7  UNL     1      -1.368  13.882  16.045  1.00  0.00     0.010 C 
HETATM    8  C8  UNL     1      -2.221  12.782  16.138  1.00  0.00     0.037 C 
HETATM    9  C9  UNL     1      -0.008  15.703  17.158  1.00  0.00     0.040 C 
HETATM   10  C10 UNL     1       1.191  15.232  18.017  1.00  0.00     0.027 C 
HETATM   11  C11 UNL     1       1.757  13.821  17.707  1.00  0.00     0.130 C 
HETATM   12  C12 UNL     1       2.791  13.235  18.744  1.00  0.00     0.037 C 
HETATM   13  C13 UNL     1       3.009  13.927  20.086  1.00  0.00    -0.014 C 
HETATM   14  C14 UNL     1       3.948  13.404  20.909  1.00  0.00    -0.050 C 
HETATM   15  C15 UNL     1       4.674  12.161  20.440  1.00  0.00     0.042 C 
HETATM   16  C16 UNL     1       3.516  11.165  20.278  1.00  0.00     0.001 C 
HETATM   17  C17 UNL     1       2.674  11.114  21.601  1.00  0.00     0.037 C 
HETATM   18  C18 UNL     1       3.404  11.304  22.961  1.00  0.00     0.123 C 
HETATM   19  O6  UNL     1       4.328  12.404  23.054  1.00  0.00    -0.371 OA
HETATM   20  C22 UNL     1       3.990  13.641  22.403  1.00  0.00     0.183 C 
HETATM   21  C29 UNL     1       2.728  11.634  18.970  1.00  0.00     0.032 C 
HETATM   22  C30 UNL     1       1.367  10.999  18.703  1.00  0.00    -0.053 C 
HETATM   23  C31 UNL     1       0.261  11.152  19.546  1.00  0.00     0.008 C 
HETATM   24  C32 UNL     1      -1.017  10.733  19.153  1.00  0.00     0.012 C 
HETATM   25  C33 UNL     1      -1.251  10.254  17.857  1.00  0.00    -0.010 C 
HETATM   26  C34 UNL     1      -0.140  10.035  17.032  1.00  0.00     0.012 C 
HETATM   27  C35 UNL     1       1.149  10.376  17.459  1.00  0.00     0.008 C 
ENDROOT
BRANCH   1  28
HETATM   28  N3  UNL     1      -2.835   9.629  15.972  1.00  0.00    -0.341 N 
HETATM   29  C1  UNL     1      -2.953   8.376  15.751  1.00  0.00     0.124 C 
HETATM   30  N1  UNL     1      -3.133   7.941  14.485  1.00  0.00    -0.279 NA
HETATM   31  N2  UNL     1      -2.936   7.320  16.597  1.00  0.00    -0.279 NA
HETATM   32  H1  UNL     1      -3.927   7.319  14.408  1.00  0.00     0.126 HD
HETATM   33  H2  UNL     1      -3.276   8.743  13.872  1.00  0.00     0.126 HD
HETATM   34  H3  UNL     1      -2.587   6.484  16.142  1.00  0.00     0.126 HD
HETATM   35  H4  UNL     1      -2.429   7.486  17.457  1.00  0.00     0.126 HD
ATOM     36  H3  UNL     1      -2.832  10.285  15.191  1.00  0.00     0.164 HD
ENDBRANCH   1  28
BRANCH  11  37
HETATM   37  S1  UNL     1       2.547  13.764  16.043  1.00  0.00     0.099 S 
HETATM   38  O2  UNL     1       1.852  12.833  15.183  1.00  0.00    -0.601 OA
HETATM   39  O3  UNL     1       2.910  15.080  15.569  1.00  0.00    -0.601 OA
BRANCH  37  40
HETATM   40  O4  UNL     1       3.947  13.078  16.458  1.00  0.00    -0.295 OA
HETATM   41  H15 UNL     1       4.674  13.629  16.091  1.00  0.00     0.232 HD
ENDBRANCH  37  40
ENDBRANCH  11  37
BRANCH  18  42
HETATM   42  C19 UNL     1       4.202  10.056  23.387  1.00  0.00     0.034 C 
BRANCH  42  43
HETATM   43  C20 UNL     1       3.699   8.756  22.753  1.00  0.00     0.028 C 
BRANCH  43  44
HETATM   44  C21 UNL     1       2.323   8.364  23.276  1.00  0.00     0.164 C 
BRANCH  44  45
HETATM   45  O5  UNL     1       1.568   7.714  22.264  1.00  0.00    -0.401 OA
HETATM   46  H30 UNL     1       1.476   8.337  21.522  1.00  0.00     0.209 HD
ENDBRANCH  44  45
ENDBRANCH  43  44
ENDBRANCH  42  43
ENDBRANCH  18  42
BRANCH  20  47
HETATM   47  C23 UNL     1       5.017  14.703  22.759  1.00  0.00    -0.025 A 
HETATM   48  C24 UNL     1       4.659  16.053  22.908  1.00  0.00     0.013 A 
HETATM   49  C25 UNL     1       5.606  17.008  23.287  1.00  0.00     0.037 A 
HETATM   50  C26 UNL     1       6.919  16.609  23.525  1.00  0.00     0.065 A 
HETATM   51  C27 UNL     1       7.297  15.280  23.388  1.00  0.00     0.037 A 
HETATM   52  C28 UNL     1       6.349  14.328  23.009  1.00  0.00     0.013 A 
BRANCH  50  53
HETATM   53  O7  UNL     1       7.873  17.507  23.911  1.00  0.00    -0.361 OA
HETATM   54  H34 UNL     1       7.459  18.383  23.971  1.00  0.00     0.217 HD
ENDBRANCH  50  53
ENDBRANCH  20  47
TORSDOF 9
ENDMDL
