MODEL 1
REMARK minimizedAffinity -8.72177696
REMARK CNNscore 0.878577471
REMARK CNNaffinity 7.53736353
REMARK  12 active torsions:
REMARK  status: ('A' for Active; 'I' for Inactive)
REMARK    1  A    between atoms: C2_2  and  C17_19 
REMARK    2  A    between atoms: C3_3  and  C4_4 
REMARK    3  A    between atoms: C4_4  and  C5_5 
REMARK    4  A    between atoms: C5_5  and  C6_6 
REMARK    5  A    between atoms: C12_12  and  O1_13 
REMARK    6  A    between atoms: C17_19  and  C18_20 
REMARK    7  A    between atoms: C19_21  and  C20_22 
REMARK    8  A    between atoms: C20_22  and  C22_24 
REMARK    9  A    between atoms: C22_24  and  C23_26 
REMARK   10  A    between atoms: C23_26  and  O4_27 
REMARK   11  A    between atoms: C23_26  and  C24_28 
REMARK   12  A    between atoms: C24_28  and  C25_29 
ROOT
HETATM    1  C1  UNL     1      -5.990  49.954 -21.445  1.00  0.00     0.043 C 
HETATM    2  C2  UNL     1      -4.607  50.412 -21.824  1.00  0.00    -0.084 C 
HETATM    3  C3  UNL     1      -3.663  50.775 -20.932  1.00  0.00    -0.024 C 
ENDROOT
BRANCH   3   4
HETATM    4  C4  UNL     1      -3.747  50.698 -19.433  1.00  0.00     0.030 C 
BRANCH   4   5
HETATM    5  C5  UNL     1      -2.525  51.188 -18.645  1.00  0.00     0.042 C 
BRANCH   5   6
HETATM    6  C6  UNL     1      -1.177  50.440 -18.812  1.00  0.00     0.065 C 
HETATM    7  C7  UNL     1      -1.362  48.926 -18.613  1.00  0.00     0.046 C 
HETATM    8  C8  UNL     1      -0.052  50.918 -17.884  1.00  0.00     0.043 C 
HETATM    9  C9  UNL     1       0.317  52.364 -18.166  1.00  0.00     0.044 C 
HETATM   10  C10 UNL     1       0.473  52.586 -19.642  1.00  0.00    -0.021 A 
HETATM   11  C11 UNL     1       1.160  53.718 -20.103  1.00  0.00     0.046 A 
HETATM   12  C16 UNL     1      -0.082  51.689 -20.565  1.00  0.00     0.082 A 
HETATM   13  C12 UNL     1       1.306  53.927 -21.470  1.00  0.00     0.066 A 
HETATM   14  C13 UNL     1       0.774  53.030 -22.387  1.00  0.00     0.046 A 
HETATM   15  C14 UNL     1       0.076  51.900 -21.944  1.00  0.00    -0.025 A 
HETATM   16  C15 UNL     1      -0.491  50.930 -22.943  1.00  0.00     0.051 C 
HETATM   17  O2  UNL     1      -0.785  50.573 -20.199  1.00  0.00    -0.340 OA
BRANCH  13  18
HETATM   18  O1  UNL     1       1.969  55.016 -21.958  1.00  0.00    -0.361 OA
HETATM   19  H17 UNL     1       2.328  55.523 -21.209  1.00  0.00     0.217 HD
ENDBRANCH  13  18
ENDBRANCH   5   6
ENDBRANCH   4   5
ENDBRANCH   3   4
BRANCH   2  20
HETATM   20  C17 UNL     1      -4.335  50.476 -23.321  1.00  0.00     0.060 C 
BRANCH  20  21
HETATM   21  C18 UNL     1      -4.185  51.896 -23.789  1.00  0.00    -0.026 C 
HETATM   22  C19 UNL     1      -3.431  52.406 -24.781  1.00  0.00    -0.019 C 
BRANCH  22  23
HETATM   23  C20 UNL     1      -2.463  51.738 -25.729  1.00  0.00     0.076 C 
HETATM   24  C21 UNL     1      -3.039  50.572 -26.536  1.00  0.00     0.022 C 
BRANCH  23  25
HETATM   25  C22 UNL     1      -1.805  52.795 -26.628  1.00  0.00     0.162 C 
HETATM   26  O3  UNL     1      -2.313  53.173 -27.692  1.00  0.00    -0.294 OA
BRANCH  25  27
HETATM   27  C23 UNL     1      -0.515  53.475 -26.126  1.00  0.00     0.188 C 
BRANCH  27  28
HETATM   28  O4  UNL     1      -0.083  54.481 -27.040  1.00  0.00    -0.388 OA
HETATM   29  H31 UNL     1      -0.739  54.495 -27.768  1.00  0.00     0.210 HD
ENDBRANCH  27  28
BRANCH  27  30
HETATM   30  C24 UNL     1       0.651  52.528 -25.806  1.00  0.00     0.043 C 
BRANCH  30  31
HETATM   31  C25 UNL     1       1.186  51.576 -26.902  1.00  0.00    -0.020 C 
HETATM   32  C26 UNL     1       2.697  51.336 -26.827  1.00  0.00     0.009 C 
HETATM   33  C27 UNL     1       0.781  51.979 -28.317  1.00  0.00     0.009 C 
ENDBRANCH  30  31
ENDBRANCH  27  30
ENDBRANCH  25  27
ENDBRANCH  23  25
ENDBRANCH  22  23
ENDBRANCH  20  21
ENDBRANCH   2  20
TORSDOF 12
ENDMDL
