MODEL 1
REMARK minimizedAffinity -9.6773138
REMARK  7 active torsions:
REMARK  status: ('A' for Active; 'I' for Inactive)
REMARK    1  A    between atoms: C2_2  and  C30_33 
REMARK    2  A    between atoms: C3_3  and  C4_4 
REMARK    3  A    between atoms: C4_4  and  C5_5 
REMARK    4  A    between atoms: C5_5  and  C6_6 
REMARK    5  A    between atoms: C6_6  and  C8_8 
REMARK    6  A    between atoms: C10_10  and  O1_11 
REMARK    7  A    between atoms: C30_33  and  O5_35 
ROOT
HETATM    1  C8  UNL     1      -0.044  51.464 -20.761  1.00  0.00     0.001 C 
HETATM    2  C9  UNL     1      -0.456  52.112 -19.416  1.00  0.00     0.038 C 
HETATM    3  C10 UNL     1      -1.860  51.556 -19.071  1.00  0.00     0.131 C 
HETATM    4  C11 UNL     1      -2.057  50.344 -20.028  1.00  0.00     0.014 C 
HETATM    5  C12 UNL     1      -1.357  49.098 -19.397  1.00  0.00     0.023 C 
HETATM    6  C13 UNL     1      -3.461  49.863 -20.381  1.00  0.00    -0.058 C 
HETATM    7  C14 UNL     1      -3.728  49.224 -21.548  1.00  0.00    -0.000 C 
HETATM    8  C15 UNL     1      -2.580  49.060 -22.552  1.00  0.00     0.157 C 
HETATM    9  O2  UNL     1      -2.705  48.350 -23.550  1.00  0.00    -0.293 OA
HETATM   10  C16 UNL     1      -1.253  49.781 -22.335  1.00  0.00     0.094 C 
HETATM   11  C17 UNL     1      -1.388  50.915 -21.324  1.00  0.00    -0.019 C 
HETATM   12  C18 UNL     1      -2.203  52.060 -22.001  1.00  0.00     0.017 C 
HETATM   13  C19 UNL     1      -5.141  48.730 -21.963  1.00  0.00    -0.008 C 
HETATM   14  C20 UNL     1      -5.495  49.537 -23.248  1.00  0.00     0.021 C 
HETATM   15  C21 UNL     1      -5.130  47.206 -22.299  1.00  0.00     0.022 C 
HETATM   16  C22 UNL     1      -5.590  46.306 -21.164  1.00  0.00     0.080 C 
HETATM   17  C23 UNL     1      -7.014  46.609 -20.768  1.00  0.00     0.135 C 
HETATM   18  O3  UNL     1      -7.744  45.713 -20.339  1.00  0.00    -0.297 OA
HETATM   19  C24 UNL     1      -7.504  48.055 -20.905  1.00  0.00     0.018 C 
HETATM   20  C25 UNL     1      -8.328  48.145 -22.202  1.00  0.00     0.023 C 
HETATM   21  C26 UNL     1      -8.486  48.350 -19.747  1.00  0.00     0.023 C 
HETATM   22  C27 UNL     1      -6.270  49.044 -20.881  1.00  0.00     0.014 C 
HETATM   23  C28 UNL     1      -5.688  49.148 -19.453  1.00  0.00     0.011 C 
HETATM   24  C29 UNL     1      -4.519  50.108 -19.350  1.00  0.00     0.036 C 
ENDROOT
BRANCH   1  25
HETATM   25  C6  UNL     1       0.869  52.307 -21.702  1.00  0.00    -0.013 C 
HETATM   26  C7  UNL     1       1.455  53.485 -20.901  1.00  0.00     0.010 C 
BRANCH  25  27
HETATM   27  C5  UNL     1       0.189  52.848 -22.980  1.00  0.00     0.008 C 
BRANCH  27  28
HETATM   28  C4  UNL     1       0.761  52.243 -24.268  1.00  0.00     0.028 C 
BRANCH  28  29
HETATM   29  C3  UNL     1       0.402  53.083 -25.462  1.00  0.00    -0.013 C 
HETATM   30  C2  UNL     1       0.168  52.659 -26.720  1.00  0.00     0.008 C 
HETATM   31  C1  UNL     1       0.267  51.242 -27.201  1.00  0.00     0.055 C 
BRANCH  30  32
HETATM   32  C30 UNL     1      -0.195  53.704 -27.714  1.00  0.00     0.171 C 
HETATM   33  O4  UNL     1      -0.394  54.884 -27.492  1.00  0.00    -0.646 OA
BRANCH  32  34
HETATM   34  O5  UNL     1      -0.295  53.210 -28.959  1.00  0.00    -0.773 OA
HETATM   35  H44 UNL     1      -0.540  53.992 -29.495  1.00  0.00     0.167 HD
ENDBRANCH  32  34
ENDBRANCH  30  32
ENDBRANCH  28  29
ENDBRANCH  27  28
ENDBRANCH  25  27
ENDBRANCH   1  25
BRANCH   3  36
HETATM   36  O1  UNL     1      -1.927  51.212 -17.695  1.00  0.00    -0.394 OA
HETATM   37  H17 UNL     1      -1.707  52.009 -17.182  1.00  0.00     0.210 HD
ENDBRANCH   3  36
TORSDOF 7
ENDMDL
