MODEL 1
REMARK minimizedAffinity -7.84883261
REMARK CNNscore 0.514493942
REMARK CNNaffinity 6.78268051
REMARK  6 active torsions:
REMARK  status: ('A' for Active; 'I' for Inactive)
REMARK    1  A    between atoms: C2_2  and  C30_32 
REMARK    2  A    between atoms: C3_3  and  C4_4 
REMARK    3  A    between atoms: C4_4  and  C5_5 
REMARK    4  A    between atoms: C5_5  and  C6_6 
REMARK    5  A    between atoms: C6_6  and  C8_8 
REMARK    6  A    between atoms: C30_32  and  O4_34 
ROOT
HETATM    1  C8  UNL     1      -5.796   7.270  14.708  1.00  0.00    -0.002 C 
HETATM    2  C9  UNL     1      -5.397   8.579  15.452  1.00  0.00     0.007 C 
HETATM    3  C10 UNL     1      -3.916   8.860  15.143  1.00  0.00     0.015 C 
HETATM    4  C11 UNL     1      -3.574   7.935  13.962  1.00  0.00    -0.005 C 
HETATM    5  C12 UNL     1      -4.045   8.658  12.661  1.00  0.00     0.021 C 
HETATM    6  C13 UNL     1      -2.126   7.549  13.691  1.00  0.00    -0.000 C 
HETATM    7  C14 UNL     1      -1.805   6.370  13.102  1.00  0.00    -0.060 C 
HETATM    8  C15 UNL     1      -2.905   5.345  12.771  1.00  0.00     0.036 C 
HETATM    9  C16 UNL     1      -4.356   5.694  13.164  1.00  0.00     0.015 C 
HETATM   10  C17 UNL     1      -4.406   6.653  14.360  1.00  0.00    -0.028 C 
HETATM   11  C18 UNL     1      -3.841   5.918  15.617  1.00  0.00     0.016 C 
HETATM   12  C19 UNL     1      -0.356   5.950  12.756  1.00  0.00    -0.014 C 
HETATM   13  C20 UNL     1       0.074   4.878  13.796  1.00  0.00     0.020 C 
HETATM   14  C21 UNL     1      -0.293   5.304  11.341  1.00  0.00     0.021 C 
HETATM   15  C22 UNL     1       1.074   5.426  10.691  1.00  0.00     0.080 C 
HETATM   16  C23 UNL     1       1.366   6.885  10.426  1.00  0.00     0.135 C 
HETATM   17  O1  UNL     1       1.950   7.219   9.395  1.00  0.00    -0.297 OA
HETATM   18  C24 UNL     1       0.923   7.907  11.493  1.00  0.00     0.018 C 
HETATM   19  C25 UNL     1       2.085   8.916  11.648  1.00  0.00     0.023 C 
HETATM   20  C26 UNL     1      -0.292   8.663  10.938  1.00  0.00     0.023 C 
HETATM   21  C27 UNL     1       0.674   7.140  12.844  1.00  0.00     0.020 C 
HETATM   22  C28 UNL     1       0.367   8.029  14.052  1.00  0.00     0.090 C 
HETATM   23  C29 UNL     1      -1.051   8.522  14.050  1.00  0.00     0.157 C 
HETATM   24  O2  UNL     1      -1.309   9.681  14.364  1.00  0.00    -0.293 OA
ENDROOT
BRANCH   1  25
HETATM   25  C6  UNL     1      -6.846   6.443  15.514  1.00  0.00    -0.014 C 
HETATM   26  C7  UNL     1      -7.760   5.621  14.597  1.00  0.00     0.010 C 
BRANCH  25  27
HETATM   27  C5  UNL     1      -7.698   7.387  16.407  1.00  0.00     0.008 C 
BRANCH  27  28
HETATM   28  C4  UNL     1      -9.206   7.313  16.132  1.00  0.00     0.028 C 
BRANCH  28  29
HETATM   29  C3  UNL     1      -9.939   8.433  16.821  1.00  0.00    -0.013 C 
HETATM   30  C2  UNL     1     -10.102   9.696  16.375  1.00  0.00     0.008 C 
HETATM   31  C1  UNL     1      -9.521  10.249  15.107  1.00  0.00     0.055 C 
BRANCH  30  32
HETATM   32  C30 UNL     1     -10.891  10.685  17.158  1.00  0.00     0.171 C 
HETATM   33  O3  UNL     1     -10.421  11.538  17.890  1.00  0.00    -0.646 OA
BRANCH  32  34
HETATM   34  O4  UNL     1     -12.220  10.575  16.999  1.00  0.00    -0.773 OA
HETATM   35  H44 UNL     1     -12.578  11.282  17.572  1.00  0.00     0.167 HD
ENDBRANCH  32  34
ENDBRANCH  30  32
ENDBRANCH  28  29
ENDBRANCH  27  28
ENDBRANCH  25  27
ENDBRANCH   1  25
TORSDOF 6
ENDMDL
