MODEL 1
REMARK minimizedAffinity -9.48788929
REMARK  11 active torsions:
REMARK  status: ('A' for Active; 'I' for Inactive)
REMARK    1  A    between atoms: C6_6  and  C8_8 
REMARK    2  A    between atoms: C8_8  and  O1_9 
REMARK    3  A    between atoms: O1_9  and  C9_10 
REMARK    4  A    between atoms: C10_12  and  C11_13 
REMARK    5  A    between atoms: C11_13  and  O3_14 
REMARK    6  A    between atoms: C12_15  and  O4_16 
REMARK    7  A    between atoms: C13_17  and  O5_18 
REMARK    8  A    between atoms: C14_19  and  O6_20 
REMARK    9  A    between atoms: C20_26  and  C21_27 
REMARK   10  A    between atoms: C21_27  and  C22_28 
REMARK   11  A    between atoms: C26_34  and  O9_35 
ROOT
HETATM    1  C1  UNL     1       1.769   8.659  13.779  1.00  0.00     0.015 C 
HETATM    2  C2  UNL     1       0.561   8.334  13.286  1.00  0.00    -0.084 C 
HETATM    3  C3  UNL     1      -0.593   9.307  13.347  1.00  0.00     0.034 C 
HETATM    4  C4  UNL     1      -1.884   8.685  13.892  1.00  0.00     0.010 C 
HETATM    5  C5  UNL     1      -2.216   7.363  13.168  1.00  0.00     0.005 C 
HETATM    6  C6  UNL     1      -3.674   6.817  13.395  1.00  0.00    -0.018 C 
HETATM    7  C7  UNL     1      -4.683   7.830  12.780  1.00  0.00     0.018 C 
HETATM    8  C15 UNL     1      -3.878   5.458  12.647  1.00  0.00     0.012 C 
HETATM    9  C16 UNL     1      -2.676   5.001  11.823  1.00  0.00     0.002 C 
HETATM   10  C17 UNL     1      -1.415   4.961  12.673  1.00  0.00     0.010 C 
HETATM   11  C18 UNL     1      -1.045   6.326  13.316  1.00  0.00    -0.032 C 
HETATM   12  C19 UNL     1      -0.706   6.014  14.811  1.00  0.00     0.016 C 
HETATM   13  C20 UNL     1       0.283   6.944  12.700  1.00  0.00     0.025 C 
ENDROOT
BRANCH   6  14
HETATM   14  C8  UNL     1      -4.037   6.626  14.891  1.00  0.00     0.180 C 
BRANCH  14  15
HETATM   15  O1  UNL     1      -5.021   5.596  15.043  1.00  0.00    -0.358 OA
BRANCH  15  16
HETATM   16  C9  UNL     1      -5.837   5.437  13.877  1.00  0.00     0.291 C 
HETATM   17  O2  UNL     1      -5.867   4.077  13.449  1.00  0.00    -0.348 OA
HETATM   18  C10 UNL     1      -6.656   3.913  12.257  1.00  0.00     0.179 C 
HETATM   19  C12 UNL     1      -8.131   4.252  12.530  1.00  0.00     0.180 C 
HETATM   20  C13 UNL     1      -8.238   5.676  13.104  1.00  0.00     0.183 C 
HETATM   21  C14 UNL     1      -7.250   5.937  14.245  1.00  0.00     0.204 C 
BRANCH  18  22
HETATM   22  C11 UNL     1      -6.479   2.483  11.743  1.00  0.00     0.198 C 
BRANCH  22  23
HETATM   23  O3  UNL     1      -5.650   2.479  10.583  1.00  0.00    -0.398 OA
HETATM   24  H17 UNL     1      -5.673   1.575  10.221  1.00  0.00     0.209 HD
ENDBRANCH  22  23
ENDBRANCH  18  22
BRANCH  19  25
HETATM   25  O4  UNL     1      -8.708   3.310  13.445  1.00  0.00    -0.390 OA
HETATM   26  H19 UNL     1      -9.567   3.693  13.703  1.00  0.00     0.210 HD
ENDBRANCH  19  25
BRANCH  20  27
HETATM   27  O5  UNL     1      -9.578   5.897  13.575  1.00  0.00    -0.390 OA
HETATM   28  H21 UNL     1      -9.533   5.721  14.541  1.00  0.00     0.210 HD
ENDBRANCH  20  27
BRANCH  21  29
HETATM   29  O6  UNL     1      -7.756   5.294  15.437  1.00  0.00    -0.388 OA
HETATM   30  H23 UNL     1      -6.961   4.987  15.921  1.00  0.00     0.210 HD
ENDBRANCH  21  29
ENDBRANCH  15  16
ENDBRANCH  14  15
ENDBRANCH   6  14
BRANCH  13  31
HETATM   31  C21 UNL     1       0.491   6.924  11.156  1.00  0.00     0.037 C 
BRANCH  31  32
HETATM   32  C22 UNL     1       1.422   5.919  10.544  1.00  0.00    -0.010 C 
HETATM   33  C23 UNL     1       2.743   6.072  10.359  1.00  0.00     0.044 C 
HETATM   34  C24 UNL     1       3.583   4.980   9.812  1.00  0.00     0.291 C 
HETATM   35  C26 UNL     1       3.651   7.191  10.702  1.00  0.00     0.181 C 
HETATM   36  O7  UNL     1       3.177   3.975   9.256  1.00  0.00    -0.260 OA
HETATM   37  O8  UNL     1       4.889   5.284  10.049  1.00  0.00    -0.315 OA
HETATM   38  C25 UNL     1       4.962   6.452  10.879  1.00  0.00     0.215 C 
BRANCH  35  39
HETATM   39  O9  UNL     1       3.729   8.095   9.608  1.00  0.00    -0.389 OA
HETATM   40  H40 UNL     1       2.824   8.404   9.423  1.00  0.00     0.210 HD
ENDBRANCH  35  39
ENDBRANCH  31  32
ENDBRANCH  13  31
TORSDOF 11
ENDMDL
