MODEL 1
REMARK minimizedAffinity -8.21256924
REMARK  2 active torsions:
REMARK  status: ('A' for Active; 'I' for Inactive)
REMARK    1  A    between atoms: C4_6  and  O3_7 
REMARK    2  A    between atoms: C11_14  and  O4_15 
ROOT
HETATM    1  O1  UNL     1      -6.665   1.335  11.518  1.00  0.00    -0.259 OA
HETATM    2  C1  UNL     1      -5.706   2.066  11.738  1.00  0.00     0.299 A 
HETATM    3  O2  UNL     1      -4.416   1.696  11.394  1.00  0.00    -0.274 OA
HETATM    4  C2  UNL     1      -3.294   2.515  11.636  1.00  0.00     0.093 A 
HETATM    5  C3  UNL     1      -2.063   1.997  11.230  1.00  0.00     0.074 A 
HETATM    6  C4  UNL     1      -0.919   2.750  11.437  1.00  0.00     0.068 A 
HETATM    7  C5  UNL     1      -0.998   4.000  12.040  1.00  0.00     0.037 A 
HETATM    8  C6  UNL     1      -2.245   4.501  12.441  1.00  0.00     0.018 A 
HETATM    9  C7  UNL     1      -3.427   3.766  12.247  1.00  0.00     0.009 A 
HETATM   10  C8  UNL     1      -4.768   4.220  12.637  1.00  0.00    -0.007 A 
HETATM   11  C9  UNL     1      -5.019   5.459  13.257  1.00  0.00     0.016 A 
HETATM   12  C10 UNL     1      -6.316   5.847  13.612  1.00  0.00     0.037 A 
HETATM   13  C11 UNL     1      -7.385   5.005  13.351  1.00  0.00     0.066 A 
HETATM   14  C12 UNL     1      -7.178   3.777  12.743  1.00  0.00     0.055 A 
HETATM   15  C13 UNL     1      -5.874   3.388  12.388  1.00  0.00     0.053 A 
ENDROOT
BRANCH   6  16
HETATM   16  O3  UNL     1       0.272   2.227  11.034  1.00  0.00    -0.361 OA
HETATM   17  H2  UNL     1       0.980   2.859  11.240  1.00  0.00     0.217 HD
ENDBRANCH   6  16
BRANCH  13  18
HETATM   18  O4  UNL     1      -8.629   5.424  13.713  1.00  0.00    -0.361 OA
HETATM   19  H7  UNL     1      -9.277   4.740  13.473  1.00  0.00     0.217 HD
ENDBRANCH  13  18
TORSDOF 2
ENDMDL
