MODEL 1
REMARK minimizedAffinity -9.27123547
REMARK  9 active torsions:
REMARK  status: ('A' for Active; 'I' for Inactive)
REMARK    1  A    between atoms: C2_2  and  C3_3 
REMARK    2  A    between atoms: C2_2  and  C9_12 
REMARK    3  A    between atoms: C3_3  and  C4_4 
REMARK    4  A    between atoms: C4_4  and  C5_5 
REMARK    5  A    between atoms: C5_5  and  O1_6 
REMARK    6  A    between atoms: C5_5  and  C6_7 
REMARK    7  A    between atoms: C6_7  and  O2_9 
REMARK    8  A    between atoms: C6_7  and  C8_10 
REMARK    9  A    between atoms: C8_10  and  O3_11 
ROOT
HETATM    1  C9  UNL     1      -2.178   5.803  13.312  1.00  0.00    -0.002 C 
HETATM    2  C10 UNL     1      -2.278   5.265  11.858  1.00  0.00     0.007 C 
HETATM    3  C11 UNL     1      -0.899   5.477  11.203  1.00  0.00     0.015 C 
HETATM    4  C12 UNL     1       0.066   5.747  12.376  1.00  0.00    -0.005 C 
HETATM    5  C13 UNL     1       0.457   4.356  12.968  1.00  0.00     0.021 C 
HETATM    6  C14 UNL     1       1.400   6.443  12.150  1.00  0.00    -0.000 C 
HETATM    7  C15 UNL     1       1.974   7.193  13.130  1.00  0.00    -0.060 C 
HETATM    8  C16 UNL     1       1.257   7.416  14.467  1.00  0.00     0.036 C 
HETATM    9  C17 UNL     1      -0.153   6.815  14.639  1.00  0.00     0.015 C 
HETATM   10  C18 UNL     1      -0.865   6.639  13.294  1.00  0.00    -0.028 C 
HETATM   11  C19 UNL     1      -1.133   8.051  12.698  1.00  0.00     0.016 C 
HETATM   12  C20 UNL     1       3.341   7.905  12.948  1.00  0.00    -0.014 C 
HETATM   13  C21 UNL     1       3.008   9.324  12.435  1.00  0.00     0.020 C 
HETATM   14  C22 UNL     1       4.119   8.012  14.285  1.00  0.00     0.021 C 
HETATM   15  C23 UNL     1       5.526   8.567  14.128  1.00  0.00     0.080 C 
HETATM   16  C24 UNL     1       6.326   7.707  13.184  1.00  0.00     0.135 C 
HETATM   17  O4  UNL     1       7.453   7.329  13.506  1.00  0.00    -0.297 OA
HETATM   18  C25 UNL     1       5.719   7.415  11.804  1.00  0.00     0.018 C 
HETATM   19  C26 UNL     1       6.483   6.206  11.203  1.00  0.00     0.023 C 
HETATM   20  C27 UNL     1       5.997   8.619  10.893  1.00  0.00     0.023 C 
HETATM   21  C28 UNL     1       4.204   7.037  11.968  1.00  0.00     0.020 C 
HETATM   22  C29 UNL     1       3.466   6.865  10.636  1.00  0.00     0.090 C 
HETATM   23  C30 UNL     1       2.103   6.248  10.839  1.00  0.00     0.157 C 
HETATM   24  O5  UNL     1       1.581   5.617   9.922  1.00  0.00    -0.293 OA
ENDROOT
BRANCH   1  25
HETATM   25  C2  UNL     1      -3.529   6.338  13.879  1.00  0.00    -0.014 C 
HETATM   26  C1  UNL     1      -3.725   6.235  15.393  1.00  0.00     0.010 C 
BRANCH  25  27
HETATM   27  C3  UNL     1      -4.737   5.750  13.112  1.00  0.00     0.007 C 
BRANCH  27  28
HETATM   28  C4  UNL     1      -4.900   4.223  13.237  1.00  0.00     0.035 C 
BRANCH  28  29
HETATM   29  C5  UNL     1      -5.801   3.593  12.165  1.00  0.00     0.154 C 
BRANCH  29  30
HETATM   30  O1  UNL     1      -6.961   3.037  12.804  1.00  0.00    -0.392 OA
HETATM   31  H10 UNL     1      -7.407   2.527  12.093  1.00  0.00     0.210 HD
ENDBRANCH  29  30
BRANCH  29  32
HETATM   32  C6  UNL     1      -5.125   2.485  11.314  1.00  0.00     0.101 C 
HETATM   33  C7  UNL     1      -6.001   1.234  11.155  1.00  0.00     0.051 C 
BRANCH  32  34
HETATM   34  O2  UNL     1      -4.959   3.036   9.985  1.00  0.00    -0.385 OA
HETATM   35  H14 UNL     1      -4.220   2.532   9.585  1.00  0.00     0.210 HD
ENDBRANCH  32  34
BRANCH  32  36
HETATM   36  C8  UNL     1      -3.726   2.127  11.854  1.00  0.00     0.204 C 
BRANCH  36  37
HETATM   37  O3  UNL     1      -3.351   0.822  11.402  1.00  0.00    -0.398 OA
HETATM   38  H17 UNL     1      -3.753   0.175  12.009  1.00  0.00     0.209 HD
ENDBRANCH  36  37
ENDBRANCH  32  36
ENDBRANCH  29  32
ENDBRANCH  28  29
ENDBRANCH  27  28
ENDBRANCH  25  27
ENDBRANCH   1  25
TORSDOF 9
ENDMDL
