MODEL 1
REMARK minimizedAffinity -9.84556961
REMARK CNNscore 0.815645218
REMARK CNNaffinity 7.85144997
REMARK  12 active torsions:
REMARK  status: ('A' for Active; 'I' for Inactive)
REMARK    1  A    between atoms: C2_2  and  C4_4 
REMARK    2  A    between atoms: C4_4  and  C6_6 
REMARK    3  A    between atoms: C7_8  and  C8_9 
REMARK    4  A    between atoms: C8_9  and  O2_11 
REMARK    5  A    between atoms: C8_9  and  C10_12 
REMARK    6  A    between atoms: C13_15  and  O3_16 
REMARK    7  A    between atoms: C19_23  and  O5_24 
REMARK    8  A    between atoms: C20_25  and  O6_26 
REMARK    9  A    between atoms: C27_33  and  C28_34 
REMARK   10  A    between atoms: C28_34  and  C29_35 
REMARK   11  A    between atoms: C29_35  and  C30_36 
REMARK   12  A    between atoms: C34_40  and  O7_41 
ROOT
HETATM    1  C10 UNL     1      -3.098  48.820 -20.659  1.00  0.00     0.034 C 
HETATM    2  C11 UNL     1      -1.716  48.467 -21.281  1.00  0.00     0.012 C 
HETATM    3  C12 UNL     1      -0.652  48.801 -20.214  1.00  0.00     0.044 C 
HETATM    4  C13 UNL     1      -1.463  48.987 -18.929  1.00  0.00     0.090 C 
HETATM    5  C14 UNL     1      -0.901  49.669 -17.704  1.00  0.00    -0.037 C 
HETATM    6  C15 UNL     1       0.299  50.267 -17.681  1.00  0.00     0.057 C 
HETATM    7  C16 UNL     1       0.716  51.094 -16.530  1.00  0.00     0.154 C 
HETATM    8  O4  UNL     1       1.884  51.477 -16.486  1.00  0.00    -0.293 OA
HETATM    9  C17 UNL     1      -0.335  51.457 -15.482  1.00  0.00     0.071 C 
HETATM   10  C18 UNL     1       0.335  52.012 -14.207  1.00  0.00     0.047 C 
HETATM   11  C19 UNL     1       0.913  50.933 -13.284  1.00  0.00     0.147 C 
HETATM   12  C20 UNL     1       0.919  49.526 -13.891  1.00  0.00     0.147 C 
HETATM   13  C21 UNL     1      -0.431  49.106 -14.493  1.00  0.00     0.044 C 
HETATM   14  C22 UNL     1      -1.253  50.245 -15.191  1.00  0.00    -0.023 C 
HETATM   15  C23 UNL     1      -2.386  50.663 -14.218  1.00  0.00     0.016 C 
HETATM   16  C24 UNL     1      -1.885  49.691 -16.528  1.00  0.00     0.027 C 
HETATM   17  C25 UNL     1      -3.204  50.365 -16.995  1.00  0.00     0.011 C 
HETATM   18  C26 UNL     1      -3.777  49.734 -18.287  1.00  0.00     0.014 C 
HETATM   19  C27 UNL     1      -2.749  49.752 -19.444  1.00  0.00     0.002 C 
ENDROOT
BRANCH   1  20
HETATM   20  C8  UNL     1      -4.212  49.148 -21.693  1.00  0.00     0.087 C 
HETATM   21  C9  UNL     1      -4.715  47.827 -22.310  1.00  0.00     0.049 C 
BRANCH  20  22
HETATM   22  C7  UNL     1      -3.787  50.144 -22.758  1.00  0.00     0.185 A 
HETATM   23  C6  UNL     1      -3.672  49.835 -24.245  1.00  0.00     0.158 A 
HETATM   24  O1  UNL     1      -4.835  50.463 -23.700  1.00  0.00    -0.372 OA
BRANCH  23  25
HETATM   25  C4  UNL     1      -2.856  50.669 -25.212  1.00  0.00     0.017 C 
HETATM   26  C5  UNL     1      -3.436  52.059 -25.492  1.00  0.00     0.013 C 
BRANCH  25  27
HETATM   27  C2  UNL     1      -2.558  49.855 -26.507  1.00  0.00    -0.016 C 
HETATM   28  C1  UNL     1      -2.953  50.623 -27.772  1.00  0.00     0.010 C 
HETATM   29  C3  UNL     1      -3.209  48.469 -26.519  1.00  0.00     0.010 C 
ENDBRANCH  25  27
ENDBRANCH  23  25
ENDBRANCH  20  22
BRANCH  20  30
HETATM   30  O2  UNL     1      -5.331  49.698 -20.995  1.00  0.00    -0.387 OA
HETATM   31  H17 UNL     1      -5.935  50.042 -21.681  1.00  0.00     0.210 HD
ENDBRANCH  20  30
ENDBRANCH   1  20
BRANCH  19  32
HETATM   32  C28 UNL     1      -2.393  51.229 -19.860  1.00  0.00     0.018 C 
BRANCH  32  33
HETATM   33  C29 UNL     1      -0.954  51.721 -19.614  1.00  0.00     0.039 C 
BRANCH  33  34
HETATM   34  C30 UNL     1      -0.376  52.335 -20.869  1.00  0.00    -0.056 A 
HETATM   35  C31 UNL     1      -0.778  51.895 -22.137  1.00  0.00     0.007 A 
HETATM   36  C32 UNL     1      -0.208  52.442 -23.290  1.00  0.00     0.003 A 
HETATM   37  C33 UNL     1       0.767  53.433 -23.189  1.00  0.00     0.036 A 
HETATM   38  C34 UNL     1       1.162  53.875 -21.930  1.00  0.00     0.066 A 
HETATM   39  C35 UNL     1       0.601  53.338 -20.776  1.00  0.00     0.043 A 
BRANCH  38  40
HETATM   40  O7  UNL     1       2.112  54.842 -21.779  1.00  0.00    -0.361 OA
HETATM   41  H49 UNL     1       2.455  55.079 -22.657  1.00  0.00     0.217 HD
ENDBRANCH  38  40
ENDBRANCH  33  34
ENDBRANCH  32  33
ENDBRANCH  19  32
BRANCH   4  42
HETATM   42  O3  UNL     1      -1.790  47.653 -18.496  1.00  0.00    -0.384 OA
HETATM   43  H23 UNL     1      -0.962  47.232 -18.207  1.00  0.00     0.211 HD
ENDBRANCH   4  42
BRANCH  12  44
HETATM   44  O6  UNL     1       1.277  48.592 -12.862  1.00  0.00    -0.393 OA
HETATM   45  H31 UNL     1       1.392  47.726 -13.292  1.00  0.00     0.210 HD
ENDBRANCH  12  44
BRANCH  11  46
HETATM   46  O5  UNL     1       0.157  50.903 -12.067  1.00  0.00    -0.393 OA
HETATM   47  H29 UNL     1       0.428  50.068 -11.630  1.00  0.00     0.210 HD
ENDBRANCH  11  46
TORSDOF 12
ENDMDL
