MODEL 1
REMARK minimizedAffinity -8.05857849
REMARK CNNscore 0.730156541
REMARK CNNaffinity 7.00156593
REMARK  11 active torsions:
REMARK  status: ('A' for Active; 'I' for Inactive)
REMARK    1  A    between atoms: C12_13  and  O2_14 
REMARK    2  A    between atoms: C19_21  and  O3_22 
REMARK    3  A    between atoms: C19_21  and  C20_23 
REMARK    4  A    between atoms: C20_23  and  C21_25 
REMARK    5  A    between atoms: C21_25  and  O5_26 
REMARK    6  A    between atoms: O5_26  and  C22_27 
REMARK    7  A    between atoms: C22_27  and  C23_29 
REMARK    8  A    between atoms: C23_29  and  C24_30 
REMARK    9  A    between atoms: C24_30  and  C25_31 
REMARK       I    between atoms: C25_31  and  N1_33 
REMARK   10  A    between atoms: N1_33  and  C26_34 
REMARK   11  A    between atoms: C26_34  and  C27_35 
ROOT
HETATM    1  C1  UNL     1      -1.250  70.255 -43.346  1.00  0.00     0.020 C 
HETATM    2  C2  UNL     1      -1.819  69.635 -42.046  1.00  0.00    -0.014 C 
HETATM    3  C3  UNL     1      -2.827  68.518 -42.413  1.00  0.00     0.022 C 
HETATM    4  C4  UNL     1      -4.091  69.039 -43.091  1.00  0.00     0.084 C 
HETATM    5  C5  UNL     1      -4.723  70.172 -42.321  1.00  0.00     0.149 C 
HETATM    6  O1  UNL     1      -5.904  70.479 -42.468  1.00  0.00    -0.293 OA
HETATM    7  C6  UNL     1      -3.882  70.964 -41.396  1.00  0.00     0.053 C 
HETATM    8  C7  UNL     1      -2.564  70.733 -41.268  1.00  0.00    -0.068 C 
HETATM    9  C8  UNL     1      -1.744  71.495 -40.254  1.00  0.00     0.035 C 
HETATM   10  C9  UNL     1      -1.177  70.561 -39.172  1.00  0.00     0.010 C 
HETATM   11  C10 UNL     1      -0.994  69.113 -39.667  1.00  0.00    -0.002 C 
HETATM   12  C11 UNL     1      -0.610  69.117 -41.173  1.00  0.00     0.031 C 
HETATM   13  C12 UNL     1       0.073  67.800 -41.603  1.00  0.00     0.124 C 
HETATM   14  C13 UNL     1       1.381  67.534 -40.815  1.00  0.00     0.045 C 
HETATM   15  C14 UNL     1       1.395  68.090 -39.361  1.00  0.00     0.001 C 
HETATM   16  C15 UNL     1       2.164  69.438 -39.331  1.00  0.00     0.019 C 
HETATM   17  C16 UNL     1      -0.057  68.223 -38.838  1.00  0.00     0.002 C 
HETATM   18  C17 UNL     1       0.092  68.462 -37.341  1.00  0.00     0.009 C 
HETATM   19  C18 UNL     1       1.345  67.653 -36.952  1.00  0.00     0.047 C 
HETATM   20  C19 UNL     1       1.974  67.120 -38.275  1.00  0.00     0.128 C 
ENDROOT
BRANCH  20  21
HETATM   21  O3  UNL     1       1.436  65.807 -38.472  1.00  0.00    -0.381 OA
HETATM   22  H27 UNL     1       1.801  65.246 -37.755  1.00  0.00     0.211 HD
ENDBRANCH  20  21
BRANCH  20  23
HETATM   23  C20 UNL     1       3.524  67.080 -38.208  1.00  0.00     0.185 C 
HETATM   24  O4  UNL     1       4.215  67.224 -39.222  1.00  0.00    -0.292 OA
BRANCH  23  25
HETATM   25  C21 UNL     1       4.202  66.739 -36.874  1.00  0.00     0.260 C 
BRANCH  25  26
HETATM   26  O5  UNL     1       5.343  67.456 -36.429  1.00  0.00    -0.314 OA
BRANCH  26  27
HETATM   27  C22 UNL     1       6.529  67.021 -36.928  1.00  0.00     0.259 C 
HETATM   28  O6  UNL     1       7.513  67.735 -37.088  1.00  0.00    -0.265 OA
BRANCH  27  29
HETATM   29  C23 UNL     1       6.549  65.525 -37.137  1.00  0.00     0.120 C 
BRANCH  29  30
HETATM   30  C24 UNL     1       7.804  64.819 -36.638  1.00  0.00     0.112 C 
BRANCH  30  31
HETATM   31  C25 UNL     1       7.495  63.769 -35.591  1.00  0.00     0.218 C 
HETATM   32  O7  UNL     1       8.304  63.403 -34.746  1.00  0.00    -0.274 OA
HETATM   33  N1  UNL     1       6.225  63.247 -35.709  1.00  0.00    -0.357 N 
HETATM   34  H34 UNL     1       5.559  63.720 -36.304  1.00  0.00     0.162 HD
BRANCH  33  35
HETATM   35  C26 UNL     1       5.704  62.301 -34.749  1.00  0.00     0.161 C 
BRANCH  35  36
HETATM   36  C27 UNL     1       4.967  63.004 -33.642  1.00  0.00    -0.038 A 
HETATM   37  C28 UNL     1       3.992  62.344 -32.890  1.00  0.00     0.025 A 
HETATM   38  C29 UNL     1       3.329  63.049 -31.896  1.00  0.00     0.088 A 
HETATM   39  N2  UNL     1       3.565  64.347 -31.610  1.00  0.00    -0.375 N 
HETATM   40  C30 UNL     1       4.505  64.969 -32.353  1.00  0.00     0.088 A 
ATOM     41  H2  UNL     1       3.059  64.833 -30.870  1.00  0.00     0.164 HD
HETATM   42  C31 UNL     1       5.221  64.352 -33.365  1.00  0.00     0.025 A 
ENDBRANCH  35  36
ENDBRANCH  33  35
ENDBRANCH  30  31
ENDBRANCH  29  30
ENDBRANCH  27  29
ENDBRANCH  26  27
ENDBRANCH  25  26
ENDBRANCH  23  25
ENDBRANCH  20  23
BRANCH  13  43
HETATM   43  O2  UNL     1      -0.807  66.687 -41.462  1.00  0.00    -0.395 OA
HETATM   44  H16 UNL     1      -0.582  66.191 -40.656  1.00  0.00     0.210 HD
ENDBRANCH  13  43
TORSDOF 11
ENDMDL
