MODEL 1
REMARK minimizedAffinity -7.87711143
REMARK CNNscore 0.743339717
REMARK CNNaffinity 6.63993073
REMARK  7 active torsions:
REMARK  status: ('A' for Active; 'I' for Inactive)
REMARK    1  A    between atoms: C2_2  and  C30_32 
REMARK    2  A    between atoms: C3_3  and  C4_4 
REMARK    3  A    between atoms: C4_4  and  O1_5 
REMARK    4  A    between atoms: C4_4  and  C5_6 
REMARK    5  A    between atoms: C5_6  and  C6_7 
REMARK    6  A    between atoms: C6_7  and  C8_9 
REMARK    7  A    between atoms: C30_32  and  O4_34 
ROOT
HETATM    1  C8  UNL     1       5.833  55.743  -7.998  1.00  0.00    -0.002 C 
HETATM    2  C9  UNL     1       6.675  54.605  -8.646  1.00  0.00     0.006 C 
HETATM    3  C10 UNL     1       5.727  53.754  -9.507  1.00  0.00     0.011 C 
HETATM    4  C11 UNL     1       4.426  54.575  -9.602  1.00  0.00    -0.032 C 
HETATM    5  C12 UNL     1       4.634  55.596 -10.765  1.00  0.00     0.016 C 
HETATM    6  C13 UNL     1       3.154  53.718  -9.848  1.00  0.00     0.004 C 
HETATM    7  C14 UNL     1       3.050  53.150 -11.272  1.00  0.00     0.007 C 
HETATM    8  C15 UNL     1       1.828  52.243 -11.381  1.00  0.00     0.007 C 
HETATM    9  C16 UNL     1       0.533  53.063 -11.283  1.00  0.00     0.010 C 
HETATM   10  C17 UNL     1      -0.793  52.232 -11.359  1.00  0.00     0.018 C 
HETATM   11  C18 UNL     1      -1.345  52.267 -12.800  1.00  0.00     0.023 C 
HETATM   12  C19 UNL     1      -0.604  50.753 -10.955  1.00  0.00     0.023 C 
HETATM   13  C20 UNL     1      -1.893  52.825 -10.456  1.00  0.00     0.135 C 
HETATM   14  O2  UNL     1      -2.783  52.114  -9.975  1.00  0.00    -0.297 OA
HETATM   15  C21 UNL     1      -1.966  54.324 -10.255  1.00  0.00     0.080 C 
HETATM   16  C22 UNL     1      -0.616  55.028 -10.273  1.00  0.00     0.018 C 
HETATM   17  C23 UNL     1       0.520  54.042 -10.109  1.00  0.00    -0.026 A 
HETATM   18  C24 UNL     1       0.828  53.589  -8.708  1.00  0.00     0.021 A 
HETATM   19  C25 UNL     1       1.854  54.454  -9.433  1.00  0.00    -0.027 A 
HETATM   20  C26 UNL     1       2.002  55.910  -8.982  1.00  0.00     0.011 C 
HETATM   21  C27 UNL     1       3.253  56.277  -8.166  1.00  0.00     0.011 C 
HETATM   22  C28 UNL     1       4.366  55.219  -8.168  1.00  0.00    -0.032 C 
HETATM   23  C29 UNL     1       4.059  54.204  -7.026  1.00  0.00     0.016 C 
ENDROOT
BRANCH   1  24
HETATM   24  C6  UNL     1       6.368  56.146  -6.588  1.00  0.00    -0.011 C 
HETATM   25  C7  UNL     1       6.068  57.615  -6.263  1.00  0.00     0.010 C 
BRANCH  24  26
HETATM   26  C5  UNL     1       7.898  55.888  -6.502  1.00  0.00     0.040 C 
BRANCH  26  27
HETATM   27  C4  UNL     1       8.414  55.258  -5.195  1.00  0.00     0.142 C 
BRANCH  27  28
HETATM   28  C3  UNL     1       9.862  55.547  -4.918  1.00  0.00     0.018 C 
HETATM   29  C2  UNL     1      10.482  56.742  -4.786  1.00  0.00     0.010 C 
HETATM   30  C1  UNL     1       9.834  58.085  -4.961  1.00  0.00     0.055 C 
BRANCH  29  31
HETATM   31  C30 UNL     1      11.931  56.813  -4.461  1.00  0.00     0.171 C 
HETATM   32  O3  UNL     1      12.418  57.420  -3.524  1.00  0.00    -0.646 OA
BRANCH  31  33
HETATM   33  O4  UNL     1      12.717  56.132  -5.314  1.00  0.00    -0.773 OA
HETATM   34  H46 UNL     1      13.618  56.277  -4.956  1.00  0.00     0.167 HD
ENDBRANCH  31  33
ENDBRANCH  29  31
ENDBRANCH  27  28
BRANCH  27  35
HETATM   35  O1  UNL     1       7.622  55.723  -4.105  1.00  0.00    -0.392 OA
HETATM   36  H6  UNL     1       6.702  55.467  -4.287  1.00  0.00     0.210 HD
ENDBRANCH  27  35
ENDBRANCH  26  27
ENDBRANCH  24  26
ENDBRANCH   1  24
TORSDOF 7
ENDMDL
