MODEL 1
REMARK minimizedAffinity -7.97674131
REMARK  3 active torsions:
REMARK  status: ('A' for Active; 'I' for Inactive)
REMARK    1  A    between atoms: C8_8  and  N1_9 
REMARK       I    between atoms: N1_9  and  C9_10 
REMARK    2  A    between atoms: C9_10  and  C10_12 
REMARK    3  A    between atoms: C14_18  and  O2_19 
ROOT
HETATM    1  N1  UNL     1       0.039  51.989 -24.112  1.00  0.00    -0.322 N 
HETATM    2  C9  UNL     1       0.559  53.092 -23.460  1.00  0.00     0.260 C 
HETATM    3  O1  UNL     1       1.029  54.097 -23.986  1.00  0.00    -0.267 OA
HETATM    4  H10 UNL     1       0.129  51.118 -23.609  1.00  0.00     0.169 HD
ENDROOT
BRANCH   2   5
HETATM    5  C10 UNL     1       0.636  52.994 -21.981  1.00  0.00     0.083 A 
HETATM    6  C11 UNL     1      -0.027  51.988 -21.267  1.00  0.00     0.023 A 
HETATM    7  C12 UNL     1       0.089  51.943 -19.880  1.00  0.00     0.018 A 
HETATM    8  C13 UNL     1       0.859  52.908 -19.253  1.00  0.00     0.090 A 
HETATM    9  N2  UNL     1       1.497  53.899 -19.910  1.00  0.00    -0.346 N 
HETATM   10  C14 UNL     1       1.364  53.935 -21.253  1.00  0.00     0.155 A 
ATOM     11  H2  UNL     1       2.056  54.592 -19.413  1.00  0.00     0.167 HD
BRANCH  10  12
HETATM   12  O2  UNL     1       2.021  54.982 -21.837  1.00  0.00    -0.345 OA
HETATM   13  H14 UNL     1       1.737  55.021 -22.774  1.00  0.00     0.219 HD
ENDBRANCH  10  12
ENDBRANCH   2   5
BRANCH   1  14
HETATM   14  C8  UNL     1      -0.154  51.866 -25.513  1.00  0.00     0.046 A 
HETATM   15  C2  UNL     1       0.895  51.593 -26.418  1.00  0.00    -0.035 A 
HETATM   16  C1  UNL     1       2.348  51.489 -26.035  1.00  0.00     0.050 C 
HETATM   17  C3  UNL     1       0.600  51.447 -27.787  1.00  0.00     0.009 A 
HETATM   18  C4  UNL     1      -0.691  51.629 -28.269  1.00  0.00     0.001 A 
HETATM   19  C5  UNL     1      -1.713  51.966 -27.389  1.00  0.00     0.009 A 
HETATM   20  C6  UNL     1      -1.462  52.092 -26.013  1.00  0.00    -0.035 A 
HETATM   21  C7  UNL     1      -2.624  52.431 -25.116  1.00  0.00     0.050 C 
ENDBRANCH   1  14
TORSDOF 3
ENDMDL
