MODEL 1
REMARK minimizedAffinity -7.61450911
REMARK CNNscore 0.426322967
REMARK CNNaffinity 6.05739212
REMARK  11 active torsions:
REMARK  status: ('A' for Active; 'I' for Inactive)
REMARK    1  A    between atoms: C3_3  and  O1_4 
REMARK    2  A    between atoms: N1_14  and  O2_16 
REMARK    3  A    between atoms: O2_16  and  C13_17 
REMARK    4  A    between atoms: C13_17  and  C14_18 
REMARK       I    between atoms: C14_18  and  N2_20 
REMARK    5  A    between atoms: N2_20  and  C15_21 
REMARK    6  A    between atoms: C15_21  and  C16_22 
REMARK    7  A    between atoms: C15_21  and  C19_27 
REMARK    8  A    between atoms: C16_22  and  O5_24 
REMARK    9  A    between atoms: O5_24  and  C17_25 
REMARK   10  A    between atoms: C19_27  and  O6_28 
REMARK   11  A    between atoms: C19_27  and  C20_29 
ROOT
HETATM    1  C1  UNL     1       7.194  62.275 -34.029  1.00  0.00     0.015 C 
HETATM    2  C2  UNL     1       7.206  63.288 -34.677  1.00  0.00    -0.078 C 
HETATM    3  C3  UNL     1       7.237  64.530 -35.486  1.00  0.00     0.128 C 
HETATM    4  C4  UNL     1       6.704  64.235 -36.888  1.00  0.00     0.052 C 
HETATM    5  C5  UNL     1       5.186  64.384 -36.782  1.00  0.00     0.010 C 
HETATM    6  C6  UNL     1       4.899  65.176 -35.487  1.00  0.00     0.002 C 
HETATM    7  C7  UNL     1       3.866  66.309 -35.639  1.00  0.00    -0.004 C 
HETATM    8  C8  UNL     1       2.469  65.768 -35.963  1.00  0.00     0.010 C 
HETATM    9  C9  UNL     1       1.546  66.868 -36.457  1.00  0.00     0.035 C 
HETATM   10  C10 UNL     1       2.087  67.321 -37.781  1.00  0.00    -0.069 C 
HETATM   11  C11 UNL     1       1.388  67.080 -38.907  1.00  0.00     0.030 C 
HETATM   12  C12 UNL     1       1.925  67.420 -40.255  1.00  0.00     0.032 C 
HETATM   13  N1  UNL     1       1.281  67.314 -41.378  1.00  0.00    -0.271 N 
ATOM     14  H1  UNL     1       1.671  67.565 -42.287  1.00  0.00     0.194 HD
HETATM   15  C26 UNL     1       3.342  67.954 -40.337  1.00  0.00     0.060 C 
HETATM   16  C27 UNL     1       4.172  67.605 -39.105  1.00  0.00     0.020 C 
HETATM   17  C28 UNL     1       3.474  67.951 -37.763  1.00  0.00    -0.016 C 
HETATM   18  C29 UNL     1       3.280  69.492 -37.690  1.00  0.00     0.020 C 
HETATM   19  C30 UNL     1       4.337  67.529 -36.492  1.00  0.00     0.002 C 
HETATM   20  C31 UNL     1       5.861  67.522 -36.732  1.00  0.00     0.007 C 
HETATM   21  C32 UNL     1       6.640  67.080 -35.495  1.00  0.00     0.014 C 
HETATM   22  C33 UNL     1       6.282  65.655 -34.962  1.00  0.00     0.003 C 
HETATM   23  C34 UNL     1       6.294  65.752 -33.419  1.00  0.00     0.020 C 
ENDROOT
BRANCH   3  24
HETATM   24  O1  UNL     1       8.586  64.961 -35.570  1.00  0.00    -0.377 OA
HETATM   25  H2  UNL     1       8.920  65.020 -34.658  1.00  0.00     0.211 HD
ENDBRANCH   3  24
BRANCH  13  26
HETATM   26  O2  UNL     1      -0.017  66.814 -41.190  1.00  0.00    -0.271 OA
BRANCH  26  27
HETATM   27  C13 UNL     1      -0.824  67.217 -42.283  1.00  0.00     0.303 C 
BRANCH  27  28
HETATM   28  C14 UNL     1      -1.774  68.342 -41.879  1.00  0.00     0.244 C 
HETATM   29  O3  UNL     1      -1.977  68.692 -40.720  1.00  0.00    -0.271 OA
HETATM   30  N2  UNL     1      -2.390  68.955 -42.955  1.00  0.00    -0.343 N 
HETATM   31  H16 UNL     1      -2.429  68.427 -43.821  1.00  0.00     0.163 HD
BRANCH  30  32
HETATM   32  C15 UNL     1      -3.516  69.889 -42.748  1.00  0.00     0.217 C 
BRANCH  32  33
HETATM   33  C16 UNL     1      -3.130  71.032 -41.794  1.00  0.00     0.284 C 
HETATM   34  O4  UNL     1      -3.485  71.103 -40.624  1.00  0.00    -0.263 OA
BRANCH  33  35
HETATM   35  O5  UNL     1      -2.323  71.946 -42.416  1.00  0.00    -0.320 OA
BRANCH  35  36
HETATM   36  C17 UNL     1      -0.938  71.917 -42.040  1.00  0.00     0.174 C 
HETATM   37  C18 UNL     1      -0.067  71.676 -43.259  1.00  0.00     0.034 C 
ENDBRANCH  35  36
ENDBRANCH  33  35
ENDBRANCH  32  33
BRANCH  32  38
HETATM   38  C19 UNL     1      -4.785  69.145 -42.264  1.00  0.00     0.183 C 
BRANCH  38  39
HETATM   39  O6  UNL     1      -4.892  67.828 -42.809  1.00  0.00    -0.388 OA
HETATM   40  H24 UNL     1      -4.049  67.366 -42.656  1.00  0.00     0.210 HD
ENDBRANCH  38  39
BRANCH  38  41
HETATM   41  C20 UNL     1      -6.077  69.905 -42.506  1.00  0.00    -0.027 A 
HETATM   42  C21 UNL     1      -7.148  69.829 -41.602  1.00  0.00     0.010 A 
HETATM   43  C22 UNL     1      -8.344  70.505 -41.855  1.00  0.00     0.001 A 
HETATM   44  C23 UNL     1      -8.483  71.268 -43.012  1.00  0.00     0.000 A 
HETATM   45  C24 UNL     1      -7.426  71.361 -43.914  1.00  0.00     0.001 A 
HETATM   46  C25 UNL     1      -6.230  70.685 -43.664  1.00  0.00     0.010 A 
ENDBRANCH  38  41
ENDBRANCH  32  38
ENDBRANCH  30  32
ENDBRANCH  27  28
ENDBRANCH  26  27
ENDBRANCH  13  26
TORSDOF 11
ENDMDL
