MODEL 1
REMARK minimizedAffinity -9.32525826
REMARK CNNscore 0.41689378
REMARK CNNaffinity 6.52276611
REMARK  6 active torsions:
REMARK  status: ('A' for Active; 'I' for Inactive)
REMARK    1  A    between atoms: C9_10  and  C10_11 
REMARK    2  A    between atoms: C11_13  and  O3_14 
REMARK    3  A    between atoms: C12_15  and  C13_16 
REMARK    4  A    between atoms: C14_18  and  O5_19 
REMARK    5  A    between atoms: C16_21  and  C17_22 
REMARK    6  A    between atoms: C17_22  and  C18_23 
ROOT
HETATM    1  C1  UNL     1      -5.449  47.965 -26.267  1.00  0.00     0.043 C 
HETATM    2  C2  UNL     1      -4.470  48.874 -25.554  1.00  0.00    -0.087 C 
HETATM    3  C3  UNL     1      -3.159  48.808 -25.871  1.00  0.00    -0.024 C 
HETATM    4  C4  UNL     1      -1.924  49.541 -25.400  1.00  0.00     0.030 C 
HETATM    5  C5  UNL     1      -2.074  50.940 -24.806  1.00  0.00     0.042 C 
HETATM    6  C6  UNL     1      -1.926  51.122 -23.258  1.00  0.00     0.069 C 
HETATM    7  C7  UNL     1      -2.733  52.410 -22.920  1.00  0.00     0.047 C 
HETATM    8  O1  UNL     1      -0.511  51.510 -23.112  1.00  0.00    -0.338 OA
HETATM    9  C8  UNL     1      -0.130  51.676 -21.804  1.00  0.00     0.095 A 
HETATM   10  C9  UNL     1       0.535  52.839 -21.407  1.00  0.00     0.070 A 
HETATM   11  C11 UNL     1       0.832  53.031 -20.053  1.00  0.00     0.097 A 
HETATM   12  C12 UNL     1       0.455  52.059 -19.118  1.00  0.00     0.069 A 
HETATM   13  C14 UNL     1      -0.183  50.875 -19.543  1.00  0.00     0.091 A 
HETATM   14  C15 UNL     1      -0.433  50.649 -20.901  1.00  0.00     0.015 A 
HETATM   15  C16 UNL     1      -0.999  49.411 -21.570  1.00  0.00     0.032 C 
HETATM   16  C21 UNL     1      -2.290  49.830 -22.350  1.00  0.00     0.034 C 
HETATM   17  C22 UNL     1      -3.494  50.081 -21.446  1.00  0.00     0.006 A 
HETATM   18  C23 UNL     1      -4.910  49.817 -21.963  1.00  0.00    -0.001 A 
HETATM   19  C24 UNL     1      -5.263  48.988 -23.174  1.00  0.00     0.010 C 
HETATM   20  C25 UNL     1      -5.124  49.741 -24.497  1.00  0.00     0.034 C 
HETATM   21  C26 UNL     1      -4.427  49.101 -20.710  1.00  0.00    -0.039 A 
HETATM   22  C27 UNL     1      -4.999  49.582 -19.392  1.00  0.00     0.015 C 
HETATM   23  C28 UNL     1      -4.269  47.602 -20.739  1.00  0.00     0.015 C 
ENDROOT
BRANCH  15  24
HETATM   24  C17 UNL     1      -1.096  48.102 -20.768  1.00  0.00     0.014 C 
BRANCH  24  25
HETATM   25  C18 UNL     1      -2.137  48.097 -19.621  1.00  0.00    -0.022 C 
HETATM   26  C19 UNL     1      -1.546  48.582 -18.294  1.00  0.00     0.009 C 
HETATM   27  C20 UNL     1      -2.691  46.679 -19.444  1.00  0.00     0.009 C 
ENDBRANCH  24  25
ENDBRANCH  15  24
BRANCH  13  28
HETATM   28  O5  UNL     1      -0.593  49.936 -18.636  1.00  0.00    -0.359 OA
HETATM   29  H15 UNL     1      -0.335  50.226 -17.731  1.00  0.00     0.217 HD
ENDBRANCH  13  28
BRANCH  10  30
HETATM   30  C10 UNL     1       0.887  53.855 -22.415  1.00  0.00     0.275 C 
HETATM   31  O2  UNL     1       1.795  54.654 -22.196  1.00  0.00    -0.301 OA
ENDBRANCH  10  30
BRANCH  12  32
HETATM   32  C13 UNL     1       0.737  52.293 -17.686  1.00  0.00     0.275 C 
HETATM   33  O4  UNL     1       0.265  51.551 -16.827  1.00  0.00    -0.301 OA
ENDBRANCH  12  32
BRANCH  11  34
HETATM   34  O3  UNL     1       1.467  54.164 -19.608  1.00  0.00    -0.359 OA
HETATM   35  H13 UNL     1       1.655  54.747 -20.382  1.00  0.00     0.217 HD
ENDBRANCH  11  34
TORSDOF 6
ENDMDL
