MODEL 1
REMARK minimizedAffinity -8.38148308
REMARK  12 active torsions:
REMARK  status: ('A' for Active; 'I' for Inactive)
REMARK    1  A    between atoms: C5_5  and  C6_6 
REMARK    2  A    between atoms: C6_6  and  C8_8 
REMARK    3  A    between atoms: C8_8  and  O1_9 
REMARK    4  A    between atoms: C15_17  and  O3_18 
REMARK    5  A    between atoms: C18_21  and  O4_23 
REMARK    6  A    between atoms: O4_23  and  C20_24 
REMARK    7  A    between atoms: C20_24  and  C21_26 
REMARK    8  A    between atoms: C21_26  and  C22_27 
REMARK    9  A    between atoms: C21_26  and  O6_29 
REMARK   10  A    between atoms: O6_29  and  C24_30 
REMARK   11  A    between atoms: C24_30  and  C25_32 
REMARK   12  A    between atoms: C25_32  and  C26_33 
ROOT
HETATM    1  C1  UNL     1      -6.165   4.630  14.254  1.00  0.00     0.015 C 
HETATM    2  C2  UNL     1      -5.809   5.710  13.541  1.00  0.00    -0.082 C 
HETATM    3  C3  UNL     1      -6.459   7.046  13.818  1.00  0.00     0.034 C 
HETATM    4  C4  UNL     1      -5.395   8.120  14.084  1.00  0.00     0.010 C 
HETATM    5  C5  UNL     1      -4.009   7.510  14.404  1.00  0.00    -0.001 C 
HETATM    6  C9  UNL     1      -3.512   6.714  13.136  1.00  0.00     0.033 C 
HETATM    7  C10 UNL     1      -2.362   5.697  13.451  1.00  0.00     0.162 C 
HETATM    8  O2  UNL     1      -2.979   4.413  13.234  1.00  0.00    -0.376 OA
HETATM    9  C11 UNL     1      -3.866   4.607  12.124  1.00  0.00     0.134 C 
HETATM   10  C12 UNL     1      -4.482   3.301  11.648  1.00  0.00     0.068 C 
HETATM   11  C13 UNL     1      -3.446   2.182  11.541  1.00  0.00    -0.059 C 
HETATM   12  C14 UNL     1      -3.728   0.964  12.043  1.00  0.00     0.017 C 
HETATM   13  C15 UNL     1      -2.107   2.443  10.863  1.00  0.00     0.146 C 
HETATM   14  C16 UNL     1      -1.028   3.193  11.692  1.00  0.00     0.039 C 
HETATM   15  C17 UNL     1      -0.856   4.708  11.441  1.00  0.00     0.044 C 
HETATM   16  C18 UNL     1      -0.997   5.728  12.636  1.00  0.00     0.093 C 
HETATM   17  C19 UNL     1       0.174   5.428  13.599  1.00  0.00     0.049 C 
HETATM   18  C28 UNL     1      -4.667   5.825  12.543  1.00  0.00     0.050 C 
ENDROOT
BRANCH  16  19
HETATM   19  O4  UNL     1      -0.797   6.991  11.918  1.00  0.00    -0.306 OA
BRANCH  19  20
HETATM   20  C20 UNL     1       0.097   7.950  12.249  1.00  0.00     0.289 C 
HETATM   21  O5  UNL     1       0.090   8.593  13.289  1.00  0.00    -0.262 OA
BRANCH  20  22
HETATM   22  C21 UNL     1       1.167   8.068  11.148  1.00  0.00     0.231 C 
BRANCH  22  23
HETATM   23  C22 UNL     1       2.459   7.298  11.449  1.00  0.00     0.038 C 
HETATM   24  C23 UNL     1       3.015   7.533  12.847  1.00  0.00     0.008 C 
ENDBRANCH  22  23
BRANCH  22  25
HETATM   25  O6  UNL     1       0.647   7.517   9.919  1.00  0.00    -0.306 OA
BRANCH  25  26
HETATM   26  C24 UNL     1       0.495   8.416   8.904  1.00  0.00     0.259 C 
HETATM   27  O7  UNL     1      -0.507   9.092   8.715  1.00  0.00    -0.265 OA
BRANCH  26  28
HETATM   28  C25 UNL     1       1.750   8.440   8.063  1.00  0.00     0.111 C 
BRANCH  28  29
HETATM   29  C26 UNL     1       1.823   7.293   7.055  1.00  0.00     0.005 C 
HETATM   30  C27 UNL     1       2.588   6.091   7.590  1.00  0.00     0.005 C 
ENDBRANCH  28  29
ENDBRANCH  26  28
ENDBRANCH  25  26
ENDBRANCH  22  25
ENDBRANCH  20  22
ENDBRANCH  19  20
ENDBRANCH  16  19
BRANCH   5  31
HETATM   31  C6  UNL     1      -2.975   8.536  14.945  1.00  0.00     0.010 C 
HETATM   32  C7  UNL     1      -3.554   9.935  15.153  1.00  0.00     0.012 C 
BRANCH  31  33
HETATM   33  C8  UNL     1      -2.274   8.048  16.228  1.00  0.00     0.168 C 
BRANCH  33  34
HETATM   34  O1  UNL     1      -2.917   6.919  16.796  1.00  0.00    -0.400 OA
HETATM   35  H14 UNL     1      -2.351   6.608  17.521  1.00  0.00     0.209 HD
ENDBRANCH  33  34
ENDBRANCH  31  33
ENDBRANCH   5  31
BRANCH  13  36
HETATM   36  O3  UNL     1      -2.338   3.062   9.602  1.00  0.00    -0.391 OA
HETATM   37  H23 UNL     1      -2.974   2.494   9.134  1.00  0.00     0.210 HD
ENDBRANCH  13  36
TORSDOF 12
ENDMDL
