MODEL 1
REMARK minimizedAffinity -8.7813282
REMARK  6 active torsions:
REMARK  status: ('A' for Active; 'I' for Inactive)
REMARK    1  A    between atoms: C9_10  and  C10_11 
REMARK    2  A    between atoms: C11_13  and  O3_14 
REMARK    3  A    between atoms: C12_15  and  C13_16 
REMARK    4  A    between atoms: C14_18  and  O5_19 
REMARK    5  A    between atoms: C16_21  and  C17_22 
REMARK    6  A    between atoms: C17_22  and  C18_23 
ROOT
HETATM    1  C1  UNL     1       2.595   8.090   9.483  1.00  0.00     0.043 C 
HETATM    2  C2  UNL     1       1.912   7.293  10.577  1.00  0.00    -0.087 C 
HETATM    3  C3  UNL     1       1.457   7.960  11.657  1.00  0.00    -0.024 C 
HETATM    4  C4  UNL     1       0.775   7.453  12.890  1.00  0.00     0.030 C 
HETATM    5  C5  UNL     1      -0.725   7.766  12.872  1.00  0.00     0.042 C 
HETATM    6  C6  UNL     1      -1.620   6.877  13.785  1.00  0.00     0.069 C 
HETATM    7  C7  UNL     1      -0.881   6.525  15.094  1.00  0.00     0.047 C 
HETATM    8  O1  UNL     1      -2.674   7.778  14.189  1.00  0.00    -0.338 OA
HETATM    9  C8  UNL     1      -3.971   7.374  14.304  1.00  0.00     0.095 A 
HETATM   10  C9  UNL     1      -4.900   8.400  14.578  1.00  0.00     0.070 A 
HETATM   11  C11 UNL     1      -6.267   8.120  14.605  1.00  0.00     0.097 A 
HETATM   12  C12 UNL     1      -6.712   6.831  14.318  1.00  0.00     0.069 A 
HETATM   13  C14 UNL     1      -5.779   5.800  14.074  1.00  0.00     0.091 A 
HETATM   14  C15 UNL     1      -4.388   6.040  14.100  1.00  0.00     0.015 A 
HETATM   15  C16 UNL     1      -3.282   4.984  13.934  1.00  0.00     0.032 C 
HETATM   16  C21 UNL     1      -2.209   5.642  13.002  1.00  0.00     0.034 C 
HETATM   17  C22 UNL     1      -1.138   4.688  12.481  1.00  0.00     0.006 A 
HETATM   18  C23 UNL     1      -0.362   4.992  11.200  1.00  0.00    -0.001 A 
HETATM   19  C24 UNL     1       1.129   4.780  11.119  1.00  0.00     0.010 C 
HETATM   20  C25 UNL     1       1.853   5.810  10.239  1.00  0.00     0.034 C 
HETATM   21  C26 UNL     1      -1.323   3.818  11.227  1.00  0.00    -0.039 A 
HETATM   22  C27 UNL     1      -2.523   3.946  10.316  1.00  0.00     0.015 C 
HETATM   23  C28 UNL     1      -0.794   2.401  11.294  1.00  0.00     0.015 C 
ENDROOT
BRANCH  15  24
HETATM   24  C17 UNL     1      -3.679   3.537  13.550  1.00  0.00     0.014 C 
BRANCH  24  25
HETATM   25  C18 UNL     1      -4.144   3.366  12.079  1.00  0.00    -0.022 C 
HETATM   26  C19 UNL     1      -5.544   3.948  11.852  1.00  0.00     0.009 C 
HETATM   27  C20 UNL     1      -4.151   1.880  11.708  1.00  0.00     0.009 C 
ENDBRANCH  24  25
ENDBRANCH  15  24
BRANCH  13  28
HETATM   28  O5  UNL     1      -6.233   4.545  13.769  1.00  0.00    -0.359 OA
HETATM   29  H15 UNL     1      -7.215   4.518  13.806  1.00  0.00     0.217 HD
ENDBRANCH  13  28
BRANCH  10  30
HETATM   30  C10 UNL     1      -4.473   9.798  14.842  1.00  0.00     0.275 C 
HETATM   31  O2  UNL     1      -4.571  10.351  15.929  1.00  0.00    -0.301 OA
ENDBRANCH  10  30
BRANCH  12  32
HETATM   32  C13 UNL     1      -8.166   6.571  14.241  1.00  0.00     0.275 C 
HETATM   33  O4  UNL     1      -8.664   6.054  13.245  1.00  0.00    -0.301 OA
ENDBRANCH  12  32
BRANCH  11  34
HETATM   34  O3  UNL     1      -7.152   9.122  14.906  1.00  0.00    -0.359 OA
HETATM   35  H13 UNL     1      -7.591   8.899  15.750  1.00  0.00     0.217 HD
ENDBRANCH  11  34
TORSDOF 6
ENDMDL
