MODEL 1
REMARK minimizedAffinity -7.64752769
REMARK CNNscore 0.466474086
REMARK CNNaffinity 6.69214249
REMARK  12 active torsions:
REMARK  status: ('A' for Active; 'I' for Inactive)
REMARK    1  A    between atoms: C2_2  and  C3_3 
REMARK    2  A    between atoms: C2_2  and  C9_10 
REMARK    3  A    between atoms: C3_3  and  C4_4 
REMARK    4  A    between atoms: C5_5  and  C6_6 
REMARK    5  A    between atoms: C6_6  and  O1_9 
REMARK    6  A    between atoms: C27_29  and  O3_30 
REMARK    7  A    between atoms: O3_30  and  C28_31 
REMARK    8  A    between atoms: C29_33  and  C30_34 
REMARK    9  A    between atoms: C30_34  and  O5_35 
REMARK   10  A    between atoms: C31_36  and  O6_37 
REMARK   11  A    between atoms: C32_38  and  O7_39 
REMARK   12  A    between atoms: C33_40  and  O8_41 
ROOT
HETATM    1  C9  UNL     1       5.786  55.523  -7.747  1.00  0.00    -0.002 C 
HETATM    2  C10 UNL     1       6.730  54.625  -8.598  1.00  0.00     0.006 C 
HETATM    3  C11 UNL     1       5.814  53.750  -9.507  1.00  0.00     0.011 C 
HETATM    4  C12 UNL     1       4.398  54.357  -9.332  1.00  0.00    -0.029 C 
HETATM    5  C13 UNL     1       4.374  55.597 -10.308  1.00  0.00     0.016 C 
HETATM    6  C14 UNL     1       3.119  53.516  -9.694  1.00  0.00     0.028 C 
HETATM    7  C15 UNL     1       3.209  52.076 -10.102  1.00  0.00    -0.021 C 
HETATM    8  C16 UNL     1       2.083  51.344 -10.122  1.00  0.00     0.008 C 
HETATM    9  C17 UNL     1       0.726  51.899  -9.656  1.00  0.00     0.092 C 
HETATM   10  O2  UNL     1       0.758  51.612  -8.249  1.00  0.00    -0.374 OA
HETATM   11  C18 UNL     1       1.541  52.694  -7.651  1.00  0.00     0.179 C 
HETATM   12  C19 UNL     1       1.858  53.765  -8.766  1.00  0.00    -0.004 C 
HETATM   13  C20 UNL     1       1.891  55.177  -8.170  1.00  0.00     0.014 C 
HETATM   14  C21 UNL     1       3.190  55.554  -7.420  1.00  0.00     0.011 C 
HETATM   15  C22 UNL     1       4.440  54.734  -7.809  1.00  0.00    -0.032 C 
HETATM   16  C23 UNL     1       4.567  53.453  -6.935  1.00  0.00     0.016 C 
HETATM   17  C24 UNL     1       0.610  53.443  -9.611  1.00  0.00     0.036 C 
HETATM   18  C25 UNL     1       0.337  54.102 -10.962  1.00  0.00     0.011 C 
HETATM   19  C26 UNL     1       0.338  53.124 -12.138  1.00  0.00     0.033 C 
HETATM   20  C27 UNL     1      -0.405  51.780 -11.914  1.00  0.00     0.136 C 
HETATM   21  C34 UNL     1      -0.500  51.316 -10.416  1.00  0.00     0.014 C 
HETATM   22  C35 UNL     1      -1.836  51.761  -9.758  1.00  0.00     0.021 C 
HETATM   23  C36 UNL     1      -0.542  49.770 -10.365  1.00  0.00     0.021 C 
ENDROOT
BRANCH  20  24
HETATM   24  O3  UNL     1      -1.729  51.820 -12.466  1.00  0.00    -0.352 OA
BRANCH  24  25
HETATM   25  C28 UNL     1      -2.007  50.787 -13.423  1.00  0.00     0.292 C 
HETATM   26  O4  UNL     1      -0.875  49.963 -13.647  1.00  0.00    -0.348 OA
HETATM   27  C29 UNL     1      -1.177  48.805 -14.447  1.00  0.00     0.179 C 
HETATM   28  C31 UNL     1      -2.202  49.102 -15.572  1.00  0.00     0.180 C 
HETATM   29  C32 UNL     1      -2.219  50.590 -15.968  1.00  0.00     0.183 C 
HETATM   30  C33 UNL     1      -2.404  51.496 -14.735  1.00  0.00     0.204 C 
BRANCH  27  31
HETATM   31  C30 UNL     1       0.163  48.285 -14.989  1.00  0.00     0.198 C 
BRANCH  31  32
HETATM   32  O5  UNL     1       0.183  48.315 -16.418  1.00  0.00    -0.398 OA
HETATM   33  H46 UNL     1       1.105  48.145 -16.686  1.00  0.00     0.209 HD
ENDBRANCH  31  32
ENDBRANCH  27  31
BRANCH  28  34
HETATM   34  O6  UNL     1      -3.499  48.697 -15.084  1.00  0.00    -0.390 OA
HETATM   35  H48 UNL     1      -4.149  49.405 -15.280  1.00  0.00     0.210 HD
ENDBRANCH  28  34
BRANCH  29  36
HETATM   36  O7  UNL     1      -1.053  50.977 -16.706  1.00  0.00    -0.390 OA
HETATM   37  H50 UNL     1      -0.276  50.517 -16.321  1.00  0.00     0.210 HD
ENDBRANCH  29  36
BRANCH  30  38
HETATM   38  O8  UNL     1      -3.792  51.890 -14.643  1.00  0.00    -0.388 OA
HETATM   39  H52 UNL     1      -3.803  52.694 -14.083  1.00  0.00     0.210 HD
ENDBRANCH  30  38
ENDBRANCH  24  25
ENDBRANCH  20  24
BRANCH   1  40
HETATM   40  C2  UNL     1       6.358  56.127  -6.425  1.00  0.00    -0.010 C 
HETATM   41  C1  UNL     1       6.253  57.667  -6.517  1.00  0.00     0.010 C 
BRANCH  40  42
HETATM   42  C3  UNL     1       7.786  55.705  -6.022  1.00  0.00     0.031 C 
BRANCH  42  43
HETATM   43  C4  UNL     1       8.678  56.710  -5.332  1.00  0.00    -0.027 C 
HETATM   44  C5  UNL     1      10.018  56.680  -5.206  1.00  0.00     0.006 C 
BRANCH  44  45
HETATM   45  C6  UNL     1      10.874  57.718  -4.511  1.00  0.00     0.068 C 
HETATM   46  C7  UNL     1      10.397  59.123  -4.881  1.00  0.00     0.050 C 
HETATM   47  C8  UNL     1      10.833  57.521  -2.990  1.00  0.00     0.050 C 
BRANCH  45  48
HETATM   48  O1  UNL     1      12.237  57.599  -4.934  1.00  0.00    -0.387 OA
HETATM   49  H15 UNL     1      12.540  56.722  -4.630  1.00  0.00     0.211 HD
ENDBRANCH  45  48
ENDBRANCH  44  45
ENDBRANCH  42  43
ENDBRANCH  40  42
ENDBRANCH   1  40
TORSDOF 12
ENDMDL
