MODEL 1
REMARK minimizedAffinity -9.87294006
REMARK  6 active torsions:
REMARK  status: ('A' for Active; 'I' for Inactive)
REMARK    1  A    between atoms: C2_2  and  C30_31 
REMARK    2  A    between atoms: C3_3  and  C4_4 
REMARK    3  A    between atoms: C4_4  and  C5_5 
REMARK    4  A    between atoms: C5_5  and  C6_6 
REMARK    5  A    between atoms: C6_6  and  C8_8 
REMARK    6  A    between atoms: C30_31  and  O3_33 
ROOT
HETATM    1  C8  UNL     1      -0.346  50.701 -21.643  1.00  0.00    -0.002 C 
HETATM    2  C9  UNL     1      -0.502  50.667 -20.091  1.00  0.00     0.007 C 
HETATM    3  C10 UNL     1      -1.850  49.981 -19.776  1.00  0.00     0.015 C 
HETATM    4  C11 UNL     1      -2.275  49.342 -21.110  1.00  0.00    -0.013 C 
HETATM    5  C12 UNL     1      -1.480  47.992 -21.217  1.00  0.00     0.021 C 
HETATM    6  C13 UNL     1      -3.745  48.960 -21.312  1.00  0.00    -0.070 C 
HETATM    7  C14 UNL     1      -4.423  48.323 -20.341  1.00  0.00    -0.022 C 
HETATM    8  C15 UNL     1      -5.707  47.596 -20.571  1.00  0.00     0.034 C 
HETATM    9  C16 UNL     1      -5.868  47.175 -22.049  1.00  0.00     0.013 C 
HETATM   10  C17 UNL     1      -7.115  46.252 -22.318  1.00  0.00     0.018 C 
HETATM   11  C18 UNL     1      -6.640  44.780 -22.340  1.00  0.00     0.023 C 
HETATM   12  C19 UNL     1      -8.208  46.373 -21.227  1.00  0.00     0.023 C 
HETATM   13  C20 UNL     1      -7.813  46.479 -23.672  1.00  0.00     0.135 C 
HETATM   14  O1  UNL     1      -8.943  46.019 -23.890  1.00  0.00    -0.297 OA
HETATM   15  C21 UNL     1      -7.122  47.215 -24.789  1.00  0.00     0.080 C 
HETATM   16  C22 UNL     1      -5.802  47.869 -24.437  1.00  0.00     0.017 C 
HETATM   17  C23 UNL     1      -5.714  48.404 -22.994  1.00  0.00    -0.031 C 
HETATM   18  C24 UNL     1      -6.851  49.435 -22.753  1.00  0.00     0.016 C 
HETATM   19  C25 UNL     1      -4.330  49.161 -22.721  1.00  0.00     0.024 C 
HETATM   20  C26 UNL     1      -3.218  48.994 -23.784  1.00  0.00     0.010 C 
HETATM   21  C27 UNL     1      -1.966  49.885 -23.561  1.00  0.00     0.011 C 
HETATM   22  C28 UNL     1      -1.812  50.444 -22.128  1.00  0.00    -0.029 C 
HETATM   23  C29 UNL     1      -2.594  51.792 -21.997  1.00  0.00     0.016 C 
ENDROOT
BRANCH   1  24
HETATM   24  C6  UNL     1       0.426  51.956 -22.140  1.00  0.00    -0.014 C 
HETATM   25  C7  UNL     1       0.520  53.048 -21.069  1.00  0.00     0.010 C 
BRANCH  24  26
HETATM   26  C5  UNL     1      -0.165  52.546 -23.447  1.00  0.00     0.008 C 
BRANCH  26  27
HETATM   27  C4  UNL     1       0.864  53.000 -24.491  1.00  0.00     0.028 C 
BRANCH  27  28
HETATM   28  C3  UNL     1       0.408  52.646 -25.881  1.00  0.00    -0.013 C 
HETATM   29  C2  UNL     1       1.068  51.963 -26.840  1.00  0.00     0.008 C 
HETATM   30  C1  UNL     1       0.434  51.693 -28.177  1.00  0.00     0.055 C 
BRANCH  29  31
HETATM   31  C30 UNL     1       2.461  51.488 -26.661  1.00  0.00     0.171 C 
HETATM   32  O2  UNL     1       2.855  50.597 -25.934  1.00  0.00    -0.646 OA
BRANCH  31  33
HETATM   33  O3  UNL     1       3.324  52.189 -27.418  1.00  0.00    -0.773 OA
HETATM   34  H46 UNL     1       4.187  51.774 -27.215  1.00  0.00     0.167 HD
ENDBRANCH  31  33
ENDBRANCH  29  31
ENDBRANCH  27  28
ENDBRANCH  26  27
ENDBRANCH  24  26
ENDBRANCH   1  24
TORSDOF 6
ENDMDL
