MODEL 1
REMARK minimizedAffinity -9.3698864
REMARK  8 active torsions:
REMARK  status: ('A' for Active; 'I' for Inactive)
REMARK    1  A    between atoms: C5_5  and  C6_6 
REMARK    2  A    between atoms: C6_6  and  O1_9 
REMARK    3  A    between atoms: C14_16  and  C15_17 
REMARK    4  A    between atoms: C16_19  and  O4_20 
REMARK    5  A    between atoms: C17_21  and  C18_22 
REMARK    6  A    between atoms: C19_24  and  O6_25 
REMARK    7  A    between atoms: C21_27  and  C22_28 
REMARK    8  A    between atoms: C22_28  and  C23_29 
ROOT
HETATM    1  C1  UNL     1       0.926   9.315  13.191  1.00  0.00     0.043 C 
HETATM    2  C2  UNL     1      -0.358   9.539  13.956  1.00  0.00    -0.087 C 
HETATM    3  C3  UNL     1      -0.649  10.753  14.461  1.00  0.00    -0.024 C 
HETATM    4  C4  UNL     1      -1.820  11.355  15.203  1.00  0.00     0.035 C 
HETATM    5  C5  UNL     1      -2.982  10.607  15.948  1.00  0.00     0.023 C 
HETATM    6  C9  UNL     1      -3.956   9.962  14.905  1.00  0.00     0.011 C 
HETATM    7  C10 UNL     1      -4.674   8.604  14.943  1.00  0.00     0.039 C 
HETATM    8  C11 UNL     1      -4.075   7.199  14.593  1.00  0.00     0.068 C 
HETATM    9  C12 UNL     1      -3.371   6.567  15.820  1.00  0.00     0.047 C 
HETATM   10  O2  UNL     1      -5.294   6.385  14.501  1.00  0.00    -0.338 OA
HETATM   11  C13 UNL     1      -5.371   5.289  13.680  1.00  0.00     0.095 A 
HETATM   12  C14 UNL     1      -6.619   4.621  13.686  1.00  0.00     0.070 A 
HETATM   13  C16 UNL     1      -6.836   3.536  12.832  1.00  0.00     0.097 A 
HETATM   14  C17 UNL     1      -5.828   3.162  11.937  1.00  0.00     0.069 A 
HETATM   15  C19 UNL     1      -4.603   3.852  11.920  1.00  0.00     0.091 A 
HETATM   16  C20 UNL     1      -4.314   4.880  12.833  1.00  0.00     0.015 A 
HETATM   17  C21 UNL     1      -2.959   5.580  13.016  1.00  0.00     0.031 C 
HETATM   18  C26 UNL     1      -3.313   7.093  13.213  1.00  0.00     0.029 C 
HETATM   19  C27 UNL     1      -2.179   8.106  12.934  1.00  0.00     0.012 C 
HETATM   20  C28 UNL     1      -1.214   8.317  14.087  1.00  0.00     0.034 C 
ENDROOT
BRANCH   5  21
HETATM   21  C6  UNL     1      -2.616   9.964  17.328  1.00  0.00     0.054 C 
HETATM   22  C7  UNL     1      -1.236  10.437  17.837  1.00  0.00     0.045 C 
HETATM   23  C8  UNL     1      -3.630  10.333  18.418  1.00  0.00     0.045 C 
BRANCH  21  24
HETATM   24  O1  UNL     1      -2.548   8.550  17.268  1.00  0.00    -0.390 OA
HETATM   25  H14 UNL     1      -1.757   8.314  16.749  1.00  0.00     0.210 HD
ENDBRANCH  21  24
ENDBRANCH   5  21
BRANCH  17  26
HETATM   26  C22 UNL     1      -1.799   5.274  12.033  1.00  0.00     0.014 C 
BRANCH  26  27
HETATM   27  C23 UNL     1      -0.598   4.528  12.674  1.00  0.00    -0.022 C 
HETATM   28  C24 UNL     1      -0.207   3.328  11.808  1.00  0.00     0.009 C 
HETATM   29  C25 UNL     1       0.618   5.448  12.838  1.00  0.00     0.009 C 
ENDBRANCH  26  27
ENDBRANCH  17  26
BRANCH  12  30
HETATM   30  C15 UNL     1      -7.677   5.105  14.617  1.00  0.00     0.275 C 
HETATM   31  O3  UNL     1      -7.752   4.802  15.801  1.00  0.00    -0.301 OA
ENDBRANCH  12  30
BRANCH  13  32
HETATM   32  O4  UNL     1      -8.020   2.849  12.894  1.00  0.00    -0.359 OA
HETATM   33  H23 UNL     1      -8.047   2.169  12.187  1.00  0.00     0.217 HD
ENDBRANCH  13  32
BRANCH  15  34
HETATM   34  O6  UNL     1      -3.713   3.510  10.940  1.00  0.00    -0.359 OA
HETATM   35  H25 UNL     1      -3.714   4.244  10.294  1.00  0.00     0.217 HD
ENDBRANCH  15  34
BRANCH  14  36
HETATM   36  C18 UNL     1      -6.041   2.044  10.991  1.00  0.00     0.275 C 
HETATM   37  O5  UNL     1      -6.142   0.886  11.389  1.00  0.00    -0.301 OA
ENDBRANCH  14  36
TORSDOF 8
ENDMDL
