MODEL 1
REMARK minimizedAffinity -8.84690285
REMARK CNNscore 0.283466578
REMARK CNNaffinity 6.61831427
REMARK  11 active torsions:
REMARK  status: ('A' for Active; 'I' for Inactive)
REMARK    1  A    between atoms: C2_2  and  C4_4 
REMARK    2  A    between atoms: C4_4  and  C6_6 
REMARK    3  A    between atoms: C7_7  and  C8_8 
REMARK    4  A    between atoms: C8_8  and  C10_10 
REMARK    5  A    between atoms: C24_24  and  O1_25 
REMARK    6  A    between atoms: O1_25  and  C25_26 
REMARK    7  A    between atoms: C26_28  and  C27_29 
REMARK    8  A    between atoms: C27_29  and  O3_30 
REMARK    9  A    between atoms: C28_31  and  O4_32 
REMARK   10  A    between atoms: C29_33  and  O5_34 
REMARK   11  A    between atoms: C30_35  and  O6_36 
ROOT
HETATM    1  C10 UNL     1      -4.113  12.684  18.074  1.00  0.00     0.001 C 
HETATM    2  C11 UNL     1      -4.723  12.703  16.657  1.00  0.00     0.006 C 
HETATM    3  C12 UNL     1      -3.586  13.123  15.757  1.00  0.00     0.009 C 
HETATM    4  C13 UNL     1      -2.330  12.437  16.319  1.00  0.00     0.036 C 
HETATM    5  C14 UNL     1      -2.646  12.116  17.823  1.00  0.00    -0.033 C 
HETATM    6  C15 UNL     1      -1.540  12.729  18.706  1.00  0.00     0.016 C 
HETATM    7  C16 UNL     1      -2.606  10.585  18.107  1.00  0.00     0.010 C 
HETATM    8  C17 UNL     1      -3.275   9.711  17.055  1.00  0.00     0.010 C 
HETATM    9  C18 UNL     1      -2.757   9.961  15.627  1.00  0.00     0.039 C 
HETATM   10  C19 UNL     1      -1.844  11.221  15.490  1.00  0.00     0.123 C 
HETATM   11  C20 UNL     1      -0.381  10.910  15.733  1.00  0.00     0.014 C 
HETATM   12  C21 UNL     1       0.117   9.983  14.903  1.00  0.00     0.014 C 
HETATM   13  C22 UNL     1      -0.927   9.347  14.007  1.00  0.00     0.124 C 
HETATM   14  C23 UNL     1      -0.300   8.364  13.014  1.00  0.00     0.078 C 
HETATM   15  C24 UNL     1      -1.317   7.458  12.302  1.00  0.00     0.128 C 
HETATM   16  C31 UNL     1      -2.773   7.859  12.548  1.00  0.00     0.033 C 
HETATM   17  C32 UNL     1      -3.112   7.951  14.037  1.00  0.00     0.015 C 
HETATM   18  C33 UNL     1      -2.060   8.722  14.898  1.00  0.00     0.001 C 
HETATM   19  C34 UNL     1      -1.441   7.697  15.892  1.00  0.00     0.019 C 
HETATM   20  O7  UNL     1      -1.542  10.409  13.228  1.00  0.00    -0.223 OA
HETATM   21  O8  UNL     1      -1.856  11.593  14.082  1.00  0.00    -0.224 OA
ENDROOT
BRANCH  15  22
HETATM   22  O1  UNL     1      -1.096   6.129  12.789  1.00  0.00    -0.353 OA
BRANCH  22  23
HETATM   23  C25 UNL     1      -1.426   5.088  11.873  1.00  0.00     0.292 C 
HETATM   24  O2  UNL     1      -2.625   4.469  12.343  1.00  0.00    -0.348 OA
HETATM   25  C26 UNL     1      -3.041   3.356  11.545  1.00  0.00     0.179 C 
HETATM   26  C28 UNL     1      -1.968   2.257  11.570  1.00  0.00     0.180 C 
HETATM   27  C29 UNL     1      -0.653   2.830  11.047  1.00  0.00     0.183 C 
HETATM   28  C30 UNL     1      -0.251   4.080  11.831  1.00  0.00     0.204 C 
BRANCH  25  29
HETATM   29  C27 UNL     1      -4.384   2.834  12.075  1.00  0.00     0.198 C 
BRANCH  29  30
HETATM   30  O3  UNL     1      -4.966   1.874  11.199  1.00  0.00    -0.398 OA
HETATM   31  H41 UNL     1      -4.245   1.261  10.931  1.00  0.00     0.209 HD
ENDBRANCH  29  30
ENDBRANCH  25  29
BRANCH  26  32
HETATM   32  O4  UNL     1      -2.350   1.133  10.769  1.00  0.00    -0.390 OA
HETATM   33  H43 UNL     1      -1.536   0.587  10.698  1.00  0.00     0.210 HD
ENDBRANCH  26  32
BRANCH  27  34
HETATM   34  O5  UNL     1       0.366   1.819  11.143  1.00  0.00    -0.390 OA
HETATM   35  H45 UNL     1       1.221   2.295  11.107  1.00  0.00     0.210 HD
ENDBRANCH  27  34
BRANCH  28  36
HETATM   36  O6  UNL     1       0.945   4.614  11.234  1.00  0.00    -0.388 OA
HETATM   37  H47 UNL     1       0.702   5.081  10.416  1.00  0.00     0.210 HD
ENDBRANCH  28  36
ENDBRANCH  22  23
ENDBRANCH  15  22
BRANCH   1  38
HETATM   38  C8  UNL     1      -4.228  14.070  18.799  1.00  0.00     0.008 C 
HETATM   39  C9  UNL     1      -3.116  14.276  19.841  1.00  0.00     0.014 C 
BRANCH  38  40
HETATM   40  C7  UNL     1      -5.527  14.232  19.567  1.00  0.00    -0.026 C 
HETATM   41  C6  UNL     1      -5.955  13.367  20.503  1.00  0.00    -0.026 C 
BRANCH  41  42
HETATM   42  C4  UNL     1      -7.257  13.528  21.258  1.00  0.00     0.007 C 
HETATM   43  C5  UNL     1      -7.951  14.817  20.807  1.00  0.00     0.014 C 
BRANCH  42  44
HETATM   44  C2  UNL     1      -7.027  13.430  22.792  1.00  0.00    -0.015 C 
HETATM   45  C1  UNL     1      -6.533  14.730  23.437  1.00  0.00     0.010 C 
HETATM   46  C3  UNL     1      -8.284  12.944  23.520  1.00  0.00     0.010 C 
ENDBRANCH  42  44
ENDBRANCH  41  42
ENDBRANCH  38  40
ENDBRANCH   1  38
TORSDOF 11
ENDMDL
