MODEL 1
REMARK minimizedAffinity -7.79666281
REMARK CNNscore 0.0973017663
REMARK CNNaffinity 5.57358694
REMARK  10 active torsions:
REMARK  status: ('A' for Active; 'I' for Inactive)
REMARK    1  A    between atoms: C16_18  and  C17_19 
REMARK    2  A    between atoms: C26_30  and  C27_31 
REMARK    3  A    between atoms: C27_31  and  O1_33 
REMARK    4  A    between atoms: C30_35  and  C31_36 
REMARK    5  A    between atoms: C31_36  and  O3_38 
REMARK    6  A    between atoms: C37_44  and  O4_45 
REMARK    7  A    between atoms: C41_49  and  C42_50 
REMARK    8  A    between atoms: C41_49  and  C43_52 
REMARK    9  A    between atoms: C42_50  and  O5_51 
REMARK   10  A    between atoms: C43_52  and  O7_54 
ROOT
HETATM    1  C17 UNL     1     -14.192  43.094 -25.347  1.00  0.00     0.013 A 
HETATM    2  C18 UNL     1     -13.106  43.663 -26.059  1.00  0.00     0.053 A 
HETATM    3  N3  UNL     1     -12.917  44.956 -26.488  1.00  0.00    -0.357 N 
HETATM    4  C19 UNL     1     -11.708  45.097 -27.130  1.00  0.00     0.038 A 
HETATM    5  C20 UNL     1     -11.106  43.849 -27.148  1.00  0.00    -0.020 A 
HETATM    6  C21 UNL     1      -9.775  43.524 -27.742  1.00  0.00     0.072 C 
HETATM    7  C22 UNL     1      -9.625  43.978 -29.203  1.00  0.00     0.277 C 
HETATM    8  N4  UNL     1      -9.872  45.390 -29.527  1.00  0.00     0.096 N 
HETATM    9  C23 UNL     1     -11.051  45.591 -30.387  1.00  0.00     0.277 C 
HETATM   10  C24 UNL     1     -11.647  46.991 -30.130  1.00  0.00     0.016 C 
HETATM   11  C25 UNL     1     -10.515  48.026 -30.194  1.00  0.00     0.015 C 
HETATM   12  C26 UNL     1      -9.514  47.753 -29.051  1.00  0.00     0.049 C 
HETATM   13  C29 UNL     1      -9.842  46.362 -28.406  1.00  0.00     0.253 C 
HETATM   14  C30 UNL     1     -11.239  46.450 -27.669  1.00  0.00     0.122 C 
HETATM   15  C33 UNL     1     -12.267  47.004 -28.717  1.00  0.00     0.035 C 
HETATM   16  C34 UNL     1     -11.986  42.945 -26.467  1.00  0.00    -0.000 A 
HETATM   17  C35 UNL     1     -11.920  41.577 -26.161  1.00  0.00     0.017 A 
HETATM   18  C36 UNL     1     -12.962  40.973 -25.453  1.00  0.00     0.038 A 
HETATM   19  C37 UNL     1     -14.079  41.709 -25.048  1.00  0.00     0.077 A 
HETATM   20  H19 UNL     1     -13.583  45.704 -26.347  1.00  0.00     0.166 HD
ENDROOT
BRANCH   1  21
HETATM   21  C16 UNL     1     -15.431  43.894 -24.903  1.00  0.00     0.075 C 
HETATM   22  C9  UNL     1     -15.576  43.905 -23.394  1.00  0.00     0.025 A 
HETATM   23  C8  UNL     1     -16.606  43.586 -22.516  1.00  0.00    -0.020 A 
HETATM   24  N2  UNL     1     -14.531  44.376 -22.626  1.00  0.00    -0.358 N 
HETATM   25  C7  UNL     1     -17.933  42.986 -22.858  1.00  0.00     0.079 C 
HETATM   26  C15 UNL     1     -16.184  43.964 -21.203  1.00  0.00    -0.001 A 
HETATM   27  C6  UNL     1     -19.003  43.939 -23.457  1.00  0.00     0.248 C 
HETATM   28  N1  UNL     1     -20.118  43.180 -24.104  1.00  0.00     0.094 N 
HETATM   29  C41 UNL     1     -18.524  45.025 -24.482  1.00  0.00     0.107 C 
HETATM   30  C4  UNL     1     -19.741  42.521 -25.366  1.00  0.00     0.306 C 
HETATM   31  C5  UNL     1     -20.789  42.248 -23.203  1.00  0.00     0.310 C 
HETATM   32  C3  UNL     1     -19.064  43.468 -26.349  1.00  0.00    -0.051 C 
HETATM   33  C2  UNL     1     -19.399  43.614 -27.646  1.00  0.00    -0.026 C 
HETATM   34  C40 UNL     1     -17.935  44.326 -25.749  1.00  0.00     0.039 C 
HETATM   35  C1  UNL     1     -20.462  42.897 -28.417  1.00  0.00     0.036 C 
HETATM   36  C39 UNL     1     -16.674  43.407 -25.666  1.00  0.00     0.026 C 
HETATM   37  C10 UNL     1     -14.876  44.438 -21.303  1.00  0.00     0.043 A 
HETATM   38  C14 UNL     1     -16.805  43.954 -19.937  1.00  0.00     0.014 A 
HETATM   39  C11 UNL     1     -14.146  44.893 -20.196  1.00  0.00     0.030 A 
HETATM   40  C12 UNL     1     -14.783  44.874 -18.950  1.00  0.00     0.002 A 
HETATM   41  C13 UNL     1     -16.098  44.419 -18.821  1.00  0.00     0.001 A 
HETATM   42  H13 UNL     1     -13.647  44.697 -23.005  1.00  0.00     0.166 HD
BRANCH  29  43
HETATM   43  C42 UNL     1     -19.770  45.923 -24.858  1.00  0.00     0.186 C 
BRANCH  43  44
HETATM   44  O5  UNL     1     -19.468  47.316 -24.914  1.00  0.00    -0.399 OA
HETATM   45  H51 UNL     1     -18.977  47.468 -25.739  1.00  0.00     0.209 HD
ENDBRANCH  43  44
ENDBRANCH  29  43
BRANCH  29  46
HETATM   46  C43 UNL     1     -17.593  46.099 -23.901  1.00  0.00     0.272 C 
HETATM   47  O6  UNL     1     -17.563  46.429 -22.720  1.00  0.00    -0.264 OA
BRANCH  46  48
HETATM   48  O7  UNL     1     -16.737  46.596 -24.851  1.00  0.00    -0.326 OA
HETATM   49  C44 UNL     1     -15.729  47.460 -24.331  1.00  0.00     0.213 C 
ENDBRANCH  46  48
ENDBRANCH  29  46
ENDBRANCH   1  21
BRANCH  19  50
HETATM   50  O4  UNL     1     -15.124  41.167 -24.340  1.00  0.00    -0.355 OA
HETATM   51  C38 UNL     1     -14.825  40.277 -23.273  1.00  0.00     0.210 C 
ENDBRANCH  19  50
BRANCH  14  52
HETATM   52  C31 UNL     1     -11.176  47.390 -26.440  1.00  0.00     0.275 C 
HETATM   53  O2  UNL     1     -11.670  48.515 -26.419  1.00  0.00    -0.264 OA
BRANCH  52  54
HETATM   54  O3  UNL     1     -10.574  46.793 -25.371  1.00  0.00    -0.326 OA
HETATM   55  C32 UNL     1      -9.458  47.511 -24.838  1.00  0.00     0.213 C 
ENDBRANCH  52  54
ENDBRANCH  14  52
BRANCH  12  56
HETATM   56  C27 UNL     1      -8.049  47.985 -29.480  1.00  0.00     0.120 C 
HETATM   57  C28 UNL     1      -6.972  47.764 -28.428  1.00  0.00     0.040 C 
BRANCH  56  58
HETATM   58  O1  UNL     1      -7.912  49.316 -29.993  1.00  0.00    -0.396 OA
HETATM   59  H34 UNL     1      -7.959  49.930 -29.246  1.00  0.00     0.210 HD
ENDBRANCH  56  58
ENDBRANCH  12  56
TORSDOF 10
ENDMDL
