MODEL 1
REMARK minimizedAffinity -8.04432297
REMARK CNNscore 0.600138068
REMARK CNNaffinity 7.47731209
REMARK  13 active torsions:
REMARK  status: ('A' for Active; 'I' for Inactive)
REMARK    1  A    between atoms: O1_2  and  C2_3 
REMARK    2  A    between atoms: C12_14  and  C13_15 
REMARK    3  A    between atoms: C13_15  and  C15_17 
REMARK    4  A    between atoms: C15_17  and  C16_18 
REMARK    5  A    between atoms: C17_19  and  C18_20 
REMARK    6  A    between atoms: C18_20  and  O3_23 
REMARK    7  A    between atoms: C29_32  and  O4_33 
REMARK    8  A    between atoms: O4_33  and  C30_34 
REMARK    9  A    between atoms: C31_36  and  C32_37 
REMARK   10  A    between atoms: C32_37  and  O6_38 
REMARK   11  A    between atoms: C33_39  and  O7_40 
REMARK   12  A    between atoms: C34_41  and  O8_42 
REMARK   13  A    between atoms: C35_43  and  O9_44 
ROOT
HETATM    1  C2  UNL     1      -1.243  11.181  14.158  1.00  0.00     0.270 C 
HETATM    2  O2  UNL     1      -2.281  10.302  13.677  1.00  0.00    -0.344 OA
HETATM    3  C3  UNL     1      -2.883   9.656  14.819  1.00  0.00     0.095 C 
HETATM    4  C4  UNL     1      -4.007  10.603  15.223  1.00  0.00     0.008 C 
HETATM    5  C5  UNL     1      -3.772  11.719  15.929  1.00  0.00    -0.021 C 
HETATM    6  C6  UNL     1      -2.367  12.141  16.303  1.00  0.00     0.030 C 
HETATM    7  C7  UNL     1      -1.270  11.139  15.729  1.00  0.00     0.024 C 
HETATM    8  C8  UNL     1       0.147  11.462  16.276  1.00  0.00     0.016 C 
HETATM    9  C9  UNL     1       0.256  11.870  17.756  1.00  0.00     0.011 C 
HETATM   10  C10 UNL     1      -0.747  12.978  18.119  1.00  0.00    -0.032 C 
HETATM   11  C11 UNL     1      -0.381  14.256  17.295  1.00  0.00     0.016 C 
HETATM   12  C12 UNL     1      -0.880  13.386  19.620  1.00  0.00    -0.002 C 
HETATM   13  C22 UNL     1      -2.307  14.025  19.659  1.00  0.00     0.006 C 
HETATM   14  C23 UNL     1      -3.059  13.566  18.393  1.00  0.00     0.011 C 
HETATM   15  C24 UNL     1      -2.196  12.423  17.832  1.00  0.00    -0.029 C 
HETATM   16  C25 UNL     1      -2.574  11.166  18.687  1.00  0.00     0.016 C 
HETATM   17  C26 UNL     1      -1.761   9.677  15.889  1.00  0.00     0.039 C 
HETATM   18  C27 UNL     1      -0.674   8.611  15.676  1.00  0.00     0.011 C 
HETATM   19  C28 UNL     1      -1.268   7.228  15.464  1.00  0.00     0.033 C 
HETATM   20  C29 UNL     1      -2.218   7.216  14.262  1.00  0.00     0.136 C 
HETATM   21  C36 UNL     1      -3.407   8.215  14.467  1.00  0.00     0.014 C 
HETATM   22  C37 UNL     1      -4.254   8.227  13.168  1.00  0.00     0.021 C 
HETATM   23  C38 UNL     1      -4.309   7.662  15.603  1.00  0.00     0.021 C 
ENDROOT
BRANCH  20  24
HETATM   24  O4  UNL     1      -1.519   7.548  13.052  1.00  0.00    -0.352 OA
BRANCH  24  25
HETATM   25  C30 UNL     1      -1.136   6.415  12.263  1.00  0.00     0.292 C 
HETATM   26  O5  UNL     1      -1.994   5.308  12.515  1.00  0.00    -0.348 OA
HETATM   27  C31 UNL     1      -1.669   4.191  11.678  1.00  0.00     0.179 C 
HETATM   28  C33 UNL     1      -0.254   3.675  11.999  1.00  0.00     0.180 C 
HETATM   29  C34 UNL     1       0.774   4.806  11.923  1.00  0.00     0.183 C 
HETATM   30  C35 UNL     1       0.303   6.049  12.678  1.00  0.00     0.204 C 
BRANCH  27  31
HETATM   31  C32 UNL     1      -2.711   3.086  11.903  1.00  0.00     0.198 C 
BRANCH  31  32
HETATM   32  O6  UNL     1      -3.329   2.685  10.689  1.00  0.00    -0.398 OA
HETATM   33  H50 UNL     1      -2.616   2.590  10.019  1.00  0.00     0.209 HD
ENDBRANCH  31  32
ENDBRANCH  27  31
BRANCH  28  34
HETATM   34  O7  UNL     1       0.107   2.633  11.082  1.00  0.00    -0.390 OA
HETATM   35  H52 UNL     1       0.539   3.095  10.332  1.00  0.00     0.210 HD
ENDBRANCH  28  34
BRANCH  29  36
HETATM   36  O8  UNL     1       0.993   5.131  10.536  1.00  0.00    -0.390 OA
HETATM   37  H54 UNL     1       1.545   5.942  10.557  1.00  0.00     0.210 HD
ENDBRANCH  29  36
BRANCH  30  38
HETATM   38  O9  UNL     1       1.208   7.129  12.398  1.00  0.00    -0.388 OA
HETATM   39  H56 UNL     1       0.873   7.885  12.924  1.00  0.00     0.210 HD
ENDBRANCH  30  38
ENDBRANCH  24  25
ENDBRANCH  20  24
BRANCH   1  40
HETATM   40  O1  UNL     1      -1.373  12.509  13.662  1.00  0.00    -0.365 OA
HETATM   41  C1  UNL     1      -2.363  13.240  14.367  1.00  0.00     0.204 C 
ENDBRANCH   1  40
BRANCH  12  42
HETATM   42  C13 UNL     1       0.183  14.315  20.277  1.00  0.00    -0.010 C 
HETATM   43  C14 UNL     1       0.062  15.767  19.801  1.00  0.00     0.010 C 
BRANCH  42  44
HETATM   44  C15 UNL     1       1.613  13.784  19.990  1.00  0.00     0.031 C 
BRANCH  44  45
HETATM   45  C16 UNL     1       2.122  12.844  21.052  1.00  0.00    -0.027 C 
HETATM   46  C17 UNL     1       2.369  11.544  20.818  1.00  0.00     0.006 C 
BRANCH  46  47
HETATM   47  C18 UNL     1       2.851  10.484  21.793  1.00  0.00     0.070 C 
HETATM   48  C19 UNL     1       4.270  10.031  21.413  1.00  0.00     0.050 C 
HETATM   49  C20 UNL     1       2.888  10.971  23.251  1.00  0.00     0.050 C 
BRANCH  47  50
HETATM   50  O3  UNL     1       1.918   9.390  21.799  1.00  0.00    -0.382 OA
HETATM   51  C21 UNL     1       2.257   8.242  22.559  1.00  0.00     0.202 C 
ENDBRANCH  47  50
ENDBRANCH  46  47
ENDBRANCH  44  45
ENDBRANCH  42  44
ENDBRANCH  12  42
TORSDOF 13
ENDMDL
