MODEL 1
REMARK minimizedAffinity -8.45369911
REMARK CNNscore 0.764811635
REMARK CNNaffinity 7.90275002
REMARK  19 active torsions:
REMARK  status: ('A' for Active; 'I' for Inactive)
REMARK    1  A    between atoms: C19_20  and  O2_21 
REMARK    2  A    between atoms: C19_20  and  C20_22 
REMARK    3  A    between atoms: C20_22  and  C21_24 
REMARK    4  A    between atoms: C21_24  and  O4_25 
REMARK    5  A    between atoms: O4_25  and  C22_26 
REMARK    6  A    between atoms: C22_26  and  C23_28 
REMARK    7  A    between atoms: C23_28  and  C24_29 
REMARK    8  A    between atoms: C24_29  and  C25_30 
REMARK       I    between atoms: C25_30  and  N1_32 
REMARK    9  A    between atoms: N1_32  and  C26_33 
REMARK   10  A    between atoms: C26_33  and  C27_34 
REMARK   11  A    between atoms: C27_34  and  C28_35 
REMARK   12  A    between atoms: C28_35  and  C29_36 
REMARK   13  A    between atoms: C29_36  and  C30_37 
REMARK   14  A    between atoms: C30_37  and  C31_38 
REMARK       I    between atoms: C31_38  and  N2_40 
REMARK   15  A    between atoms: N2_40  and  C32_41 
REMARK   16  A    between atoms: C32_41  and  C33_42 
REMARK   17  A    between atoms: C33_42  and  C34_43 
REMARK   18  A    between atoms: C37_46  and  O8_47 
REMARK   19  A    between atoms: C38_48  and  O9_49 
ROOT
HETATM    1  C22 UNL     1      -3.832   3.107  11.805  1.00  0.00     0.259 C 
HETATM    2  O5  UNL     1      -3.028   3.254  10.894  1.00  0.00    -0.265 OA
ENDROOT
BRANCH   1   3
HETATM    3  O4  UNL     1      -3.672   3.592  13.064  1.00  0.00    -0.314 OA
BRANCH   3   4
HETATM    4  C21 UNL     1      -3.015   4.847  13.174  1.00  0.00     0.260 C 
BRANCH   4   5
HETATM    5  C20 UNL     1      -3.639   6.074  13.861  1.00  0.00     0.185 C 
HETATM    6  O3  UNL     1      -4.740   6.487  13.480  1.00  0.00    -0.292 OA
BRANCH   5   7
HETATM    7  C19 UNL     1      -2.928   6.670  15.102  1.00  0.00     0.128 C 
HETATM    8  C14 UNL     1      -2.969   8.232  15.169  1.00  0.00    -0.002 C 
HETATM    9  C13 UNL     1      -4.246   8.874  15.744  1.00  0.00     0.013 C 
HETATM   10  C15 UNL     1      -2.692   8.835  13.761  1.00  0.00     0.019 C 
HETATM   11  C16 UNL     1      -1.822   8.489  16.188  1.00  0.00     0.002 C 
HETATM   12  C12 UNL     1      -4.058  10.374  16.052  1.00  0.00     0.007 C 
HETATM   13  C11 UNL     1      -2.844  10.644  16.970  1.00  0.00     0.002 C 
HETATM   14  C2  UNL     1      -2.592  12.147  17.334  1.00  0.00    -0.016 C 
HETATM   15  C10 UNL     1      -1.547   9.982  16.407  1.00  0.00    -0.004 C 
HETATM   16  C1  UNL     1      -2.088  12.954  16.112  1.00  0.00     0.020 C 
HETATM   17  C3  UNL     1      -3.881  12.811  17.883  1.00  0.00     0.022 C 
HETATM   18  C7  UNL     1      -1.536  12.190  18.442  1.00  0.00    -0.068 C 
HETATM   19  C4  UNL     1      -3.651  14.219  18.429  1.00  0.00     0.084 C 
HETATM   20  C5  UNL     1      -2.435  14.313  19.319  1.00  0.00     0.149 C 
HETATM   21  O1  UNL     1      -2.218  15.305  20.015  1.00  0.00    -0.293 OA
HETATM   22  C6  UNL     1      -1.465  13.194  19.334  1.00  0.00     0.053 C 
HETATM   23  C8  UNL     1      -0.620  10.994  18.590  1.00  0.00     0.035 C 
HETATM   24  C9  UNL     1      -0.309  10.278  17.278  1.00  0.00     0.010 C 
HETATM   25  C17 UNL     1      -0.691   7.606  15.674  1.00  0.00     0.009 C 
HETATM   26  C18 UNL     1      -1.399   6.366  15.096  1.00  0.00     0.047 C 
BRANCH   7  27
HETATM   27  O2  UNL     1      -3.457   6.118  16.309  1.00  0.00    -0.381 OA
HETATM   28  H27 UNL     1      -3.238   5.165  16.298  1.00  0.00     0.211 HD
ENDBRANCH   7  27
ENDBRANCH   5   7
ENDBRANCH   4   5
ENDBRANCH   3   4
ENDBRANCH   1   3
BRANCH   1  29
HETATM   29  C23 UNL     1      -5.151   2.393  11.668  1.00  0.00     0.120 C 
BRANCH  29  30
HETATM   30  C24 UNL     1      -6.261   3.420  11.489  1.00  0.00     0.112 C 
BRANCH  30  31
HETATM   31  C25 UNL     1      -7.191   3.463  12.687  1.00  0.00     0.217 C 
HETATM   32  O6  UNL     1      -8.055   2.619  12.891  1.00  0.00    -0.274 OA
HETATM   33  N1  UNL     1      -6.919   4.503  13.553  1.00  0.00    -0.361 N 
HETATM   34  H34 UNL     1      -6.361   5.274  13.207  1.00  0.00     0.162 HD
BRANCH  33  35
HETATM   35  C26 UNL     1      -7.782   4.764  14.689  1.00  0.00     0.122 C 
BRANCH  35  36
HETATM   36  C27 UNL     1      -6.993   5.178  15.933  1.00  0.00     0.020 C 
BRANCH  36  37
HETATM   37  C28 UNL     1      -6.979   6.688  16.211  1.00  0.00     0.002 C 
BRANCH  37  38
HETATM   38  C29 UNL     1      -7.584   7.571  15.112  1.00  0.00     0.009 C 
BRANCH  38  39
HETATM   39  C30 UNL     1      -8.666   8.537  15.596  1.00  0.00     0.103 C 
BRANCH  39  40
HETATM   40  C31 UNL     1     -10.008   8.325  14.919  1.00  0.00     0.217 C 
HETATM   41  O7  UNL     1     -10.629   9.209  14.340  1.00  0.00    -0.274 OA
HETATM   42  N2  UNL     1     -10.475   7.033  15.045  1.00  0.00    -0.361 N 
HETATM   43  H45 UNL     1      -9.825   6.313  15.336  1.00  0.00     0.162 HD
BRANCH  42  44
HETATM   44  C32 UNL     1     -11.702   6.606  14.396  1.00  0.00     0.127 C 
BRANCH  44  45
HETATM   45  C33 UNL     1     -12.895   7.526  14.686  1.00  0.00     0.058 C 
BRANCH  45  46
HETATM   46  C34 UNL     1     -14.152   7.105  13.956  1.00  0.00    -0.054 A 
HETATM   47  C35 UNL     1     -14.944   6.064  14.474  1.00  0.00     0.010 A 
HETATM   48  C36 UNL     1     -16.127   5.685  13.836  1.00  0.00     0.040 A 
HETATM   49  C37 UNL     1     -16.515   6.349  12.683  1.00  0.00     0.098 A 
HETATM   50  C38 UNL     1     -15.738   7.377  12.154  1.00  0.00     0.099 A 
HETATM   51  C39 UNL     1     -14.557   7.763  12.783  1.00  0.00     0.046 A 
BRANCH  49  52
HETATM   52  O8  UNL     1     -17.678   5.986  12.067  1.00  0.00    -0.358 OA
HETATM   53  H52 UNL     1     -17.736   6.572  11.287  1.00  0.00     0.217 HD
ENDBRANCH  49  52
BRANCH  50  54
HETATM   54  O9  UNL     1     -16.183   7.984  11.013  1.00  0.00    -0.358 OA
HETATM   55  H53 UNL     1     -15.528   8.652  10.750  1.00  0.00     0.217 HD
ENDBRANCH  50  54
ENDBRANCH  45  46
ENDBRANCH  44  45
ENDBRANCH  42  44
ENDBRANCH  39  40
ENDBRANCH  38  39
ENDBRANCH  37  38
ENDBRANCH  36  37
ENDBRANCH  35  36
ENDBRANCH  33  35
ENDBRANCH  30  31
ENDBRANCH  29  30
ENDBRANCH   1  29
TORSDOF 19
ENDMDL
