MODEL 1
REMARK minimizedAffinity -8.74547482
REMARK CNNscore 0.86079967
REMARK CNNaffinity 7.5063591
REMARK  12 active torsions:
REMARK  status: ('A' for Active; 'I' for Inactive)
REMARK    1  A    between atoms: N1_6  and  O1_8 
REMARK    2  A    between atoms: O1_8  and  C6_9 
REMARK    3  A    between atoms: C6_9  and  C7_10 
REMARK       I    between atoms: C7_10  and  N2_12 
REMARK    4  A    between atoms: N2_12  and  C8_13 
REMARK    5  A    between atoms: C8_13  and  C9_14 
REMARK    6  A    between atoms: C12_17  and  C13_18 
REMARK    7  A    between atoms: C13_18  and  O4_20 
REMARK    8  A    between atoms: C22_29  and  O5_30 
REMARK    9  A    between atoms: C29_37  and  O6_38 
REMARK   10  A    between atoms: C29_37  and  C30_39 
REMARK   11  A    between atoms: C30_39  and  C31_41 
REMARK   12  A    between atoms: C31_41  and  O8_42 
ROOT
HETATM    1  C1  UNL     1      -2.990  49.455 -24.584  1.00  0.00     0.020 C 
HETATM    2  C2  UNL     1      -3.149  50.109 -23.194  1.00  0.00    -0.014 C 
HETATM    3  C3  UNL     1      -3.222  51.654 -23.364  1.00  0.00     0.020 C 
HETATM    4  C4  UNL     1      -1.905  52.283 -23.792  1.00  0.00     0.060 C 
HETATM    5  C5  UNL     1      -0.788  51.917 -22.840  1.00  0.00     0.032 C 
HETATM    6  N1  UNL     1       0.180  52.773 -22.716  1.00  0.00    -0.271 N 
ATOM      7  H1  UNL     1       0.210  53.673 -23.194  1.00  0.00     0.194 HD
HETATM    8  C16 UNL     1      -0.858  50.576 -22.189  1.00  0.00     0.030 C 
HETATM    9  C17 UNL     1      -1.899  49.745 -22.382  1.00  0.00    -0.069 C 
HETATM   10  C18 UNL     1      -1.840  48.340 -21.835  1.00  0.00     0.035 C 
HETATM   11  C19 UNL     1      -3.093  47.984 -21.051  1.00  0.00     0.010 C 
HETATM   12  C20 UNL     1      -4.357  48.171 -21.901  1.00  0.00    -0.002 C 
HETATM   13  C21 UNL     1      -4.450  49.642 -22.421  1.00  0.00     0.031 C 
HETATM   14  C22 UNL     1      -5.800  49.922 -23.151  1.00  0.00     0.124 C 
HETATM   15  C23 UNL     1      -7.038  49.433 -22.365  1.00  0.00     0.045 C 
HETATM   16  C24 UNL     1      -6.930  47.962 -21.894  1.00  0.00     0.001 C 
HETATM   17  C25 UNL     1      -6.973  46.983 -23.101  1.00  0.00     0.019 C 
HETATM   18  C26 UNL     1      -5.618  47.858 -21.079  1.00  0.00     0.002 C 
HETATM   19  C27 UNL     1      -5.721  46.498 -20.404  1.00  0.00     0.009 C 
HETATM   20  C28 UNL     1      -7.214  46.363 -20.058  1.00  0.00     0.047 C 
HETATM   21  C29 UNL     1      -7.965  47.501 -20.815  1.00  0.00     0.128 C 
ENDROOT
BRANCH   6  22
HETATM   22  O1  UNL     1       1.180  52.313 -21.848  1.00  0.00    -0.271 OA
BRANCH  22  23
HETATM   23  C6  UNL     1       1.637  53.406 -21.060  1.00  0.00     0.303 C 
BRANCH  23  24
HETATM   24  C7  UNL     1       0.811  53.461 -19.785  1.00  0.00     0.244 C 
HETATM   25  O2  UNL     1      -0.132  54.234 -19.641  1.00  0.00    -0.271 OA
HETATM   26  N2  UNL     1       1.202  52.556 -18.819  1.00  0.00    -0.355 N 
HETATM   27  H10 UNL     1       1.937  51.895 -19.038  1.00  0.00     0.162 HD
BRANCH  26  28
HETATM   28  C8  UNL     1       0.491  52.412 -17.569  1.00  0.00     0.161 C 
BRANCH  28  29
HETATM   29  C9  UNL     1       1.388  51.864 -16.487  1.00  0.00    -0.040 A 
HETATM   30  C10 UNL     1       1.003  50.752 -15.727  1.00  0.00     0.010 A 
HETATM   31  C11 UNL     1       1.843  50.253 -14.726  1.00  0.00     0.019 A 
HETATM   32  C12 UNL     1       3.074  50.867 -14.465  1.00  0.00     0.037 A 
HETATM   33  C14 UNL     1       3.462  51.981 -15.216  1.00  0.00     0.019 A 
HETATM   34  C15 UNL     1       2.625  52.474 -16.220  1.00  0.00     0.010 A 
BRANCH  32  35
HETATM   35  C13 UNL     1       3.928  50.306 -13.390  1.00  0.00     0.176 C 
HETATM   36  O3  UNL     1       3.812  50.529 -12.199  1.00  0.00    -0.646 OA
BRANCH  35  37
HETATM   37  O4  UNL     1       4.889  49.490 -13.858  1.00  0.00    -0.773 OA
HETATM   38  H15 UNL     1       5.371  49.201 -13.053  1.00  0.00     0.167 HD
ENDBRANCH  35  37
ENDBRANCH  32  35
ENDBRANCH  28  29
ENDBRANCH  26  28
ENDBRANCH  23  24
ENDBRANCH  22  23
ENDBRANCH   6  22
BRANCH  14  39
HETATM   39  O5  UNL     1      -5.819  49.336 -24.444  1.00  0.00    -0.395 OA
HETATM   40  H26 UNL     1      -6.620  49.643 -24.905  1.00  0.00     0.210 HD
ENDBRANCH  14  39
BRANCH  21  41
HETATM   41  O6  UNL     1      -8.186  48.533 -19.843  1.00  0.00    -0.381 OA
HETATM   42  H37 UNL     1      -8.757  49.214 -20.256  1.00  0.00     0.211 HD
ENDBRANCH  21  41
BRANCH  21  43
HETATM   43  C30 UNL     1      -9.326  47.005 -21.376  1.00  0.00     0.184 C 
HETATM   44  O7  UNL     1      -9.691  47.212 -22.537  1.00  0.00    -0.292 OA
BRANCH  43  45
HETATM   45  C31 UNL     1     -10.262  46.285 -20.408  1.00  0.00     0.245 C 
BRANCH  45  46
HETATM   46  O8  UNL     1     -10.402  44.900 -20.686  1.00  0.00    -0.393 OA
HETATM   47  H40 UNL     1     -11.023  44.832 -21.440  1.00  0.00     0.209 HD
ENDBRANCH  45  46
ENDBRANCH  43  45
ENDBRANCH  21  43
TORSDOF 12
ENDMDL
