MODEL 1
REMARK minimizedAffinity -7.82104158
REMARK CNNscore 0.597881138
REMARK CNNaffinity 6.86747122
REMARK  6 active torsions:
REMARK  status: ('A' for Active; 'I' for Inactive)
REMARK    1  A    between atoms: C4_4  and  C5_5 
REMARK    2  A    between atoms: C5_5  and  O1_6 
REMARK    3  A    between atoms: C5_5  and  C6_7 
REMARK    4  A    between atoms: C6_7  and  C7_8 
REMARK    5  A    between atoms: C7_8  and  C9_10 
REMARK    6  A    between atoms: C30_32  and  O3_33 
ROOT
HETATM    1  C9  UNL     1      -2.183   9.318  15.785  1.00  0.00    -0.002 C 
HETATM    2  C10 UNL     1      -0.903   9.611  16.619  1.00  0.00     0.007 C 
HETATM    3  C11 UNL     1       0.306   9.075  15.827  1.00  0.00     0.015 C 
HETATM    4  C12 UNL     1      -0.299   8.204  14.715  1.00  0.00    -0.010 C 
HETATM    5  C13 UNL     1      -0.565   6.799  15.344  1.00  0.00     0.021 C 
HETATM    6  C14 UNL     1       0.511   7.911  13.449  1.00  0.00    -0.039 C 
HETATM    7  C15 UNL     1      -0.127   7.669  12.272  1.00  0.00    -0.066 C 
HETATM    8  C16 UNL     1      -1.657   7.761  12.164  1.00  0.00     0.036 C 
HETATM    9  C17 UNL     1      -2.442   8.171  13.426  1.00  0.00     0.015 C 
HETATM   10  C18 UNL     1      -1.594   9.036  14.366  1.00  0.00    -0.029 C 
HETATM   11  C19 UNL     1      -1.275  10.392  13.664  1.00  0.00     0.016 C 
HETATM   12  C20 UNL     1       0.634   7.266  10.977  1.00  0.00    -0.015 C 
HETATM   13  C21 UNL     1       0.355   5.759  10.756  1.00  0.00     0.020 C 
HETATM   14  C22 UNL     1       0.105   8.071   9.756  1.00  0.00     0.021 C 
HETATM   15  C23 UNL     1       1.056   8.181   8.565  1.00  0.00     0.080 C 
HETATM   16  C24 UNL     1       2.175   7.168   8.600  1.00  0.00     0.135 C 
HETATM   17  O2  UNL     1       2.417   6.470   7.616  1.00  0.00    -0.297 OA
HETATM   18  C25 UNL     1       3.035   7.127   9.871  1.00  0.00     0.018 C 
HETATM   19  C26 UNL     1       3.668   5.728  10.024  1.00  0.00     0.023 C 
HETATM   20  C27 UNL     1       4.188   8.130   9.657  1.00  0.00     0.023 C 
HETATM   21  C28 UNL     1       2.168   7.578  11.101  1.00  0.00     0.016 C 
HETATM   22  C29 UNL     1       2.714   7.093  12.455  1.00  0.00     0.043 C 
HETATM   23  C30 UNL     1       2.010   7.800  13.613  1.00  0.00     0.148 C 
ENDROOT
BRANCH   1  24
HETATM   24  C7  UNL     1      -3.283  10.406  15.985  1.00  0.00    -0.011 C 
HETATM   25  C8  UNL     1      -4.680   9.792  16.159  1.00  0.00     0.010 C 
BRANCH  24  26
HETATM   26  C6  UNL     1      -2.988  11.285  17.241  1.00  0.00     0.040 C 
BRANCH  26  27
HETATM   27  C5  UNL     1      -3.968  11.080  18.413  1.00  0.00     0.141 C 
BRANCH  27  28
HETATM   28  C4  UNL     1      -3.997  12.292  19.312  1.00  0.00     0.006 C 
HETATM   29  C2  UNL     1      -4.736  13.412  19.151  1.00  0.00    -0.089 C 
HETATM   30  C1  UNL     1      -4.615  14.558  20.122  1.00  0.00     0.042 C 
HETATM   31  C3  UNL     1      -5.735  13.633  18.045  1.00  0.00     0.042 C 
ENDBRANCH  27  28
BRANCH  27  32
HETATM   32  O1  UNL     1      -3.554   9.950  19.177  1.00  0.00    -0.392 OA
HETATM   33  H9  UNL     1      -3.432  10.246  20.102  1.00  0.00     0.210 HD
ENDBRANCH  27  32
ENDBRANCH  26  27
ENDBRANCH  24  26
ENDBRANCH   1  24
BRANCH  23  34
HETATM   34  O3  UNL     1       2.562   9.109  13.727  1.00  0.00    -0.391 OA
HETATM   35  H48 UNL     1       1.977   9.716  13.240  1.00  0.00     0.210 HD
ENDBRANCH  23  34
TORSDOF 6
ENDMDL
