MODEL 1
REMARK minimizedAffinity -6.47871876
REMARK CNNscore 0.55470407
REMARK CNNaffinity 6.47044754
REMARK  8 active torsions:
REMARK  status: ('A' for Active; 'I' for Inactive)
REMARK    1  A    between atoms: O1_2  and  C2_3 
REMARK    2  A    between atoms: C2_3  and  C5_6 
REMARK    3  A    between atoms: C6_7  and  C7_8 
REMARK    4  A    between atoms: C7_8  and  C8_9 
REMARK    5  A    between atoms: C8_9  and  C10_11 
REMARK    6  A    between atoms: C16_17  and  O2_18 
REMARK    7  A    between atoms: C19_21  and  C21_23 
REMARK    8  A    between atoms: C21_23  and  O3_24 
ROOT
HETATM    1  C10 UNL     1      -2.540  12.214  17.132  1.00  0.00    -0.002 C 
HETATM    2  C11 UNL     1      -3.447  12.096  15.921  1.00  0.00     0.006 C 
HETATM    3  C12 UNL     1      -2.476  12.086  14.749  1.00  0.00     0.011 C 
HETATM    4  C13 UNL     1      -1.106  11.491  15.252  1.00  0.00    -0.030 C 
HETATM    5  C14 UNL     1      -0.034  12.555  14.909  1.00  0.00     0.016 C 
HETATM    6  C15 UNL     1      -0.800  10.175  14.450  1.00  0.00     0.032 C 
HETATM    7  C16 UNL     1       0.655   9.627  14.442  1.00  0.00     0.124 C 
HETATM    8  C17 UNL     1       0.787   8.169  13.956  1.00  0.00     0.038 C 
HETATM    9  C18 UNL     1      -0.382   7.677  13.079  1.00  0.00     0.015 C 
HETATM   10  C19 UNL     1      -0.105   6.268  12.448  1.00  0.00     0.042 C 
HETATM   11  C20 UNL     1       0.713   5.301  13.335  1.00  0.00     0.026 C 
HETATM   12  C22 UNL     1      -1.423   5.559  12.136  1.00  0.00     0.137 C 
HETATM   13  O4  UNL     1      -1.601   4.955  11.071  1.00  0.00    -0.297 OA
HETATM   14  C23 UNL     1      -2.501   5.526  13.198  1.00  0.00     0.080 C 
HETATM   15  C24 UNL     1      -2.198   6.418  14.393  1.00  0.00     0.018 C 
HETATM   16  C25 UNL     1      -1.669   7.748  13.920  1.00  0.00    -0.026 A 
HETATM   17  C26 UNL     1      -2.749   8.743  13.585  1.00  0.00     0.021 A 
HETATM   18  C27 UNL     1      -1.807   9.051  14.735  1.00  0.00    -0.025 A 
HETATM   19  C28 UNL     1      -2.324   8.963  16.155  1.00  0.00     0.011 C 
HETATM   20  C29 UNL     1      -1.524   9.787  17.155  1.00  0.00     0.011 C 
HETATM   21  C30 UNL     1      -1.315  11.285  16.811  1.00  0.00    -0.032 C 
HETATM   22  C31 UNL     1      -0.135  11.781  17.689  1.00  0.00     0.016 C 
ENDROOT
BRANCH   1  23
HETATM   23  C8  UNL     1      -3.225  12.048  18.522  1.00  0.00    -0.010 C 
HETATM   24  C9  UNL     1      -3.683  10.622  18.855  1.00  0.00     0.010 C 
BRANCH  23  25
HETATM   25  C7  UNL     1      -4.456  12.978  18.674  1.00  0.00     0.031 C 
BRANCH  25  26
HETATM   26  C6  UNL     1      -4.754  13.339  20.102  1.00  0.00    -0.027 C 
HETATM   27  C5  UNL     1      -5.986  13.627  20.564  1.00  0.00     0.006 C 
BRANCH  27  28
HETATM   28  C2  UNL     1      -6.356  14.032  21.979  1.00  0.00     0.070 C 
HETATM   29  C3  UNL     1      -5.098  14.615  22.641  1.00  0.00     0.050 C 
HETATM   30  C4  UNL     1      -7.465  15.090  21.891  1.00  0.00     0.050 C 
BRANCH  28  31
HETATM   31  O1  UNL     1      -6.806  12.862  22.675  1.00  0.00    -0.382 OA
HETATM   32  C1  UNL     1      -7.989  12.980  23.447  1.00  0.00     0.202 C 
ENDBRANCH  28  31
ENDBRANCH  27  28
ENDBRANCH  25  26
ENDBRANCH  23  25
ENDBRANCH   1  23
BRANCH   7  33
HETATM   33  O2  UNL     1       1.286   9.712  15.717  1.00  0.00    -0.395 OA
HETATM   34  H28 UNL     1       2.222   9.475  15.600  1.00  0.00     0.210 HD
ENDBRANCH   7  33
BRANCH  10  35
HETATM   35  C21 UNL     1       0.698   6.426  11.133  1.00  0.00     0.181 C 
BRANCH  35  36
HETATM   36  O3  UNL     1       0.103   7.364  10.248  1.00  0.00    -0.400 OA
HETATM   37  H37 UNL     1      -0.435   6.850   9.611  1.00  0.00     0.209 HD
ENDBRANCH  35  36
ENDBRANCH  10  35
TORSDOF 8
ENDMDL
