MODEL 1
REMARK minimizedAffinity -7.23983908
REMARK CNNscore 0.78471607
REMARK CNNaffinity 7.03354502
REMARK  7 active torsions:
REMARK  status: ('A' for Active; 'I' for Inactive)
REMARK    1  A    between atoms: C2_2  and  C30_32 
REMARK    2  A    between atoms: C3_3  and  C4_4 
REMARK    3  A    between atoms: C4_4  and  O1_5 
REMARK    4  A    between atoms: C4_4  and  C5_6 
REMARK    5  A    between atoms: C5_6  and  C6_7 
REMARK    6  A    between atoms: C6_7  and  C8_9 
REMARK    7  A    between atoms: C30_32  and  O3_33 
ROOT
HETATM    1  C8  UNL     1       4.528  55.376  -8.882  1.00  0.00    -0.002 C 
HETATM    2  C9  UNL     1       3.730  56.521  -8.181  1.00  0.00     0.007 C 
HETATM    3  C10 UNL     1       2.230  56.266  -8.437  1.00  0.00     0.015 C 
HETATM    4  C11 UNL     1       2.206  55.197  -9.545  1.00  0.00    -0.013 C 
HETATM    5  C12 UNL     1       2.418  55.969 -10.895  1.00  0.00     0.021 C 
HETATM    6  C13 UNL     1       0.928  54.376  -9.744  1.00  0.00    -0.070 C 
HETATM    7  C14 UNL     1      -0.274  54.965  -9.677  1.00  0.00    -0.022 C 
HETATM    8  C15 UNL     1      -1.533  54.326 -10.136  1.00  0.00     0.034 C 
HETATM    9  C16 UNL     1      -1.324  53.227 -11.216  1.00  0.00     0.013 C 
HETATM   10  C17 UNL     1      -2.727  52.612 -11.623  1.00  0.00     0.018 C 
HETATM   11  C18 UNL     1      -3.797  53.719 -11.810  1.00  0.00     0.023 C 
HETATM   12  C19 UNL     1      -2.693  51.837 -12.959  1.00  0.00     0.023 C 
HETATM   13  C20 UNL     1      -3.196  51.658 -10.514  1.00  0.00     0.135 C 
HETATM   14  O2  UNL     1      -4.372  51.609 -10.148  1.00  0.00    -0.297 OA
HETATM   15  C21 UNL     1      -2.188  50.682  -9.945  1.00  0.00     0.080 C 
HETATM   16  C22 UNL     1      -0.868  51.349  -9.584  1.00  0.00     0.017 C 
HETATM   17  C23 UNL     1      -0.231  52.189 -10.737  1.00  0.00    -0.031 C 
HETATM   18  C24 UNL     1       0.181  51.212 -11.861  1.00  0.00     0.016 C 
HETATM   19  C25 UNL     1       1.086  52.909 -10.149  1.00  0.00     0.024 C 
HETATM   20  C26 UNL     1       2.406  52.727 -10.944  1.00  0.00     0.010 C 
HETATM   21  C27 UNL     1       3.681  53.280 -10.249  1.00  0.00     0.011 C 
HETATM   22  C28 UNL     1       3.417  54.298  -9.119  1.00  0.00    -0.029 C 
HETATM   23  C29 UNL     1       3.201  53.544  -7.766  1.00  0.00     0.016 C 
ENDROOT
BRANCH   1  24
HETATM   24  C6  UNL     1       5.831  55.003  -8.108  1.00  0.00    -0.011 C 
HETATM   25  C7  UNL     1       6.909  54.444  -9.043  1.00  0.00     0.010 C 
BRANCH  24  26
HETATM   26  C5  UNL     1       6.372  56.248  -7.346  1.00  0.00     0.040 C 
BRANCH  26  27
HETATM   27  C4  UNL     1       6.694  56.022  -5.860  1.00  0.00     0.141 C 
BRANCH  27  28
HETATM   28  C3  UNL     1       7.440  57.191  -5.267  1.00  0.00     0.009 C 
HETATM   29  C2  UNL     1       8.763  57.342  -5.028  1.00  0.00    -0.062 C 
HETATM   30  C1  UNL     1       9.797  56.272  -5.273  1.00  0.00     0.045 C 
BRANCH  29  31
HETATM   31  C30 UNL     1       9.361  58.616  -4.470  1.00  0.00     0.198 C 
BRANCH  31  32
HETATM   32  O3  UNL     1      10.428  59.103  -5.270  1.00  0.00    -0.397 OA
HETATM   33  H48 UNL     1      10.033  59.360  -6.121  1.00  0.00     0.209 HD
ENDBRANCH  31  32
ENDBRANCH  29  31
ENDBRANCH  27  28
BRANCH  27  34
HETATM   34  O1  UNL     1       5.505  55.762  -5.126  1.00  0.00    -0.392 OA
HETATM   35  H6  UNL     1       5.738  55.835  -4.184  1.00  0.00     0.210 HD
ENDBRANCH  27  34
ENDBRANCH  26  27
ENDBRANCH  24  26
ENDBRANCH   1  24
TORSDOF 7
ENDMDL
