MODEL 1
REMARK minimizedAffinity -10.8856459
REMARK  7 active torsions:
REMARK  status: ('A' for Active; 'I' for Inactive)
REMARK    1  A    between atoms: C3_3  and  C4_4 
REMARK    2  A    between atoms: C4_4  and  O1_5 
REMARK    3  A    between atoms: C6_9  and  C7_10 
REMARK    4  A    between atoms: C7_10  and  C9_12 
REMARK    5  A    between atoms: C9_12  and  O4_13 
REMARK    6  A    between atoms: C10_14  and  O5_15 
REMARK    7  A    between atoms: C17_22  and  O6_23 
ROOT
HETATM    1  C9  UNL     1       1.076   6.712  13.386  1.00  0.00     0.097 C 
HETATM    2  C10 UNL     1       0.195   7.878  13.996  1.00  0.00     0.154 C 
HETATM    3  C11 UNL     1      -1.281   7.476  13.828  1.00  0.00     0.040 C 
HETATM    4  C12 UNL     1      -1.237   6.054  13.293  1.00  0.00     0.004 C 
HETATM    5  C13 UNL     1      -2.501   5.520  12.598  1.00  0.00    -0.001 C 
HETATM    6  C14 UNL     1      -3.712   5.617  13.531  1.00  0.00     0.033 C 
HETATM    7  C15 UNL     1      -4.908   4.897  12.999  1.00  0.00    -0.019 C 
HETATM    8  C16 UNL     1      -4.877   3.959  12.032  1.00  0.00    -0.035 C 
HETATM    9  C17 UNL     1      -6.133   3.273  11.511  1.00  0.00     0.171 C 
HETATM   10  C18 UNL     1      -5.988   1.790  11.506  1.00  0.00     0.013 C 
HETATM   11  C19 UNL     1      -4.814   1.150  11.555  1.00  0.00     0.050 C 
HETATM   12  C20 UNL     1      -3.532   1.904  11.565  1.00  0.00     0.162 C 
HETATM   13  O7  UNL     1      -2.497   1.240  11.622  1.00  0.00    -0.292 OA
HETATM   14  C21 UNL     1      -3.552   3.454  11.416  1.00  0.00     0.051 C 
HETATM   15  C22 UNL     1      -3.527   3.781   9.908  1.00  0.00     0.029 C 
HETATM   16  C23 UNL     1      -2.283   4.043  12.162  1.00  0.00     0.011 C 
HETATM   17  C24 UNL     1      -0.950   3.889  11.381  1.00  0.00     0.007 C 
HETATM   18  C25 UNL     1       0.261   4.522  12.087  1.00  0.00     0.013 C 
HETATM   19  C26 UNL     1       0.039   6.018  12.408  1.00  0.00    -0.006 C 
HETATM   20  C27 UNL     1      -0.124   6.835  11.097  1.00  0.00     0.019 C 
ENDROOT
BRANCH   1  21
HETATM   21  C7  UNL     1       2.466   7.183  12.806  1.00  0.00     0.049 C 
HETATM   22  C8  UNL     1       2.976   8.462  13.493  1.00  0.00     0.016 C 
BRANCH  21  23
HETATM   23  C6  UNL     1       2.427   7.453  11.255  1.00  0.00     0.143 C 
HETATM   24  O3  UNL     1       2.909   6.326  10.496  1.00  0.00    -0.311 OA
HETATM   25  C5  UNL     1       4.244   6.145  10.297  1.00  0.00     0.292 C 
HETATM   26  C3  UNL     1       5.155   7.275  10.629  1.00  0.00     0.042 C 
HETATM   27  O2  UNL     1       4.663   5.062   9.897  1.00  0.00    -0.260 OA
HETATM   28  C2  UNL     1       4.641   8.504  10.846  1.00  0.00    -0.067 C 
HETATM   29  C1  UNL     1       5.444   9.733  11.165  1.00  0.00     0.044 C 
HETATM   30  C28 UNL     1       3.157   8.705  10.757  1.00  0.00     0.067 C 
BRANCH  26  31
HETATM   31  C4  UNL     1       6.615   6.932  10.657  1.00  0.00     0.209 C 
BRANCH  31  32
HETATM   32  O1  UNL     1       6.771   5.526  10.821  1.00  0.00    -0.396 OA
HETATM   33  H6  UNL     1       7.689   5.380  11.105  1.00  0.00     0.209 HD
ENDBRANCH  31  32
ENDBRANCH  26  31
ENDBRANCH  21  23
ENDBRANCH   1  21
BRANCH   1  34
HETATM   34  O4  UNL     1       1.357   5.767  14.444  1.00  0.00    -0.386 OA
HETATM   35  H12 UNL     1       1.642   6.270  15.228  1.00  0.00     0.210 HD
ENDBRANCH   1  34
BRANCH   2  36
HETATM   36  O5  UNL     1       0.382   9.122  13.331  1.00  0.00    -0.392 OA
HETATM   37  H14 UNL     1       0.192   9.821  13.990  1.00  0.00     0.210 HD
ENDBRANCH   2  36
BRANCH   9  38
HETATM   38  O6  UNL     1      -7.266   3.565  12.314  1.00  0.00    -0.387 OA
HETATM   39  H23 UNL     1      -7.476   4.502  12.152  1.00  0.00     0.210 HD
ENDBRANCH   9  38
TORSDOF 7
ENDMDL
