MODEL 1
REMARK minimizedAffinity -9.76547527
REMARK  5 active torsions:
REMARK  status: ('A' for Active; 'I' for Inactive)
REMARK    1  A    between atoms: C2_2  and  C25_28 
REMARK    2  A    between atoms: C3_3  and  C4_4 
REMARK    3  A    between atoms: C4_4  and  C6_6 
REMARK    4  A    between atoms: C20_20  and  O1_21 
REMARK    5  A    between atoms: C25_28  and  C27_30 
ROOT
HETATM    1  C6  UNL     1      -1.654   5.318  13.293  1.00  0.00     0.001 C 
HETATM    2  C7  UNL     1      -1.766   4.428  12.012  1.00  0.00     0.006 C 
HETATM    3  C8  UNL     1      -0.520   4.705  11.154  1.00  0.00     0.009 C 
HETATM    4  C9  UNL     1       0.346   5.553  12.072  1.00  0.00     0.036 C 
HETATM    5  C10 UNL     1      -0.665   6.448  12.848  1.00  0.00    -0.033 C 
HETATM    6  C11 UNL     1      -1.420   7.494  11.988  1.00  0.00     0.016 C 
HETATM    7  C12 UNL     1       0.067   7.222  13.973  1.00  0.00     0.010 C 
HETATM    8  C13 UNL     1       1.581   7.004  14.077  1.00  0.00     0.010 C 
HETATM    9  C14 UNL     1       2.375   6.806  12.768  1.00  0.00     0.039 C 
HETATM   10  C15 UNL     1       1.557   6.297  11.527  1.00  0.00     0.123 C 
HETATM   11  C16 UNL     1       1.286   7.301  10.423  1.00  0.00     0.014 C 
HETATM   12  C17 UNL     1       2.377   7.952   9.991  1.00  0.00     0.014 C 
HETATM   13  C18 UNL     1       3.611   7.594  10.777  1.00  0.00     0.124 C 
HETATM   14  C19 UNL     1       4.892   8.247  10.270  1.00  0.00     0.078 C 
HETATM   15  C20 UNL     1       6.126   7.739  11.030  1.00  0.00     0.121 C 
HETATM   16  C21 UNL     1       5.831   7.168  12.422  1.00  0.00     0.033 C 
HETATM   17  C22 UNL     1       4.689   7.903  13.118  1.00  0.00     0.015 C 
HETATM   18  C23 UNL     1       3.360   7.925  12.303  1.00  0.00     0.001 C 
HETATM   19  C24 UNL     1       2.743   9.334  12.517  1.00  0.00     0.019 C 
HETATM   20  O2  UNL     1       3.783   6.140  10.623  1.00  0.00    -0.223 OA
HETATM   21  O3  UNL     1       2.485   5.400  10.865  1.00  0.00    -0.224 OA
ENDROOT
BRANCH   1  22
HETATM   22  C4  UNL     1      -3.054   5.698  13.851  1.00  0.00     0.009 C 
HETATM   23  C5  UNL     1      -3.138   5.794  15.376  1.00  0.00     0.014 C 
BRANCH  22  24
HETATM   24  C3  UNL     1      -4.176   4.830  13.306  1.00  0.00    -0.019 C 
HETATM   25  C2  UNL     1      -5.491   5.089  13.135  1.00  0.00    -0.083 C 
HETATM   26  C1  UNL     1      -6.169   6.395  13.450  1.00  0.00     0.043 C 
BRANCH  25  27
HETATM   27  C25 UNL     1      -6.446   4.013  12.595  1.00  0.00     0.013 C 
HETATM   28  C26 UNL     1      -7.372   3.536  13.727  1.00  0.00     0.015 C 
BRANCH  27  29
HETATM   29  C27 UNL     1      -5.717   2.836  11.877  1.00  0.00    -0.015 C 
HETATM   30  C28 UNL     1      -6.556   1.551  11.882  1.00  0.00     0.010 C 
HETATM   31  C29 UNL     1      -5.366   3.191  10.425  1.00  0.00     0.010 C 
ENDBRANCH  27  29
ENDBRANCH  25  27
ENDBRANCH  22  24
ENDBRANCH   1  22
BRANCH  15  32
HETATM   32  O1  UNL     1       7.046   8.825  11.170  1.00  0.00    -0.395 OA
HETATM   33  H28 UNL     1       7.360   9.055  10.279  1.00  0.00     0.210 HD
ENDBRANCH  15  32
TORSDOF 5
ENDMDL
