MODEL 1
REMARK minimizedAffinity -8.4187851
REMARK CNNscore 0.481551707
REMARK CNNaffinity 7.2616601
REMARK  10 active torsions:
REMARK  status: ('A' for Active; 'I' for Inactive)
REMARK    1  A    between atoms: C14_14  and  C15_15 
REMARK    2  A    between atoms: C15_15  and  C17_17 
REMARK    3  A    between atoms: C17_17  and  C18_18 
REMARK    4  A    between atoms: C18_18  and  C19_19 
REMARK    5  A    between atoms: C20_20  and  C22_22 
REMARK    6  A    between atoms: C22_22  and  O2_24 
REMARK    7  A    between atoms: C27_29  and  C28_30 
REMARK    8  A    between atoms: C28_30  and  C29_31 
REMARK    9  A    between atoms: C29_31  and  C30_32 
REMARK   10  A    between atoms: C30_32  and  O4_34 
ROOT
HETATM    1  C1  UNL     1       2.741   5.885   7.705  1.00  0.00     0.043 C 
HETATM    2  C2  UNL     1       2.678   6.888   8.842  1.00  0.00    -0.085 C 
HETATM    3  C3  UNL     1       2.995   8.275   8.345  1.00  0.00     0.043 C 
HETATM    4  C4  UNL     1       2.324   6.535  10.109  1.00  0.00    -0.073 C 
HETATM    5  C5  UNL     1       1.728   5.153  10.343  1.00  0.00     0.035 C 
HETATM    6  C6  UNL     1       0.903   5.039  11.623  1.00  0.00     0.010 C 
HETATM    7  C7  UNL     1       0.017   6.280  11.922  1.00  0.00     0.003 C 
HETATM    8  C8  UNL     1       0.807   7.679  11.799  1.00  0.00    -0.032 C 
HETATM    9  C9  UNL     1       0.203   8.565  10.673  1.00  0.00     0.016 C 
HETATM   10  C10 UNL     1       0.706   8.529  13.106  1.00  0.00     0.011 C 
HETATM   11  C11 UNL     1      -0.650   8.577  13.847  1.00  0.00     0.011 C 
HETATM   12  C12 UNL     1      -1.595   7.389  13.598  1.00  0.00    -0.032 C 
HETATM   13  C13 UNL     1      -2.591   7.746  12.459  1.00  0.00     0.016 C 
HETATM   14  C14 UNL     1      -2.434   6.912  14.835  1.00  0.00    -0.002 C 
HETATM   15  C23 UNL     1      -2.734   5.420  14.508  1.00  0.00     0.006 C 
HETATM   16  C24 UNL     1      -1.821   5.023  13.328  1.00  0.00     0.011 C 
HETATM   17  C25 UNL     1      -0.731   6.113  13.292  1.00  0.00    -0.032 C 
HETATM   18  C26 UNL     1       0.295   5.724  14.415  1.00  0.00     0.016 C 
HETATM   19  C27 UNL     1       2.319   7.370  11.411  1.00  0.00     0.024 C 
ENDROOT
BRANCH  14  20
HETATM   20  C15 UNL     1      -3.649   7.707  15.410  1.00  0.00    -0.014 C 
HETATM   21  C16 UNL     1      -3.641   9.158  14.912  1.00  0.00     0.010 C 
BRANCH  20  22
HETATM   22  C17 UNL     1      -5.055   7.083  15.241  1.00  0.00     0.008 C 
BRANCH  22  23
HETATM   23  C18 UNL     1      -5.471   6.809  13.784  1.00  0.00     0.028 C 
BRANCH  23  24
HETATM   24  C19 UNL     1      -6.616   5.841  13.671  1.00  0.00    -0.013 C 
HETATM   25  C20 UNL     1      -6.628   4.634  13.071  1.00  0.00     0.008 C 
HETATM   26  C21 UNL     1      -5.478   3.984  12.362  1.00  0.00     0.055 C 
BRANCH  25  27
HETATM   27  C22 UNL     1      -7.913   3.887  13.117  1.00  0.00     0.171 C 
HETATM   28  O1  UNL     1      -8.079   2.701  12.891  1.00  0.00    -0.646 OA
BRANCH  27  29
HETATM   29  O2  UNL     1      -8.950   4.672  13.454  1.00  0.00    -0.773 OA
HETATM   30  H35 UNL     1      -9.711   4.056  13.447  1.00  0.00     0.167 HD
ENDBRANCH  27  29
ENDBRANCH  25  27
ENDBRANCH  23  24
ENDBRANCH  22  23
ENDBRANCH  20  22
ENDBRANCH  14  20
BRANCH  19  31
HETATM   31  C28 UNL     1       3.332   8.544  11.533  1.00  0.00     0.020 C 
BRANCH  31  32
HETATM   32  C29 UNL     1       4.763   8.084  11.834  1.00  0.00     0.110 C 
BRANCH  32  33
HETATM   33  C30 UNL     1       5.826   8.745  11.005  1.00  0.00     0.139 C 
HETATM   34  O3  UNL     1       6.993   8.401  10.921  1.00  0.00    -0.650 OA
BRANCH  33  35
HETATM   35  O4  UNL     1       5.377   9.828  10.345  1.00  0.00    -0.776 OA
HETATM   36  H48 UNL     1       6.162  10.125   9.837  1.00  0.00     0.167 HD
ENDBRANCH  33  35
ENDBRANCH  32  33
ENDBRANCH  31  32
ENDBRANCH  19  31
TORSDOF 10
ENDMDL
