MODEL 1
REMARK minimizedAffinity -6.77821589
REMARK CNNscore 0.229769796
REMARK CNNaffinity 6.42251778
REMARK  9 active torsions:
REMARK  status: ('A' for Active; 'I' for Inactive)
REMARK    1  A    between atoms: O1_2  and  C2_3 
REMARK    2  A    between atoms: C2_3  and  C3_4 
REMARK    3  A    between atoms: C3_4  and  C4_5 
REMARK    4  A    between atoms: C4_5  and  O2_6 
REMARK    5  A    between atoms: O2_6  and  C5_7 
REMARK    6  A    between atoms: C31_36  and  O5_37 
REMARK    7  A    between atoms: C36_42  and  O6_44 
REMARK    8  A    between atoms: C38_45  and  O7_46 
REMARK    9  A    between atoms: C45_54  and  O9_55 
ROOT
HETATM    1  C5  UNL     1     -13.854   6.249  22.549  1.00  0.00     0.122 C 
HETATM    2  C6  UNL     1     -14.416   5.452  21.375  1.00  0.00     0.033 C 
HETATM    3  C7  UNL     1     -14.390   6.216  20.048  1.00  0.00     0.014 C 
HETATM    4  C8  UNL     1     -15.049   7.641  20.099  1.00  0.00    -0.010 C 
HETATM    5  C9  UNL     1     -16.561   7.452  20.406  1.00  0.00     0.018 C 
HETATM    6  C10 UNL     1     -14.360   8.409  21.267  1.00  0.00     0.073 C 
HETATM    7  C11 UNL     1     -14.455   7.658  22.608  1.00  0.00     0.045 C 
HETATM    8  C12 UNL     1     -12.887   8.704  20.947  1.00  0.00     0.161 C 
HETATM    9  O3  UNL     1     -11.984   8.591  21.771  1.00  0.00    -0.292 OA
HETATM   10  C13 UNL     1     -12.571   9.259  19.607  1.00  0.00    -0.005 C 
HETATM   11  C14 UNL     1     -13.547   9.254  18.679  1.00  0.00    -0.013 C 
HETATM   12  C15 UNL     1     -14.874   8.456  18.713  1.00  0.00     0.058 C 
HETATM   13  C16 UNL     1     -14.967   7.452  17.582  1.00  0.00    -0.091 C 
HETATM   14  C17 UNL     1     -15.273   6.714  16.679  1.00  0.00    -0.104 C 
HETATM   15  C18 UNL     1     -15.831   5.903  15.573  1.00  0.00     0.115 C 
HETATM   16  C19 UNL     1     -14.791   5.793  14.501  1.00  0.00     0.090 A 
HETATM   17  C20 UNL     1     -13.799   6.915  14.223  1.00  0.00     0.120 A 
HETATM   18  N1  UNL     1     -14.787   6.558  13.296  1.00  0.00    -0.243 NA
HETATM   19  C21 UNL     1     -15.826   7.260  12.713  1.00  0.00     0.240 C 
HETATM   20  O4  UNL     1     -16.815   6.644  12.295  1.00  0.00    -0.277 OA
HETATM   21  C22 UNL     1     -15.809   8.852  12.729  1.00  0.00     0.245 C 
HETATM   22  C23 UNL     1     -14.318   9.386  12.584  1.00  0.00     0.145 C 
HETATM   23  C24 UNL     1     -13.871  10.211  13.728  1.00  0.00    -0.103 C 
HETATM   24  C25 UNL     1     -13.816  10.955  14.674  1.00  0.00    -0.092 C 
HETATM   25  C26 UNL     1     -13.951  11.880  15.853  1.00  0.00     0.067 C 
HETATM   26  C27 UNL     1     -12.410  12.082  16.327  1.00  0.00     0.034 C 
HETATM   27  C28 UNL     1     -12.240  11.227  17.621  1.00  0.00     0.027 C 
HETATM   28  C29 UNL     1     -10.941  10.564  18.032  1.00  0.00     0.013 C 
HETATM   29  C30 UNL     1     -11.196   9.897  19.418  1.00  0.00     0.043 C 
HETATM   30  C31 UNL     1     -13.343  10.168  17.506  1.00  0.00     0.096 C 
HETATM   31  C32 UNL     1     -14.531  11.120  17.163  1.00  0.00     0.013 C 
HETATM   32  C33 UNL     1     -14.805  12.142  18.336  1.00  0.00     0.020 C 
HETATM   33  C34 UNL     1     -15.801  10.275  17.076  1.00  0.00     0.016 C 
HETATM   34  C35 UNL     1     -16.038   9.465  18.391  1.00  0.00     0.029 C 
HETATM   35  C36 UNL     1     -14.825  13.203  15.377  1.00  0.00     0.102 C 
HETATM   36  C37 UNL     1     -14.100  14.504  15.777  1.00  0.00     0.050 C 
HETATM   37  C38 UNL     1     -15.227  13.336  13.819  1.00  0.00     0.183 C 
HETATM   38  C39 UNL     1     -16.162  12.227  13.278  1.00  0.00     0.158 C 
HETATM   39  O8  UNL     1     -17.492  12.105  13.793  1.00  0.00    -0.373 OA
HETATM   40  C40 UNL     1     -18.052  10.942  13.080  1.00  0.00     0.185 C 
HETATM   41  C41 UNL     1     -17.300  10.840  11.731  1.00  0.00     0.028 C 
HETATM   42  C42 UNL     1     -16.646   9.434  11.526  1.00  0.00     0.060 C 
HETATM   43  C43 UNL     1     -16.325  12.035  11.772  1.00  0.00     0.020 C 
HETATM   44  C44 UNL     1     -16.933  13.252  11.071  1.00  0.00     0.013 C 
HETATM   45  C45 UNL     1     -17.901   9.610  13.876  1.00  0.00     0.385 C 
HETATM   46  N2  UNL     1     -16.512   9.200  14.002  1.00  0.00     0.134 N 
HETATM   47  H60 UNL     1     -16.411   8.448  14.672  1.00  0.00     0.321 HD
ENDROOT
BRANCH   1  48
HETATM   48  O2  UNL     1     -14.182   5.593  23.780  1.00  0.00    -0.386 OA
BRANCH  48  49
HETATM   49  C4  UNL     1     -14.394   4.191  23.628  1.00  0.00     0.170 C 
BRANCH  49  50
HETATM   50  C3  UNL     1     -13.175   3.435  24.138  1.00  0.00     0.052 C 
BRANCH  50  51
HETATM   51  C2  UNL     1     -13.457   2.698  25.442  1.00  0.00     0.169 C 
BRANCH  51  52
HETATM   52  O1  UNL     1     -12.422   1.734  25.640  1.00  0.00    -0.396 OA
HETATM   53  C1  UNL     1     -11.511   1.713  24.549  1.00  0.00     0.201 C 
ENDBRANCH  51  52
ENDBRANCH  50  51
ENDBRANCH  49  50
ENDBRANCH  48  49
ENDBRANCH   1  48
BRANCH  30  54
HETATM   54  O5  UNL     1     -12.985   9.270  16.456  1.00  0.00    -0.384 OA
HETATM   55  H35 UNL     1     -12.384   8.595  16.809  1.00  0.00     0.211 HD
ENDBRANCH  30  54
BRANCH  35  56
HETATM   56  O6  UNL     1     -16.067  13.249  16.113  1.00  0.00    -0.386 OA
HETATM   57  H46 UNL     1     -16.804  13.065  15.487  1.00  0.00     0.210 HD
ENDBRANCH  35  56
BRANCH  37  58
HETATM   58  O7  UNL     1     -15.886  14.590  13.563  1.00  0.00    -0.390 OA
HETATM   59  H48 UNL     1     -15.231  15.302  13.644  1.00  0.00     0.210 HD
ENDBRANCH  37  58
BRANCH  45  60
HETATM   60  O9  UNL     1     -18.455   9.769  15.167  1.00  0.00    -0.366 OA
HETATM   61  H59 UNL     1     -18.183   8.997  15.684  1.00  0.00     0.212 HD
ENDBRANCH  45  60
TORSDOF 9
ENDMDL
