MODEL 1
REMARK minimizedAffinity -8.35281086
REMARK CNNscore 0.786754727
REMARK CNNaffinity 7.30255651
REMARK  6 active torsions:
REMARK  status: ('A' for Active; 'I' for Inactive)
REMARK    1  A    between atoms: C2_2  and  C30_31 
REMARK    2  A    between atoms: C3_3  and  C4_4 
REMARK    3  A    between atoms: C4_4  and  C5_5 
REMARK    4  A    between atoms: C5_5  and  C6_6 
REMARK    5  A    between atoms: C6_6  and  C8_8 
REMARK    6  A    between atoms: C30_31  and  O3_33 
ROOT
HETATM    1  C8  UNL     1      -0.495  12.459  18.007  1.00  0.00    -0.002 C 
HETATM    2  C9  UNL     1      -1.577  13.537  17.728  1.00  0.00     0.007 C 
HETATM    3  C10 UNL     1      -2.504  12.973  16.621  1.00  0.00     0.015 C 
HETATM    4  C11 UNL     1      -1.760  11.733  16.075  1.00  0.00    -0.013 C 
HETATM    5  C12 UNL     1      -0.744  12.283  15.026  1.00  0.00     0.021 C 
HETATM    6  C13 UNL     1      -2.522  10.586  15.418  1.00  0.00    -0.070 C 
HETATM    7  C14 UNL     1      -3.856  10.580  15.245  1.00  0.00    -0.022 C 
HETATM    8  C15 UNL     1      -4.642   9.384  14.792  1.00  0.00     0.034 C 
HETATM    9  C16 UNL     1      -3.838   8.069  14.899  1.00  0.00     0.013 C 
HETATM   10  C17 UNL     1      -4.612   6.762  14.467  1.00  0.00     0.018 C 
HETATM   11  C18 UNL     1      -4.735   5.815  15.684  1.00  0.00     0.023 C 
HETATM   12  C19 UNL     1      -6.046   7.039  13.964  1.00  0.00     0.023 C 
HETATM   13  C20 UNL     1      -3.873   5.958  13.384  1.00  0.00     0.135 C 
HETATM   14  O1  UNL     1      -4.479   5.357  12.492  1.00  0.00    -0.297 OA
HETATM   15  C21 UNL     1      -2.369   5.819  13.465  1.00  0.00     0.080 C 
HETATM   16  C22 UNL     1      -1.699   6.897  14.301  1.00  0.00     0.017 C 
HETATM   17  C23 UNL     1      -2.428   8.256  14.254  1.00  0.00    -0.031 C 
HETATM   18  C24 UNL     1      -2.530   8.727  12.773  1.00  0.00     0.016 C 
HETATM   19  C25 UNL     1      -1.639   9.377  15.047  1.00  0.00     0.024 C 
HETATM   20  C26 UNL     1      -0.846   8.889  16.290  1.00  0.00     0.010 C 
HETATM   21  C27 UNL     1      -0.159  10.024  17.084  1.00  0.00     0.011 C 
HETATM   22  C28 UNL     1      -1.137  11.170  17.408  1.00  0.00    -0.029 C 
HETATM   23  C29 UNL     1      -2.212  10.604  18.392  1.00  0.00     0.016 C 
ENDROOT
BRANCH   1  24
HETATM   24  C6  UNL     1       0.074  12.363  19.453  1.00  0.00    -0.014 C 
HETATM   25  C7  UNL     1       0.368  13.693  20.152  1.00  0.00     0.010 C 
BRANCH  24  26
HETATM   26  C5  UNL     1       1.315  11.436  19.524  1.00  0.00     0.008 C 
BRANCH  26  27
HETATM   27  C4  UNL     1       1.365  10.486  20.730  1.00  0.00     0.028 C 
BRANCH  27  28
HETATM   28  C3  UNL     1       2.681  10.598  21.457  1.00  0.00    -0.013 C 
HETATM   29  C2  UNL     1       3.125   9.825  22.469  1.00  0.00     0.008 C 
HETATM   30  C1  UNL     1       4.458  10.072  23.116  1.00  0.00     0.055 C 
BRANCH  29  31
HETATM   31  C30 UNL     1       2.360   8.649  22.948  1.00  0.00     0.171 C 
HETATM   32  O2  UNL     1       1.880   7.756  22.274  1.00  0.00    -0.646 OA
BRANCH  31  33
HETATM   33  O3  UNL     1       2.246   8.637  24.287  1.00  0.00    -0.773 OA
HETATM   34  H46 UNL     1       1.747   7.816  24.467  1.00  0.00     0.167 HD
ENDBRANCH  31  33
ENDBRANCH  29  31
ENDBRANCH  27  28
ENDBRANCH  26  27
ENDBRANCH  24  26
ENDBRANCH   1  24
TORSDOF 6
ENDMDL
