MODEL 1
REMARK minimizedAffinity -9.72900677
REMARK CNNscore 0.463050783
REMARK CNNaffinity 6.22815943
REMARK  12 active torsions:
REMARK  status: ('A' for Active; 'I' for Inactive)
REMARK    1  A    between atoms: C3_3  and  O1_4 
REMARK    2  A    between atoms: N1_14  and  O2_16 
REMARK    3  A    between atoms: O2_16  and  C13_17 
REMARK    4  A    between atoms: C13_17  and  C14_18 
REMARK       I    between atoms: C14_18  and  N2_20 
REMARK    5  A    between atoms: N2_20  and  C15_21 
REMARK    6  A    between atoms: C15_21  and  C16_22 
REMARK    7  A    between atoms: C15_21  and  C26_36 
REMARK       I    between atoms: C16_22  and  N3_24 
REMARK    8  A    between atoms: N3_24  and  C17_25 
REMARK    9  A    between atoms: C17_25  and  C18_26 
REMARK   10  A    between atoms: C17_25  and  C25_33 
REMARK   11  A    between atoms: C18_26  and  C19_27 
REMARK   12  A    between atoms: C25_33  and  O6_35 
ROOT
HETATM    1  C1  UNL     1       0.550  52.720 -25.138  1.00  0.00     0.015 C 
HETATM    2  C2  UNL     1      -0.571  52.372 -25.393  1.00  0.00    -0.078 C 
HETATM    3  C3  UNL     1      -1.945  51.937 -25.742  1.00  0.00     0.128 C 
HETATM    4  C4  UNL     1      -1.889  50.554 -26.408  1.00  0.00     0.052 C 
HETATM    5  C5  UNL     1      -2.185  49.537 -25.298  1.00  0.00     0.010 C 
HETATM    6  C6  UNL     1      -2.383  50.340 -23.989  1.00  0.00     0.002 C 
HETATM    7  C7  UNL     1      -3.256  49.684 -22.878  1.00  0.00    -0.004 C 
HETATM    8  C8  UNL     1      -3.130  48.144 -22.915  1.00  0.00     0.010 C 
HETATM    9  C9  UNL     1      -4.008  47.428 -21.901  1.00  0.00     0.035 C 
HETATM   10  C10 UNL     1      -5.430  47.869 -22.122  1.00  0.00    -0.069 C 
HETATM   11  C11 UNL     1      -6.357  46.984 -22.523  1.00  0.00     0.030 C 
HETATM   12  C12 UNL     1      -7.720  47.413 -22.921  1.00  0.00     0.032 C 
HETATM   13  N1  UNL     1      -8.610  46.483 -23.110  1.00  0.00    -0.271 N 
ATOM     14  H1  UNL     1      -8.439  45.492 -22.938  1.00  0.00     0.194 HD
HETATM   15  C29 UNL     1      -7.938  48.893 -23.141  1.00  0.00     0.060 C 
HETATM   16  C30 UNL     1      -7.196  49.700 -22.078  1.00  0.00     0.020 C 
HETATM   17  C31 UNL     1      -5.685  49.354 -21.914  1.00  0.00    -0.016 C 
HETATM   18  C32 UNL     1      -5.354  49.716 -20.432  1.00  0.00     0.020 C 
HETATM   19  C33 UNL     1      -4.729  50.214 -22.830  1.00  0.00     0.002 C 
HETATM   20  C34 UNL     1      -5.208  50.515 -24.252  1.00  0.00     0.007 C 
HETATM   21  C35 UNL     1      -4.376  51.619 -24.935  1.00  0.00     0.014 C 
HETATM   22  C36 UNL     1      -2.877  51.709 -24.505  1.00  0.00     0.003 C 
HETATM   23  C37 UNL     1      -2.706  52.839 -23.465  1.00  0.00     0.020 C 
ENDROOT
BRANCH   3  24
HETATM   24  O1  UNL     1      -2.497  52.896 -26.633  1.00  0.00    -0.377 OA
HETATM   25  H2  UNL     1      -1.846  53.028 -27.344  1.00  0.00     0.211 HD
ENDBRANCH   3  24
BRANCH  13  26
HETATM   26  O2  UNL     1      -9.830  46.994 -23.575  1.00  0.00    -0.271 OA
BRANCH  26  27
HETATM   27  C13 UNL     1     -10.721  45.905 -23.783  1.00  0.00     0.303 C 
BRANCH  27  28
HETATM   28  C14 UNL     1     -11.911  46.312 -24.645  1.00  0.00     0.244 C 
HETATM   29  O3  UNL     1     -12.097  47.475 -25.000  1.00  0.00    -0.271 OA
HETATM   30  N2  UNL     1     -12.799  45.286 -24.909  1.00  0.00    -0.346 N 
HETATM   31  H16 UNL     1     -12.393  44.353 -24.892  1.00  0.00     0.163 HD
BRANCH  30  32
HETATM   32  C15 UNL     1     -13.934  45.487 -25.812  1.00  0.00     0.180 C 
BRANCH  32  33
HETATM   33  C16 UNL     1     -14.977  46.357 -25.071  1.00  0.00     0.241 C 
HETATM   34  O4  UNL     1     -14.838  47.571 -24.933  1.00  0.00    -0.271 OA
HETATM   35  N3  UNL     1     -16.064  45.672 -24.587  1.00  0.00    -0.345 N 
HETATM   36  H18 UNL     1     -16.250  44.748 -24.958  1.00  0.00     0.163 HD
BRANCH  35  37
HETATM   37  C17 UNL     1     -17.200  46.358 -23.963  1.00  0.00     0.186 C 
BRANCH  37  38
HETATM   38  C18 UNL     1     -17.725  45.591 -22.736  1.00  0.00     0.074 C 
BRANCH  38  39
HETATM   39  C19 UNL     1     -17.505  46.293 -21.412  1.00  0.00    -0.056 A 
HETATM   40  C20 UNL     1     -18.603  46.737 -20.661  1.00  0.00     0.007 A 
HETATM   41  C21 UNL     1     -18.410  47.404 -19.452  1.00  0.00     0.001 A 
HETATM   42  C22 UNL     1     -17.120  47.635 -18.980  1.00  0.00     0.000 A 
HETATM   43  C23 UNL     1     -16.022  47.196 -19.719  1.00  0.00     0.001 A 
HETATM   44  C24 UNL     1     -16.212  46.527 -20.929  1.00  0.00     0.007 A 
ENDBRANCH  38  39
ENDBRANCH  37  38
BRANCH  37  45
HETATM   45  C25 UNL     1     -18.339  46.631 -24.949  1.00  0.00     0.163 C 
HETATM   46  O5  UNL     1     -19.241  47.440 -24.794  1.00  0.00    -0.648 OA
BRANCH  45  47
HETATM   47  O6  UNL     1     -18.307  45.871 -26.065  1.00  0.00    -0.775 OA
HETATM   48  H27 UNL     1     -19.080  46.181 -26.582  1.00  0.00     0.167 HD
ENDBRANCH  45  47
ENDBRANCH  37  45
ENDBRANCH  35  37
ENDBRANCH  32  33
BRANCH  32  49
HETATM   49  C26 UNL     1     -13.448  46.086 -27.151  1.00  0.00     0.009 C 
HETATM   50  C27 UNL     1     -13.250  47.604 -27.111  1.00  0.00     0.012 C 
HETATM   51  C28 UNL     1     -14.359  45.702 -28.319  1.00  0.00     0.012 C 
ENDBRANCH  32  49
ENDBRANCH  30  32
ENDBRANCH  27  28
ENDBRANCH  26  27
ENDBRANCH  13  26
TORSDOF 12
ENDMDL
