MODEL 1
REMARK minimizedAffinity -11.4701004
REMARK CNNscore 0.396970659
REMARK CNNaffinity 7.66871119
REMARK  10 active torsions:
REMARK  status: ('A' for Active; 'I' for Inactive)
REMARK    1  A    between atoms: O1_2  and  C2_3 
REMARK    2  A    between atoms: C4_5  and  O2_6 
REMARK    3  A    between atoms: O2_6  and  C5_7 
REMARK    4  A    between atoms: C8_10  and  C9_11 
REMARK    5  A    between atoms: N1_12  and  C10_14 
REMARK    6  A    between atoms: C10_14  and  C11_15 
REMARK    7  A    between atoms: C21_27  and  C22_28 
REMARK    8  A    between atoms: C28_36  and  O5_37 
REMARK    9  A    between atoms: C32_41  and  O6_42 
REMARK   10  A    between atoms: C36_47  and  O8_48 
ROOT
HETATM    1  C5  UNL     1      -5.236   6.348  14.898  1.00  0.00     0.127 C 
HETATM    2  C6  UNL     1      -5.620   7.704  14.325  1.00  0.00     0.033 C 
HETATM    3  C7  UNL     1      -7.016   7.783  13.708  1.00  0.00     0.021 C 
HETATM    4  C8  UNL     1      -8.046   6.710  14.191  1.00  0.00     0.026 C 
HETATM    5  C16 UNL     1      -9.504   7.322  14.019  1.00  0.00     0.009 C 
HETATM    6  C17 UNL     1     -10.495   6.524  13.153  1.00  0.00     0.007 C 
HETATM    7  C18 UNL     1     -11.777   7.327  12.904  1.00  0.00     0.013 C 
HETATM    8  C19 UNL     1     -12.508   7.753  14.206  1.00  0.00    -0.005 C 
HETATM    9  C20 UNL     1     -13.204   6.525  14.824  1.00  0.00     0.019 C 
HETATM   10  C21 UNL     1     -13.528   8.908  13.951  1.00  0.00     0.028 C 
HETATM   11  C26 UNL     1     -12.633  10.164  13.863  1.00  0.00     0.013 C 
HETATM   12  C27 UNL     1     -11.377   9.877  14.698  1.00  0.00     0.040 C 
HETATM   13  C28 UNL     1     -11.521   8.430  15.207  1.00  0.00     0.070 C 
HETATM   14  C29 UNL     1     -10.188   7.657  15.371  1.00  0.00     0.026 C 
HETATM   15  C30 UNL     1      -9.197   8.358  16.307  1.00  0.00     0.011 C 
HETATM   16  C31 UNL     1      -7.974   7.494  16.640  1.00  0.00     0.039 C 
HETATM   17  C32 UNL     1      -7.729   6.316  15.663  1.00  0.00     0.073 C 
HETATM   18  C33 UNL     1      -6.297   5.760  15.838  1.00  0.00     0.071 C 
ENDROOT
BRANCH   1  19
HETATM   19  O2  UNL     1      -4.022   6.546  15.631  1.00  0.00    -0.356 OA
BRANCH  19  20
HETATM   20  C4  UNL     1      -3.146   7.526  15.068  1.00  0.00     0.263 C 
HETATM   21  C3  UNL     1      -2.416   8.166  16.244  1.00  0.00     0.095 C 
HETATM   22  C2  UNL     1      -1.484   9.288  15.794  1.00  0.00     0.156 C 
HETATM   23  C36 UNL     1      -1.164   9.179  14.293  1.00  0.00     0.175 C 
HETATM   24  C34 UNL     1      -1.070   7.713  13.831  1.00  0.00     0.151 C 
HETATM   25  O7  UNL     1      -2.227   6.931  14.155  1.00  0.00    -0.354 OA
HETATM   26  C35 UNL     1       0.161   6.972  14.356  1.00  0.00     0.042 C 
BRANCH  22  27
HETATM   27  O1  UNL     1      -0.239   9.266  16.527  1.00  0.00    -0.388 OA
HETATM   28  C1  UNL     1      -0.100  10.358  17.430  1.00  0.00     0.202 C 
ENDBRANCH  22  27
BRANCH  23  29
HETATM   29  O8  UNL     1       0.006   9.936  13.978  1.00  0.00    -0.390 OA
HETATM   30  H50 UNL     1       0.633   9.752  14.706  1.00  0.00     0.210 HD
ENDBRANCH  23  29
ENDBRANCH  19  20
ENDBRANCH   1  19
BRANCH  17  31
HETATM   31  O6  UNL     1      -8.620   5.253  16.065  1.00  0.00    -0.389 OA
HETATM   32  H42 UNL     1      -8.413   5.026  16.991  1.00  0.00     0.210 HD
ENDBRANCH  17  31
BRANCH   4  33
HETATM   33  C9  UNL     1      -7.921   5.421  13.360  1.00  0.00     0.069 C 
HETATM   34  N1  UNL     1      -7.967   4.253  13.900  1.00  0.00    -0.397 N 
ATOM     35  H1  UNL     1      -8.086   4.120  14.904  1.00  0.00     0.159 HD
BRANCH  34  36
HETATM   36  C10 UNL     1      -7.836   3.131  12.970  1.00  0.00     0.158 C 
BRANCH  36  37
HETATM   37  C11 UNL     1      -6.433   3.014  12.449  1.00  0.00    -0.025 A 
HETATM   38  C12 UNL     1      -5.430   3.907  12.833  1.00  0.00     0.011 A 
HETATM   39  C13 UNL     1      -4.138   3.743  12.346  1.00  0.00     0.018 A 
HETATM   40  C14 UNL     1      -3.886   2.681  11.492  1.00  0.00     0.087 A 
HETATM   41  N2  UNL     1      -4.825   1.792  11.104  1.00  0.00    -0.375 N 
HETATM   42  C15 UNL     1      -6.071   1.972  11.600  1.00  0.00     0.096 A 
ATOM     43  H2  UNL     1      -4.607   1.024  10.470  1.00  0.00     0.164 HD
ENDBRANCH  36  37
ENDBRANCH  34  36
ENDBRANCH   4  33
BRANCH  13  44
HETATM   44  O5  UNL     1     -12.125   8.485  16.512  1.00  0.00    -0.389 OA
HETATM   45  H36 UNL     1     -12.752   9.226  16.550  1.00  0.00     0.210 HD
ENDBRANCH  13  44
BRANCH  10  46
HETATM   46  C22 UNL     1     -14.507   8.732  12.822  1.00  0.00    -0.045 A 
HETATM   47  C23 UNL     1     -15.211   9.655  12.164  1.00  0.00     0.087 A 
HETATM   48  C24 UNL     1     -16.058   8.958  11.199  1.00  0.00     0.283 A 
HETATM   49  O3  UNL     1     -16.804   9.503  10.411  1.00  0.00    -0.260 OA
HETATM   50  O4  UNL     1     -15.872   7.620  11.332  1.00  0.00    -0.314 OA
HETATM   51  C25 UNL     1     -14.883   7.378  12.333  1.00  0.00     0.213 A 
ENDBRANCH  10  46
TORSDOF 10
ENDMDL
