MODEL 1
REMARK minimizedAffinity -6.45003366
REMARK CNNscore 0.557370782
REMARK CNNaffinity 5.92077255
REMARK  9 active torsions:
REMARK  status: ('A' for Active; 'I' for Inactive)
REMARK    1  A    between atoms: C2_2  and  C3_3 
REMARK    2  A    between atoms: C3_3  and  C5_5 
REMARK    3  A    between atoms: C3_3  and  C6_7 
REMARK    4  A    between atoms: C5_5  and  O1_6 
REMARK    5  A    between atoms: C7_8  and  O2_9 
REMARK    6  A    between atoms: C18_22  and  O5_23 
REMARK    7  A    between atoms: O5_23  and  C19_24 
REMARK    8  A    between atoms: C19_24  and  C20_26 
REMARK    9  A    between atoms: C29_36  and  O8_37 
ROOT
HETATM    1  C6  UNL     1     -13.901  11.576  -2.496  1.00  0.00     0.023 A 
HETATM    2  C7  UNL     1     -12.740  12.150  -3.073  1.00  0.00     0.076 A 
HETATM    3  C8  UNL     1     -11.930  13.058  -2.389  1.00  0.00     0.053 A 
HETATM    4  C9  UNL     1     -12.249  13.432  -1.085  1.00  0.00     0.034 A 
HETATM    5  C10 UNL     1     -11.383  14.399  -0.388  1.00  0.00     0.192 A 
HETATM    6  O3  UNL     1     -10.445  14.918  -0.984  1.00  0.00    -0.287 OA
HETATM    7  C11 UNL     1     -11.675  14.731   1.031  1.00  0.00     0.035 A 
HETATM    8  C12 UNL     1     -12.773  14.242   1.627  1.00  0.00     0.131 A 
HETATM    9  O4  UNL     1     -13.155  14.558   2.910  1.00  0.00    -0.336 OA
HETATM   10  C13 UNL     1     -12.249  15.262   3.781  1.00  0.00     0.065 C 
HETATM   11  C14 UNL     1     -13.177  15.996   4.772  1.00  0.00     0.046 C 
HETATM   12  C15 UNL     1     -11.481  14.202   4.577  1.00  0.00     0.046 C 
HETATM   13  C16 UNL     1     -11.391  16.294   2.989  1.00  0.00     0.031 C 
HETATM   14  C17 UNL     1     -10.391  17.122   3.818  1.00  0.00     0.041 C 
HETATM   15  C18 UNL     1      -9.012  16.482   4.011  1.00  0.00     0.136 C 
HETATM   16  C23 UNL     1      -8.387  16.044   2.679  1.00  0.00     0.012 C 
HETATM   17  C24 UNL     1      -7.947  17.216   1.792  1.00  0.00     0.012 C 
HETATM   18  C25 UNL     1      -9.346  15.100   1.942  1.00  0.00     0.017 C 
HETATM   19  C26 UNL     1     -10.744  15.706   1.711  1.00  0.00     0.033 C 
HETATM   20  C27 UNL     1     -13.696  13.316   0.906  1.00  0.00     0.219 A 
HETATM   21  O7  UNL     1     -14.715  12.883   1.439  1.00  0.00    -0.284 OA
HETATM   22  C28 UNL     1     -13.373  12.903  -0.472  1.00  0.00     0.065 A 
HETATM   23  C29 UNL     1     -14.194  11.984  -1.173  1.00  0.00     0.091 A 
ENDROOT
BRANCH   1  24
HETATM   24  C3  UNL     1     -14.761  10.560  -3.319  1.00  0.00     0.027 C 
HETATM   25  C4  UNL     1     -16.260  10.877  -3.041  1.00  0.00     0.027 C 
BRANCH  24  26
HETATM   26  C2  UNL     1     -14.492  10.667  -4.834  1.00  0.00    -0.021 C 
HETATM   27  C1  UNL     1     -14.679   9.712  -5.757  1.00  0.00     0.008 C 
ENDBRANCH  24  26
BRANCH  24  28
HETATM   28  C5  UNL     1     -14.567   9.041  -2.977  1.00  0.00     0.182 C 
BRANCH  28  29
HETATM   29  O1  UNL     1     -13.235   8.717  -2.546  1.00  0.00    -0.399 OA
HETATM   30  H9  UNL     1     -12.689   8.627  -3.344  1.00  0.00     0.209 HD
ENDBRANCH  28  29
ENDBRANCH  24  28
ENDBRANCH   1  24
BRANCH   2  31
HETATM   31  O2  UNL     1     -12.371  11.816  -4.350  1.00  0.00    -0.360 OA
HETATM   32  H10 UNL     1     -11.492  12.172  -4.554  1.00  0.00     0.217 HD
ENDBRANCH   2  31
BRANCH  23  33
HETATM   33  O8  UNL     1     -15.308  11.474  -0.557  1.00  0.00    -0.359 OA
HETATM   34  H36 UNL     1     -15.395  11.848   0.350  1.00  0.00     0.217 HD
ENDBRANCH  23  33
BRANCH  15  35
HETATM   35  O5  UNL     1      -8.134  17.426   4.652  1.00  0.00    -0.315 OA
BRANCH  35  36
HETATM   36  C19 UNL     1      -7.938  17.255   5.992  1.00  0.00     0.262 C 
HETATM   37  O6  UNL     1      -8.829  17.053   6.806  1.00  0.00    -0.265 OA
BRANCH  36  38
HETATM   38  C20 UNL     1      -6.460  17.381   6.320  1.00  0.00     0.077 C 
HETATM   39  C21 UNL     1      -6.267  18.213   7.586  1.00  0.00     0.020 C 
HETATM   40  C22 UNL     1      -5.694  17.997   5.151  1.00  0.00     0.020 C 
ENDBRANCH  36  38
ENDBRANCH  35  36
ENDBRANCH  15  35
TORSDOF 9
ENDMDL
