MODEL 1
REMARK minimizedAffinity -6.45414019
REMARK CNNscore 0.780638039
REMARK CNNaffinity 7.11222839
REMARK  16 active torsions:
REMARK  status: ('A' for Active; 'I' for Inactive)
REMARK    1  A    between atoms: C2_2  and  C3_3 
REMARK    2  A    between atoms: C3_3  and  C4_4 
REMARK    3  A    between atoms: C4_4  and  C5_5 
REMARK    4  A    between atoms: C5_5  and  C6_6 
REMARK    5  A    between atoms: C6_6  and  C7_7 
REMARK    6  A    between atoms: C7_7  and  C8_8 
REMARK    7  A    between atoms: C8_8  and  N1_9 
REMARK    8  A    between atoms: N1_9  and  C9_10 
REMARK    9  A    between atoms: N1_9  and  C11_12 
REMARK   10  A    between atoms: N1_9  and  C13_14 
REMARK   11  A    between atoms: C13_14  and  C14_15 
REMARK   12  A    between atoms: C14_15  and  O1_16 
REMARK   13  A    between atoms: O1_16  and  C15_17 
REMARK   14  A    between atoms: C15_17  and  C16_19 
REMARK   15  A    between atoms: C16_19  and  C17_20 
REMARK   16  A    between atoms: C16_19  and  C22_25 
ROOT
HETATM    1  C14 UNL     1      -3.601   6.512  14.952  1.00  0.00     0.206 C 
ENDROOT
BRANCH   1   2
HETATM    2  C13 UNL     1      -2.324   5.694  14.688  1.00  0.00     0.264 C 
BRANCH   2   3
HETATM    3  N1  UNL     1      -1.353   6.230  13.560  1.00  0.00    -0.066 N 
BRANCH   3   4
HETATM    4  C8  UNL     1       0.070   5.676  13.823  1.00  0.00     0.237 C 
BRANCH   4   5
HETATM    5  C7  UNL     1       1.004   5.676  12.615  1.00  0.00     0.028 C 
BRANCH   5   6
HETATM    6  C6  UNL     1       0.213   5.926  11.325  1.00  0.00     0.002 C 
BRANCH   6   7
HETATM    7  C5  UNL     1       1.076   6.446  10.170  1.00  0.00     0.000 C 
BRANCH   7   8
HETATM    8  C4  UNL     1       0.462   7.648   9.445  1.00  0.00     0.000 C 
BRANCH   8   9
HETATM    9  C3  UNL     1       1.475   8.430   8.603  1.00  0.00    -0.000 C 
BRANCH   9  10
HETATM   10  C2  UNL     1       2.410   7.537   7.785  1.00  0.00    -0.005 C 
HETATM   11  C1  UNL     1       1.769   7.118   6.471  1.00  0.00     0.005 C 
ENDBRANCH   9  10
ENDBRANCH   8   9
ENDBRANCH   7   8
ENDBRANCH   6   7
ENDBRANCH   5   6
ENDBRANCH   4   5
ENDBRANCH   3   4
BRANCH   3  12
HETATM   12  C9  UNL     1      -1.943   5.614  12.236  1.00  0.00     0.233 C 
HETATM   13  C10 UNL     1      -2.581   4.238  12.373  1.00  0.00     0.035 C 
ENDBRANCH   3  12
BRANCH   3  14
HETATM   14  C11 UNL     1      -1.419   7.772  13.483  1.00  0.00     0.233 C 
HETATM   15  C12 UNL     1      -2.005   8.332  12.201  1.00  0.00     0.035 C 
ENDBRANCH   3  14
ENDBRANCH   2   3
ENDBRANCH   1   2
BRANCH   1  16
HETATM   16  O1  UNL     1      -4.766   5.838  14.438  1.00  0.00    -0.319 OA
BRANCH  16  17
HETATM   17  C15 UNL     1      -5.600   6.611  13.688  1.00  0.00     0.263 C 
HETATM   18  O2  UNL     1      -5.316   7.747  13.332  1.00  0.00    -0.265 OA
BRANCH  17  19
HETATM   19  C16 UNL     1      -6.908   5.907  13.348  1.00  0.00     0.093 C 
BRANCH  19  20
HETATM   20  C17 UNL     1      -8.043   6.326  14.326  1.00  0.00    -0.001 C 
HETATM   21  C18 UNL     1      -7.868   7.720  14.941  1.00  0.00     0.005 C 
HETATM   22  C19 UNL     1      -6.876   7.524  16.082  1.00  0.00     0.000 C 
HETATM   23  C20 UNL     1      -7.047   6.074  16.535  1.00  0.00     0.000 C 
HETATM   24  C21 UNL     1      -8.082   5.459  15.595  1.00  0.00     0.005 C 
ENDBRANCH  19  20
BRANCH  19  25
HETATM   25  C22 UNL     1      -6.720   4.379  13.226  1.00  0.00    -0.001 C 
HETATM   26  C23 UNL     1      -8.009   3.566  13.086  1.00  0.00     0.005 C 
HETATM   27  C24 UNL     1      -7.504   2.174  12.731  1.00  0.00     0.000 C 
HETATM   28  C25 UNL     1      -6.220   2.393  11.932  1.00  0.00     0.000 C 
HETATM   29  C26 UNL     1      -5.894   3.883  12.038  1.00  0.00     0.005 C 
ENDBRANCH  19  25
ENDBRANCH  17  19
ENDBRANCH  16  17
ENDBRANCH   1  16
TORSDOF 16
ENDMDL
