MODEL 1
REMARK minimizedAffinity -7.86092567
REMARK CNNscore 0.814368069
REMARK CNNaffinity 7.22507095
REMARK  6 active torsions:
REMARK  status: ('A' for Active; 'I' for Inactive)
REMARK    1  A    between atoms: C4_4  and  C5_5 
REMARK    2  A    between atoms: C5_5  and  O1_6 
REMARK    3  A    between atoms: C5_5  and  C6_7 
REMARK    4  A    between atoms: C6_7  and  C7_8 
REMARK    5  A    between atoms: C7_8  and  C9_10 
REMARK    6  A    between atoms: C30_32  and  O3_33 
ROOT
HETATM    1  C9  UNL     1       4.907  55.304  -8.898  1.00  0.00    -0.002 C 
HETATM    2  C10 UNL     1       4.194  56.493  -8.193  1.00  0.00     0.007 C 
HETATM    3  C11 UNL     1       2.689  56.357  -8.464  1.00  0.00     0.015 C 
HETATM    4  C12 UNL     1       2.576  55.372  -9.641  1.00  0.00    -0.010 C 
HETATM    5  C13 UNL     1       2.852  56.197 -10.939  1.00  0.00     0.021 C 
HETATM    6  C14 UNL     1       1.257  54.637  -9.932  1.00  0.00    -0.039 C 
HETATM    7  C15 UNL     1       1.283  53.434 -10.567  1.00  0.00    -0.066 C 
HETATM    8  C16 UNL     1       2.622  52.739 -10.875  1.00  0.00     0.036 C 
HETATM    9  C17 UNL     1       3.928  53.431 -10.449  1.00  0.00     0.015 C 
HETATM   10  C18 UNL     1       3.717  54.353  -9.247  1.00  0.00    -0.029 C 
HETATM   11  C19 UNL     1       3.356  53.487  -8.002  1.00  0.00     0.016 C 
HETATM   12  C20 UNL     1      -0.010  52.676 -11.025  1.00  0.00    -0.015 C 
HETATM   13  C21 UNL     1       0.235  52.170 -12.469  1.00  0.00     0.020 C 
HETATM   14  C22 UNL     1      -0.206  51.474 -10.062  1.00  0.00     0.021 C 
HETATM   15  C23 UNL     1      -1.483  50.689 -10.303  1.00  0.00     0.080 C 
HETATM   16  C24 UNL     1      -2.689  51.590 -10.226  1.00  0.00     0.135 C 
HETATM   17  O2  UNL     1      -3.650  51.280  -9.520  1.00  0.00    -0.297 OA
HETATM   18  C25 UNL     1      -2.700  52.835 -11.123  1.00  0.00     0.018 C 
HETATM   19  C26 UNL     1      -3.023  52.384 -12.563  1.00  0.00     0.023 C 
HETATM   20  C27 UNL     1      -3.888  53.739 -10.703  1.00  0.00     0.023 C 
HETATM   21  C28 UNL     1      -1.305  53.592 -11.002  1.00  0.00     0.016 C 
HETATM   22  C29 UNL     1      -1.274  54.469  -9.736  1.00  0.00     0.043 C 
HETATM   23  C30 UNL     1      -0.034  55.348  -9.624  1.00  0.00     0.148 C 
ENDROOT
BRANCH   1  24
HETATM   24  C7  UNL     1       6.127  54.785  -8.069  1.00  0.00    -0.011 C 
HETATM   25  C8  UNL     1       7.059  53.901  -8.901  1.00  0.00     0.010 C 
BRANCH  24  26
HETATM   26  C6  UNL     1       6.896  55.996  -7.451  1.00  0.00     0.040 C 
BRANCH  26  27
HETATM   27  C5  UNL     1       7.128  55.930  -5.931  1.00  0.00     0.141 C 
BRANCH  27  28
HETATM   28  C4  UNL     1       8.587  56.099  -5.583  1.00  0.00     0.006 C 
HETATM   29  C2  UNL     1       9.179  57.225  -5.131  1.00  0.00    -0.089 C 
HETATM   30  C1  UNL     1       8.458  58.522  -4.873  1.00  0.00     0.042 C 
HETATM   31  C3  UNL     1      10.654  57.259  -4.830  1.00  0.00     0.042 C 
ENDBRANCH  27  28
BRANCH  27  32
HETATM   32  O1  UNL     1       6.709  54.658  -5.448  1.00  0.00    -0.392 OA
HETATM   33  H9  UNL     1       7.490  54.080  -5.417  1.00  0.00     0.210 HD
ENDBRANCH  27  32
ENDBRANCH  26  27
ENDBRANCH  24  26
ENDBRANCH   1  24
BRANCH  23  34
HETATM   34  O3  UNL     1      -0.028  55.849  -8.293  1.00  0.00    -0.391 OA
HETATM   35  H48 UNL     1      -0.874  56.302  -8.146  1.00  0.00     0.210 HD
ENDBRANCH  23  34
TORSDOF 6
ENDMDL
