MODEL 1
REMARK minimizedAffinity -7.41116762
REMARK CNNscore 0.35109964
REMARK CNNaffinity 7.75617647
REMARK  13 active torsions:
REMARK  status: ('A' for Active; 'I' for Inactive)
REMARK    1  A    between atoms: O1_2  and  C2_3 
REMARK    2  A    between atoms: C12_14  and  C13_15 
REMARK    3  A    between atoms: C13_15  and  C15_17 
REMARK    4  A    between atoms: C15_17  and  C16_18 
REMARK    5  A    between atoms: C17_19  and  C18_20 
REMARK    6  A    between atoms: C18_20  and  O3_23 
REMARK    7  A    between atoms: C28_31  and  O4_32 
REMARK    8  A    between atoms: O4_32  and  C29_33 
REMARK    9  A    between atoms: C30_35  and  C31_36 
REMARK   10  A    between atoms: C31_36  and  O6_37 
REMARK   11  A    between atoms: C32_38  and  O7_39 
REMARK   12  A    between atoms: C33_40  and  O8_41 
REMARK   13  A    between atoms: C34_42  and  O9_43 
ROOT
HETATM    1  C2  UNL     1      -7.882   6.509  16.230  1.00  0.00     0.270 C 
HETATM    2  O2  UNL     1      -9.126   6.315  15.514  1.00  0.00    -0.344 OA
HETATM    3  C3  UNL     1      -9.037   7.023  14.251  1.00  0.00     0.095 C 
HETATM    4  C4  UNL     1      -8.420   5.996  13.313  1.00  0.00     0.008 C 
HETATM    5  C5  UNL     1      -7.105   5.750  13.288  1.00  0.00    -0.021 C 
HETATM    6  C6  UNL     1      -6.168   6.406  14.269  1.00  0.00     0.030 C 
HETATM    7  C7  UNL     1      -6.929   7.352  15.309  1.00  0.00     0.024 C 
HETATM    8  C8  UNL     1      -5.913   8.145  16.194  1.00  0.00     0.016 C 
HETATM    9  C9  UNL     1      -4.651   8.698  15.507  1.00  0.00     0.011 C 
HETATM   10  C10 UNL     1      -3.944   7.610  14.691  1.00  0.00    -0.032 C 
HETATM   11  C11 UNL     1      -3.483   6.501  15.683  1.00  0.00     0.016 C 
HETATM   12  C12 UNL     1      -2.747   8.066  13.807  1.00  0.00    -0.002 C 
HETATM   13  C21 UNL     1      -2.656   6.945  12.737  1.00  0.00     0.006 C 
HETATM   14  C22 UNL     1      -4.007   6.185  12.770  1.00  0.00     0.011 C 
HETATM   15  C23 UNL     1      -4.947   7.098  13.585  1.00  0.00    -0.029 C 
HETATM   16  C24 UNL     1      -5.434   8.199  12.584  1.00  0.00     0.016 C 
HETATM   17  C25 UNL     1      -8.053   8.169  14.597  1.00  0.00     0.039 C 
HETATM   18  C26 UNL     1      -8.697   9.258  15.496  1.00  0.00     0.011 C 
HETATM   19  C27 UNL     1     -10.207   9.158  15.662  1.00  0.00     0.033 C 
HETATM   20  C28 UNL     1     -10.869   8.896  14.325  1.00  0.00     0.136 C 
HETATM   21  C35 UNL     1     -10.457   7.499  13.742  1.00  0.00     0.014 C 
HETATM   22  C36 UNL     1     -10.491   7.690  12.197  1.00  0.00     0.021 C 
HETATM   23  C37 UNL     1     -11.516   6.420  14.093  1.00  0.00     0.021 C 
ENDROOT
BRANCH  20  24
HETATM   24  O4  UNL     1     -12.299   8.959  14.410  1.00  0.00    -0.352 OA
BRANCH  24  25
HETATM   25  C29 UNL     1     -12.993   7.732  14.226  1.00  0.00     0.292 C 
HETATM   26  O5  UNL     1     -13.822   7.750  13.062  1.00  0.00    -0.348 OA
HETATM   27  C30 UNL     1     -15.059   8.474  13.167  1.00  0.00     0.179 C 
HETATM   28  C32 UNL     1     -15.172   9.370  14.412  1.00  0.00     0.180 C 
HETATM   29  C33 UNL     1     -14.908   8.549  15.683  1.00  0.00     0.183 C 
HETATM   30  C34 UNL     1     -13.851   7.450  15.474  1.00  0.00     0.204 C 
BRANCH  27  31
HETATM   31  C31 UNL     1     -15.265   9.283  11.877  1.00  0.00     0.198 C 
BRANCH  31  32
HETATM   32  O6  UNL     1     -15.948   8.539  10.875  1.00  0.00    -0.398 OA
HETATM   33  H48 UNL     1     -16.716   8.112  11.316  1.00  0.00     0.209 HD
ENDBRANCH  31  32
ENDBRANCH  27  31
BRANCH  28  34
HETATM   34  O7  UNL     1     -16.465   9.986  14.488  1.00  0.00    -0.390 OA
HETATM   35  H50 UNL     1     -16.975   9.428  15.118  1.00  0.00     0.210 HD
ENDBRANCH  28  34
BRANCH  29  36
HETATM   36  O8  UNL     1     -16.158   7.975  16.125  1.00  0.00    -0.390 OA
HETATM   37  H52 UNL     1     -15.973   7.022  16.277  1.00  0.00     0.210 HD
ENDBRANCH  29  36
BRANCH  30  38
HETATM   38  O9  UNL     1     -14.514   6.171  15.373  1.00  0.00    -0.388 OA
HETATM   39  H54 UNL     1     -14.709   6.022  14.426  1.00  0.00     0.210 HD
ENDBRANCH  30  38
ENDBRANCH  24  25
ENDBRANCH  20  24
BRANCH   1  40
HETATM   40  O1  UNL     1      -7.277   5.287  16.638  1.00  0.00    -0.365 OA
HETATM   41  C1  UNL     1      -7.863   4.163  15.998  1.00  0.00     0.204 C 
ENDBRANCH   1  40
BRANCH  12  42
HETATM   42  C13 UNL     1      -1.417   8.599  14.414  1.00  0.00    -0.010 C 
HETATM   43  C14 UNL     1      -1.723   9.336  15.734  1.00  0.00     0.010 C 
BRANCH  42  44
HETATM   44  C15 UNL     1      -0.427   9.446  13.583  1.00  0.00     0.031 C 
BRANCH  44  45
HETATM   45  C16 UNL     1       0.387   8.744  12.533  1.00  0.00    -0.027 C 
HETATM   46  C17 UNL     1      -0.039   8.514  11.278  1.00  0.00     0.006 C 
BRANCH  46  47
HETATM   47  C18 UNL     1       0.719   7.835  10.161  1.00  0.00     0.068 C 
HETATM   48  C19 UNL     1       2.246   7.937  10.243  1.00  0.00     0.050 C 
HETATM   49  C20 UNL     1       0.235   8.364   8.809  1.00  0.00     0.050 C 
BRANCH  47  50
HETATM   50  O3  UNL     1       0.376   6.449  10.228  1.00  0.00    -0.387 OA
HETATM   51  H30 UNL     1       0.598   6.147  11.127  1.00  0.00     0.211 HD
ENDBRANCH  47  50
ENDBRANCH  46  47
ENDBRANCH  44  45
ENDBRANCH  42  44
ENDBRANCH  12  42
TORSDOF 13
ENDMDL
