MODEL 1
REMARK minimizedAffinity -10.2308865
REMARK  6 active torsions:
REMARK  status: ('A' for Active; 'I' for Inactive)
REMARK    1  A    between atoms: C2_2  and  C30_31 
REMARK    2  A    between atoms: C3_3  and  C4_4 
REMARK    3  A    between atoms: C4_4  and  C5_5 
REMARK    4  A    between atoms: C5_5  and  C6_6 
REMARK    5  A    between atoms: C6_6  and  C8_8 
REMARK    6  A    between atoms: C30_31  and  O2_32 
ROOT
HETATM    1  C8  UNL     1      -3.386   6.932  14.382  1.00  0.00    -0.002 C 
HETATM    2  C9  UNL     1      -3.960   8.231  13.738  1.00  0.00     0.007 C 
HETATM    3  C10 UNL     1      -2.975   8.682  12.642  1.00  0.00     0.015 C 
HETATM    4  C11 UNL     1      -1.704   7.850  12.895  1.00  0.00    -0.013 C 
HETATM    5  C12 UNL     1      -0.915   8.597  14.016  1.00  0.00     0.021 C 
HETATM    6  C13 UNL     1      -0.728   7.664  11.737  1.00  0.00    -0.070 C 
HETATM    7  C14 UNL     1      -0.546   8.594  10.780  1.00  0.00    -0.022 C 
HETATM    8  C15 UNL     1       0.462   8.490   9.671  1.00  0.00     0.034 C 
HETATM    9  C16 UNL     1       1.158   7.112   9.579  1.00  0.00     0.013 C 
HETATM   10  C17 UNL     1       2.285   7.046   8.491  1.00  0.00     0.018 C 
HETATM   11  C18 UNL     1       3.343   8.158   8.555  1.00  0.00     0.023 C 
HETATM   12  C19 UNL     1       1.634   7.134   7.087  1.00  0.00     0.023 C 
HETATM   13  C20 UNL     1       3.017   5.699   8.587  1.00  0.00     0.135 C 
HETATM   14  O1  UNL     1       3.354   5.056   7.591  1.00  0.00    -0.297 OA
HETATM   15  C21 UNL     1       3.409   5.219   9.960  1.00  0.00     0.080 C 
HETATM   16  C22 UNL     1       2.192   5.180  10.869  1.00  0.00     0.017 C 
HETATM   17  C23 UNL     1       1.493   6.554  11.014  1.00  0.00    -0.031 C 
HETATM   18  C24 UNL     1       2.400   7.490  11.852  1.00  0.00     0.016 C 
HETATM   19  C25 UNL     1       0.094   6.368  11.736  1.00  0.00     0.024 C 
HETATM   20  C26 UNL     1       0.155   5.697  13.127  1.00  0.00     0.010 C 
HETATM   21  C27 UNL     1      -1.205   5.549  13.848  1.00  0.00     0.011 C 
HETATM   22  C28 UNL     1      -2.327   6.473  13.324  1.00  0.00    -0.029 C 
HETATM   23  C29 UNL     1      -3.081   5.752  12.161  1.00  0.00     0.016 C 
ENDROOT
BRANCH   1  24
HETATM   24  C6  UNL     1      -4.512   5.951  14.835  1.00  0.00    -0.014 C 
HETATM   25  C7  UNL     1      -5.842   6.679  15.062  1.00  0.00     0.010 C 
BRANCH  24  26
HETATM   26  C5  UNL     1      -4.698   4.823  13.779  1.00  0.00     0.008 C 
BRANCH  26  27
HETATM   27  C4  UNL     1      -6.125   4.713  13.227  1.00  0.00     0.028 C 
BRANCH  27  28
HETATM   28  C3  UNL     1      -6.440   3.306  12.791  1.00  0.00    -0.022 C 
HETATM   29  C2  UNL     1      -5.949   2.663  11.712  1.00  0.00    -0.064 C 
HETATM   30  C1  UNL     1      -6.303   1.224  11.446  1.00  0.00     0.045 C 
BRANCH  29  31
HETATM   31  C30 UNL     1      -5.017   3.288  10.708  1.00  0.00     0.197 C 
BRANCH  31  32
HETATM   32  O2  UNL     1      -5.464   3.013   9.386  1.00  0.00    -0.397 OA
HETATM   33  H48 UNL     1      -6.339   2.594   9.455  1.00  0.00     0.209 HD
ENDBRANCH  31  32
ENDBRANCH  29  31
ENDBRANCH  27  28
ENDBRANCH  26  27
ENDBRANCH  24  26
ENDBRANCH   1  24
TORSDOF 6
ENDMDL
