MODEL 1
REMARK minimizedAffinity -7.29000902
REMARK CNNscore 0.853376508
REMARK CNNaffinity 6.88010359
REMARK  8 active torsions:
REMARK  status: ('A' for Active; 'I' for Inactive)
REMARK    1  A    between atoms: C2_2  and  C3_3 
REMARK    2  A    between atoms: C2_2  and  C27_30 
REMARK    3  A    between atoms: C3_3  and  C4_4 
REMARK    4  A    between atoms: C4_4  and  C5_5 
REMARK    5  A    between atoms: C5_5  and  C7_7 
REMARK    6  A    between atoms: C26_28  and  O3_29 
REMARK    7  A    between atoms: C27_30  and  C29_32 
REMARK    8  A    between atoms: C29_32  and  O5_34 
ROOT
HETATM    1  C7  UNL     1       3.325  56.558  -9.023  1.00  0.00    -0.002 C 
HETATM    2  C8  UNL     1       4.167  56.130 -10.255  1.00  0.00     0.006 C 
HETATM    3  C9  UNL     1       3.323  55.109 -11.026  1.00  0.00     0.010 C 
HETATM    4  C10 UNL     1       1.928  55.217 -10.403  1.00  0.00     0.027 C 
HETATM    5  C11 UNL     1       0.835  54.192 -10.653  1.00  0.00    -0.036 C 
HETATM    6  C12 UNL     1      -0.201  54.066  -9.783  1.00  0.00     0.002 C 
HETATM    7  C13 UNL     1      -0.160  54.846  -8.480  1.00  0.00     0.157 C 
HETATM    8  O1  UNL     1      -1.030  54.690  -7.623  1.00  0.00    -0.293 OA
HETATM    9  C14 UNL     1       0.946  55.858  -8.236  1.00  0.00     0.093 C 
HETATM   10  C15 UNL     1       2.252  55.432  -8.900  1.00  0.00    -0.026 C 
HETATM   11  C16 UNL     1       2.789  54.151  -8.223  1.00  0.00     0.016 C 
HETATM   12  C17 UNL     1      -1.429  53.163 -10.046  1.00  0.00    -0.008 C 
HETATM   13  C18 UNL     1      -1.234  51.889  -9.182  1.00  0.00     0.021 C 
HETATM   14  C19 UNL     1      -2.774  53.856  -9.643  1.00  0.00     0.022 C 
HETATM   15  C20 UNL     1      -3.995  53.505 -10.492  1.00  0.00     0.080 C 
HETATM   16  C21 UNL     1      -3.904  52.119 -11.068  1.00  0.00     0.131 C 
HETATM   17  O2  UNL     1      -4.830  51.315 -10.961  1.00  0.00    -0.298 OA
HETATM   18  C22 UNL     1      -2.653  51.789 -11.867  1.00  0.00     0.056 C 
HETATM   19  C23 UNL     1      -3.030  51.726 -13.348  1.00  0.00     0.018 C 
HETATM   20  C24 UNL     1      -1.536  52.821 -11.575  1.00  0.00     0.012 C 
HETATM   21  C25 UNL     1      -0.189  52.361 -12.129  1.00  0.00     0.042 C 
HETATM   22  C26 UNL     1       0.889  53.430 -11.956  1.00  0.00     0.148 C 
ENDROOT
BRANCH   1  23
HETATM   23  C5  UNL     1       4.197  57.048  -7.833  1.00  0.00    -0.014 C 
HETATM   24  C6  UNL     1       5.549  56.341  -7.654  1.00  0.00     0.010 C 
BRANCH  23  25
HETATM   25  C4  UNL     1       3.472  57.063  -6.469  1.00  0.00     0.009 C 
BRANCH  25  26
HETATM   26  C3  UNL     1       2.895  58.406  -5.995  1.00  0.00     0.034 C 
BRANCH  26  27
HETATM   27  C2  UNL     1       2.952  58.642  -4.494  1.00  0.00    -0.075 C 
HETATM   28  C1  UNL     1       1.866  58.366  -3.747  1.00  0.00     0.015 C 
BRANCH  27  29
HETATM   29  C27 UNL     1       4.248  59.221  -3.926  1.00  0.00     0.107 C 
HETATM   30  C28 UNL     1       5.085  58.295  -3.036  1.00  0.00     0.026 C 
BRANCH  29  31
HETATM   31  C29 UNL     1       3.971  60.530  -3.196  1.00  0.00     0.147 C 
HETATM   32  O4  UNL     1       3.776  60.644  -1.993  1.00  0.00    -0.650 OA
BRANCH  31  33
HETATM   33  O5  UNL     1       4.000  61.624  -3.982  1.00  0.00    -0.776 OA
HETATM   34  H42 UNL     1       3.846  62.369  -3.363  1.00  0.00     0.167 HD
ENDBRANCH  31  33
ENDBRANCH  29  31
ENDBRANCH  27  29
ENDBRANCH  26  27
ENDBRANCH  25  26
ENDBRANCH  23  25
ENDBRANCH   1  23
BRANCH  22  35
HETATM   35  O3  UNL     1       2.134  52.752 -12.062  1.00  0.00    -0.391 OA
HETATM   36  H37 UNL     1       2.255  52.518 -12.999  1.00  0.00     0.210 HD
ENDBRANCH  22  35
TORSDOF 8
ENDMDL
