MODEL 1
REMARK minimizedAffinity -8.75634575
REMARK  10 active torsions:
REMARK  status: ('A' for Active; 'I' for Inactive)
REMARK    1  A    between atoms: C2_2  and  C3_3 
REMARK    2  A    between atoms: C3_3  and  N1_4 
REMARK    3  A    between atoms: N1_4  and  C4_5 
REMARK    4  A    between atoms: C9_12  and  C11_14 
REMARK    5  A    between atoms: C11_14  and  O1_15 
REMARK    6  A    between atoms: C12_16  and  O2_17 
REMARK    7  A    between atoms: C17_22  and  C18_23 
REMARK    8  A    between atoms: C18_23  and  C19_24 
REMARK       I    between atoms: C19_24  and  N3_26 
REMARK    9  A    between atoms: N3_26  and  C20_27 
REMARK   10  A    between atoms: C20_27  and  C22_29 
ROOT
HETATM    1  C4  UNL     1      -4.999  48.430 -25.907  1.00  0.00     0.145 A 
HETATM    2  N2  UNL     1      -4.368  48.602 -24.765  1.00  0.00    -0.339 N 
ATOM      3  H2  UNL     1      -4.759  48.386 -23.849  1.00  0.00     0.168 HD
HETATM    4  C5  UNL     1      -3.105  49.115 -24.977  1.00  0.00     0.030 A 
HETATM    5  C6  UNL     1      -2.775  49.310 -26.292  1.00  0.00     0.009 A 
HETATM    6  C7  UNL     1      -1.531  49.935 -26.797  1.00  0.00     0.054 C 
HETATM    7  C8  UNL     1      -0.584  50.533 -25.685  1.00  0.00     0.012 C 
HETATM    8  C9  UNL     1       0.182  51.803 -26.282  1.00  0.00     0.008 C 
HETATM    9  C10 UNL     1       0.648  51.542 -27.750  1.00  0.00     0.020 C 
HETATM   10  C12 UNL     1      -0.807  53.009 -26.297  1.00  0.00     0.128 C 
HETATM   11  C13 UNL     1      -1.469  53.272 -24.948  1.00  0.00     0.033 C 
HETATM   12  C14 UNL     1      -2.213  52.048 -24.394  1.00  0.00     0.013 C 
HETATM   13  C15 UNL     1      -1.322  50.779 -24.272  1.00  0.00    -0.030 C 
HETATM   14  C16 UNL     1      -0.320  51.018 -23.113  1.00  0.00     0.016 C 
HETATM   15  C17 UNL     1      -2.158  49.464 -23.870  1.00  0.00     0.054 C 
HETATM   16  S1  UNL     1      -4.053  48.818 -27.299  1.00  0.00    -0.057 SA
ENDROOT
BRANCH  15  17
HETATM   17  C18 UNL     1      -2.863  49.492 -22.491  1.00  0.00     0.114 C 
BRANCH  17  18
HETATM   18  C19 UNL     1      -2.055  48.812 -21.395  1.00  0.00     0.218 C 
HETATM   19  O3  UNL     1      -1.500  47.725 -21.523  1.00  0.00    -0.274 OA
HETATM   20  N3  UNL     1      -1.999  49.548 -20.232  1.00  0.00    -0.353 N 
HETATM   21  H28 UNL     1      -2.582  50.370 -20.139  1.00  0.00     0.163 HD
BRANCH  20  22
HETATM   22  C20 UNL     1      -1.315  49.058 -19.046  1.00  0.00     0.113 C 
HETATM   23  C21 UNL     1      -2.297  48.393 -18.075  1.00  0.00     0.037 C 
BRANCH  22  24
HETATM   24  C22 UNL     1      -0.512  50.194 -18.434  1.00  0.00    -0.036 A 
HETATM   25  C23 UNL     1       0.056  50.022 -17.160  1.00  0.00     0.009 A 
HETATM   26  C24 UNL     1       0.829  51.029 -16.582  1.00  0.00     0.001 A 
HETATM   27  C25 UNL     1       1.052  52.217 -17.270  1.00  0.00     0.000 A 
HETATM   28  C26 UNL     1       0.500  52.400 -18.536  1.00  0.00     0.001 A 
HETATM   29  C27 UNL     1      -0.271  51.393 -19.119  1.00  0.00     0.009 A 
ENDBRANCH  22  24
ENDBRANCH  20  22
ENDBRANCH  17  18
ENDBRANCH  15  17
BRANCH   1  30
HETATM   30  N1  UNL     1      -6.284  48.015 -25.931  1.00  0.00    -0.367 N 
HETATM   31  H6  UNL     1      -6.623  47.649 -25.046  1.00  0.00     0.161 HD
BRANCH  30  32
HETATM   32  C3  UNL     1      -6.927  47.487 -27.104  1.00  0.00     0.148 C 
BRANCH  32  33
HETATM   33  C2  UNL     1      -5.945  47.632 -28.226  1.00  0.00    -0.018 C 
HETATM   34  C1  UNL     1      -6.083  47.108 -29.453  1.00  0.00     0.008 C 
ENDBRANCH  32  33
ENDBRANCH  30  32
ENDBRANCH   1  30
BRANCH   8  35
HETATM   35  C11 UNL     1       1.506  52.098 -25.518  1.00  0.00     0.176 C 
BRANCH  35  36
HETATM   36  O1  UNL     1       2.626  52.140 -26.409  1.00  0.00    -0.400 OA
HETATM   37  H15 UNL     1       3.420  52.303 -25.865  1.00  0.00     0.209 HD
ENDBRANCH  35  36
ENDBRANCH   8  35
BRANCH  10  38
HETATM   38  O2  UNL     1      -0.197  54.215 -26.760  1.00  0.00    -0.395 OA
HETATM   39  H17 UNL     1       0.710  54.229 -26.389  1.00  0.00     0.210 HD
ENDBRANCH  10  38
TORSDOF 10
ENDMDL
