MODEL 1
REMARK minimizedAffinity -9.1997757
REMARK  5 active torsions:
REMARK  status: ('A' for Active; 'I' for Inactive)
REMARK    1  A    between atoms: C2_2  and  C3_3 
REMARK    2  A    between atoms: C8_8  and  C9_9 
REMARK    3  A    between atoms: C9_9  and  C11_11 
REMARK    4  A    between atoms: C11_11  and  C12_12 
REMARK    5  A    between atoms: C12_12  and  C13_13 
ROOT
HETATM    1  C3  UNL     1      -2.479  51.231 -22.128  1.00  0.00    -0.032 C 
HETATM    2  C4  UNL     1      -1.611  52.012 -21.064  1.00  0.00     0.011 C 
HETATM    3  C5  UNL     1      -0.793  51.153 -20.075  1.00  0.00     0.011 C 
HETATM    4  C6  UNL     1      -1.691  50.127 -19.372  1.00  0.00    -0.032 C 
HETATM    5  C7  UNL     1      -2.770  50.918 -18.566  1.00  0.00     0.016 C 
HETATM    6  C8  UNL     1      -1.003  49.095 -18.433  1.00  0.00    -0.002 C 
HETATM    7  C17 UNL     1      -2.060  47.959 -18.345  1.00  0.00     0.006 C 
HETATM    8  C18 UNL     1      -3.021  48.150 -19.555  1.00  0.00     0.011 C 
HETATM    9  C19 UNL     1      -2.290  49.158 -20.474  1.00  0.00    -0.032 C 
HETATM   10  C20 UNL     1      -1.233  48.291 -21.236  1.00  0.00     0.016 C 
HETATM   11  C21 UNL     1      -3.184  49.984 -21.461  1.00  0.00     0.003 C 
HETATM   12  C22 UNL     1      -3.975  49.163 -22.478  1.00  0.00     0.006 C 
HETATM   13  C23 UNL     1      -3.340  48.873 -23.828  1.00  0.00     0.006 C 
HETATM   14  C24 UNL     1      -2.121  49.692 -24.305  1.00  0.00     0.005 C 
HETATM   15  C25 UNL     1      -1.555  50.776 -23.328  1.00  0.00    -0.000 C 
HETATM   16  C26 UNL     1      -0.837  51.915 -24.091  1.00  0.00     0.013 C 
HETATM   17  C27 UNL     1      -0.011  51.370 -25.244  1.00  0.00     0.079 C 
HETATM   18  C28 UNL     1      -0.911  50.771 -26.292  1.00  0.00     0.135 C 
HETATM   19  O1  UNL     1      -0.590  50.829 -27.480  1.00  0.00    -0.297 OA
HETATM   20  C29 UNL     1      -2.210  50.091 -25.830  1.00  0.00     0.017 C 
HETATM   21  C30 UNL     1      -2.378  48.820 -26.699  1.00  0.00     0.023 C 
HETATM   22  C31 UNL     1      -3.362  51.054 -26.156  1.00  0.00     0.023 C 
ENDROOT
BRANCH   6  23
HETATM   23  C9  UNL     1      -0.272  49.521 -17.128  1.00  0.00    -0.014 C 
HETATM   24  C10 UNL     1      -0.619  48.528 -16.002  1.00  0.00     0.010 C 
BRANCH  23  25
HETATM   25  C11 UNL     1      -0.301  50.976 -16.604  1.00  0.00     0.008 C 
BRANCH  25  26
HETATM   26  C12 UNL     1       0.666  51.458 -15.517  1.00  0.00     0.028 C 
BRANCH  26  27
HETATM   27  C13 UNL     1       1.927  52.105 -16.013  1.00  0.00    -0.025 C 
HETATM   28  C14 UNL     1       3.174  51.934 -15.535  1.00  0.00    -0.091 C 
HETATM   29  C15 UNL     1       3.534  51.067 -14.360  1.00  0.00     0.042 C 
HETATM   30  C16 UNL     1       4.343  52.644 -16.165  1.00  0.00     0.042 C 
ENDBRANCH  26  27
ENDBRANCH  25  26
ENDBRANCH  23  25
ENDBRANCH   6  23
BRANCH   1  31
HETATM   31  C2  UNL     1      -3.555  52.230 -22.697  1.00  0.00     0.006 C 
HETATM   32  C1  UNL     1      -4.031  52.029 -24.136  1.00  0.00     0.006 C 
ENDBRANCH   1  31
TORSDOF 5
ENDMDL
