MODEL 1
REMARK minimizedAffinity -8.72021389
REMARK  10 active torsions:
REMARK  status: ('A' for Active; 'I' for Inactive)
REMARK    1  A    between atoms: N1_2  and  C2_3 
REMARK    2  A    between atoms: C2_3  and  C3_4 
REMARK    3  A    between atoms: C3_4  and  O1_5 
REMARK    4  A    between atoms: O1_5  and  C4_6 
REMARK    5  A    between atoms: C4_6  and  C5_8 
REMARK    6  A    between atoms: C17_21  and  O4_22 
REMARK    7  A    between atoms: O4_22  and  C18_23 
REMARK    8  A    between atoms: C18_23  and  C19_25 
REMARK    9  A    between atoms: C19_25  and  C20_26 
REMARK   10  A    between atoms: C20_26  and  O6_29 
ROOT
HETATM    1  C5  UNL     1      -6.503   6.196  14.688  1.00  0.00     0.085 C 
HETATM    2  C6  UNL     1      -5.374   6.288  13.953  1.00  0.00    -0.070 C 
HETATM    3  C7  UNL     1      -4.886   5.241  12.975  1.00  0.00     0.035 C 
HETATM    4  C8  UNL     1      -3.387   4.942  13.117  1.00  0.00     0.010 C 
HETATM    5  C9  UNL     1      -2.524   6.222  13.095  1.00  0.00     0.006 C 
HETATM    6  C10 UNL     1      -3.020   7.142  14.254  1.00  0.00     0.068 C 
HETATM    7  C11 UNL     1      -2.133   8.357  14.527  1.00  0.00     0.132 C 
HETATM    8  O3  UNL     1      -2.594   9.403  14.989  1.00  0.00    -0.298 OA
HETATM    9  C12 UNL     1      -0.633   8.205  14.368  1.00  0.00     0.085 C 
HETATM   10  C13 UNL     1      -0.328   7.430  13.084  1.00  0.00     0.011 C 
HETATM   11  C14 UNL     1       1.149   7.482  12.558  1.00  0.00    -0.016 C 
HETATM   12  C15 UNL     1       1.645   8.950  12.479  1.00  0.00     0.018 C 
HETATM   13  C16 UNL     1       2.145   6.758  13.490  1.00  0.00     0.018 C 
HETATM   14  C17 UNL     1       1.178   6.911  11.090  1.00  0.00     0.140 C 
HETATM   15  C23 UNL     1      -0.023   6.013  10.747  1.00  0.00     0.034 C 
HETATM   16  C24 UNL     1      -0.449   5.153  11.928  1.00  0.00     0.012 C 
HETATM   17  C25 UNL     1      -0.964   5.986  13.141  1.00  0.00    -0.035 C 
HETATM   18  C26 UNL     1      -0.614   5.180  14.418  1.00  0.00     0.016 C 
HETATM   19  C27 UNL     1      -4.505   7.537  14.069  1.00  0.00     0.022 C 
HETATM   20  C28 UNL     1      -4.769   8.453  12.864  1.00  0.00     0.015 C 
ENDROOT
BRANCH   1  21
HETATM   21  C4  UNL     1      -7.528   5.131  14.657  1.00  0.00     0.283 C 
HETATM   22  O2  UNL     1      -7.778   4.439  15.634  1.00  0.00    -0.260 OA
BRANCH  21  23
HETATM   23  O1  UNL     1      -8.203   5.152  13.488  1.00  0.00    -0.316 OA
BRANCH  23  24
HETATM   24  C3  UNL     1      -8.495   3.856  12.950  1.00  0.00     0.209 C 
BRANCH  24  25
HETATM   25  C2  UNL     1      -7.375   2.872  13.330  1.00  0.00     0.295 C 
BRANCH  25  26
HETATM   26  N1  UNL     1      -7.277   1.682  12.472  1.00  0.00     0.081 N 
HETATM   27  C1  UNL     1      -6.239   1.797  11.456  1.00  0.00     0.306 C 
HETATM   28  H4  UNL     1      -8.176   1.510  12.017  1.00  0.00     0.315 HD
ENDBRANCH  25  26
ENDBRANCH  24  25
ENDBRANCH  23  24
ENDBRANCH  21  23
ENDBRANCH   1  21
BRANCH  14  29
HETATM   29  O4  UNL     1       2.394   6.159  10.893  1.00  0.00    -0.315 OA
BRANCH  29  30
HETATM   30  C18 UNL     1       2.926   6.163   9.638  1.00  0.00     0.262 C 
HETATM   31  O5  UNL     1       3.124   5.171   8.952  1.00  0.00    -0.265 OA
BRANCH  30  32
HETATM   32  C19 UNL     1       3.242   7.574   9.212  1.00  0.00     0.148 C 
BRANCH  32  33
HETATM   33  C20 UNL     1       2.464   8.019   7.970  1.00  0.00     0.059 C 
HETATM   34  C21 UNL     1       1.091   8.544   8.411  1.00  0.00     0.045 C 
HETATM   35  C22 UNL     1       2.271   6.899   6.941  1.00  0.00     0.045 C 
BRANCH  33  36
HETATM   36  O6  UNL     1       3.143   9.123   7.361  1.00  0.00    -0.390 OA
HETATM   37  H34 UNL     1       3.711   8.779   6.639  1.00  0.00     0.210 HD
ENDBRANCH  33  36
ENDBRANCH  32  33
ENDBRANCH  30  32
ENDBRANCH  29  30
ENDBRANCH  14  29
TORSDOF 10
ENDMDL
