MODEL 1
REMARK minimizedAffinity -9.91405964
REMARK CNNscore 0.713421226
REMARK CNNaffinity 7.55797148
REMARK  4 active torsions:
REMARK  status: ('A' for Active; 'I' for Inactive)
REMARK    1  A    between atoms: C2_2  and  C3_3 
REMARK    2  A    between atoms: C6_6  and  C7_7 
REMARK    3  A    between atoms: C7_7  and  O1_9 
REMARK    4  A    between atoms: C23_29  and  O6_30 
ROOT
HETATM    1  C3  UNL     1      -4.031  47.615 -21.026  1.00  0.00     0.008 C 
HETATM    2  C4  UNL     1      -4.983  48.782 -20.943  1.00  0.00    -0.023 C 
HETATM    3  C5  UNL     1      -5.444  49.590 -21.915  1.00  0.00     0.004 C 
HETATM    4  C6  UNL     1      -5.241  49.598 -23.411  1.00  0.00     0.182 C 
HETATM    5  O2  UNL     1      -3.866  49.870 -23.766  1.00  0.00    -0.308 OA
HETATM    6  C9  UNL     1      -3.434  51.154 -23.610  1.00  0.00     0.276 C 
HETATM    7  O3  UNL     1      -4.112  52.066 -23.143  1.00  0.00    -0.264 OA
HETATM    8  C10 UNL     1      -1.974  51.358 -24.132  1.00  0.00     0.095 C 
HETATM    9  C11 UNL     1      -1.411  50.110 -24.846  1.00  0.00     0.036 C 
HETATM   10  C12 UNL     1      -2.146  52.412 -25.210  1.00  0.00     0.003 C 
HETATM   11  C13 UNL     1      -1.358  53.423 -25.586  1.00  0.00     0.072 C 
HETATM   12  C14 UNL     1      -0.042  53.821 -25.077  1.00  0.00     0.245 C 
HETATM   13  O4  UNL     1       0.642  54.585 -25.759  1.00  0.00    -0.268 OA
HETATM   14  N1  UNL     1       0.401  53.426 -23.866  1.00  0.00    -0.320 N 
HETATM   15  C15 UNL     1      -0.073  52.608 -22.873  1.00  0.00     0.098 C 
HETATM   16  C16 UNL     1      -1.089  51.732 -22.944  1.00  0.00     0.045 C 
HETATM   17  C17 UNL     1      -1.329  50.882 -21.734  1.00  0.00     0.194 C 
HETATM   18  O5  UNL     1      -1.861  49.790 -21.847  1.00  0.00    -0.287 OA
HETATM   19  C18 UNL     1      -0.839  51.290 -20.419  1.00  0.00     0.046 A 
HETATM   20  C19 UNL     1       0.263  52.128 -20.378  1.00  0.00     0.032 A 
HETATM   21  C20 UNL     1       0.883  52.427 -19.157  1.00  0.00     0.026 A 
HETATM   22  C21 UNL     1       0.372  51.918 -17.956  1.00  0.00    -0.027 A 
HETATM   23  C22 UNL     1       1.017  52.283 -16.649  1.00  0.00     0.051 C 
HETATM   24  C23 UNL     1      -0.794  51.144 -17.999  1.00  0.00     0.086 A 
HETATM   25  C24 UNL     1      -1.381  50.794 -19.224  1.00  0.00     0.059 A 
HETATM   26  C25 UNL     1      -2.689  50.112 -19.197  1.00  0.00     0.163 C 
HETATM   27  O7  UNL     1      -3.671  50.849 -19.248  1.00  0.00    -0.292 OA
HETATM   28  C26 UNL     1      -2.772  48.623 -18.892  1.00  0.00     0.084 C 
HETATM   29  C27 UNL     1      -2.789  47.663 -20.082  1.00  0.00     0.016 C 
HETATM   30  C28 UNL     1       0.763  52.724 -21.623  1.00  0.00     0.210 C 
HETATM   31  O8  UNL     1       1.821  53.348 -21.639  1.00  0.00    -0.285 OA
HETATM   32  H20 UNL     1       1.275  53.902 -23.629  1.00  0.00     0.169 HD
ENDROOT
BRANCH   4  33
HETATM   33  C7  UNL     1      -5.650  48.290 -24.131  1.00  0.00     0.147 C 
HETATM   34  C8  UNL     1      -7.075  47.852 -23.818  1.00  0.00     0.042 C 
BRANCH  33  35
HETATM   35  O1  UNL     1      -5.565  48.482 -25.553  1.00  0.00    -0.393 OA
HETATM   36  H14 UNL     1      -4.649  48.764 -25.728  1.00  0.00     0.210 HD
ENDBRANCH  33  35
ENDBRANCH   4  33
BRANCH   1  37
HETATM   37  C2  UNL     1      -4.807  46.285 -20.855  1.00  0.00     0.004 C 
HETATM   38  C1  UNL     1      -3.982  45.112 -20.340  1.00  0.00     0.006 C 
ENDBRANCH   1  37
BRANCH  24  39
HETATM   39  O6  UNL     1      -1.353  50.782 -16.801  1.00  0.00    -0.359 OA
HETATM   40  H25 UNL     1      -2.325  50.846 -16.872  1.00  0.00     0.217 HD
ENDBRANCH  24  39
TORSDOF 4
ENDMDL
