MODEL 1
REMARK minimizedAffinity -7.25588894
REMARK CNNscore 0.4294523
REMARK CNNaffinity 5.76947451
REMARK  6 active torsions:
REMARK  status: ('A' for Active; 'I' for Inactive)
REMARK    1  A    between atoms: C2_2  and  C30_31 
REMARK    2  A    between atoms: C3_3  and  C4_4 
REMARK    3  A    between atoms: C4_4  and  C5_5 
REMARK    4  A    between atoms: C5_5  and  C6_6 
REMARK    5  A    between atoms: C6_6  and  C8_8 
REMARK    6  A    between atoms: C30_31  and  O3_33 
ROOT
HETATM    1  C8  UNL     1     -13.800  45.841 -25.891  1.00  0.00    -0.002 C 
HETATM    2  C9  UNL     1     -13.324  44.389 -25.619  1.00  0.00     0.007 C 
HETATM    3  C10 UNL     1     -12.176  44.097 -26.616  1.00  0.00     0.015 C 
HETATM    4  C11 UNL     1     -12.194  45.282 -27.608  1.00  0.00    -0.013 C 
HETATM    5  C12 UNL     1     -13.263  44.923 -28.692  1.00  0.00     0.021 C 
HETATM    6  C13 UNL     1     -10.922  45.616 -28.378  1.00  0.00    -0.070 C 
HETATM    7  C14 UNL     1     -10.059  44.664 -28.781  1.00  0.00    -0.022 C 
HETATM    8  C15 UNL     1      -8.868  44.915 -29.657  1.00  0.00     0.034 C 
HETATM    9  C16 UNL     1      -8.539  46.409 -29.871  1.00  0.00     0.013 C 
HETATM   10  C17 UNL     1      -7.373  46.702 -30.893  1.00  0.00     0.018 C 
HETATM   11  C18 UNL     1      -6.135  47.212 -30.121  1.00  0.00     0.023 C 
HETATM   12  C19 UNL     1      -6.931  45.457 -31.693  1.00  0.00     0.023 C 
HETATM   13  C20 UNL     1      -7.725  47.806 -31.902  1.00  0.00     0.135 C 
HETATM   14  O1  UNL     1      -7.285  47.795 -33.056  1.00  0.00    -0.297 OA
HETATM   15  C21 UNL     1      -8.542  48.991 -31.449  1.00  0.00     0.080 C 
HETATM   16  C22 UNL     1      -9.415  48.726 -30.234  1.00  0.00     0.017 C 
HETATM   17  C23 UNL     1      -9.848  47.251 -30.073  1.00  0.00    -0.031 C 
HETATM   18  C24 UNL     1     -10.657  46.793 -31.311  1.00  0.00     0.016 C 
HETATM   19  C25 UNL     1     -10.708  47.088 -28.754  1.00  0.00     0.024 C 
HETATM   20  C26 UNL     1     -12.017  47.916 -28.726  1.00  0.00     0.010 C 
HETATM   21  C27 UNL     1     -12.918  47.715 -27.482  1.00  0.00     0.011 C 
HETATM   22  C28 UNL     1     -12.585  46.461 -26.653  1.00  0.00    -0.029 C 
HETATM   23  C29 UNL     1     -11.474  46.825 -25.618  1.00  0.00     0.016 C 
ENDROOT
BRANCH   1  24
HETATM   24  C6  UNL     1     -14.384  46.655 -24.698  1.00  0.00    -0.014 C 
HETATM   25  C7  UNL     1     -14.028  46.146 -23.298  1.00  0.00     0.010 C 
BRANCH  24  26
HETATM   26  C5  UNL     1     -15.916  46.881 -24.845  1.00  0.00     0.008 C 
BRANCH  26  27
HETATM   27  C4  UNL     1     -16.812  46.509 -23.653  1.00  0.00     0.028 C 
BRANCH  27  28
HETATM   28  C3  UNL     1     -17.462  45.160 -23.796  1.00  0.00    -0.013 C 
HETATM   29  C2  UNL     1     -18.487  44.802 -24.594  1.00  0.00     0.008 C 
HETATM   30  C1  UNL     1     -18.999  43.392 -24.644  1.00  0.00     0.055 C 
BRANCH  29  31
HETATM   31  C30 UNL     1     -19.191  45.782 -25.452  1.00  0.00     0.171 C 
HETATM   32  O2  UNL     1     -19.946  46.666 -25.096  1.00  0.00    -0.646 OA
BRANCH  31  33
HETATM   33  O3  UNL     1     -18.904  45.584 -26.751  1.00  0.00    -0.773 OA
HETATM   34  H46 UNL     1     -19.416  46.283 -27.209  1.00  0.00     0.167 HD
ENDBRANCH  31  33
ENDBRANCH  29  31
ENDBRANCH  27  28
ENDBRANCH  26  27
ENDBRANCH  24  26
ENDBRANCH   1  24
TORSDOF 6
ENDMDL
