MODEL 1
REMARK minimizedAffinity -8.20780468
REMARK  6 active torsions:
REMARK  status: ('A' for Active; 'I' for Inactive)
REMARK    1  A    between atoms: C2_2  and  C3_3 
REMARK    2  A    between atoms: C2_2  and  C9_10 
REMARK    3  A    between atoms: C3_3  and  C4_4 
REMARK    4  A    between atoms: C4_4  and  C5_5 
REMARK    5  A    between atoms: C17_18  and  C18_19 
REMARK    6  A    between atoms: C18_19  and  O2_22 
ROOT
HETATM    1  C9  UNL     1      -2.496   8.721  15.246  1.00  0.00    -0.002 C 
HETATM    2  C10 UNL     1      -1.537   8.077  16.298  1.00  0.00     0.006 C 
HETATM    3  C11 UNL     1      -0.375   7.421  15.515  1.00  0.00     0.011 C 
HETATM    4  C12 UNL     1      -0.876   7.368  14.061  1.00  0.00    -0.032 C 
HETATM    5  C13 UNL     1      -1.832   6.128  13.994  1.00  0.00     0.016 C 
HETATM    6  C14 UNL     1       0.228   7.287  12.964  1.00  0.00     0.003 C 
HETATM    7  C15 UNL     1       1.189   6.090  13.072  1.00  0.00     0.009 C 
HETATM    8  C16 UNL     1       1.925   5.778  11.766  1.00  0.00     0.042 C 
HETATM    9  C17 UNL     1       2.251   6.970  10.810  1.00  0.00     0.095 C 
HETATM   10  O3  UNL     1       2.562   6.284   9.575  1.00  0.00    -0.377 OA
HETATM   11  C21 UNL     1       2.736   7.041   8.388  1.00  0.00     0.169 C 
HETATM   12  C22 UNL     1       1.805   8.231   8.245  1.00  0.00     0.027 C 
HETATM   13  C23 UNL     1       0.585   8.089   9.128  1.00  0.00     0.010 C 
HETATM   14  C24 UNL     1       0.959   7.869  10.613  1.00  0.00     0.032 C 
HETATM   15  C25 UNL     1      -0.311   7.477  11.501  1.00  0.00    -0.033 C 
HETATM   16  C26 UNL     1      -1.011   6.193  10.962  1.00  0.00     0.016 C 
HETATM   17  C27 UNL     1      -1.349   8.658  11.421  1.00  0.00     0.011 C 
HETATM   18  C28 UNL     1      -2.340   8.801  12.596  1.00  0.00     0.011 C 
HETATM   19  C29 UNL     1      -1.620   8.762  13.956  1.00  0.00    -0.032 C 
HETATM   20  C30 UNL     1      -0.678  10.003  14.024  1.00  0.00     0.016 C 
ENDROOT
BRANCH   1  21
HETATM   21  C2  UNL     1      -3.296   9.949  15.785  1.00  0.00    -0.014 C 
HETATM   22  C1  UNL     1      -2.793  11.333  15.358  1.00  0.00     0.010 C 
BRANCH  21  23
HETATM   23  C3  UNL     1      -4.811   9.789  15.512  1.00  0.00     0.007 C 
BRANCH  23  24
HETATM   24  C4  UNL     1      -5.206   8.532  14.726  1.00  0.00     0.035 C 
BRANCH  24  25
HETATM   25  C5  UNL     1      -6.275   7.717  15.384  1.00  0.00     0.156 A 
HETATM   26  O1  UNL     1      -7.430   7.509  14.549  1.00  0.00    -0.370 OA
HETATM   27  C6  UNL     1      -6.707   6.330  14.919  1.00  0.00     0.080 A 
HETATM   28  C7  UNL     1      -6.045   5.642  13.765  1.00  0.00     0.048 C 
HETATM   29  C8  UNL     1      -7.435   5.451  15.889  1.00  0.00     0.048 C 
ENDBRANCH  24  25
ENDBRANCH  23  24
ENDBRANCH  21  23
ENDBRANCH   1  21
BRANCH   9  30
HETATM   30  C18 UNL     1       3.542   7.763  11.367  1.00  0.00     0.082 C 
HETATM   31  C19 UNL     1       4.547   8.106  10.244  1.00  0.00     0.049 C 
HETATM   32  C20 UNL     1       3.267   9.078  12.115  1.00  0.00     0.049 C 
BRANCH  30  33
HETATM   33  O2  UNL     1       4.234   6.964  12.342  1.00  0.00    -0.388 OA
HETATM   34  H35 UNL     1       4.880   6.405  11.875  1.00  0.00     0.210 HD
ENDBRANCH  30  33
ENDBRANCH   9  30
TORSDOF 6
ENDMDL
