MODEL 1
REMARK minimizedAffinity -8.66643429
REMARK CNNscore 0.51503855
REMARK CNNaffinity 7.41273546
REMARK  10 active torsions:
REMARK  status: ('A' for Active; 'I' for Inactive)
REMARK    1  A    between atoms: C3_3  and  O1_4 
REMARK    2  A    between atoms: N1_14  and  O2_16 
REMARK    3  A    between atoms: O2_16  and  C13_17 
REMARK    4  A    between atoms: C13_17  and  C14_18 
REMARK       I    between atoms: C14_18  and  N2_20 
REMARK    5  A    between atoms: N2_20  and  C15_21 
REMARK    6  A    between atoms: C15_21  and  C16_22 
REMARK    7  A    between atoms: C15_21  and  C19_29 
REMARK       I    between atoms: C16_22  and  N3_24 
REMARK    8  A    between atoms: N3_24  and  C17_25 
REMARK    9  A    between atoms: C17_25  and  C18_26 
REMARK   10  A    between atoms: C18_26  and  O6_28 
ROOT
HETATM    1  C1  UNL     1       2.698   6.122   7.746  1.00  0.00     0.015 C 
HETATM    2  C2  UNL     1       2.501   6.470   8.880  1.00  0.00    -0.078 C 
HETATM    3  C3  UNL     1       2.283   6.850  10.287  1.00  0.00     0.128 C 
HETATM    4  C4  UNL     1       3.260   7.939  10.742  1.00  0.00     0.052 C 
HETATM    5  C5  UNL     1       2.637   8.413  12.053  1.00  0.00     0.010 C 
HETATM    6  C6  UNL     1       1.149   8.530  11.713  1.00  0.00     0.002 C 
HETATM    7  C7  UNL     1       0.170   8.570  12.914  1.00  0.00    -0.004 C 
HETATM    8  C8  UNL     1       0.491   7.644  14.099  1.00  0.00     0.010 C 
HETATM    9  C9  UNL     1      -0.514   7.801  15.241  1.00  0.00     0.035 C 
HETATM   10  C10 UNL     1      -1.962   7.730  14.804  1.00  0.00    -0.069 C 
HETATM   11  C11 UNL     1      -2.842   7.004  15.515  1.00  0.00     0.030 C 
HETATM   12  C12 UNL     1      -4.299   7.021  15.218  1.00  0.00     0.032 C 
HETATM   13  N1  UNL     1      -5.076   6.243  15.916  1.00  0.00    -0.271 N 
ATOM     14  H1  UNL     1      -4.759   5.626  16.664  1.00  0.00     0.194 HD
HETATM   15  C22 UNL     1      -4.792   8.013  14.179  1.00  0.00     0.060 C 
HETATM   16  C23 UNL     1      -3.768   8.169  13.065  1.00  0.00     0.020 C 
HETATM   17  C24 UNL     1      -2.347   8.552  13.576  1.00  0.00    -0.016 C 
HETATM   18  C25 UNL     1      -2.385  10.046  13.990  1.00  0.00     0.020 C 
HETATM   19  C26 UNL     1      -1.283   8.345  12.431  1.00  0.00     0.002 C 
HETATM   20  C27 UNL     1      -1.418   6.982  11.703  1.00  0.00     0.007 C 
HETATM   21  C28 UNL     1      -0.138   6.406  11.093  1.00  0.00     0.014 C 
HETATM   22  C29 UNL     1       0.866   7.460  10.604  1.00  0.00     0.003 C 
HETATM   23  C30 UNL     1       0.265   8.188   9.369  1.00  0.00     0.020 C 
ENDROOT
BRANCH   3  24
HETATM   24  O1  UNL     1       2.536   5.704  11.107  1.00  0.00    -0.377 OA
HETATM   25  H2  UNL     1       3.184   5.155  10.636  1.00  0.00     0.211 HD
ENDBRANCH   3  24
BRANCH  13  26
HETATM   26  O2  UNL     1      -6.407   6.369  15.498  1.00  0.00    -0.271 OA
BRANCH  26  27
HETATM   27  C13 UNL     1      -7.185   6.931  16.549  1.00  0.00     0.303 C 
BRANCH  27  28
HETATM   28  C14 UNL     1      -8.349   7.670  15.901  1.00  0.00     0.244 C 
HETATM   29  O3  UNL     1      -8.247   8.792  15.412  1.00  0.00    -0.271 OA
HETATM   30  N2  UNL     1      -9.537   6.968  15.855  1.00  0.00    -0.346 N 
HETATM   31  H16 UNL     1      -9.490   5.960  15.940  1.00  0.00     0.163 HD
BRANCH  30  32
HETATM   32  C15 UNL     1     -10.727   7.519  15.185  1.00  0.00     0.180 C 
BRANCH  32  33
HETATM   33  C16 UNL     1     -10.990   8.947  15.749  1.00  0.00     0.241 C 
HETATM   34  O4  UNL     1     -11.198   9.932  15.045  1.00  0.00    -0.271 OA
HETATM   35  N3  UNL     1     -11.024   8.999  17.128  1.00  0.00    -0.349 N 
HETATM   36  H18 UNL     1     -11.122   8.104  17.611  1.00  0.00     0.163 HD
BRANCH  35  37
HETATM   37  C17 UNL     1     -11.460  10.182  17.844  1.00  0.00     0.232 C 
BRANCH  37  38
HETATM   38  C18 UNL     1     -11.876   9.892  19.284  1.00  0.00     0.158 C 
HETATM   39  O5  UNL     1     -12.378  10.698  20.056  1.00  0.00    -0.649 OA
BRANCH  38  40
HETATM   40  O6  UNL     1     -11.573   8.645  19.715  1.00  0.00    -0.775 OA
HETATM   41  H21 UNL     1     -11.865   8.647  20.653  1.00  0.00     0.167 HD
ENDBRANCH  38  40
ENDBRANCH  37  38
ENDBRANCH  35  37
ENDBRANCH  32  33
BRANCH  32  42
HETATM   42  C19 UNL     1     -10.562   7.500  13.645  1.00  0.00     0.009 C 
HETATM   43  C20 UNL     1     -11.923   7.398  12.940  1.00  0.00     0.012 C 
HETATM   44  C21 UNL     1      -9.693   6.322  13.180  1.00  0.00     0.012 C 
ENDBRANCH  32  42
ENDBRANCH  30  32
ENDBRANCH  27  28
ENDBRANCH  26  27
ENDBRANCH  13  26
TORSDOF 10
ENDMDL
