MODEL 1
REMARK minimizedAffinity -8.39162731
REMARK CNNscore 0.554113626
REMARK CNNaffinity 5.75329208
REMARK  13 active torsions:
REMARK  status: ('A' for Active; 'I' for Inactive)
REMARK    1  A    between atoms: C3_3  and  O1_4 
REMARK    2  A    between atoms: N1_14  and  O2_16 
REMARK    3  A    between atoms: O2_16  and  C13_17 
REMARK    4  A    between atoms: C13_17  and  C14_18 
REMARK       I    between atoms: C14_18  and  N2_20 
REMARK    5  A    between atoms: N2_20  and  C15_21 
REMARK    6  A    between atoms: C15_21  and  C16_22 
REMARK    7  A    between atoms: C15_21  and  C21_33 
REMARK       I    between atoms: C16_22  and  N3_24 
REMARK    8  A    between atoms: N3_24  and  C17_25 
REMARK    9  A    between atoms: C17_25  and  C18_26 
REMARK   10  A    between atoms: C17_25  and  C20_30 
REMARK   11  A    between atoms: C18_26  and  C19_27 
REMARK   12  A    between atoms: C19_27  and  O6_29 
REMARK   13  A    between atoms: C20_30  and  O8_32 
ROOT
HETATM    1  C1  UNL     1      -5.112  73.188 -41.350  1.00  0.00     0.015 C 
HETATM    2  C2  UNL     1      -4.125  72.550 -41.096  1.00  0.00    -0.078 C 
HETATM    3  C3  UNL     1      -2.901  71.789 -40.795  1.00  0.00     0.128 C 
HETATM    4  C4  UNL     1      -3.089  70.893 -39.560  1.00  0.00     0.052 C 
HETATM    5  C5  UNL     1      -1.934  69.908 -39.674  1.00  0.00     0.010 C 
HETATM    6  C6  UNL     1      -1.983  69.501 -41.148  1.00  0.00     0.002 C 
HETATM    7  C7  UNL     1      -0.726  68.803 -41.709  1.00  0.00    -0.004 C 
HETATM    8  C8  UNL     1      -0.380  67.506 -40.963  1.00  0.00     0.010 C 
HETATM    9  C9  UNL     1       1.035  67.044 -41.270  1.00  0.00     0.035 C 
HETATM   10  C10 UNL     1       1.962  68.068 -40.687  1.00  0.00    -0.069 C 
HETATM   11  C11 UNL     1       2.772  67.749 -39.658  1.00  0.00     0.030 C 
HETATM   12  C12 UNL     1       3.613  68.779 -38.980  1.00  0.00     0.032 C 
HETATM   13  N1  UNL     1       4.568  68.537 -38.132  1.00  0.00    -0.271 N 
ATOM     14  H1  UNL     1       5.121  69.262 -37.674  1.00  0.00     0.194 HD
HETATM   15  C24 UNL     1       3.354  70.238 -39.306  1.00  0.00     0.060 C 
HETATM   16  C25 UNL     1       2.058  70.470 -40.077  1.00  0.00     0.020 C 
HETATM   17  C26 UNL     1       1.854  69.482 -41.256  1.00  0.00    -0.016 C 
HETATM   18  C27 UNL     1       3.016  69.673 -42.277  1.00  0.00     0.020 C 
HETATM   19  C28 UNL     1       0.491  69.719 -42.035  1.00  0.00     0.002 C 
HETATM   20  C29 UNL     1       0.089  71.200 -42.189  1.00  0.00     0.007 C 
HETATM   21  C30 UNL     1      -1.293  71.348 -42.819  1.00  0.00     0.014 C 
HETATM   22  C31 UNL     1      -2.433  70.787 -41.929  1.00  0.00     0.003 C 
HETATM   23  C32 UNL     1      -3.595  70.379 -42.867  1.00  0.00     0.020 C 
ENDROOT
BRANCH   3  24
HETATM   24  O1  UNL     1      -1.881  72.750 -40.508  1.00  0.00    -0.377 OA
HETATM   25  H2  UNL     1      -1.956  72.996 -39.571  1.00  0.00     0.211 HD
ENDBRANCH   3  24
BRANCH  13  26
HETATM   26  O2  UNL     1       4.746  67.162 -37.921  1.00  0.00    -0.271 OA
BRANCH  26  27
HETATM   27  C13 UNL     1       5.956  66.959 -37.194  1.00  0.00     0.303 C 
BRANCH  27  28
HETATM   28  C14 UNL     1       5.985  65.514 -36.726  1.00  0.00     0.244 C 
HETATM   29  O3  UNL     1       6.491  64.607 -37.386  1.00  0.00    -0.271 OA
HETATM   30  N2  UNL     1       5.376  65.288 -35.503  1.00  0.00    -0.346 N 
HETATM   31  H16 UNL     1       5.423  66.070 -34.850  1.00  0.00     0.163 HD
BRANCH  30  32
HETATM   32  C15 UNL     1       5.487  63.968 -34.879  1.00  0.00     0.180 C 
BRANCH  32  33
HETATM   33  C16 UNL     1       6.903  63.875 -34.269  1.00  0.00     0.241 C 
HETATM   34  O4  UNL     1       7.378  64.766 -33.562  1.00  0.00    -0.271 OA
HETATM   35  N3  UNL     1       7.590  62.721 -34.552  1.00  0.00    -0.344 N 
HETATM   36  H18 UNL     1       7.218  62.066 -35.235  1.00  0.00     0.163 HD
BRANCH  35  37
HETATM   37  C17 UNL     1       9.005  62.557 -34.199  1.00  0.00     0.192 C 
BRANCH  37  38
HETATM   38  C18 UNL     1       9.225  61.567 -33.058  1.00  0.00     0.146 C 
BRANCH  38  39
HETATM   39  C19 UNL     1      10.454  61.845 -32.244  1.00  0.00     0.141 C 
HETATM   40  O5  UNL     1      10.724  61.346 -31.162  1.00  0.00    -0.650 OA
BRANCH  39  41
HETATM   41  O6  UNL     1      11.325  62.683 -32.838  1.00  0.00    -0.776 OA
HETATM   42  H22 UNL     1      12.076  62.730 -32.209  1.00  0.00     0.167 HD
ENDBRANCH  39  41
ENDBRANCH  38  39
ENDBRANCH  37  38
BRANCH  37  43
HETATM   43  C20 UNL     1       9.782  62.172 -35.458  1.00  0.00     0.164 C 
HETATM   44  O7  UNL     1      10.910  62.540 -35.755  1.00  0.00    -0.648 OA
BRANCH  43  45
HETATM   45  O8  UNL     1       9.105  61.327 -36.258  1.00  0.00    -0.775 OA
HETATM   46  H23 UNL     1       9.727  61.127 -36.992  1.00  0.00     0.167 HD
ENDBRANCH  43  45
ENDBRANCH  37  43
ENDBRANCH  35  37
ENDBRANCH  32  33
BRANCH  32  47
HETATM   47  C21 UNL     1       4.349  63.740 -33.866  1.00  0.00     0.009 C 
HETATM   48  C22 UNL     1       4.283  62.285 -33.401  1.00  0.00     0.012 C 
HETATM   49  C23 UNL     1       4.406  64.670 -32.653  1.00  0.00     0.012 C 
ENDBRANCH  32  47
ENDBRANCH  30  32
ENDBRANCH  27  28
ENDBRANCH  26  27
ENDBRANCH  13  26
TORSDOF 13
ENDMDL
