MODEL 1
REMARK minimizedAffinity -6.96783018
REMARK CNNscore 0.578994215
REMARK CNNaffinity 5.53828859
REMARK  9 active torsions:
REMARK  status: ('A' for Active; 'I' for Inactive)
REMARK    1  A    between atoms: C5_5  and  O1_6 
REMARK    2  A    between atoms: C8_9  and  C9_10 
REMARK    3  A    between atoms: C19_20  and  C20_21 
REMARK    4  A    between atoms: C20_21  and  C22_23 
REMARK    5  A    between atoms: C23_24  and  C24_25 
REMARK    6  A    between atoms: C24_25  and  O2_27 
REMARK    7  A    between atoms: C24_25  and  C26_28 
REMARK    8  A    between atoms: C26_28  and  C28_30 
REMARK    9  A    between atoms: C28_30  and  O3_31 
ROOT
HETATM    1  C9  UNL     1      -5.068 -10.774   5.966  1.00  0.00     0.004 C 
HETATM    2  C10 UNL     1      -4.592 -10.284   4.802  1.00  0.00    -0.075 C 
HETATM    3  C11 UNL     1      -3.273  -9.576   4.621  1.00  0.00     0.034 C 
HETATM    4  C12 UNL     1      -2.457 -10.239   3.517  1.00  0.00     0.005 C 
HETATM    5  C13 UNL     1      -3.210 -10.193   2.191  1.00  0.00     0.010 C 
HETATM    6  C14 UNL     1      -4.610 -10.865   2.241  1.00  0.00    -0.032 C 
HETATM    7  C15 UNL     1      -4.447 -12.398   2.262  1.00  0.00     0.016 C 
HETATM    8  C16 UNL     1      -5.406 -10.468   3.532  1.00  0.00     0.023 C 
HETATM    9  C17 UNL     1      -6.224  -9.253   3.114  1.00  0.00     0.010 C 
HETATM   10  C18 UNL     1      -6.737  -9.698   1.751  1.00  0.00     0.007 C 
HETATM   11  C19 UNL     1      -5.491 -10.283   1.054  1.00  0.00     0.002 C 
ENDROOT
BRANCH  11  12
HETATM   12  C20 UNL     1      -5.789 -11.201  -0.166  1.00  0.00     0.009 C 
HETATM   13  C21 UNL     1      -4.514 -11.447  -0.991  1.00  0.00     0.014 C 
BRANCH  12  14
HETATM   14  C22 UNL     1      -6.933 -10.660  -1.016  1.00  0.00    -0.023 C 
HETATM   15  C23 UNL     1      -6.909  -9.622  -1.872  1.00  0.00     0.007 C 
BRANCH  15  16
HETATM   16  C24 UNL     1      -8.058  -9.101  -2.725  1.00  0.00     0.077 C 
HETATM   17  C25 UNL     1      -7.614  -8.296  -3.954  1.00  0.00     0.051 C 
BRANCH  16  18
HETATM   18  O2  UNL     1      -8.689 -10.279  -3.262  1.00  0.00    -0.386 OA
HETATM   19  H37 UNL     1      -8.964 -10.839  -2.520  1.00  0.00     0.211 HD
ENDBRANCH  16  18
BRANCH  16  20
HETATM   20  C26 UNL     1      -9.103  -8.362  -1.827  1.00  0.00     0.043 C 
HETATM   21  C27 UNL     1     -10.542  -8.501  -2.350  1.00  0.00     0.015 C 
BRANCH  20  22
HETATM   22  C28 UNL     1      -8.776  -6.884  -1.556  1.00  0.00     0.171 C 
BRANCH  22  23
HETATM   23  O3  UNL     1      -9.582  -6.012  -2.334  1.00  0.00    -0.400 OA
HETATM   24  H44 UNL     1      -9.308  -5.102  -2.123  1.00  0.00     0.209 HD
ENDBRANCH  22  23
ENDBRANCH  20  22
ENDBRANCH  16  20
ENDBRANCH  15  16
ENDBRANCH  12  14
ENDBRANCH  11  12
BRANCH   1  25
HETATM   25  C8  UNL     1      -4.436 -10.727   7.271  1.00  0.00     0.008 C 
HETATM   26  C7  UNL     1      -4.909 -10.110   8.374  1.00  0.00    -0.050 C 
HETATM   27  C2  UNL     1      -6.142  -9.336   8.459  1.00  0.00    -0.061 C 
HETATM   28  C6  UNL     1      -4.186 -10.244   9.706  1.00  0.00     0.070 C 
HETATM   29  C1  UNL     1      -6.353  -8.236   7.719  1.00  0.00     0.019 C 
HETATM   30  C3  UNL     1      -7.126  -9.773   9.519  1.00  0.00     0.041 C 
HETATM   31  C4  UNL     1      -6.550 -10.806  10.495  1.00  0.00     0.036 C 
HETATM   32  C5  UNL     1      -5.124 -10.444  10.914  1.00  0.00     0.122 C 
BRANCH  32  33
HETATM   33  O1  UNL     1      -5.148  -9.248  11.699  1.00  0.00    -0.395 OA
HETATM   34  H8  UNL     1      -5.725  -9.410  12.466  1.00  0.00     0.210 HD
ENDBRANCH  32  33
ENDBRANCH   1  25
TORSDOF 9
ENDMDL
