MODEL 1
REMARK minimizedAffinity -7.28667355
REMARK CNNscore 0.764682233
REMARK CNNaffinity 6.61270714
REMARK  5 active torsions:
REMARK  status: ('A' for Active; 'I' for Inactive)
REMARK    1  A    between atoms: C2_2  and  C4_4 
REMARK    2  A    between atoms: C7_7  and  C8_8 
REMARK    3  A    between atoms: C8_8  and  O2_10 
REMARK    4  A    between atoms: C22_25  and  C24_27 
REMARK    5  A    between atoms: C24_27  and  O4_28 
ROOT
HETATM    1  C4  UNL     1     -13.355   8.076  13.141  1.00  0.00     0.019 C 
HETATM    2  C5  UNL     1     -13.425   9.580  12.759  1.00  0.00     0.011 C 
HETATM    3  C6  UNL     1     -14.857  10.047  13.080  1.00  0.00     0.021 C 
HETATM    4  C7  UNL     1     -15.689   8.762  12.991  1.00  0.00     0.050 C 
HETATM    5  C9  UNL     1     -17.030   8.805  13.731  1.00  0.00     0.022 C 
HETATM    6  C10 UNL     1     -17.649   7.395  13.807  1.00  0.00     0.011 C 
HETATM    7  C11 UNL     1     -16.739   6.276  14.444  1.00  0.00    -0.032 C 
HETATM    8  C12 UNL     1     -16.625   6.652  15.957  1.00  0.00     0.016 C 
HETATM    9  C13 UNL     1     -15.320   6.344  13.769  1.00  0.00     0.000 C 
HETATM   10  C14 UNL     1     -14.349   5.368  14.438  1.00  0.00     0.006 C 
HETATM   11  C15 UNL     1     -14.956   4.008  14.762  1.00  0.00     0.006 C 
HETATM   12  C16 UNL     1     -16.211   3.672  13.922  1.00  0.00     0.003 C 
HETATM   13  C17 UNL     1     -16.637   2.119  14.017  1.00  0.00    -0.035 C 
HETATM   14  C18 UNL     1     -17.460   1.722  12.760  1.00  0.00     0.016 C 
HETATM   15  C19 UNL     1     -15.386   1.204  14.065  1.00  0.00     0.017 C 
HETATM   16  C20 UNL     1     -15.685  -0.283  14.093  1.00  0.00     0.080 C 
HETATM   17  C21 UNL     1     -16.869  -0.691  14.935  1.00  0.00     0.137 C 
HETATM   18  O3  UNL     1     -17.092  -1.898  15.088  1.00  0.00    -0.297 OA
HETATM   19  C22 UNL     1     -17.781   0.342  15.612  1.00  0.00     0.042 C 
HETATM   20  C23 UNL     1     -19.227   0.002  15.194  1.00  0.00     0.026 C 
HETATM   21  C25 UNL     1     -17.400   1.845  15.342  1.00  0.00     0.012 C 
HETATM   22  C26 UNL     1     -18.580   2.819  15.524  1.00  0.00     0.007 C 
HETATM   23  C27 UNL     1     -18.131   4.279  15.513  1.00  0.00     0.011 C 
HETATM   24  C28 UNL     1     -17.360   4.743  14.244  1.00  0.00    -0.032 C 
HETATM   25  C29 UNL     1     -18.371   4.762  13.067  1.00  0.00     0.016 C 
HETATM   26  C30 UNL     1     -14.758   7.783  13.730  1.00  0.00     0.017 C 
ENDROOT
BRANCH   4  27
HETATM   27  C8  UNL     1     -15.974   8.548  11.499  1.00  0.00     0.149 C 
HETATM   28  O1  UNL     1     -16.381   9.405  10.731  1.00  0.00    -0.649 OA
BRANCH  27  29
HETATM   29  O2  UNL     1     -15.686   7.330  11.013  1.00  0.00    -0.776 OA
HETATM   30  H11 UNL     1     -15.887   7.411  10.057  1.00  0.00     0.167 HD
ENDBRANCH  27  29
ENDBRANCH   4  27
BRANCH   1  31
HETATM   31  C2  UNL     1     -12.153   7.796  14.034  1.00  0.00    -0.088 C 
HETATM   32  C1  UNL     1     -11.148   6.967  13.698  1.00  0.00     0.014 C 
HETATM   33  C3  UNL     1     -12.154   8.502  15.365  1.00  0.00     0.043 C 
ENDBRANCH   1  31
BRANCH  19  34
HETATM   34  C24 UNL     1     -17.594   0.069  17.133  1.00  0.00     0.181 C 
BRANCH  34  35
HETATM   35  O4  UNL     1     -16.326  -0.486  17.475  1.00  0.00    -0.400 OA
HETATM   36  H37 UNL     1     -15.642  -0.075  16.906  1.00  0.00     0.209 HD
ENDBRANCH  34  35
ENDBRANCH  19  34
TORSDOF 5
ENDMDL
