MODEL 1
REMARK minimizedAffinity -8.43725014
REMARK CNNscore 0.426908106
REMARK CNNaffinity 7.50072861
REMARK  19 active torsions:
REMARK  status: ('A' for Active; 'I' for Inactive)
REMARK    1  A    between atoms: C19_20  and  O2_21 
REMARK    2  A    between atoms: C19_20  and  C20_22 
REMARK    3  A    between atoms: C20_22  and  C21_24 
REMARK    4  A    between atoms: C21_24  and  O4_25 
REMARK    5  A    between atoms: O4_25  and  C22_26 
REMARK    6  A    between atoms: C22_26  and  C23_28 
REMARK    7  A    between atoms: C23_28  and  C24_29 
REMARK    8  A    between atoms: C24_29  and  C25_30 
REMARK       I    between atoms: C25_30  and  N1_32 
REMARK    9  A    between atoms: N1_32  and  C26_33 
REMARK   10  A    between atoms: C26_33  and  C27_34 
REMARK   11  A    between atoms: C27_34  and  C28_35 
REMARK   12  A    between atoms: C28_35  and  C29_36 
REMARK   13  A    between atoms: C29_36  and  C30_37 
REMARK   14  A    between atoms: C30_37  and  C31_38 
REMARK       I    between atoms: C31_38  and  N2_40 
REMARK   15  A    between atoms: N2_40  and  C32_41 
REMARK   16  A    between atoms: C32_41  and  C33_42 
REMARK   17  A    between atoms: C32_41  and  C40_49 
REMARK   18  A    between atoms: C33_42  and  C34_43 
REMARK   19  A    between atoms: C40_49  and  O9_51 
ROOT
HETATM    1  C22 UNL     1       0.606  51.821 -17.012  1.00  0.00     0.259 C 
HETATM    2  O5  UNL     1       1.248  52.542 -17.767  1.00  0.00    -0.265 OA
ENDROOT
BRANCH   1   3
HETATM    3  O4  UNL     1      -0.654  51.383 -17.255  1.00  0.00    -0.314 OA
BRANCH   3   4
HETATM    4  C21 UNL     1      -0.894  50.019 -16.898  1.00  0.00     0.260 C 
BRANCH   4   5
HETATM    5  C20 UNL     1      -2.220  49.574 -17.508  1.00  0.00     0.185 C 
HETATM    6  O3  UNL     1      -3.266  49.582 -16.853  1.00  0.00    -0.292 OA
BRANCH   5   7
HETATM    7  C19 UNL     1      -2.179  49.021 -18.952  1.00  0.00     0.128 C 
HETATM    8  C14 UNL     1      -2.216  50.085 -20.097  1.00  0.00    -0.002 C 
HETATM    9  C13 UNL     1      -0.871  50.763 -20.447  1.00  0.00     0.013 C 
HETATM   10  C15 UNL     1      -3.298  51.154 -19.785  1.00  0.00     0.019 C 
HETATM   11  C16 UNL     1      -2.599  49.181 -21.286  1.00  0.00     0.002 C 
HETATM   12  C12 UNL     1      -0.578  50.869 -21.966  1.00  0.00     0.007 C 
HETATM   13  C11 UNL     1      -1.853  51.117 -22.808  1.00  0.00     0.002 C 
HETATM   14  C2  UNL     1      -1.659  51.603 -24.311  1.00  0.00    -0.016 C 
HETATM   15  C10 UNL     1      -2.848  49.917 -22.621  1.00  0.00    -0.004 C 
HETATM   16  C1  UNL     1      -2.802  52.606 -24.626  1.00  0.00     0.020 C 
HETATM   17  C3  UNL     1      -0.300  52.338 -24.494  1.00  0.00     0.022 C 
HETATM   18  C7  UNL     1      -1.768  50.476 -25.338  1.00  0.00    -0.068 C 
HETATM   19  C4  UNL     1       0.033  52.672 -25.943  1.00  0.00     0.084 C 
HETATM   20  C5  UNL     1       0.018  51.413 -26.766  1.00  0.00     0.149 C 
HETATM   21  O1  UNL     1       0.762  51.244 -27.727  1.00  0.00    -0.293 OA
HETATM   22  C6  UNL     1      -0.983  50.373 -26.427  1.00  0.00     0.053 C 
HETATM   23  C8  UNL     1      -2.873  49.481 -25.125  1.00  0.00     0.035 C 
HETATM   24  C9  UNL     1      -2.759  48.870 -23.746  1.00  0.00     0.010 C 
HETATM   25  C17 UNL     1      -3.733  48.312 -20.756  1.00  0.00     0.009 C 
HETATM   26  C18 UNL     1      -3.406  48.117 -19.267  1.00  0.00     0.047 C 
BRANCH   7  27
HETATM   27  O2  UNL     1      -1.001  48.213 -19.067  1.00  0.00    -0.381 OA
HETATM   28  H27 UNL     1      -1.116  47.434 -18.492  1.00  0.00     0.211 HD
ENDBRANCH   7  27
ENDBRANCH   5   7
ENDBRANCH   4   5
ENDBRANCH   3   4
ENDBRANCH   1   3
BRANCH   1  29
HETATM   29  C23 UNL     1       1.079  51.406 -15.638  1.00  0.00     0.120 C 
BRANCH  29  30
HETATM   30  C24 UNL     1       2.542  51.737 -15.364  1.00  0.00     0.112 C 
BRANCH  30  31
HETATM   31  C25 UNL     1       2.930  51.455 -13.927  1.00  0.00     0.217 C 
HETATM   32  O6  UNL     1       3.754  50.603 -13.614  1.00  0.00    -0.274 OA
HETATM   33  N1  UNL     1       2.288  52.270 -13.020  1.00  0.00    -0.361 N 
HETATM   34  H34 UNL     1       1.663  52.990 -13.359  1.00  0.00     0.162 HD
BRANCH  33  35
HETATM   35  C26 UNL     1       2.630  52.263 -11.611  1.00  0.00     0.122 C 
BRANCH  35  36
HETATM   36  C27 UNL     1       3.316  53.568 -11.219  1.00  0.00     0.020 C 
BRANCH  36  37
HETATM   37  C28 UNL     1       2.380  54.560 -10.524  1.00  0.00     0.002 C 
BRANCH  37  38
HETATM   38  C29 UNL     1       2.745  54.780  -9.051  1.00  0.00     0.009 C 
BRANCH  38  39
HETATM   39  C30 UNL     1       1.945  55.911  -8.409  1.00  0.00     0.103 C 
BRANCH  39  40
HETATM   40  C31 UNL     1       0.477  55.579  -8.208  1.00  0.00     0.218 C 
HETATM   41  O7  UNL     1      -0.440  56.359  -8.431  1.00  0.00    -0.274 OA
HETATM   42  N2  UNL     1       0.277  54.295  -7.743  1.00  0.00    -0.346 N 
HETATM   43  H45 UNL     1       1.053  53.877  -7.240  1.00  0.00     0.163 HD
BRANCH  42  44
HETATM   44  C32 UNL     1      -1.064  53.863  -7.324  1.00  0.00     0.186 C 
BRANCH  44  45
HETATM   45  C33 UNL     1      -1.382  52.484  -7.911  1.00  0.00     0.074 C 
BRANCH  45  46
HETATM   46  C34 UNL     1      -2.372  52.521  -9.050  1.00  0.00    -0.056 A 
HETATM   47  C35 UNL     1      -3.059  51.360  -9.433  1.00  0.00     0.007 A 
HETATM   48  C36 UNL     1      -3.963  51.392 -10.497  1.00  0.00     0.001 A 
HETATM   49  C37 UNL     1      -4.191  52.582 -11.184  1.00  0.00     0.000 A 
HETATM   50  C38 UNL     1      -3.515  53.742 -10.810  1.00  0.00     0.001 A 
HETATM   51  C39 UNL     1      -2.608  53.713  -9.748  1.00  0.00     0.007 A 
ENDBRANCH  45  46
ENDBRANCH  44  45
BRANCH  44  52
HETATM   52  C40 UNL     1      -1.055  53.792  -5.799  1.00  0.00     0.163 C 
HETATM   53  O8  UNL     1      -0.055  53.775  -5.094  1.00  0.00    -0.648 OA
BRANCH  52  54
HETATM   54  O9  UNL     1      -2.284  53.739  -5.254  1.00  0.00    -0.775 OA
HETATM   55  H54 UNL     1      -2.131  53.719  -4.287  1.00  0.00     0.167 HD
ENDBRANCH  52  54
ENDBRANCH  44  52
ENDBRANCH  42  44
ENDBRANCH  39  40
ENDBRANCH  38  39
ENDBRANCH  37  38
ENDBRANCH  36  37
ENDBRANCH  35  36
ENDBRANCH  33  35
ENDBRANCH  30  31
ENDBRANCH  29  30
ENDBRANCH   1  29
TORSDOF 19
ENDMDL
