MODEL 1
REMARK minimizedAffinity -9.33686829
REMARK CNNscore 0.736141086
REMARK CNNaffinity 7.05211687
REMARK  8 active torsions:
REMARK  status: ('A' for Active; 'I' for Inactive)
REMARK    1  A    between atoms: C4_4  and  C5_5 
REMARK    2  A    between atoms: C5_5  and  C6_6 
REMARK    3  A    between atoms: C6_6  and  C7_7 
REMARK    4  A    between atoms: C7_7  and  C9_9 
REMARK    5  A    between atoms: C15_15  and  O1_16 
REMARK    6  A    between atoms: C18_19  and  C20_21 
REMARK    7  A    between atoms: C20_21  and  O3_23 
REMARK    8  A    between atoms: C21_24  and  O4_25 
ROOT
HETATM    1  C9  UNL     1      -3.034   8.527  14.521  1.00  0.00    -0.002 C 
HETATM    2  C10 UNL     1      -2.430   7.744  15.715  1.00  0.00     0.006 C 
HETATM    3  C11 UNL     1      -1.048   7.221  15.286  1.00  0.00     0.011 C 
HETATM    4  C12 UNL     1      -0.739   7.925  13.952  1.00  0.00    -0.030 C 
HETATM    5  C13 UNL     1      -0.110   9.304  14.320  1.00  0.00     0.016 C 
HETATM    6  C14 UNL     1       0.210   7.138  12.995  1.00  0.00     0.032 C 
HETATM    7  C15 UNL     1       1.689   7.077  13.430  1.00  0.00     0.124 C 
HETATM    8  C16 UNL     1       2.491   6.212  12.454  1.00  0.00     0.039 C 
HETATM    9  C17 UNL     1       2.608   6.899  11.087  1.00  0.00     0.018 C 
HETATM   10  C18 UNL     1       3.381   6.075   9.996  1.00  0.00     0.072 C 
HETATM   11  C19 UNL     1       3.042   4.570   9.995  1.00  0.00     0.030 C 
HETATM   12  C21 UNL     1       3.145   6.671   8.563  1.00  0.00     0.137 C 
HETATM   13  C22 UNL     1       2.762   8.151   8.617  1.00  0.00     0.034 C 
HETATM   14  C23 UNL     1       1.453   8.377   9.377  1.00  0.00     0.013 C 
HETATM   15  C24 UNL     1       1.273   7.415  10.551  1.00  0.00    -0.026 A 
HETATM   16  C25 UNL     1       0.075   6.499  10.488  1.00  0.00     0.021 A 
HETATM   17  C26 UNL     1       0.076   7.611  11.522  1.00  0.00    -0.025 A 
HETATM   18  C27 UNL     1      -0.829   8.814  11.259  1.00  0.00     0.011 C 
HETATM   19  C28 UNL     1      -2.122   8.914  12.083  1.00  0.00     0.011 C 
HETATM   20  C29 UNL     1      -2.179   8.003  13.317  1.00  0.00    -0.032 C 
HETATM   21  C30 UNL     1      -2.737   6.619  12.864  1.00  0.00     0.016 C 
ENDROOT
BRANCH   1  22
HETATM   22  C7  UNL     1      -4.593   8.458  14.470  1.00  0.00    -0.014 C 
HETATM   23  C8  UNL     1      -5.239   9.317  15.569  1.00  0.00     0.010 C 
BRANCH  22  24
HETATM   24  C6  UNL     1      -5.130   7.008  14.651  1.00  0.00     0.008 C 
BRANCH  24  25
HETATM   25  C5  UNL     1      -6.174   6.570  13.618  1.00  0.00     0.028 C 
BRANCH  25  26
HETATM   26  C4  UNL     1      -6.358   5.075  13.639  1.00  0.00    -0.025 C 
HETATM   27  C2  UNL     1      -7.402   4.371  13.159  1.00  0.00    -0.091 C 
HETATM   28  C1  UNL     1      -7.441   2.871  13.281  1.00  0.00     0.042 C 
HETATM   29  C3  UNL     1      -8.595   4.965  12.461  1.00  0.00     0.042 C 
ENDBRANCH  25  26
ENDBRANCH  24  25
ENDBRANCH  22  24
ENDBRANCH   1  22
BRANCH   7  30
HETATM   30  O1  UNL     1       1.796   6.490  14.726  1.00  0.00    -0.395 OA
HETATM   31  H26 UNL     1       2.733   6.511  14.979  1.00  0.00     0.210 HD
ENDBRANCH   7  30
BRANCH  10  32
HETATM   32  C20 UNL     1       4.875   6.255  10.289  1.00  0.00     0.151 C 
HETATM   33  O2  UNL     1       5.467   7.318  10.403  1.00  0.00    -0.649 OA
BRANCH  32  34
HETATM   34  O3  UNL     1       5.551   5.107  10.478  1.00  0.00    -0.776 OA
HETATM   35  H33 UNL     1       6.472   5.395  10.649  1.00  0.00     0.167 HD
ENDBRANCH  32  34
ENDBRANCH  10  32
BRANCH  12  36
HETATM   36  O4  UNL     1       2.110   5.993   7.841  1.00  0.00    -0.394 OA
HETATM   37  H35 UNL     1       2.474   5.161   7.497  1.00  0.00     0.210 HD
ENDBRANCH  12  36
TORSDOF 8
ENDMDL
