MODEL 1
REMARK minimizedAffinity -10.5690928
REMARK CNNscore 0.377597332
REMARK CNNaffinity 8.29784775
REMARK  10 active torsions:
REMARK  status: ('A' for Active; 'I' for Inactive)
REMARK    1  A    between atoms: N1_2  and  C2_3 
REMARK    2  A    between atoms: C2_3  and  O1_4 
REMARK    3  A    between atoms: O1_4  and  C3_5 
REMARK    4  A    between atoms: C8_10  and  C9_11 
REMARK    5  A    between atoms: C9_11  and  C10_12 
REMARK    6  A    between atoms: C20_24  and  O2_25 
REMARK    7  A    between atoms: C26_32  and  C27_33 
REMARK    8  A    between atoms: C27_33  and  O4_34 
REMARK    9  A    between atoms: C36_44  and  O6_45 
REMARK   10  A    between atoms: C43_53  and  N3_54 
ROOT
HETATM    1  C3  UNL     1      -1.565   9.946  15.493  1.00  0.00     0.139 C 
HETATM    2  C4  UNL     1      -1.233   8.515  14.974  1.00  0.00     0.086 C 
HETATM    3  C5  UNL     1      -2.397   7.659  14.558  1.00  0.00    -0.014 C 
HETATM    4  C6  UNL     1      -2.208   6.427  13.878  1.00  0.00    -0.034 C 
HETATM    5  C7  UNL     1      -0.817   5.862  13.648  1.00  0.00     0.050 C 
HETATM    6  C8  UNL     1      -0.684   5.180  12.276  1.00  0.00     0.028 C 
HETATM    7  C18 UNL     1      -1.757   4.115  12.166  1.00  0.00    -0.040 A 
HETATM    8  C19 UNL     1      -1.458   2.903  11.518  1.00  0.00     0.044 A 
HETATM    9  C20 UNL     1      -2.401   1.890  11.468  1.00  0.00     0.066 A 
HETATM   10  C21 UNL     1      -3.641   2.058  12.064  1.00  0.00     0.037 A 
HETATM   11  C22 UNL     1      -3.943   3.266  12.706  1.00  0.00     0.015 A 
HETATM   12  C23 UNL     1      -3.029   4.335  12.753  1.00  0.00    -0.016 A 
HETATM   13  C24 UNL     1      -3.313   5.643  13.432  1.00  0.00     0.016 C 
HETATM   14  C25 UNL     1      -4.605   6.176  13.636  1.00  0.00     0.090 C 
HETATM   15  O3  UNL     1      -5.672   5.503  13.091  1.00  0.00    -0.342 OA
HETATM   16  C26 UNL     1      -6.897   6.237  12.973  1.00  0.00     0.152 C 
HETATM   17  C28 UNL     1      -7.259   6.850  14.315  1.00  0.00     0.039 C 
HETATM   18  C29 UNL     1      -6.185   7.861  14.685  1.00  0.00     0.047 C 
HETATM   19  C30 UNL     1      -4.798   7.344  14.394  1.00  0.00     0.010 C 
HETATM   20  C31 UNL     1      -3.688   8.063  14.862  1.00  0.00     0.086 C 
HETATM   21  O5  UNL     1      -3.966   9.177  15.590  1.00  0.00    -0.337 OA
HETATM   22  C32 UNL     1      -2.896   9.800  16.330  1.00  0.00     0.200 C 
HETATM   23  C33 UNL     1      -3.515  11.116  16.805  1.00  0.00    -0.023 C 
HETATM   24  C34 UNL     1      -3.292  11.575  18.110  1.00  0.00     0.049 C 
HETATM   25  C35 UNL     1      -3.643  12.882  18.443  1.00  0.00     0.102 C 
HETATM   26  C36 UNL     1      -4.417  13.648  17.569  1.00  0.00     0.099 C 
HETATM   27  C37 UNL     1      -4.748  13.172  16.314  1.00  0.00     0.040 C 
HETATM   28  C38 UNL     1      -4.262  11.926  15.922  1.00  0.00     0.013 C 
HETATM   29  O7  UNL     1      -3.189  13.518  19.571  1.00  0.00    -0.347 OA
HETATM   30  C39 UNL     1      -1.761  13.397  19.780  1.00  0.00     0.188 C 
HETATM   31  C40 UNL     1      -0.870  13.860  18.602  1.00  0.00     0.120 C 
HETATM   32  C41 UNL     1      -0.576  12.744  17.680  1.00  0.00    -0.102 C 
HETATM   33  C42 UNL     1      -0.450  11.743  17.021  1.00  0.00    -0.068 C 
HETATM   34  C43 UNL     1      -0.319  10.405  16.403  1.00  0.00     0.336 C 
ENDROOT
BRANCH   6  35
HETATM   35  C9  UNL     1      -0.735   6.209  11.125  1.00  0.00     0.048 C 
BRANCH  35  36
HETATM   36  C10 UNL     1       0.628   6.731  10.727  1.00  0.00    -0.057 A 
HETATM   37  C11 UNL     1       1.741   6.390  11.415  1.00  0.00     0.020 A 
HETATM   38  C12 UNL     1       2.995   6.909  10.989  1.00  0.00    -0.011 A 
HETATM   39  C13 UNL     1       4.250   6.769  11.405  1.00  0.00     0.006 A 
HETATM   40  C15 UNL     1       3.124   7.829   9.850  1.00  0.00     0.038 A 
HETATM   41  C14 UNL     1       5.174   7.583  10.563  1.00  0.00     0.148 A 
HETATM   42  N2  UNL     1       4.315   8.261   9.560  1.00  0.00    -0.386 N 
ATOM     43  H2  UNL     1       4.592   8.909   8.822  1.00  0.00     0.160 HD
HETATM   44  C16 UNL     1       1.870   8.175   9.152  1.00  0.00     0.030 A 
HETATM   45  C17 UNL     1       0.715   7.638   9.582  1.00  0.00     0.009 A 
ENDBRANCH  35  36
ENDBRANCH   6  35
BRANCH   9  46
HETATM   46  O2  UNL     1      -2.065   0.728  10.840  1.00  0.00    -0.361 OA
HETATM   47  H21 UNL     1      -2.830   0.132  10.867  1.00  0.00     0.217 HD
ENDBRANCH   9  46
BRANCH   1  48
HETATM   48  O1  UNL     1      -1.894  10.793  14.367  1.00  0.00    -0.345 OA
BRANCH  48  49
HETATM   49  C2  UNL     1      -2.037  12.187  14.530  1.00  0.00     0.438 C 
BRANCH  49  50
HETATM   50  N1  UNL     1      -0.934  12.846  13.867  1.00  0.00     0.102 N 
HETATM   51  C1  UNL     1      -1.067  14.294  13.916  1.00  0.00     0.309 C 
HETATM   52  H4  UNL     1      -0.079  12.557  14.336  1.00  0.00     0.318 HD
ENDBRANCH  49  50
ENDBRANCH  48  49
ENDBRANCH   1  48
BRANCH  34  53
HETATM   53  N3  UNL     1       1.017  10.263  15.762  1.00  0.00     0.098 N 
HETATM   54  C44 UNL     1       0.980  10.362  14.309  1.00  0.00     0.308 C 
HETATM   55  H42 UNL     1       1.654  10.970  16.113  1.00  0.00     0.317 HD
ENDBRANCH  34  53
BRANCH  16  56
HETATM   56  C27 UNL     1      -7.990   5.262  12.515  1.00  0.00     0.196 C 
BRANCH  56  57
HETATM   57  O4  UNL     1      -8.677   4.679  13.625  1.00  0.00    -0.398 OA
HETATM   58  H27 UNL     1      -8.020   4.234  14.181  1.00  0.00     0.209 HD
ENDBRANCH  56  57
ENDBRANCH  16  56
BRANCH  26  59
HETATM   59  O6  UNL     1      -4.812  14.912  17.907  1.00  0.00    -0.358 OA
HETATM   60  H34 UNL     1      -4.503  15.032  18.828  1.00  0.00     0.217 HD
ENDBRANCH  26  59
TORSDOF 10
ENDMDL
