MODEL 1
REMARK minimizedAffinity -8.39326
REMARK CNNscore 0.89293021
REMARK CNNaffinity 6.93152761
REMARK  13 active torsions:
REMARK  status: ('A' for Active; 'I' for Inactive)
REMARK    1  A    between atoms: O1_2  and  C2_3 
REMARK    2  A    between atoms: C2_3  and  C3_4 
REMARK    3  A    between atoms: C3_4  and  C4_5 
REMARK    4  A    between atoms: C4_5  and  O2_6 
REMARK    5  A    between atoms: O2_6  and  C5_7 
REMARK    6  A    between atoms: C20_23  and  C21_24 
REMARK    7  A    between atoms: C21_24  and  O4_26 
REMARK    8  A    between atoms: C21_24  and  C23_27 
REMARK    9  A    between atoms: C23_27  and  O5_28 
REMARK   10  A    between atoms: C23_27  and  C24_29 
REMARK   11  A    between atoms: C28_34  and  C29_35 
REMARK       I    between atoms: C29_35  and  N1_37 
REMARK   12  A    between atoms: C32_41  and  O8_42 
REMARK   13  A    between atoms: C37_47  and  O9_48 
ROOT
HETATM    1  C5  UNL     1       8.863  16.427  24.378  1.00  0.00     0.122 C 
HETATM    2  C6  UNL     1       7.482  17.066  24.500  1.00  0.00     0.033 C 
HETATM    3  C7  UNL     1       6.380  16.170  23.948  1.00  0.00     0.013 C 
HETATM    4  C8  UNL     1       6.634  15.680  22.485  1.00  0.00    -0.026 C 
HETATM    5  C9  UNL     1       6.585  16.912  21.541  1.00  0.00     0.016 C 
HETATM    6  C10 UNL     1       8.034  15.014  22.415  1.00  0.00     0.071 C 
HETATM    7  C11 UNL     1       9.143  15.935  22.956  1.00  0.00     0.045 C 
HETATM    8  C12 UNL     1       8.081  13.676  23.151  1.00  0.00     0.154 C 
HETATM    9  O3  UNL     1       9.096  13.243  23.691  1.00  0.00    -0.293 OA
HETATM   10  C13 UNL     1       6.881  12.815  23.153  1.00  0.00     0.057 C 
HETATM   11  C14 UNL     1       5.715  13.245  22.651  1.00  0.00    -0.037 C 
HETATM   12  C15 UNL     1       5.492  14.664  22.110  1.00  0.00     0.026 C 
HETATM   13  C16 UNL     1       5.113  14.567  20.614  1.00  0.00     0.011 C 
HETATM   14  C17 UNL     1       3.895  13.646  20.386  1.00  0.00     0.014 C 
HETATM   15  C18 UNL     1       4.110  12.237  20.981  1.00  0.00    -0.002 C 
HETATM   16  C19 UNL     1       5.219  11.526  20.156  1.00  0.00     0.019 C 
HETATM   17  C20 UNL     1       2.822  11.357  21.132  1.00  0.00     0.034 C 
HETATM   18  C35 UNL     1       3.243  10.296  22.186  1.00  0.00     0.012 C 
HETATM   19  C36 UNL     1       4.449  10.896  22.954  1.00  0.00     0.044 C 
HETATM   20  C37 UNL     1       4.502  12.360  22.494  1.00  0.00     0.089 C 
ENDROOT
BRANCH  17  21
HETATM   21  C21 UNL     1       2.009  10.838  19.903  1.00  0.00     0.087 C 
HETATM   22  C22 UNL     1       0.511  10.661  20.177  1.00  0.00     0.049 C 
BRANCH  21  23
HETATM   23  O4  UNL     1       2.523   9.536  19.582  1.00  0.00    -0.387 OA
HETATM   24  H34 UNL     1       3.492   9.578  19.547  1.00  0.00     0.210 HD
ENDBRANCH  21  23
BRANCH  21  25
HETATM   25  C23 UNL     1       2.244  11.821  18.680  1.00  0.00     0.181 C 
BRANCH  25  26
HETATM   26  O5  UNL     1       1.380  12.958  18.800  1.00  0.00    -0.390 OA
HETATM   27  H36 UNL     1       1.930  13.761  18.784  1.00  0.00     0.210 HD
ENDBRANCH  25  26
BRANCH  25  28
HETATM   28  C24 UNL     1       2.113  11.167  17.281  1.00  0.00     0.158 C 
HETATM   29  O6  UNL     1       2.778   9.873  17.211  1.00  0.00    -0.373 OA
HETATM   30  C25 UNL     1       2.083   9.141  16.199  1.00  0.00     0.185 C 
HETATM   31  C26 UNL     1       0.638   9.437  16.510  1.00  0.00     0.028 C 
HETATM   32  C32 UNL     1       2.323   7.627  16.182  1.00  0.00     0.384 C 
HETATM   33  C27 UNL     1      -0.221   8.859  15.408  1.00  0.00     0.053 C 
HETATM   34  C33 UNL     1       0.687  10.947  16.683  1.00  0.00     0.020 C 
HETATM   35  C28 UNL     1       0.058   7.344  15.266  1.00  0.00     0.309 C 
HETATM   36  N2  UNL     1       1.492   6.979  15.181  1.00  0.00     0.128 N 
HETATM   37  H47 UNL     1       1.846   7.245  14.262  1.00  0.00     0.320 HD
HETATM   38  C34 UNL     1      -0.516  11.509  17.434  1.00  0.00     0.013 C 
BRANCH  35  39
HETATM   39  C29 UNL     1      -0.637   6.870  13.976  1.00  0.00     0.233 C 
HETATM   40  O7  UNL     1      -0.011   6.433  13.007  1.00  0.00    -0.277 OA
HETATM   41  N1  UNL     1      -2.016   7.081  13.998  1.00  0.00    -0.249 NA
HETATM   42  C30 UNL     1      -2.680   7.644  12.855  1.00  0.00     0.113 A 
HETATM   43  C31 UNL     1      -2.875   6.219  13.231  1.00  0.00     0.113 A 
ENDBRANCH  35  39
BRANCH  32  44
HETATM   44  O8  UNL     1       3.680   7.380  15.857  1.00  0.00    -0.366 OA
HETATM   45  H49 UNL     1       4.191   7.941  16.472  1.00  0.00     0.212 HD
ENDBRANCH  32  44
ENDBRANCH  25  28
ENDBRANCH  21  25
ENDBRANCH  17  21
BRANCH  20  46
HETATM   46  O9  UNL     1       3.458  13.017  23.239  1.00  0.00    -0.384 OA
HETATM   47  H58 UNL     1       3.808  13.173  24.133  1.00  0.00     0.211 HD
ENDBRANCH  20  46
BRANCH   1  48
HETATM   48  O2  UNL     1       9.831  17.431  24.708  1.00  0.00    -0.386 OA
BRANCH  48  49
HETATM   49  C4  UNL     1      10.537  17.920  23.566  1.00  0.00     0.170 C 
BRANCH  49  50
HETATM   50  C3  UNL     1      10.546  19.442  23.618  1.00  0.00     0.052 C 
BRANCH  50  51
HETATM   51  C2  UNL     1      10.309  19.947  25.038  1.00  0.00     0.169 C 
BRANCH  51  52
HETATM   52  O1  UNL     1      11.553  20.083  25.729  1.00  0.00    -0.396 OA
HETATM   53  C1  UNL     1      12.501  20.854  24.998  1.00  0.00     0.201 C 
ENDBRANCH  51  52
ENDBRANCH  50  51
ENDBRANCH  49  50
ENDBRANCH  48  49
ENDBRANCH   1  48
TORSDOF 13
ENDMDL
