MODEL 1
REMARK minimizedAffinity -8.13027191
REMARK CNNscore 0.49247396
REMARK CNNaffinity 6.11852646
REMARK  11 active torsions:
REMARK  status: ('A' for Active; 'I' for Inactive)
REMARK    1  A    between atoms: C2_2  and  C4_4 
REMARK    2  A    between atoms: C4_4  and  C6_6 
REMARK    3  A    between atoms: C7_7  and  C8_8 
REMARK    4  A    between atoms: C8_8  and  C10_10 
REMARK    5  A    between atoms: C24_24  and  O1_25 
REMARK    6  A    between atoms: O1_25  and  C25_26 
REMARK    7  A    between atoms: C26_28  and  C27_29 
REMARK    8  A    between atoms: C27_29  and  O3_30 
REMARK    9  A    between atoms: C28_31  and  O4_32 
REMARK   10  A    between atoms: C29_33  and  O5_34 
REMARK   11  A    between atoms: C30_35  and  O6_36 
ROOT
HETATM    1  C10 UNL     1      -6.439  47.320 -27.763  1.00  0.00     0.001 C 
HETATM    2  C11 UNL     1      -6.669  47.742 -26.277  1.00  0.00     0.006 C 
HETATM    3  C12 UNL     1      -8.145  47.486 -25.955  1.00  0.00     0.009 C 
HETATM    4  C13 UNL     1      -8.659  46.729 -27.172  1.00  0.00     0.036 C 
HETATM    5  C14 UNL     1      -7.887  47.363 -28.357  1.00  0.00    -0.033 C 
HETATM    6  C15 UNL     1      -8.287  48.821 -28.685  1.00  0.00     0.016 C 
HETATM    7  C16 UNL     1      -8.149  46.452 -29.571  1.00  0.00     0.010 C 
HETATM    8  C17 UNL     1      -9.652  46.353 -29.896  1.00  0.00     0.010 C 
HETATM    9  C18 UNL     1     -10.525  45.894 -28.702  1.00  0.00     0.039 C 
HETATM   10  C19 UNL     1     -10.177  46.602 -27.350  1.00  0.00     0.123 C 
HETATM   11  C20 UNL     1     -10.782  45.763 -26.242  1.00  0.00     0.014 C 
HETATM   12  C21 UNL     1     -12.104  45.601 -26.353  1.00  0.00     0.014 C 
HETATM   13  C22 UNL     1     -12.707  46.369 -27.515  1.00  0.00     0.124 C 
HETATM   14  C23 UNL     1     -14.227  46.228 -27.520  1.00  0.00     0.078 C 
HETATM   15  C24 UNL     1     -14.691  44.801 -27.861  1.00  0.00     0.128 C 
HETATM   16  C31 UNL     1     -13.603  43.922 -28.499  1.00  0.00     0.033 C 
HETATM   17  C32 UNL     1     -12.695  44.672 -29.475  1.00  0.00     0.015 C 
HETATM   18  C33 UNL     1     -12.097  45.998 -28.919  1.00  0.00     0.001 C 
HETATM   19  C34 UNL     1     -12.457  47.102 -29.957  1.00  0.00     0.019 C 
HETATM   20  O7  UNL     1     -12.331  47.739 -27.234  1.00  0.00    -0.223 OA
HETATM   21  O8  UNL     1     -10.833  47.890 -27.337  1.00  0.00    -0.224 OA
ENDROOT
BRANCH  15  22
HETATM   22  O1  UNL     1     -15.823  44.940 -28.731  1.00  0.00    -0.353 OA
BRANCH  22  23
HETATM   23  C25 UNL     1     -16.870  43.995 -28.477  1.00  0.00     0.292 C 
HETATM   24  O2  UNL     1     -17.508  43.603 -29.687  1.00  0.00    -0.348 OA
HETATM   25  C26 UNL     1     -18.565  42.658 -29.475  1.00  0.00     0.179 C 
HETATM   26  C28 UNL     1     -19.658  43.256 -28.570  1.00  0.00     0.180 C 
HETATM   27  C29 UNL     1     -19.033  43.732 -27.257  1.00  0.00     0.183 C 
HETATM   28  C30 UNL     1     -17.877  44.687 -27.542  1.00  0.00     0.204 C 
BRANCH  25  29
HETATM   29  C27 UNL     1     -19.151  42.251 -30.837  1.00  0.00     0.198 C 
BRANCH  29  30
HETATM   30  O3  UNL     1     -19.116  40.841 -31.045  1.00  0.00    -0.398 OA
HETATM   31  H41 UNL     1     -19.329  40.416 -30.185  1.00  0.00     0.209 HD
ENDBRANCH  29  30
ENDBRANCH  25  29
BRANCH  26  32
HETATM   32  O4  UNL     1     -20.682  42.293 -28.293  1.00  0.00    -0.390 OA
HETATM   33  H43 UNL     1     -21.167  42.660 -27.519  1.00  0.00     0.210 HD
ENDBRANCH  26  32
BRANCH  27  34
HETATM   34  O5  UNL     1     -20.044  44.376 -26.465  1.00  0.00    -0.390 OA
HETATM   35  H45 UNL     1     -19.551  44.870 -25.776  1.00  0.00     0.210 HD
ENDBRANCH  27  34
BRANCH  28  36
HETATM   36  O6  UNL     1     -17.271  45.057 -26.293  1.00  0.00    -0.388 OA
HETATM   37  H47 UNL     1     -16.497  45.609 -26.537  1.00  0.00     0.210 HD
ENDBRANCH  28  36
ENDBRANCH  22  23
ENDBRANCH  15  22
BRANCH   1  38
HETATM   38  C8  UNL     1      -5.301  48.139 -28.438  1.00  0.00     0.008 C 
HETATM   39  C9  UNL     1      -4.896  47.581 -29.806  1.00  0.00     0.014 C 
BRANCH  38  40
HETATM   40  C7  UNL     1      -4.117  48.279 -27.487  1.00  0.00    -0.026 C 
HETATM   41  C6  UNL     1      -3.675  49.387 -26.865  1.00  0.00    -0.026 C 
BRANCH  41  42
HETATM   42  C4  UNL     1      -2.486  49.486 -25.919  1.00  0.00     0.007 C 
HETATM   43  C5  UNL     1      -2.790  49.059 -24.476  1.00  0.00     0.014 C 
BRANCH  42  44
HETATM   44  C2  UNL     1      -1.811  50.886 -26.025  1.00  0.00    -0.015 C 
HETATM   45  C1  UNL     1      -1.197  51.168 -27.403  1.00  0.00     0.010 C 
HETATM   46  C3  UNL     1      -2.771  52.020 -25.652  1.00  0.00     0.010 C 
ENDBRANCH  42  44
ENDBRANCH  41  42
ENDBRANCH  38  40
ENDBRANCH   1  38
TORSDOF 11
ENDMDL
