MODEL 1
REMARK minimizedAffinity -7.63874626
REMARK CNNscore 0.79464519
REMARK CNNaffinity 6.9548111
REMARK  4 active torsions:
REMARK  status: ('A' for Active; 'I' for Inactive)
REMARK    1  A    between atoms: C4_4  and  C5_5 
REMARK    2  A    between atoms: C5_5  and  C6_7 
REMARK    3  A    between atoms: C6_7  and  C7_8 
REMARK    4  A    between atoms: C7_8  and  C9_10 
ROOT
HETATM    1  C9  UNL     1       2.377  53.332 -11.195  1.00  0.00    -0.002 C 
HETATM    2  C10 UNL     1       1.027  54.110 -11.239  1.00  0.00     0.006 C 
HETATM    3  C11 UNL     1       1.113  55.238 -10.189  1.00  0.00     0.011 C 
HETATM    4  C12 UNL     1       2.607  55.327  -9.829  1.00  0.00    -0.032 C 
HETATM    5  C13 UNL     1       3.270  56.166 -10.982  1.00  0.00     0.016 C 
HETATM    6  C14 UNL     1       3.013  56.044  -8.497  1.00  0.00     0.004 C 
HETATM    7  C15 UNL     1       1.878  56.329  -7.506  1.00  0.00     0.007 C 
HETATM    8  C16 UNL     1       2.338  57.076  -6.237  1.00  0.00     0.007 C 
HETATM    9  C17 UNL     1       3.855  57.379  -6.160  1.00  0.00     0.010 C 
HETATM   10  C18 UNL     1       4.321  57.961  -4.787  1.00  0.00     0.018 C 
HETATM   11  C19 UNL     1       3.559  59.260  -4.463  1.00  0.00     0.023 C 
HETATM   12  C20 UNL     1       4.143  56.976  -3.620  1.00  0.00     0.023 C 
HETATM   13  C21 UNL     1       5.815  58.312  -4.872  1.00  0.00     0.135 C 
HETATM   14  O2  UNL     1       6.374  58.995  -4.012  1.00  0.00    -0.297 OA
HETATM   15  C22 UNL     1       6.591  57.815  -6.068  1.00  0.00     0.080 C 
HETATM   16  C23 UNL     1       6.224  56.370  -6.354  1.00  0.00     0.018 C 
HETATM   17  C24 UNL     1       4.732  56.185  -6.594  1.00  0.00    -0.026 A 
HETATM   18  C25 UNL     1       4.190  54.790  -6.413  1.00  0.00     0.021 A 
HETATM   19  C26 UNL     1       4.233  55.382  -7.814  1.00  0.00    -0.027 A 
HETATM   20  C27 UNL     1       5.199  54.705  -8.775  1.00  0.00     0.011 C 
HETATM   21  C28 UNL     1       4.543  53.696  -9.741  1.00  0.00     0.011 C 
HETATM   22  C29 UNL     1       3.010  53.803  -9.842  1.00  0.00    -0.032 C 
HETATM   23  C30 UNL     1       2.373  52.996  -8.679  1.00  0.00     0.016 C 
ENDROOT
BRANCH   1  24
HETATM   24  C7  UNL     1       2.247  51.836 -11.625  1.00  0.00    -0.007 C 
HETATM   25  C8  UNL     1       1.391  50.917 -10.747  1.00  0.00     0.011 C 
BRANCH  24  26
HETATM   26  C6  UNL     1       3.603  51.223 -12.062  1.00  0.00     0.087 C 
BRANCH  26  27
HETATM   27  C5  UNL     1       3.683  50.675 -13.475  1.00  0.00     0.149 C 
HETATM   28  O1  UNL     1       4.596  49.926 -13.824  1.00  0.00    -0.293 OA
BRANCH  27  29
HETATM   29  C4  UNL     1       2.733  51.139 -14.528  1.00  0.00     0.052 C 
HETATM   30  C2  UNL     1       2.913  51.944 -15.593  1.00  0.00    -0.084 C 
HETATM   31  C1  UNL     1       4.169  52.680 -15.970  1.00  0.00     0.043 C 
HETATM   32  C3  UNL     1       1.756  52.216 -16.525  1.00  0.00     0.043 C 
ENDBRANCH  27  29
ENDBRANCH  26  27
ENDBRANCH  24  26
ENDBRANCH   1  24
TORSDOF 4
ENDMDL
