MODEL 1
REMARK minimizedAffinity -10.217658
REMARK  2 active torsions:
REMARK  status: ('A' for Active; 'I' for Inactive)
REMARK    1  A    between atoms: C1_2  and  C2_3 
REMARK       I    between atoms: C1_2  and  N2_16 
REMARK    2  A    between atoms: C10_14  and  O2_15 
ROOT
HETATM    1  O1  UNL     1      -3.968  52.684 -22.594  1.00  0.00    -0.267 OA
HETATM    2  C1  UNL     1      -3.683  51.520 -22.310  1.00  0.00     0.258 C 
HETATM    3  N2  UNL     1      -3.731  50.463 -23.230  1.00  0.00    -0.339 N 
HETATM    4  C11 UNL     1      -4.502  49.275 -22.847  1.00  0.00     0.127 C 
HETATM    5  C12 UNL     1      -4.157  48.067 -23.702  1.00  0.00     0.024 C 
HETATM    6  C13 UNL     1      -4.422  48.367 -25.170  1.00  0.00     0.037 C 
HETATM    7  C14 UNL     1      -3.674  49.601 -25.582  1.00  0.00    -0.060 C 
HETATM    8  C15 UNL     1      -2.822  49.615 -26.661  1.00  0.00    -0.015 C 
HETATM    9  C16 UNL     1      -2.123  50.916 -27.193  1.00  0.00     0.031 C 
HETATM   10  C17 UNL     1      -2.982  52.002 -26.614  1.00  0.00     0.019 C 
HETATM   11  C18 UNL     1      -2.700  51.731 -25.124  1.00  0.00     0.031 C 
HETATM   12  C19 UNL     1      -1.639  52.717 -24.742  1.00  0.00     0.124 C 
HETATM   13  N3  UNL     1      -0.467  52.362 -25.629  1.00  0.00    -0.407 N 
HETATM   14  C20 UNL     1       0.374  53.497 -25.988  1.00  0.00     0.117 C 
HETATM   15  C21 UNL     1       0.036  54.052 -27.368  1.00  0.00     0.019 C 
HETATM   16  C22 UNL     1       0.048  52.982 -28.463  1.00  0.00     0.004 C 
HETATM   17  C23 UNL     1       0.271  51.576 -27.912  1.00  0.00     0.026 C 
HETATM   18  C24 UNL     1      -0.627  51.275 -26.695  1.00  0.00     0.086 C 
HETATM   19  C25 UNL     1      -3.853  50.871 -24.634  1.00  0.00     0.122 C 
ENDROOT
BRANCH   2  20
HETATM   20  C2  UNL     1      -3.224  51.254 -20.929  1.00  0.00     0.081 A 
HETATM   21  C3  UNL     1      -4.072  50.699 -19.987  1.00  0.00     0.108 A 
HETATM   22  N1  UNL     1      -3.710  50.425 -18.709  1.00  0.00    -0.364 N 
HETATM   23  C4  UNL     1      -2.442  50.675 -18.340  1.00  0.00     0.046 A 
ATOM     24  H1  UNL     1      -4.382  50.039 -18.046  1.00  0.00     0.165 HD
HETATM   25  C5  UNL     1      -2.060  50.390 -17.038  1.00  0.00     0.054 A 
HETATM   26  C9  UNL     1      -1.483  51.206 -19.230  1.00  0.00     0.025 A 
HETATM   27  C6  UNL     1      -0.754  50.611 -16.603  1.00  0.00     0.036 A 
HETATM   28 CL1  UNL     1      -0.317  50.235 -14.982  1.00  0.00    -0.084 Cl
HETATM   29  C7  UNL     1       0.199  51.131 -17.468  1.00  0.00     0.025 A 
HETATM   30  C8  UNL     1      -0.164  51.429 -18.779  1.00  0.00     0.018 A 
HETATM   31  C10 UNL     1      -1.902  51.478 -20.547  1.00  0.00     0.095 A 
BRANCH  31  32
HETATM   32  O2  UNL     1      -0.970  51.959 -21.440  1.00  0.00    -0.359 OA
HETATM   33  H5  UNL     1      -1.334  51.852 -22.348  1.00  0.00     0.217 HD
ENDBRANCH  31  32
ENDBRANCH   2  20
TORSDOF 2
ENDMDL
