MODEL 1
REMARK minimizedAffinity -7.58111715
REMARK CNNscore 0.324584812
REMARK CNNaffinity 6.72484922
REMARK  12 active torsions:
REMARK  status: ('A' for Active; 'I' for Inactive)
REMARK    1  A    between atoms: O1_2  and  C2_3 
REMARK    2  A    between atoms: C2_3  and  C5_6 
REMARK    3  A    between atoms: C6_7  and  C7_8 
REMARK    4  A    between atoms: C7_8  and  C8_9 
REMARK    5  A    between atoms: C8_9  and  C10_11 
REMARK    6  A    between atoms: C28_31  and  O4_32 
REMARK    7  A    between atoms: O4_32  and  C29_33 
REMARK    8  A    between atoms: C30_35  and  C31_36 
REMARK    9  A    between atoms: C31_36  and  O6_37 
REMARK   10  A    between atoms: C32_38  and  O7_39 
REMARK   11  A    between atoms: C33_40  and  O8_41 
REMARK   12  A    between atoms: C34_42  and  O9_43 
ROOT
HETATM    1  C10 UNL     1       0.492   6.495  13.380  1.00  0.00    -0.002 C 
HETATM    2  C11 UNL     1       1.993   6.919  13.342  1.00  0.00     0.006 C 
HETATM    3  C12 UNL     1       2.109   8.305  14.016  1.00  0.00     0.011 C 
HETATM    4  C13 UNL     1       0.723   8.552  14.640  1.00  0.00    -0.028 C 
HETATM    5  C14 UNL     1       0.735   7.808  16.014  1.00  0.00     0.016 C 
HETATM    6  C15 UNL     1       0.341  10.050  14.839  1.00  0.00     0.035 C 
HETATM    7  C16 UNL     1       1.262  10.775  15.799  1.00  0.00    -0.021 C 
HETATM    8  C17 UNL     1       0.778  11.503  16.815  1.00  0.00     0.009 C 
HETATM    9  C18 UNL     1      -0.720  11.590  17.108  1.00  0.00     0.102 C 
HETATM   10  O2  UNL     1      -1.249  12.464  16.095  1.00  0.00    -0.304 OA
HETATM   11  C19 UNL     1      -1.473  11.734  14.951  1.00  0.00     0.270 C 
HETATM   12  O3  UNL     1      -1.823  12.230  13.892  1.00  0.00    -0.264 OA
HETATM   13  C20 UNL     1      -1.178  10.249  15.212  1.00  0.00     0.062 C 
HETATM   14  C21 UNL     1      -2.132   9.351  14.377  1.00  0.00     0.022 C 
HETATM   15  C22 UNL     1      -1.654   7.913  14.091  1.00  0.00     0.011 C 
HETATM   16  C23 UNL     1      -0.211   7.886  13.560  1.00  0.00    -0.032 C 
HETATM   17  C24 UNL     1      -0.207   8.622  12.178  1.00  0.00     0.016 C 
HETATM   18  C25 UNL     1      -1.408  10.255  16.748  1.00  0.00     0.045 C 
HETATM   19  C26 UNL     1      -2.896  10.208  17.144  1.00  0.00     0.012 C 
HETATM   20  C27 UNL     1      -3.130  10.631  18.584  1.00  0.00     0.033 C 
HETATM   21  C28 UNL     1      -2.572  12.028  18.865  1.00  0.00     0.136 C 
HETATM   22  C35 UNL     1      -1.040  12.106  18.558  1.00  0.00     0.015 C 
HETATM   23  C36 UNL     1      -0.286  11.263  19.619  1.00  0.00     0.021 C 
HETATM   24  C37 UNL     1      -0.593  13.581  18.737  1.00  0.00     0.021 C 
ENDROOT
BRANCH  21  25
HETATM   25  O4  UNL     1      -3.244  13.016  18.081  1.00  0.00    -0.352 OA
BRANCH  25  26
HETATM   26  C29 UNL     1      -4.203  13.806  18.785  1.00  0.00     0.292 C 
HETATM   27  O5  UNL     1      -4.416  13.292  20.096  1.00  0.00    -0.348 OA
HETATM   28  C30 UNL     1      -5.245  14.167  20.898  1.00  0.00     0.179 C 
HETATM   29  C32 UNL     1      -6.320  14.919  20.088  1.00  0.00     0.180 C 
HETATM   30  C33 UNL     1      -6.731  14.118  18.848  1.00  0.00     0.183 C 
HETATM   31  C34 UNL     1      -5.520  13.702  17.990  1.00  0.00     0.204 C 
BRANCH  28  32
HETATM   32  C31 UNL     1      -5.882  13.278  21.972  1.00  0.00     0.198 C 
BRANCH  32  33
HETATM   33  O6  UNL     1      -7.098  13.869  22.424  1.00  0.00    -0.398 OA
HETATM   34  H46 UNL     1      -6.911  14.823  22.516  1.00  0.00     0.209 HD
ENDBRANCH  32  33
ENDBRANCH  28  32
BRANCH  29  35
HETATM   35  O7  UNL     1      -5.789  16.184  19.653  1.00  0.00    -0.390 OA
HETATM   36  H48 UNL     1      -6.459  16.531  19.021  1.00  0.00     0.210 HD
ENDBRANCH  29  35
BRANCH  30  37
HETATM   37  O8  UNL     1      -7.647  14.904  18.066  1.00  0.00    -0.390 OA
HETATM   38  H50 UNL     1      -7.197  15.039  17.203  1.00  0.00     0.210 HD
ENDBRANCH  30  37
BRANCH  31  39
HETATM   39  O9  UNL     1      -5.474  14.497  16.784  1.00  0.00    -0.388 OA
HETATM   40  H52 UNL     1      -4.681  14.181  16.301  1.00  0.00     0.210 HD
ENDBRANCH  31  39
ENDBRANCH  25  26
ENDBRANCH  21  25
BRANCH   1  41
HETATM   41  C8  UNL     1       0.039   5.576  12.203  1.00  0.00    -0.010 C 
HETATM   42  C9  UNL     1      -0.407   4.194  12.709  1.00  0.00     0.010 C 
BRANCH  41  43
HETATM   43  C7  UNL     1       1.072   5.390  11.061  1.00  0.00     0.031 C 
BRANCH  43  44
HETATM   44  C6  UNL     1       1.001   6.372   9.926  1.00  0.00    -0.027 C 
HETATM   45  C5  UNL     1       2.028   6.636   9.098  1.00  0.00     0.006 C 
BRANCH  45  46
HETATM   46  C2  UNL     1       1.970   7.540   7.878  1.00  0.00     0.070 C 
HETATM   47  C3  UNL     1       3.088   8.591   7.911  1.00  0.00     0.050 C 
HETATM   48  C4  UNL     1       0.616   8.264   7.872  1.00  0.00     0.050 C 
BRANCH  46  49
HETATM   49  O1  UNL     1       2.004   6.769   6.662  1.00  0.00    -0.382 OA
HETATM   50  C1  UNL     1       2.715   5.539   6.718  1.00  0.00     0.202 C 
ENDBRANCH  46  49
ENDBRANCH  45  46
ENDBRANCH  43  44
ENDBRANCH  41  43
ENDBRANCH   1  41
TORSDOF 12
ENDMDL
