MODEL 1
REMARK minimizedAffinity -9.13700581
REMARK  7 active torsions:
REMARK  status: ('A' for Active; 'I' for Inactive)
REMARK    1  A    between atoms: C3_3  and  C5_5 
REMARK    2  A    between atoms: C6_6  and  C7_7 
REMARK    3  A    between atoms: C8_8  and  C9_9 
REMARK    4  A    between atoms: C10_10  and  C12_12 
REMARK    5  A    between atoms: C12_12  and  C13_14 
REMARK    6  A    between atoms: C13_14  and  C15_16 
REMARK    7  A    between atoms: C15_16  and  O2_17 
ROOT
HETATM    1  C5  UNL     1      -3.436  49.008 -22.266  1.00  0.00     0.058 C 
HETATM    2  C6  UNL     1      -2.539  50.287 -22.157  1.00  0.00     0.024 C 
HETATM    3  C16 UNL     1      -2.083  50.525 -20.686  1.00  0.00     0.003 C 
HETATM    4  C17 UNL     1      -1.325  51.864 -20.530  1.00  0.00     0.041 C 
HETATM    5  C18 UNL     1      -0.702  52.035 -19.180  1.00  0.00     0.157 A 
HETATM    6  O3  UNL     1       0.589  51.407 -19.063  1.00  0.00    -0.370 OA
HETATM    7  C19 UNL     1      -0.464  50.862 -18.262  1.00  0.00     0.084 A 
HETATM    8  C20 UNL     1      -0.278  51.093 -16.796  1.00  0.00     0.049 C 
HETATM    9  C21 UNL     1      -0.928  49.499 -18.680  1.00  0.00     0.048 C 
HETATM   10  C22 UNL     1      -1.181  49.367 -20.194  1.00  0.00     0.025 C 
HETATM   11  C23 UNL     1      -1.765  48.016 -20.496  1.00  0.00     0.162 A 
HETATM   12  O4  UNL     1      -1.464  47.549 -21.825  1.00  0.00    -0.368 OA
HETATM   13  C24 UNL     1      -2.843  47.811 -21.538  1.00  0.00     0.092 A 
HETATM   14  C25 UNL     1      -3.691  46.578 -21.434  1.00  0.00     0.049 C 
ENDROOT
BRANCH   2  15
HETATM   15  C7  UNL     1      -3.298  51.500 -22.685  1.00  0.00    -0.021 C 
HETATM   16  C8  UNL     1      -2.854  52.486 -23.484  1.00  0.00    -0.003 C 
BRANCH  16  17
HETATM   17  C9  UNL     1      -1.529  52.589 -24.059  1.00  0.00     0.010 C 
HETATM   18  C10 UNL     1      -1.209  52.412 -25.354  1.00  0.00    -0.016 C 
HETATM   19  C11 UNL     1      -2.157  52.085 -26.472  1.00  0.00     0.052 C 
BRANCH  18  20
HETATM   20  C12 UNL     1       0.231  52.511 -25.798  1.00  0.00     0.161 C 
HETATM   21  O1  UNL     1       0.862  53.523 -25.482  1.00  0.00    -0.292 OA
BRANCH  20  22
HETATM   22  C13 UNL     1       0.860  51.399 -26.650  1.00  0.00     0.080 C 
HETATM   23  C14 UNL     1       0.754  51.743 -28.140  1.00  0.00     0.020 C 
BRANCH  22  24
HETATM   24  C15 UNL     1       2.317  51.128 -26.260  1.00  0.00     0.176 C 
BRANCH  24  25
HETATM   25  O2  UNL     1       3.204  51.482 -27.313  1.00  0.00    -0.400 OA
HETATM   26  H22 UNL     1       4.092  51.173 -27.060  1.00  0.00     0.209 HD
ENDBRANCH  24  25
ENDBRANCH  22  24
ENDBRANCH  20  22
ENDBRANCH  18  20
ENDBRANCH  16  17
ENDBRANCH   2  15
BRANCH   1  27
HETATM   27  C3  UNL     1      -3.840  48.697 -23.721  1.00  0.00    -0.080 C 
HETATM   28  C2  UNL     1      -2.911  48.716 -24.700  1.00  0.00    -0.028 C 
HETATM   29  C1  UNL     1      -3.111  48.486 -26.165  1.00  0.00     0.036 C 
HETATM   30  C4  UNL     1      -5.298  48.396 -23.962  1.00  0.00     0.043 C 
ENDBRANCH   1  27
TORSDOF 7
ENDMDL
