MODEL 1
REMARK minimizedAffinity -9.87626171
REMARK  9 active torsions:
REMARK  status: ('A' for Active; 'I' for Inactive)
REMARK    1  A    between atoms: C2_2  and  C3_3 
REMARK    2  A    between atoms: C2_2  and  C9_12 
REMARK    3  A    between atoms: C3_3  and  C4_4 
REMARK    4  A    between atoms: C4_4  and  C5_5 
REMARK    5  A    between atoms: C5_5  and  O1_6 
REMARK    6  A    between atoms: C5_5  and  C6_7 
REMARK    7  A    between atoms: C6_7  and  O2_9 
REMARK    8  A    between atoms: C6_7  and  C8_10 
REMARK    9  A    between atoms: C8_10  and  O3_11 
ROOT
HETATM    1  C9  UNL     1      -0.839  50.430 -22.021  1.00  0.00    -0.002 C 
HETATM    2  C10 UNL     1      -0.953  50.096 -20.508  1.00  0.00     0.007 C 
HETATM    3  C11 UNL     1      -2.292  49.354 -20.307  1.00  0.00     0.015 C 
HETATM    4  C12 UNL     1      -2.724  48.915 -21.723  1.00  0.00    -0.005 C 
HETATM    5  C13 UNL     1      -1.932  47.609 -22.046  1.00  0.00     0.021 C 
HETATM    6  C14 UNL     1      -4.171  48.547 -22.037  1.00  0.00    -0.000 C 
HETATM    7  C15 UNL     1      -4.702  48.745 -23.275  1.00  0.00    -0.060 C 
HETATM    8  C16 UNL     1      -3.892  49.448 -24.370  1.00  0.00     0.036 C 
HETATM    9  C17 UNL     1      -2.442  49.849 -24.037  1.00  0.00     0.015 C 
HETATM   10  C18 UNL     1      -2.291  50.195 -22.549  1.00  0.00    -0.028 C 
HETATM   11  C19 UNL     1      -3.179  51.437 -22.246  1.00  0.00     0.016 C 
HETATM   12  C20 UNL     1      -6.161  48.340 -23.626  1.00  0.00    -0.014 C 
HETATM   13  C21 UNL     1      -7.034  49.568 -23.291  1.00  0.00     0.020 C 
HETATM   14  C22 UNL     1      -6.327  47.993 -25.131  1.00  0.00     0.021 C 
HETATM   15  C23 UNL     1      -7.695  47.414 -25.468  1.00  0.00     0.080 C 
HETATM   16  C24 UNL     1      -7.877  46.142 -24.690  1.00  0.00     0.135 C 
HETATM   17  O4  UNL     1      -8.079  45.079 -25.271  1.00  0.00    -0.297 OA
HETATM   18  C25 UNL     1      -7.795  46.251 -23.161  1.00  0.00     0.018 C 
HETATM   19  C26 UNL     1      -7.691  44.813 -22.588  1.00  0.00     0.023 C 
HETATM   20  C27 UNL     1      -9.107  46.845 -22.636  1.00  0.00     0.023 C 
HETATM   21  C28 UNL     1      -6.494  47.049 -22.790  1.00  0.00     0.020 C 
HETATM   22  C29 UNL     1      -6.364  47.356 -21.295  1.00  0.00     0.090 C 
HETATM   23  C30 UNL     1      -4.997  47.901 -20.957  1.00  0.00     0.157 C 
HETATM   24  O5  UNL     1      -4.588  47.828 -19.800  1.00  0.00    -0.293 OA
ENDROOT
BRANCH   1  25
HETATM   25  C2  UNL     1      -0.012  51.724 -22.311  1.00  0.00    -0.014 C 
HETATM   26  C1  UNL     1       0.074  52.749 -21.178  1.00  0.00     0.010 C 
BRANCH  25  27
HETATM   27  C3  UNL     1      -0.457  52.385 -23.638  1.00  0.00     0.007 C 
BRANCH  27  28
HETATM   28  C4  UNL     1       0.659  53.087 -24.444  1.00  0.00     0.035 C 
BRANCH  28  29
HETATM   29  C5  UNL     1       0.432  53.111 -25.964  1.00  0.00     0.154 C 
BRANCH  29  30
HETATM   30  O1  UNL     1      -0.977  53.237 -26.222  1.00  0.00    -0.392 OA
HETATM   31  H10 UNL     1      -1.059  53.092 -27.188  1.00  0.00     0.210 HD
ENDBRANCH  29  30
BRANCH  29  32
HETATM   32  C6  UNL     1       0.952  51.868 -26.740  1.00  0.00     0.101 C 
HETATM   33  C7  UNL     1      -0.015  50.671 -26.687  1.00  0.00     0.051 C 
BRANCH  32  34
HETATM   34  O2  UNL     1       1.018  52.273 -28.128  1.00  0.00    -0.385 OA
HETATM   35  H14 UNL     1       1.437  51.525 -28.608  1.00  0.00     0.210 HD
ENDBRANCH  32  34
BRANCH  32  36
HETATM   36  C8  UNL     1       2.372  51.467 -26.299  1.00  0.00     0.204 C 
BRANCH  36  37
HETATM   37  O3  UNL     1       3.262  51.501 -27.420  1.00  0.00    -0.398 OA
HETATM   38  H17 UNL     1       3.359  50.586 -27.749  1.00  0.00     0.209 HD
ENDBRANCH  36  37
ENDBRANCH  32  36
ENDBRANCH  29  32
ENDBRANCH  28  29
ENDBRANCH  27  28
ENDBRANCH  25  27
ENDBRANCH   1  25
TORSDOF 9
ENDMDL
