MODEL 1
REMARK minimizedAffinity -9.43336296
REMARK  9 active torsions:
REMARK  status: ('A' for Active; 'I' for Inactive)
REMARK    1  A    between atoms: C3_3  and  C4_4 
REMARK    2  A    between atoms: C3_3  and  C27_30 
REMARK    3  A    between atoms: C4_4  and  C5_5 
REMARK    4  A    between atoms: C5_5  and  C6_6 
REMARK    5  A    between atoms: C6_6  and  C8_8 
REMARK    6  A    between atoms: C15_15  and  O1_16 
REMARK    7  A    between atoms: C18_19  and  C19_20 
REMARK    8  A    between atoms: C19_20  and  O2_21 
REMARK    9  A    between atoms: C22_24  and  O3_25 
ROOT
HETATM    1  C8  UNL     1       0.413   6.518  11.554  1.00  0.00     0.001 C 
HETATM    2  C9  UNL     1       0.626   5.047  11.119  1.00  0.00     0.006 C 
HETATM    3  C10 UNL     1      -0.716   4.327  11.345  1.00  0.00     0.010 C 
HETATM    4  C11 UNL     1      -1.699   5.444  11.704  1.00  0.00     0.026 C 
HETATM    5  C12 UNL     1      -3.026   5.142  12.364  1.00  0.00    -0.072 C 
HETATM    6  C13 UNL     1      -3.665   6.108  13.076  1.00  0.00    -0.064 C 
HETATM    7  C14 UNL     1      -3.015   7.482  13.298  1.00  0.00     0.068 C 
HETATM    8  C15 UNL     1      -1.660   7.735  12.593  1.00  0.00     0.131 C 
HETATM    9  C16 UNL     1      -0.821   6.444  12.505  1.00  0.00    -0.006 C 
HETATM   10  C17 UNL     1      -0.441   5.921  13.913  1.00  0.00     0.019 C 
HETATM   11  C18 UNL     1      -5.041   5.843  13.762  1.00  0.00     0.009 C 
HETATM   12  C20 UNL     1      -6.006   7.074  13.685  1.00  0.00     0.019 C 
HETATM   13  C21 UNL     1      -7.470   6.769  13.323  1.00  0.00     0.033 C 
HETATM   14  C22 UNL     1      -8.022   5.473  13.901  1.00  0.00     0.118 C 
HETATM   15  C23 UNL     1      -7.112   4.265  13.653  1.00  0.00     0.037 C 
HETATM   16  C24 UNL     1      -5.752   4.649  13.044  1.00  0.00     0.003 C 
HETATM   17  C25 UNL     1      -4.842   3.428  12.931  1.00  0.00     0.010 C 
HETATM   18  C26 UNL     1      -3.592   3.762  12.121  1.00  0.00     0.035 C 
ENDROOT
BRANCH   1  19
HETATM   19  C6  UNL     1       1.684   7.289  12.022  1.00  0.00    -0.013 C 
HETATM   20  C7  UNL     1       1.467   8.794  11.779  1.00  0.00     0.010 C 
BRANCH  19  21
HETATM   21  C5  UNL     1       3.011   6.850  11.358  1.00  0.00     0.009 C 
BRANCH  21  22
HETATM   22  C4  UNL     1       3.382   7.568  10.046  1.00  0.00     0.034 C 
BRANCH  22  23
HETATM   23  C3  UNL     1       2.892   6.891   8.775  1.00  0.00    -0.081 C 
HETATM   24  C2  UNL     1       3.072   5.573   8.536  1.00  0.00    -0.028 C 
HETATM   25  C1  UNL     1       3.791   4.577   9.392  1.00  0.00     0.036 C 
BRANCH  23  26
HETATM   26  C27 UNL     1       2.095   7.792   7.826  1.00  0.00     0.006 C 
HETATM   27  C28 UNL     1       1.863   7.212   6.425  1.00  0.00     0.014 C 
HETATM   28  C29 UNL     1       0.755   8.183   8.459  1.00  0.00     0.014 C 
ENDBRANCH  23  26
ENDBRANCH  22  23
ENDBRANCH  21  22
ENDBRANCH  19  21
ENDBRANCH   1  19
BRANCH   8  29
HETATM   29  O1  UNL     1      -0.967   8.794  13.250  1.00  0.00    -0.394 OA
HETATM   30  H22 UNL     1      -0.764   8.517  14.157  1.00  0.00     0.210 HD
ENDBRANCH   8  29
BRANCH  11  31
HETATM   31  C19 UNL     1      -4.682   5.547  15.258  1.00  0.00     0.178 C 
BRANCH  31  32
HETATM   32  O2  UNL     1      -5.459   6.285  16.194  1.00  0.00    -0.400 OA
HETATM   33  H28 UNL     1      -5.188   5.977  17.080  1.00  0.00     0.209 HD
ENDBRANCH  31  32
ENDBRANCH  11  31
BRANCH  14  34
HETATM   34  O3  UNL     1      -8.260   5.635  15.297  1.00  0.00    -0.396 OA
HETATM   35  H34 UNL     1      -7.378   5.638  15.727  1.00  0.00     0.210 HD
ENDBRANCH  14  34
TORSDOF 9
ENDMDL
