MODEL 1
REMARK minimizedAffinity -6.83511877
REMARK CNNscore 0.877744079
REMARK CNNaffinity 7.19364929
REMARK  9 active torsions:
REMARK  status: ('A' for Active; 'I' for Inactive)
REMARK    1  A    between atoms: C2_2  and  C3_3 
REMARK    2  A    between atoms: C2_2  and  C9_12 
REMARK    3  A    between atoms: C3_3  and  C4_4 
REMARK    4  A    between atoms: C4_4  and  C5_5 
REMARK    5  A    between atoms: C5_5  and  O1_6 
REMARK    6  A    between atoms: C5_5  and  C6_7 
REMARK    7  A    between atoms: C6_7  and  O2_9 
REMARK    8  A    between atoms: C6_7  and  C8_10 
REMARK    9  A    between atoms: C8_10  and  O3_11 
ROOT
HETATM    1  C9  UNL     1      -1.698  52.552 -10.301  1.00  0.00    -0.002 C 
HETATM    2  C10 UNL     1      -1.087  51.127 -10.401  1.00  0.00     0.007 C 
HETATM    3  C11 UNL     1       0.399  51.244 -10.007  1.00  0.00     0.015 C 
HETATM    4  C12 UNL     1       0.522  52.614  -9.309  1.00  0.00    -0.005 C 
HETATM    5  C13 UNL     1       0.050  52.415  -7.834  1.00  0.00     0.021 C 
HETATM    6  C14 UNL     1       1.870  53.309  -9.177  1.00  0.00    -0.000 C 
HETATM    7  C15 UNL     1       1.957  54.666  -9.127  1.00  0.00    -0.060 C 
HETATM    8  C16 UNL     1       0.704  55.537  -9.274  1.00  0.00     0.036 C 
HETATM    9  C17 UNL     1      -0.640  54.829  -9.538  1.00  0.00     0.015 C 
HETATM   10  C18 UNL     1      -0.445  53.473 -10.223  1.00  0.00    -0.028 C 
HETATM   11  C19 UNL     1       0.129  53.725 -11.647  1.00  0.00     0.016 C 
HETATM   12  C20 UNL     1       3.309  55.414  -8.975  1.00  0.00    -0.014 C 
HETATM   13  C21 UNL     1       3.787  55.709 -10.415  1.00  0.00     0.020 C 
HETATM   14  C22 UNL     1       3.147  56.750  -8.204  1.00  0.00     0.021 C 
HETATM   15  C23 UNL     1       4.466  57.441  -7.901  1.00  0.00     0.080 C 
HETATM   16  C24 UNL     1       5.359  56.536  -7.094  1.00  0.00     0.135 C 
HETATM   17  O4  UNL     1       5.906  56.963  -6.076  1.00  0.00    -0.297 OA
HETATM   18  C25 UNL     1       5.620  55.125  -7.641  1.00  0.00     0.018 C 
HETATM   19  C26 UNL     1       6.180  54.267  -6.477  1.00  0.00     0.023 C 
HETATM   20  C27 UNL     1       6.726  55.219  -8.702  1.00  0.00     0.023 C 
HETATM   21  C28 UNL     1       4.269  54.499  -8.138  1.00  0.00     0.020 C 
HETATM   22  C29 UNL     1       4.438  53.145  -8.835  1.00  0.00     0.090 C 
HETATM   23  C30 UNL     1       3.106  52.467  -9.051  1.00  0.00     0.157 C 
HETATM   24  O5  UNL     1       3.057  51.243  -9.144  1.00  0.00    -0.293 OA
ENDROOT
BRANCH   1  25
HETATM   25  C2  UNL     1      -2.884  52.798 -11.283  1.00  0.00    -0.014 C 
HETATM   26  C1  UNL     1      -4.189  53.306 -10.665  1.00  0.00     0.010 C 
BRANCH  25  27
HETATM   27  C3  UNL     1      -3.130  51.570 -12.191  1.00  0.00     0.007 C 
BRANCH  27  28
HETATM   28  C4  UNL     1      -2.710  51.760 -13.661  1.00  0.00     0.035 C 
BRANCH  28  29
HETATM   29  C5  UNL     1      -1.689  50.729 -14.165  1.00  0.00     0.154 C 
BRANCH  29  30
HETATM   30  O1  UNL     1      -0.525  51.425 -14.640  1.00  0.00    -0.392 OA
HETATM   31  H10 UNL     1       0.010  50.728 -15.079  1.00  0.00     0.210 HD
ENDBRANCH  29  30
BRANCH  29  32
HETATM   32  C6  UNL     1      -2.206  49.799 -15.295  1.00  0.00     0.101 C 
HETATM   33  C7  UNL     1      -2.567  48.393 -14.796  1.00  0.00     0.051 C 
BRANCH  32  34
HETATM   34  O2  UNL     1      -3.439  50.389 -15.775  1.00  0.00    -0.385 OA
HETATM   35  H14 UNL     1      -3.545  50.058 -16.691  1.00  0.00     0.210 HD
ENDBRANCH  32  34
BRANCH  32  36
HETATM   36  C8  UNL     1      -1.220  49.741 -16.478  1.00  0.00     0.204 C 
BRANCH  36  37
HETATM   37  O3  UNL     1      -0.561  48.469 -16.498  1.00  0.00    -0.398 OA
HETATM   38  H17 UNL     1       0.185  48.516 -15.875  1.00  0.00     0.209 HD
ENDBRANCH  36  37
ENDBRANCH  32  36
ENDBRANCH  29  32
ENDBRANCH  28  29
ENDBRANCH  27  28
ENDBRANCH  25  27
ENDBRANCH   1  25
TORSDOF 9
ENDMDL
