MODEL 1
REMARK minimizedAffinity -9.32007694
REMARK  5 active torsions:
REMARK  status: ('A' for Active; 'I' for Inactive)
REMARK    1  A    between atoms: C4_4  and  C5_5 
REMARK    2  A    between atoms: C5_5  and  C6_6 
REMARK    3  A    between atoms: C6_6  and  C7_7 
REMARK    4  A    between atoms: C7_7  and  C9_9 
REMARK    5  A    between atoms: C30_31  and  O2_32 
ROOT
HETATM    1  C9  UNL     1       1.145   6.309  12.840  1.00  0.00    -0.002 C 
HETATM    2  C10 UNL     1       0.574   7.575  13.525  1.00  0.00     0.007 C 
HETATM    3  C11 UNL     1      -0.947   7.347  13.687  1.00  0.00     0.015 C 
HETATM    4  C12 UNL     1      -1.169   5.846  13.407  1.00  0.00    -0.010 C 
HETATM    5  C13 UNL     1      -0.866   5.084  14.738  1.00  0.00     0.021 C 
HETATM    6  C14 UNL     1      -2.541   5.351  12.950  1.00  0.00    -0.039 C 
HETATM    7  C15 UNL     1      -2.623   4.202  12.221  1.00  0.00    -0.066 C 
HETATM    8  C16 UNL     1      -1.363   3.445  11.772  1.00  0.00     0.036 C 
HETATM    9  C17 UNL     1       0.010   4.104  12.033  1.00  0.00     0.015 C 
HETATM   10  C18 UNL     1      -0.121   5.614  12.256  1.00  0.00    -0.029 C 
HETATM   11  C19 UNL     1      -0.531   6.270  10.904  1.00  0.00     0.016 C 
HETATM   12  C20 UNL     1      -3.989   3.626  11.756  1.00  0.00    -0.015 C 
HETATM   13  C21 UNL     1      -4.152   4.077  10.286  1.00  0.00     0.020 C 
HETATM   14  C22 UNL     1      -4.007   2.079  11.830  1.00  0.00     0.021 C 
HETATM   15  C23 UNL     1      -5.358   1.476  11.480  1.00  0.00     0.080 C 
HETATM   16  C24 UNL     1      -6.455   2.015  12.365  1.00  0.00     0.135 C 
HETATM   17  O1  UNL     1      -7.302   1.243  12.822  1.00  0.00    -0.297 OA
HETATM   18  C25 UNL     1      -6.551   3.538  12.549  1.00  0.00     0.018 C 
HETATM   19  C26 UNL     1      -7.370   4.108  11.381  1.00  0.00     0.023 C 
HETATM   20  C27 UNL     1      -7.366   3.797  13.845  1.00  0.00     0.023 C 
HETATM   21  C28 UNL     1      -5.116   4.143  12.725  1.00  0.00     0.016 C 
HETATM   22  C29 UNL     1      -5.081   5.682  12.780  1.00  0.00     0.043 C 
HETATM   23  C30 UNL     1      -3.747   6.170  13.356  1.00  0.00     0.148 C 
ENDROOT
BRANCH   1  24
HETATM   24  C7  UNL     1       2.385   6.501  11.915  1.00  0.00    -0.014 C 
HETATM   25  C8  UNL     1       2.415   7.957  11.415  1.00  0.00     0.010 C 
BRANCH  24  26
HETATM   26  C6  UNL     1       2.475   5.534  10.709  1.00  0.00     0.008 C 
BRANCH  26  27
HETATM   27  C5  UNL     1       3.347   6.046   9.550  1.00  0.00     0.028 C 
BRANCH  27  28
HETATM   28  C4  UNL     1       2.602   6.160   8.247  1.00  0.00    -0.025 C 
HETATM   29  C2  UNL     1       2.399   7.277   7.523  1.00  0.00    -0.091 C 
HETATM   30  C1  UNL     1       1.587   7.238   6.256  1.00  0.00     0.042 C 
HETATM   31  C3  UNL     1       2.944   8.635   7.869  1.00  0.00     0.042 C 
ENDBRANCH  27  28
ENDBRANCH  26  27
ENDBRANCH  24  26
ENDBRANCH   1  24
BRANCH  23  32
HETATM   32  O2  UNL     1      -3.837   6.140  14.778  1.00  0.00    -0.391 OA
HETATM   33  H48 UNL     1      -4.525   6.772  15.039  1.00  0.00     0.210 HD
ENDBRANCH  23  32
TORSDOF 5
ENDMDL
