MODEL 1
REMARK minimizedAffinity -8.71796894
REMARK CNNscore 0.645639658
REMARK CNNaffinity 7.53707933
REMARK  6 active torsions:
REMARK  status: ('A' for Active; 'I' for Inactive)
REMARK    1  A    between atoms: C3_3  and  O1_4 
REMARK    2  A    between atoms: N1_14  and  O2_16 
REMARK    3  A    between atoms: O2_16  and  C13_17 
REMARK    4  A    between atoms: C13_17  and  C14_18 
REMARK       I    between atoms: C14_18  and  N2_20 
REMARK    5  A    between atoms: N2_20  and  C15_21 
REMARK    6  A    between atoms: C15_21  and  C17_23 
ROOT
HETATM    1  C1  UNL     1       0.847   8.525   8.704  1.00  0.00     0.015 C 
HETATM    2  C2  UNL     1       1.252   7.896   9.645  1.00  0.00    -0.078 C 
HETATM    3  C3  UNL     1       1.782   7.131  10.795  1.00  0.00     0.128 C 
HETATM    4  C4  UNL     1       2.429   5.810  10.305  1.00  0.00     0.052 C 
HETATM    5  C5  UNL     1       1.396   4.690  10.550  1.00  0.00     0.010 C 
HETATM    6  C6  UNL     1       0.136   5.416  11.021  1.00  0.00     0.002 C 
HETATM    7  C7  UNL     1      -0.903   4.624  11.823  1.00  0.00    -0.004 C 
HETATM    8  C8  UNL     1      -1.423   3.418  11.029  1.00  0.00     0.010 C 
HETATM    9  C9  UNL     1      -2.456   2.637  11.831  1.00  0.00     0.035 C 
HETATM   10  C10 UNL     1      -3.593   3.507  12.311  1.00  0.00    -0.069 C 
HETATM   11  C11 UNL     1      -4.861   3.091  12.138  1.00  0.00     0.030 C 
HETATM   12  C12 UNL     1      -6.018   3.820  12.713  1.00  0.00     0.032 C 
HETATM   13  N1  UNL     1      -7.207   3.325  12.511  1.00  0.00    -0.271 N 
ATOM     14  H1  UNL     1      -7.395   2.501  11.941  1.00  0.00     0.194 HD
HETATM   15  C23 UNL     1      -5.734   5.046  13.556  1.00  0.00     0.060 C 
HETATM   16  C24 UNL     1      -4.466   5.745  13.089  1.00  0.00     0.020 C 
HETATM   17  C25 UNL     1      -3.219   4.816  13.017  1.00  0.00    -0.016 C 
HETATM   18  C26 UNL     1      -2.761   4.474  14.452  1.00  0.00     0.020 C 
HETATM   19  C27 UNL     1      -2.093   5.561  12.199  1.00  0.00     0.002 C 
HETATM   20  C28 UNL     1      -1.613   6.886  12.854  1.00  0.00     0.007 C 
HETATM   21  C29 UNL     1      -0.486   7.587  12.074  1.00  0.00     0.014 C 
HETATM   22  C30 UNL     1       0.689   6.636  11.790  1.00  0.00     0.003 C 
HETATM   23  C31 UNL     1       1.361   6.265  13.147  1.00  0.00     0.020 C 
ENDROOT
BRANCH   3  24
HETATM   24  O1  UNL     1       2.754   7.939  11.446  1.00  0.00    -0.377 OA
HETATM   25  H2  UNL     1       3.340   8.286  10.753  1.00  0.00     0.211 HD
ENDBRANCH   3  24
BRANCH  13  26
HETATM   26  O2  UNL     1      -8.195   4.067  13.177  1.00  0.00    -0.271 OA
BRANCH  26  27
HETATM   27  C13 UNL     1      -8.087   5.425  12.776  1.00  0.00     0.303 C 
BRANCH  27  28
HETATM   28  C14 UNL     1      -8.220   6.324  13.998  1.00  0.00     0.244 C 
HETATM   29  O3  UNL     1      -9.172   6.256  14.773  1.00  0.00    -0.271 OA
HETATM   30  N2  UNL     1      -7.187   7.223  14.165  1.00  0.00    -0.351 N 
HETATM   31  H16 UNL     1      -6.364   7.155  13.580  1.00  0.00     0.163 HD
BRANCH  30  32
HETATM   32  C15 UNL     1      -7.144   8.144  15.289  1.00  0.00     0.113 C 
HETATM   33  C16 UNL     1      -8.156   9.282  15.109  1.00  0.00     0.037 C 
BRANCH  32  34
HETATM   34  C17 UNL     1      -5.717   8.628  15.487  1.00  0.00    -0.036 A 
HETATM   35  C18 UNL     1      -5.372   9.988  15.447  1.00  0.00     0.009 A 
HETATM   36  C19 UNL     1      -4.044  10.393  15.612  1.00  0.00     0.001 A 
HETATM   37  C20 UNL     1      -3.044   9.444  15.809  1.00  0.00     0.000 A 
HETATM   38  C21 UNL     1      -3.366   8.089  15.830  1.00  0.00     0.001 A 
HETATM   39  C22 UNL     1      -4.692   7.683  15.665  1.00  0.00     0.009 A 
ENDBRANCH  32  34
ENDBRANCH  30  32
ENDBRANCH  27  28
ENDBRANCH  26  27
ENDBRANCH  13  26
TORSDOF 6
ENDMDL
