MODEL 1
REMARK minimizedAffinity -10.1520624
REMARK  7 active torsions:
REMARK  status: ('A' for Active; 'I' for Inactive)
REMARK    1  A    between atoms: C2_2  and  C4_4 
REMARK    2  A    between atoms: C4_4  and  C6_6 
REMARK    3  A    between atoms: C7_7  and  C8_8 
REMARK    4  A    between atoms: C8_8  and  O1_10 
REMARK    5  A    between atoms: C8_8  and  C10_11 
REMARK    6  A    between atoms: C15_16  and  O2_17 
REMARK    7  A    between atoms: C26_29  and  O4_30 
ROOT
HETATM    1  C10 UNL     1      -0.624  51.757 -25.463  1.00  0.00     0.034 C 
HETATM    2  C11 UNL     1      -0.020  53.187 -25.511  1.00  0.00     0.009 C 
HETATM    3  C12 UNL     1       0.256  53.597 -24.054  1.00  0.00     0.006 C 
HETATM    4  C13 UNL     1      -0.028  52.333 -23.248  1.00  0.00     0.003 C 
HETATM    5  C14 UNL     1      -0.267  52.472 -21.735  1.00  0.00     0.024 C 
HETATM    6  C15 UNL     1       0.892  53.200 -21.026  1.00  0.00     0.123 C 
HETATM    7  C16 UNL     1       0.694  53.238 -19.509  1.00  0.00     0.038 C 
HETATM    8  C17 UNL     1       0.483  51.830 -18.932  1.00  0.00     0.003 C 
HETATM    9  C18 UNL     1       0.420  51.873 -17.402  1.00  0.00     0.083 C 
HETATM   10  C19 UNL     1       0.264  50.476 -16.846  1.00  0.00     0.127 C 
HETATM   11  O3  UNL     1       0.906  50.104 -15.863  1.00  0.00    -0.298 OA
HETATM   12  C20 UNL     1      -0.806  49.606 -17.462  1.00  0.00     0.079 C 
HETATM   13  C21 UNL     1      -0.765  49.654 -18.987  1.00  0.00     0.017 C 
HETATM   14  C22 UNL     1      -0.738  51.095 -19.577  1.00  0.00    -0.035 C 
HETATM   15  C23 UNL     1      -2.080  51.793 -19.244  1.00  0.00     0.016 C 
HETATM   16  C24 UNL     1      -0.500  51.045 -21.135  1.00  0.00     0.003 C 
HETATM   17  C25 UNL     1      -1.580  50.258 -21.919  1.00  0.00     0.038 C 
HETATM   18  C26 UNL     1      -1.349  50.241 -23.442  1.00  0.00     0.127 C 
HETATM   19  C27 UNL     1      -1.206  51.667 -24.011  1.00  0.00    -0.007 C 
HETATM   20  C28 UNL     1      -2.534  52.450 -23.858  1.00  0.00     0.019 C 
ENDROOT
BRANCH   1  21
HETATM   21  C8  UNL     1      -1.448  51.357 -26.726  1.00  0.00     0.076 C 
HETATM   22  C9  UNL     1      -2.258  52.578 -27.212  1.00  0.00     0.051 C 
BRANCH  21  23
HETATM   23  C7  UNL     1      -2.314  50.122 -26.591  1.00  0.00     0.007 C 
HETATM   24  C6  UNL     1      -3.309  49.724 -27.405  1.00  0.00    -0.023 C 
BRANCH  24  25
HETATM   25  C4  UNL     1      -4.147  48.462 -27.291  1.00  0.00     0.007 C 
HETATM   26  C5  UNL     1      -4.766  48.229 -25.904  1.00  0.00     0.014 C 
BRANCH  25  27
HETATM   27  C2  UNL     1      -5.230  48.342 -28.405  1.00  0.00    -0.015 C 
HETATM   28  C1  UNL     1      -4.733  47.641 -29.674  1.00  0.00     0.010 C 
HETATM   29  C3  UNL     1      -6.502  47.650 -27.902  1.00  0.00     0.010 C 
ENDBRANCH  25  27
ENDBRANCH  24  25
ENDBRANCH  21  23
BRANCH  21  30
HETATM   30  O1  UNL     1      -0.546  51.089 -27.807  1.00  0.00    -0.386 OA
HETATM   31  H17 UNL     1       0.118  50.445 -27.484  1.00  0.00     0.211 HD
ENDBRANCH  21  30
ENDBRANCH   1  21
BRANCH  18  32
HETATM   32  O4  UNL     1      -2.442  49.573 -24.072  1.00  0.00    -0.395 OA
HETATM   33  H43 UNL     1      -2.486  48.675 -23.693  1.00  0.00     0.210 HD
ENDBRANCH  18  32
BRANCH   6  34
HETATM   34  O2  UNL     1       2.122  52.541 -21.321  1.00  0.00    -0.395 OA
HETATM   35  H26 UNL     1       2.839  53.050 -20.904  1.00  0.00     0.210 HD
ENDBRANCH   6  34
TORSDOF 7
ENDMDL
