MODEL 1
REMARK minimizedAffinity -6.67254543
REMARK CNNscore 0.563044965
REMARK CNNaffinity 6.09602928
REMARK  6 active torsions:
REMARK  status: ('A' for Active; 'I' for Inactive)
REMARK    1  A    between atoms: C2_2  and  O2_4 
REMARK    2  A    between atoms: O2_4  and  C3_5 
REMARK    3  A    between atoms: C13_15  and  C14_16 
REMARK    4  A    between atoms: C14_16  and  C16_18 
REMARK    5  A    between atoms: C16_18  and  C17_19 
REMARK    6  A    between atoms: C17_19  and  C18_20 
ROOT
HETATM    1  C3  UNL     1     -14.333  44.589 -28.533  1.00  0.00     0.132 C 
HETATM    2  C4  UNL     1     -13.180  43.597 -28.355  1.00  0.00     0.033 C 
HETATM    3  C5  UNL     1     -11.987  43.940 -29.246  1.00  0.00     0.013 C 
HETATM    4  C6  UNL     1     -11.546  45.376 -29.008  1.00  0.00    -0.028 A 
HETATM    5  C7  UNL     1     -10.584  45.621 -27.874  1.00  0.00     0.021 A 
HETATM    6  C8  UNL     1     -10.102  45.818 -29.307  1.00  0.00    -0.027 A 
HETATM    7  C9  UNL     1      -9.076  44.799 -29.770  1.00  0.00     0.011 C 
HETATM    8  C10 UNL     1      -7.679  45.381 -29.651  1.00  0.00     0.011 C 
HETATM    9  C11 UNL     1      -7.402  46.591 -30.572  1.00  0.00    -0.032 C 
HETATM   10  C12 UNL     1      -6.364  47.461 -29.820  1.00  0.00     0.016 C 
HETATM   11  C13 UNL     1      -6.893  46.237 -32.015  1.00  0.00    -0.002 C 
HETATM   12  C22 UNL     1      -8.164  45.942 -32.819  1.00  0.00     0.006 C 
HETATM   13  C23 UNL     1      -9.273  46.794 -32.214  1.00  0.00     0.011 C 
HETATM   14  C24 UNL     1      -8.740  47.399 -30.883  1.00  0.00    -0.032 C 
HETATM   15  C25 UNL     1      -8.447  48.903 -31.162  1.00  0.00     0.016 C 
HETATM   16  C26 UNL     1      -9.804  47.284 -29.722  1.00  0.00     0.004 C 
HETATM   17  C27 UNL     1     -11.085  48.091 -30.045  1.00  0.00     0.006 C 
HETATM   18  C28 UNL     1     -12.253  47.814 -29.109  1.00  0.00     0.006 C 
HETATM   19  C29 UNL     1     -12.685  46.357 -29.246  1.00  0.00    -0.003 C 
HETATM   20  C30 UNL     1     -13.854  46.031 -28.310  1.00  0.00     0.038 C 
ENDROOT
BRANCH  11  21
HETATM   21  C14 UNL     1      -5.737  45.229 -32.319  1.00  0.00    -0.014 C 
HETATM   22  C15 UNL     1      -4.357  45.813 -31.994  1.00  0.00     0.010 C 
BRANCH  21  23
HETATM   23  C16 UNL     1      -5.870  43.792 -31.761  1.00  0.00     0.008 C 
BRANCH  23  24
HETATM   24  C17 UNL     1      -6.756  42.893 -32.640  1.00  0.00     0.028 C 
BRANCH  24  25
HETATM   25  C18 UNL     1      -6.054  42.522 -33.919  1.00  0.00    -0.025 C 
HETATM   26  C19 UNL     1      -4.804  42.040 -34.059  1.00  0.00    -0.091 C 
HETATM   27  C20 UNL     1      -3.830  41.829 -32.931  1.00  0.00     0.042 C 
HETATM   28  C21 UNL     1      -4.270  41.671 -35.418  1.00  0.00     0.042 C 
ENDBRANCH  24  25
ENDBRANCH  23  24
ENDBRANCH  21  23
ENDBRANCH  11  21
BRANCH   1  29
HETATM   29  O2  UNL     1     -15.345  44.245 -27.567  1.00  0.00    -0.316 OA
BRANCH  29  30
HETATM   30  C2  UNL     1     -16.635  44.329 -27.992  1.00  0.00     0.255 C 
HETATM   31  C1  UNL     1     -17.489  44.918 -26.911  1.00  0.00     0.126 C 
HETATM   32  O1  UNL     1     -17.053  43.971 -29.082  1.00  0.00    -0.266 OA
ENDBRANCH  29  30
ENDBRANCH   1  29
TORSDOF 6
ENDMDL
