MODEL 1
REMARK minimizedAffinity -9.87683487
REMARK CNNscore 0.239594221
REMARK CNNaffinity 7.23029709
REMARK  6 active torsions:
REMARK  status: ('A' for Active; 'I' for Inactive)
REMARK    1  A    between atoms: C2_2  and  C3_3 
REMARK    2  A    between atoms: C11_12  and  C12_13 
REMARK    3  A    between atoms: C25_28  and  C26_29 
REMARK    4  A    between atoms: C27_32  and  C30_35 
REMARK    5  A    between atoms: C31_36  and  O3_37 
REMARK    6  A    between atoms: C37_44  and  O4_45 
ROOT
HETATM    1  C12 UNL     1       1.477  52.031 -13.100  1.00  0.00    -0.003 C 
HETATM    2  C13 UNL     1       0.852  53.007 -12.422  1.00  0.00     0.102 C 
HETATM    3  N2  UNL     1       1.424  53.699 -11.386  1.00  0.00    -0.349 N 
HETATM    4  C14 UNL     1       0.759  54.431 -10.374  1.00  0.00     0.041 A 
HETATM    5  C15 UNL     1      -0.536  54.930 -10.409  1.00  0.00     0.030 A 
HETATM    6  C16 UNL     1      -1.054  55.571  -9.280  1.00  0.00     0.002 A 
HETATM    7  C17 UNL     1      -0.277  55.719  -8.123  1.00  0.00     0.001 A 
HETATM    8  C18 UNL     1       1.022  55.216  -8.082  1.00  0.00     0.010 A 
HETATM    9  C19 UNL     1       1.527  54.582  -9.208  1.00  0.00    -0.018 A 
HETATM   10  C20 UNL     1       2.832  53.880  -9.365  1.00  0.00     0.043 C 
HETATM   11  C21 UNL     1       4.094  54.542  -8.762  1.00  0.00     0.049 C 
HETATM   12  C22 UNL     1       4.730  53.512  -7.739  1.00  0.00     0.274 C 
HETATM   13  N3  UNL     1       3.821  52.337  -7.588  1.00  0.00     0.098 N 
HETATM   14  C23 UNL     1       4.492  50.983  -7.922  1.00  0.00     0.308 C 
HETATM   15  C24 UNL     1       4.177  50.315  -9.361  1.00  0.00    -0.041 C 
HETATM   16  C25 UNL     1       4.956  49.368  -9.925  1.00  0.00     0.089 C 
HETATM   17  C27 UNL     1       2.905  50.797 -10.186  1.00  0.00     0.027 C 
HETATM   18  C28 UNL     1       2.016  51.424  -9.131  1.00  0.00     0.046 C 
HETATM   19  C29 UNL     1       2.930  52.554  -8.698  1.00  0.00     0.239 C 
HETATM   20  C30 UNL     1       3.281  51.950 -11.288  1.00  0.00     0.052 C 
HETATM   21  C31 UNL     1       2.884  51.615 -12.744  1.00  0.00     0.160 C 
HETATM   22  C32 UNL     1       2.823  53.478 -10.922  1.00  0.00     0.112 C 
ENDROOT
BRANCH   1  23
HETATM   23  C11 UNL     1       0.783  51.329 -14.189  1.00  0.00    -0.016 A 
HETATM   24  C3  UNL     1       0.029  50.167 -13.987  1.00  0.00    -0.032 A 
HETATM   25  C4  UNL     1      -0.559  49.557 -15.101  1.00  0.00     0.104 A 
HETATM   26  N1  UNL     1      -0.427  50.050 -16.360  1.00  0.00    -0.330 N 
HETATM   27  C5  UNL     1      -1.020  49.415 -17.397  1.00  0.00     0.097 A 
HETATM   28  C9  UNL     1       0.304  51.188 -16.557  1.00  0.00     0.067 A 
HETATM   29  C6  UNL     1      -0.933  49.879 -18.703  1.00  0.00     0.032 A 
HETATM   30  C7  UNL     1      -0.202  51.046 -18.954  1.00  0.00     0.009 A 
HETATM   31  C8  UNL     1       0.407  51.676 -17.876  1.00  0.00     0.071 A 
HETATM   32  C39 UNL     1       0.088  51.795 -20.142  1.00  0.00     0.036 A 
HETATM   33  N4  UNL     1       1.072  52.770 -18.391  1.00  0.00    -0.353 N 
HETATM   34  C33 UNL     1       0.895  52.859 -19.752  1.00  0.00     0.046 A 
HETATM   35  H30 UNL     1       1.640  53.422 -17.856  1.00  0.00     0.166 HD
HETATM   36  C34 UNL     1       1.393  53.801 -20.653  1.00  0.00     0.030 A 
HETATM   37  C35 UNL     1       1.051  53.643 -21.997  1.00  0.00     0.005 A 
HETATM   38  C36 UNL     1       0.230  52.597 -22.420  1.00  0.00     0.038 A 
HETATM   39  C37 UNL     1      -0.275  51.658 -21.508  1.00  0.00     0.081 A 
HETATM   40  C10 UNL     1       0.917  51.840 -15.479  1.00  0.00     0.045 A 
BRANCH  24  41
HETATM   41  C2  UNL     1      -0.162  49.539 -12.617  1.00  0.00     0.036 C 
HETATM   42  C1  UNL     1      -1.628  49.427 -12.215  1.00  0.00     0.010 C 
ENDBRANCH  24  41
BRANCH  39  43
HETATM   43  O4  UNL     1      -1.100  50.614 -21.835  1.00  0.00    -0.355 OA
HETATM   44  C38 UNL     1      -1.679  50.616 -23.139  1.00  0.00     0.210 C 
ENDBRANCH  39  43
ENDBRANCH   1  23
BRANCH  21  45
HETATM   45  O3  UNL     1       3.071  50.230 -13.042  1.00  0.00    -0.390 OA
HETATM   46  H28 UNL     1       3.934  49.958 -12.666  1.00  0.00     0.210 HD
ENDBRANCH  21  45
BRANCH  16  47
HETATM   47  C26 UNL     1       6.251  48.728  -9.410  1.00  0.00     0.198 C 
HETATM   48  O1  UNL     1       6.294  47.481  -9.617  1.00  0.00    -0.645 OA
HETATM   49  O2  UNL     1       7.086  49.501  -8.869  1.00  0.00    -0.645 OA
ENDBRANCH  16  47
TORSDOF 6
ENDMDL
