MODEL 1
REMARK minimizedAffinity -8.44585705
REMARK CNNscore 0.470689923
REMARK CNNaffinity 7.11902428
REMARK  6 active torsions:
REMARK  status: ('A' for Active; 'I' for Inactive)
REMARK    1  A    between atoms: C2_2  and  C30_31 
REMARK    2  A    between atoms: C3_3  and  C4_4 
REMARK    3  A    between atoms: C4_4  and  C5_5 
REMARK    4  A    between atoms: C5_5  and  C6_6 
REMARK    5  A    between atoms: C6_6  and  C8_8 
REMARK    6  A    between atoms: C30_31  and  O3_33 
ROOT
HETATM    1  C8  UNL     1      -8.329   7.227  15.136  1.00  0.00    -0.002 C 
HETATM    2  C9  UNL     1      -7.826   6.588  16.458  1.00  0.00     0.007 C 
HETATM    3  C10 UNL     1      -6.419   6.052  16.185  1.00  0.00     0.015 C 
HETATM    4  C11 UNL     1      -6.432   5.656  14.691  1.00  0.00    -0.013 C 
HETATM    5  C12 UNL     1      -7.209   4.314  14.589  1.00  0.00     0.021 C 
HETATM    6  C13 UNL     1      -5.016   5.537  14.071  1.00  0.00    -0.070 C 
HETATM    7  C14 UNL     1      -4.568   4.444  13.425  1.00  0.00    -0.022 C 
HETATM    8  C15 UNL     1      -3.268   4.339  12.693  1.00  0.00     0.034 C 
HETATM    9  C16 UNL     1      -2.532   5.681  12.434  1.00  0.00     0.013 C 
HETATM   10  C17 UNL     1      -1.056   5.462  11.932  1.00  0.00     0.018 C 
HETATM   11  C18 UNL     1      -0.664   6.553  10.908  1.00  0.00     0.023 C 
HETATM   12  C19 UNL     1      -0.837   4.113  11.211  1.00  0.00     0.023 C 
HETATM   13  C20 UNL     1      -0.070   5.506  13.108  1.00  0.00     0.135 C 
HETATM   14  O1  UNL     1       1.138   5.690  12.931  1.00  0.00    -0.297 OA
HETATM   15  C21 UNL     1      -0.588   5.188  14.493  1.00  0.00     0.080 C 
HETATM   16  C22 UNL     1      -1.890   5.893  14.875  1.00  0.00     0.017 C 
HETATM   17  C23 UNL     1      -2.641   6.589  13.701  1.00  0.00    -0.031 C 
HETATM   18  C24 UNL     1      -1.990   7.982  13.511  1.00  0.00     0.016 C 
HETATM   19  C25 UNL     1      -4.159   6.797  14.107  1.00  0.00     0.024 C 
HETATM   20  C26 UNL     1      -4.928   7.846  13.282  1.00  0.00     0.010 C 
HETATM   21  C27 UNL     1      -6.300   8.117  13.911  1.00  0.00     0.011 C 
HETATM   22  C28 UNL     1      -7.236   6.857  14.049  1.00  0.00    -0.029 C 
HETATM   23  C29 UNL     1      -7.740   6.548  12.633  1.00  0.00     0.016 C 
ENDROOT
BRANCH   1  24
HETATM   24  C6  UNL     1      -9.880   7.140  14.940  1.00  0.00    -0.014 C 
HETATM   25  C7  UNL     1     -10.647   8.288  15.605  1.00  0.00     0.010 C 
BRANCH  24  26
HETATM   26  C5  UNL     1     -10.487   6.735  13.571  1.00  0.00     0.008 C 
BRANCH  26  27
HETATM   27  C4  UNL     1     -11.313   7.772  12.806  1.00  0.00     0.028 C 
BRANCH  27  28
HETATM   28  C3  UNL     1     -12.713   7.271  12.563  1.00  0.00    -0.013 C 
HETATM   29  C2  UNL     1     -13.867   7.810  13.005  1.00  0.00     0.008 C 
HETATM   30  C1  UNL     1     -13.993   9.010  13.894  1.00  0.00     0.055 C 
BRANCH  29  31
HETATM   31  C30 UNL     1     -15.119   7.133  12.575  1.00  0.00     0.171 C 
HETATM   32  O2  UNL     1     -15.603   7.134  11.457  1.00  0.00    -0.646 OA
BRANCH  31  33
HETATM   33  O3  UNL     1     -15.721   6.483  13.587  1.00  0.00    -0.773 OA
HETATM   34  H46 UNL     1     -16.518   6.100  13.166  1.00  0.00     0.167 HD
ENDBRANCH  31  33
ENDBRANCH  29  31
ENDBRANCH  27  28
ENDBRANCH  26  27
ENDBRANCH  24  26
ENDBRANCH   1  24
TORSDOF 6
ENDMDL
