MODEL 1
REMARK minimizedAffinity -7.34712029
REMARK CNNscore 0.669299304
REMARK CNNaffinity 6.54865217
REMARK  13 active torsions:
REMARK  status: ('A' for Active; 'I' for Inactive)
REMARK    1  A    between atoms: C4_4  and  O1_5 
REMARK    2  A    between atoms: C7_9  and  C8_10 
REMARK    3  A    between atoms: C8_10  and  C10_12 
REMARK    4  A    between atoms: C10_12  and  O3_13 
REMARK    5  A    between atoms: C16_19  and  O4_21 
REMARK    6  A    between atoms: O4_21  and  C18_22 
REMARK    7  A    between atoms: C18_22  and  C19_24 
REMARK    8  A    between atoms: C19_24  and  C20_25 
REMARK    9  A    between atoms: C19_24  and  O6_27 
REMARK   10  A    between atoms: O6_27  and  C22_28 
REMARK   11  A    between atoms: C22_28  and  C23_30 
REMARK   12  A    between atoms: C23_30  and  C24_31 
REMARK   13  A    between atoms: C28_35  and  O8_36 
ROOT
HETATM    1  C1  UNL     1       0.837  10.284  17.783  1.00  0.00     0.017 C 
HETATM    2  C2  UNL     1       1.026  10.235  16.450  1.00  0.00    -0.056 C 
HETATM    3  C3  UNL     1       0.083  10.996  15.520  1.00  0.00     0.105 C 
HETATM    4  C4  UNL     1      -0.632  10.164  14.424  1.00  0.00     0.173 C 
HETATM    5  O2  UNL     1       0.363   9.628  13.567  1.00  0.00    -0.345 OA
HETATM    6  C5  UNL     1       0.054   8.288  13.198  1.00  0.00     0.165 C 
HETATM    7  C6  UNL     1      -1.107   7.772  14.080  1.00  0.00     0.036 C 
HETATM    8  C7  UNL     1      -2.271   7.167  13.239  1.00  0.00    -0.001 C 
HETATM    9  C11 UNL     1      -3.223   8.274  12.765  1.00  0.00     0.010 C 
HETATM   10  C12 UNL     1      -3.845   9.111  13.880  1.00  0.00     0.034 C 
HETATM   11  C13 UNL     1      -2.969   9.263  15.097  1.00  0.00    -0.079 C 
HETATM   12  C14 UNL     1      -3.512   9.583  16.285  1.00  0.00     0.015 C 
HETATM   13  C15 UNL     1      -1.487   8.989  14.953  1.00  0.00     0.083 C 
HETATM   14  C16 UNL     1       1.374   7.440  13.151  1.00  0.00     0.093 C 
HETATM   15  C17 UNL     1       2.344   8.173  12.188  1.00  0.00     0.049 C 
HETATM   16  C26 UNL     1       2.092   7.138  14.508  1.00  0.00     0.044 C 
HETATM   17  C27 UNL     1       1.807   7.935  15.788  1.00  0.00     0.039 C 
HETATM   18  C28 UNL     1       2.134   9.434  15.772  1.00  0.00     0.146 C 
ENDROOT
BRANCH  14  19
HETATM   19  O4  UNL     1       0.974   6.162  12.533  1.00  0.00    -0.306 OA
BRANCH  19  20
HETATM   20  C18 UNL     1       0.500   6.131  11.254  1.00  0.00     0.289 C 
HETATM   21  O5  UNL     1      -0.560   5.632  10.899  1.00  0.00    -0.262 OA
BRANCH  20  22
HETATM   22  C19 UNL     1       1.469   6.823  10.292  1.00  0.00     0.231 C 
BRANCH  22  23
HETATM   23  C20 UNL     1       0.730   7.859   9.441  1.00  0.00     0.038 C 
HETATM   24  C21 UNL     1       1.391   8.118   8.098  1.00  0.00     0.008 C 
ENDBRANCH  22  23
BRANCH  22  25
HETATM   25  O6  UNL     1       1.981   5.842   9.364  1.00  0.00    -0.306 OA
BRANCH  25  26
HETATM   26  C22 UNL     1       3.263   5.457   9.602  1.00  0.00     0.259 C 
HETATM   27  O7  UNL     1       4.184   6.222   9.862  1.00  0.00    -0.265 OA
BRANCH  26  28
HETATM   28  C23 UNL     1       3.383   3.956   9.531  1.00  0.00     0.111 C 
BRANCH  28  29
HETATM   29  C24 UNL     1       4.692   3.526   8.873  1.00  0.00     0.005 C 
HETATM   30  C25 UNL     1       4.526   3.195   7.396  1.00  0.00     0.005 C 
ENDBRANCH  28  29
ENDBRANCH  26  28
ENDBRANCH  25  26
ENDBRANCH  22  25
ENDBRANCH  20  22
ENDBRANCH  19  20
ENDBRANCH  14  19
BRANCH   4  31
HETATM   31  O1  UNL     1      -1.378  11.078  13.631  1.00  0.00    -0.364 OA
HETATM   32  H5  UNL     1      -1.511  10.631  12.782  1.00  0.00     0.213 HD
ENDBRANCH   4  31
BRANCH   8  33
HETATM   33  C8  UNL     1      -2.922   5.911  13.908  1.00  0.00     0.010 C 
HETATM   34  C9  UNL     1      -4.394   6.027  14.313  1.00  0.00     0.012 C 
BRANCH  33  35
HETATM   35  C10 UNL     1      -2.681   4.615  13.112  1.00  0.00     0.168 C 
BRANCH  35  36
HETATM   36  O3  UNL     1      -3.881   4.121  12.542  1.00  0.00    -0.400 OA
HETATM   37  H15 UNL     1      -3.664   3.285  12.096  1.00  0.00     0.209 HD
ENDBRANCH  35  36
ENDBRANCH  33  35
ENDBRANCH   8  33
BRANCH  18  38
HETATM   38  O8  UNL     1       3.380   9.647  16.434  1.00  0.00    -0.391 OA
HETATM   39  H44 UNL     1       3.252   9.535  17.387  1.00  0.00     0.210 HD
ENDBRANCH  18  38
TORSDOF 13
ENDMDL
