MODEL 1
REMARK minimizedAffinity -8.69590664
REMARK  7 active torsions:
REMARK  status: ('A' for Active; 'I' for Inactive)
REMARK    1  A    between atoms: C3_3  and  C5_5 
REMARK    2  A    between atoms: C6_6  and  C7_7 
REMARK    3  A    between atoms: C8_8  and  C9_9 
REMARK    4  A    between atoms: C10_10  and  C12_12 
REMARK    5  A    between atoms: C12_12  and  C13_14 
REMARK    6  A    between atoms: C13_14  and  C15_16 
REMARK    7  A    between atoms: C15_16  and  O2_17 
ROOT
HETATM    1  C5  UNL     1      -3.435  49.142 -22.757  1.00  0.00     0.058 C 
HETATM    2  C6  UNL     1      -2.633  49.286 -24.104  1.00  0.00     0.024 C 
HETATM    3  C16 UNL     1      -1.825  50.613 -24.156  1.00  0.00     0.003 C 
HETATM    4  C17 UNL     1      -1.117  50.833 -25.512  1.00  0.00     0.041 C 
HETATM    5  C18 UNL     1      -0.265  52.067 -25.509  1.00  0.00     0.157 A 
HETATM    6  O3  UNL     1       1.064  51.853 -25.000  1.00  0.00    -0.370 OA
HETATM    7  C19 UNL     1       0.209  52.694 -24.217  1.00  0.00     0.084 A 
HETATM    8  C20 UNL     1       0.633  54.128 -24.205  1.00  0.00     0.049 C 
HETATM    9  C21 UNL     1      -0.213  52.099 -22.902  1.00  0.00     0.048 C 
HETATM   10  C22 UNL     1      -0.760  50.665 -23.030  1.00  0.00     0.025 C 
HETATM   11  C23 UNL     1      -1.263  50.167 -21.699  1.00  0.00     0.162 A 
HETATM   12  O4  UNL     1      -1.257  48.727 -21.630  1.00  0.00    -0.368 OA
HETATM   13  C24 UNL     1      -2.538  49.367 -21.543  1.00  0.00     0.092 A 
HETATM   14  C25 UNL     1      -3.149  49.204 -20.181  1.00  0.00     0.049 C 
ENDROOT
BRANCH   2  15
HETATM   15  C7  UNL     1      -3.529  49.111 -25.317  1.00  0.00    -0.021 C 
HETATM   16  C8  UNL     1      -3.179  48.410 -26.409  1.00  0.00    -0.003 C 
BRANCH  16  17
HETATM   17  C9  UNL     1      -4.057  48.261 -27.550  1.00  0.00     0.010 C 
HETATM   18  C10 UNL     1      -5.378  48.005 -27.513  1.00  0.00    -0.016 C 
HETATM   19  C11 UNL     1      -6.229  47.840 -26.284  1.00  0.00     0.052 C 
BRANCH  18  20
HETATM   20  C12 UNL     1      -6.160  47.898 -28.799  1.00  0.00     0.161 C 
HETATM   21  O1  UNL     1      -7.370  48.138 -28.758  1.00  0.00    -0.292 OA
BRANCH  20  22
HETATM   22  C13 UNL     1      -5.449  47.536 -30.110  1.00  0.00     0.080 C 
HETATM   23  C14 UNL     1      -6.074  46.311 -30.780  1.00  0.00     0.020 C 
BRANCH  22  24
HETATM   24  C15 UNL     1      -5.449  48.740 -31.064  1.00  0.00     0.176 C 
BRANCH  24  25
HETATM   25  O2  UNL     1      -4.600  49.777 -30.586  1.00  0.00    -0.400 OA
HETATM   26  H22 UNL     1      -4.159  50.167 -31.363  1.00  0.00     0.209 HD
ENDBRANCH  24  25
ENDBRANCH  22  24
ENDBRANCH  20  22
ENDBRANCH  18  20
ENDBRANCH  16  17
ENDBRANCH   2  15
BRANCH   1  27
HETATM   27  C3  UNL     1      -4.753  49.951 -22.707  1.00  0.00    -0.080 C 
HETATM   28  C2  UNL     1      -5.965  49.367 -22.826  1.00  0.00    -0.028 C 
HETATM   29  C1  UNL     1      -7.314  50.016 -22.803  1.00  0.00     0.036 C 
HETATM   30  C4  UNL     1      -4.549  51.443 -22.595  1.00  0.00     0.043 C 
ENDBRANCH   1  27
TORSDOF 7
ENDMDL
