MODEL 1
REMARK minimizedAffinity -5.20106745
REMARK  0 active torsions:
REMARK  status: ('A' for Active; 'I' for Inactive)
ROOT
HETATM    1  C1  UNL     1       2.360  51.565 -26.894  1.00  0.00     0.001 A 
HETATM    2  C2  UNL     1       1.767  51.762 -28.133  1.00  0.00     0.001 A 
HETATM    3  C3  UNL     1       0.389  51.945 -28.218  1.00  0.00     0.008 A 
HETATM    4  C4  UNL     1      -0.433  51.929 -27.070  1.00  0.00    -0.041 A 
HETATM    5  C5  UNL     1       0.176  51.754 -25.802  1.00  0.00    -0.041 A 
HETATM    6  C6  UNL     1       1.574  51.558 -25.744  1.00  0.00     0.008 A 
HETATM    7  C7  UNL     1      -0.561  51.678 -24.475  1.00  0.00     0.125 C 
HETATM    8  S1  UNL     1      -2.164  52.503 -24.420  1.00  0.00    -0.093 SA
HETATM    9  S2  UNL     1      -3.028  51.579 -26.026  1.00  0.00    -0.093 SA
HETATM   10  C8  UNL     1      -1.912  52.185 -27.308  1.00  0.00     0.125 C 
ENDROOT
TORSDOF 0
ENDMDL
