MODEL 1
REMARK minimizedAffinity -8.02609348
REMARK CNNscore 0.598968923
REMARK CNNaffinity 7.00742149
REMARK  10 active torsions:
REMARK  status: ('A' for Active; 'I' for Inactive)
REMARK    1  A    between atoms: C2_2  and  O2_4 
REMARK    2  A    between atoms: O2_4  and  C3_5 
REMARK    3  A    between atoms: C3_5  and  C4_6 
REMARK    4  A    between atoms: C3_5  and  C30_36 
REMARK    5  A    between atoms: C4_6  and  O3_7 
REMARK    6  A    between atoms: C4_6  and  C5_8 
REMARK    7  A    between atoms: C5_8  and  C6_9 
REMARK    8  A    between atoms: C6_9  and  C8_11 
REMARK    9  A    between atoms: C27_31  and  O5_32 
REMARK   10  A    between atoms: C30_36  and  O7_39 
ROOT
HETATM    1  C8  UNL     1       0.431  50.742 -14.925  1.00  0.00     0.097 A 
HETATM    2  C9  UNL     1      -0.946  51.265 -14.635  1.00  0.00     0.042 C 
HETATM    3  C10 UNL     1      -1.334  50.640 -13.278  1.00  0.00     0.016 C 
HETATM    4  C11 UNL     1       0.003  50.321 -12.518  1.00  0.00    -0.002 C 
HETATM    5  C12 UNL     1      -0.155  48.941 -11.825  1.00  0.00     0.019 C 
HETATM    6  C13 UNL     1       0.467  51.465 -11.481  1.00  0.00    -0.027 C 
HETATM    7  C14 UNL     1      -0.444  51.300 -10.227  1.00  0.00     0.016 C 
HETATM    8  C15 UNL     1       0.246  52.899 -12.028  1.00  0.00     0.011 C 
HETATM    9  C16 UNL     1       0.740  54.023 -11.110  1.00  0.00     0.007 C 
HETATM   10  C17 UNL     1       2.224  53.904 -10.715  1.00  0.00     0.009 C 
HETATM   11  C18 UNL     1       2.752  55.115  -9.860  1.00  0.00     0.017 C 
HETATM   12  C19 UNL     1       3.201  56.247 -10.812  1.00  0.00     0.023 C 
HETATM   13  C20 UNL     1       1.683  55.702  -8.912  1.00  0.00     0.023 C 
HETATM   14  C21 UNL     1       3.982  54.780  -8.999  1.00  0.00     0.135 C 
HETATM   15  O4  UNL     1       4.364  55.551  -8.109  1.00  0.00    -0.297 OA
HETATM   16  C22 UNL     1       4.800  53.537  -9.268  1.00  0.00     0.080 C 
HETATM   17  C23 UNL     1       4.143  52.458 -10.113  1.00  0.00     0.017 C 
HETATM   18  C24 UNL     1       2.589  52.492 -10.160  1.00  0.00    -0.032 C 
HETATM   19  C25 UNL     1       2.086  52.269  -8.708  1.00  0.00     0.016 C 
HETATM   20  C26 UNL     1       2.018  51.317 -11.110  1.00  0.00     0.032 C 
HETATM   21  C27 UNL     1       2.918  51.073 -12.379  1.00  0.00     0.126 C 
HETATM   22  C28 UNL     1       2.425  49.966 -13.301  1.00  0.00     0.074 C 
HETATM   23  C29 UNL     1       1.000  50.176 -13.649  1.00  0.00     0.104 A 
HETATM   24  O6  UNL     1       0.561  49.323 -14.724  1.00  0.00    -0.362 OA
ENDROOT
BRANCH   1  25
HETATM   25  C6  UNL     1       1.239  51.252 -16.100  1.00  0.00     0.022 C 
HETATM   26  C7  UNL     1       1.562  52.741 -15.958  1.00  0.00     0.013 C 
BRANCH  25  27
HETATM   27  C5  UNL     1       0.496  50.946 -17.426  1.00  0.00     0.041 C 
BRANCH  27  28
HETATM   28  C4  UNL     1       0.273  52.171 -18.323  1.00  0.00     0.151 C 
BRANCH  28  29
HETATM   29  C3  UNL     1      -0.201  51.850 -19.769  1.00  0.00     0.194 C 
BRANCH  29  30
HETATM   30  O2  UNL     1      -0.281  53.061 -20.555  1.00  0.00    -0.311 OA
BRANCH  30  31
HETATM   31  C2  UNL     1       0.790  53.354 -21.341  1.00  0.00     0.255 C 
HETATM   32  C1  UNL     1       0.780  52.489 -22.566  1.00  0.00     0.126 C 
HETATM   33  O1  UNL     1       1.628  54.214 -21.115  1.00  0.00    -0.266 OA
ENDBRANCH  30  31
ENDBRANCH  29  30
BRANCH  29  34
HETATM   34  C30 UNL     1      -1.549  51.064 -19.912  1.00  0.00     0.080 C 
HETATM   35  C31 UNL     1      -1.237  49.568 -20.092  1.00  0.00     0.048 C 
HETATM   36  C32 UNL     1      -2.411  51.510 -21.103  1.00  0.00     0.048 C 
BRANCH  34  37
HETATM   37  O7  UNL     1      -2.328  51.196 -18.711  1.00  0.00    -0.388 OA
HETATM   38  H52 UNL     1      -3.136  50.659 -18.822  1.00  0.00     0.210 HD
ENDBRANCH  34  37
ENDBRANCH  29  34
ENDBRANCH  28  29
BRANCH  28  39
HETATM   39  O3  UNL     1       1.465  52.963 -18.340  1.00  0.00    -0.393 OA
HETATM   40  H6  UNL     1       2.087  52.502 -18.946  1.00  0.00     0.210 HD
ENDBRANCH  28  39
ENDBRANCH  27  28
ENDBRANCH  25  27
ENDBRANCH   1  25
BRANCH  21  41
HETATM   41  O5  UNL     1       3.093  52.261 -13.142  1.00  0.00    -0.395 OA
HETATM   42  H43 UNL     1       3.638  52.045 -13.920  1.00  0.00     0.210 HD
ENDBRANCH  21  41
TORSDOF 10
ENDMDL
