MODEL 1
REMARK minimizedAffinity -9.40185833
REMARK  7 active torsions:
REMARK  status: ('A' for Active; 'I' for Inactive)
REMARK    1  A    between atoms: C4_4  and  C5_5 
REMARK    2  A    between atoms: C5_5  and  O1_6 
REMARK    3  A    between atoms: C5_5  and  C6_7 
REMARK    4  A    between atoms: C6_7  and  C7_8 
REMARK    5  A    between atoms: C7_8  and  C8_9 
REMARK    6  A    between atoms: C7_8  and  C9_11 
REMARK    7  A    between atoms: C8_9  and  O2_10 
ROOT
HETATM    1  C9  UNL     1      -1.007  52.283 -24.943  1.00  0.00     0.001 C 
HETATM    2  C10 UNL     1      -0.404  51.124 -25.788  1.00  0.00     0.007 C 
HETATM    3  C11 UNL     1      -1.416  49.967 -25.740  1.00  0.00     0.015 C 
HETATM    4  C12 UNL     1      -2.323  50.288 -24.535  1.00  0.00    -0.013 C 
HETATM    5  C13 UNL     1      -1.550  49.815 -23.266  1.00  0.00     0.021 C 
HETATM    6  C14 UNL     1      -3.696  49.646 -24.472  1.00  0.00    -0.070 C 
HETATM    7  C15 UNL     1      -4.062  48.563 -25.176  1.00  0.00    -0.022 C 
HETATM    8  C16 UNL     1      -5.461  48.040 -25.119  1.00  0.00     0.034 C 
HETATM    9  C17 UNL     1      -6.121  48.096 -23.714  1.00  0.00     0.013 C 
HETATM   10  C18 UNL     1      -7.680  47.977 -23.781  1.00  0.00     0.018 C 
HETATM   11  C19 UNL     1      -8.080  46.634 -24.439  1.00  0.00     0.023 C 
HETATM   12  C20 UNL     1      -8.379  49.090 -24.583  1.00  0.00     0.023 C 
HETATM   13  C21 UNL     1      -8.222  47.975 -22.346  1.00  0.00     0.135 C 
HETATM   14  O3  UNL     1      -9.066  47.162 -21.957  1.00  0.00    -0.297 OA
HETATM   15  C22 UNL     1      -7.712  49.011 -21.376  1.00  0.00     0.080 C 
HETATM   16  C23 UNL     1      -6.676  49.952 -21.965  1.00  0.00     0.017 C 
HETATM   17  C24 UNL     1      -5.556  49.249 -22.772  1.00  0.00    -0.031 C 
HETATM   18  C25 UNL     1      -4.613  48.554 -21.739  1.00  0.00     0.016 C 
HETATM   19  C26 UNL     1      -4.752  50.324 -23.605  1.00  0.00     0.024 C 
HETATM   20  C27 UNL     1      -4.228  51.529 -22.775  1.00  0.00     0.010 C 
HETATM   21  C28 UNL     1      -3.127  52.414 -23.406  1.00  0.00     0.011 C 
HETATM   22  C29 UNL     1      -2.486  51.845 -24.686  1.00  0.00    -0.029 C 
HETATM   23  C30 UNL     1      -3.385  52.252 -25.889  1.00  0.00     0.016 C 
ENDROOT
BRANCH   1  24
HETATM   24  C7  UNL     1      -0.612  53.695 -25.466  1.00  0.00     0.017 C 
BRANCH  24  25
HETATM   25  C6  UNL     1       0.153  54.614 -24.475  1.00  0.00     0.043 C 
BRANCH  25  26
HETATM   26  C5  UNL     1       1.134  53.864 -23.553  1.00  0.00     0.141 C 
BRANCH  26  27
HETATM   27  C4  UNL     1       0.388  52.968 -22.602  1.00  0.00     0.006 C 
HETATM   28  C2  UNL     1       0.484  52.902 -21.259  1.00  0.00    -0.089 C 
HETATM   29  C1  UNL     1       1.389  53.744 -20.402  1.00  0.00     0.042 C 
HETATM   30  C3  UNL     1      -0.358  51.921 -20.483  1.00  0.00     0.042 C 
ENDBRANCH  26  27
BRANCH  26  31
HETATM   31  O1  UNL     1       1.841  54.815 -22.759  1.00  0.00    -0.392 OA
HETATM   32  H9  UNL     1       2.261  54.316 -22.036  1.00  0.00     0.210 HD
ENDBRANCH  26  31
ENDBRANCH  25  26
ENDBRANCH  24  25
BRANCH  24  33
HETATM   33  C8  UNL     1       0.126  53.604 -26.811  1.00  0.00     0.169 C 
BRANCH  33  34
HETATM   34  O2  UNL     1      -0.555  54.344 -27.819  1.00  0.00    -0.400 OA
HETATM   35  H15 UNL     1      -1.470  54.003 -27.847  1.00  0.00     0.209 HD
ENDBRANCH  33  34
ENDBRANCH  24  33
ENDBRANCH   1  24
TORSDOF 7
ENDMDL
