MODEL 1
REMARK minimizedAffinity -9.53327656
REMARK  4 active torsions:
REMARK  status: ('A' for Active; 'I' for Inactive)
REMARK    1  A    between atoms: C4_4  and  C5_5 
REMARK    2  A    between atoms: C5_5  and  C6_6 
REMARK    3  A    between atoms: C6_6  and  C7_7 
REMARK    4  A    between atoms: C7_7  and  C9_9 
ROOT
HETATM    1  C9  UNL     1       0.704   7.390  12.246  1.00  0.00    -0.002 C 
HETATM    2  C10 UNL     1       0.621   6.147  11.308  1.00  0.00     0.007 C 
HETATM    3  C11 UNL     1      -0.761   5.500  11.516  1.00  0.00     0.015 C 
HETATM    4  C12 UNL     1      -1.319   6.168  12.788  1.00  0.00    -0.013 C 
HETATM    5  C13 UNL     1      -0.690   5.393  13.991  1.00  0.00     0.021 C 
HETATM    6  C14 UNL     1      -2.828   6.144  13.010  1.00  0.00    -0.070 C 
HETATM    7  C15 UNL     1      -3.599   5.125  12.591  1.00  0.00    -0.022 C 
HETATM    8  C16 UNL     1      -5.061   4.990  12.884  1.00  0.00     0.034 C 
HETATM    9  C17 UNL     1      -5.721   6.235  13.520  1.00  0.00     0.013 C 
HETATM   10  C18 UNL     1      -7.183   5.955  14.031  1.00  0.00     0.018 C 
HETATM   11  C19 UNL     1      -7.395   4.561  14.654  1.00  0.00     0.023 C 
HETATM   12  C20 UNL     1      -8.173   6.083  12.853  1.00  0.00     0.023 C 
HETATM   13  C21 UNL     1      -7.582   7.022  15.057  1.00  0.00     0.135 C 
HETATM   14  O1  UNL     1      -8.436   6.830  15.920  1.00  0.00    -0.297 OA
HETATM   15  C22 UNL     1      -6.931   8.369  14.908  1.00  0.00     0.080 C 
HETATM   16  C23 UNL     1      -5.422   8.274  15.066  1.00  0.00     0.017 C 
HETATM   17  C24 UNL     1      -4.767   6.952  14.549  1.00  0.00    -0.031 C 
HETATM   18  C25 UNL     1      -4.474   6.048  15.771  1.00  0.00     0.016 C 
HETATM   19  C26 UNL     1      -3.428   7.319  13.784  1.00  0.00     0.024 C 
HETATM   20  C27 UNL     1      -2.372   8.058  14.641  1.00  0.00     0.010 C 
HETATM   21  C28 UNL     1      -1.066   8.436  13.902  1.00  0.00     0.011 C 
HETATM   22  C29 UNL     1      -0.800   7.640  12.604  1.00  0.00    -0.029 C 
HETATM   23  C30 UNL     1      -1.465   8.391  11.405  1.00  0.00     0.016 C 
ENDROOT
BRANCH   1  24
HETATM   24  C7  UNL     1       1.564   8.536  11.631  1.00  0.00    -0.014 C 
HETATM   25  C8  UNL     1       2.102   9.486  12.706  1.00  0.00     0.010 C 
BRANCH  24  26
HETATM   26  C6  UNL     1       2.743   7.938  10.811  1.00  0.00     0.008 C 
BRANCH  26  27
HETATM   27  C5  UNL     1       2.542   6.511  10.279  1.00  0.00     0.028 C 
BRANCH  27  28
HETATM   28  C4  UNL     1       2.138   6.480   8.829  1.00  0.00    -0.025 C 
HETATM   29  C2  UNL     1       2.381   7.398   7.874  1.00  0.00    -0.091 C 
HETATM   30  C1  UNL     1       3.138   8.684   8.065  1.00  0.00     0.042 C 
HETATM   31  C3  UNL     1       1.879   7.187   6.468  1.00  0.00     0.042 C 
ENDBRANCH  27  28
ENDBRANCH  26  27
ENDBRANCH  24  26
ENDBRANCH   1  24
TORSDOF 4
ENDMDL
