MODEL 1
REMARK minimizedAffinity -8.63932896
REMARK CNNscore 0.682852149
REMARK CNNaffinity 7.47234917
REMARK  19 active torsions:
REMARK  status: ('A' for Active; 'I' for Inactive)
REMARK    1  A    between atoms: C14_15  and  O2_16 
REMARK    2  A    between atoms: C14_15  and  C15_17 
REMARK    3  A    between atoms: C15_17  and  C16_19 
REMARK    4  A    between atoms: C16_19  and  O4_20 
REMARK    5  A    between atoms: O4_20  and  C17_21 
REMARK    6  A    between atoms: C17_21  and  C18_23 
REMARK    7  A    between atoms: C18_23  and  C19_24 
REMARK    8  A    between atoms: C19_24  and  C20_25 
REMARK       I    between atoms: C20_25  and  N1_27 
REMARK    9  A    between atoms: N1_27  and  C21_28 
REMARK   10  A    between atoms: C21_28  and  C22_29 
REMARK   11  A    between atoms: C22_29  and  C23_30 
REMARK   12  A    between atoms: C23_30  and  C24_31 
REMARK   13  A    between atoms: C24_31  and  C25_32 
REMARK   14  A    between atoms: C25_32  and  C26_33 
REMARK       I    between atoms: C26_33  and  N2_35 
REMARK   15  A    between atoms: N2_35  and  C27_36 
REMARK   16  A    between atoms: C27_36  and  C28_37 
REMARK   17  A    between atoms: C28_37  and  C29_38 
REMARK   18  A    between atoms: C32_41  and  O8_42 
REMARK   19  A    between atoms: C33_43  and  O9_44 
ROOT
HETATM    1  C17 UNL     1      -2.527  49.380 -15.129  1.00  0.00     0.259 C 
HETATM    2  O5  UNL     1      -2.946  50.489 -15.429  1.00  0.00    -0.265 OA
ENDROOT
BRANCH   1   3
HETATM    3  O4  UNL     1      -2.886  48.219 -15.736  1.00  0.00    -0.314 OA
BRANCH   3   4
HETATM    4  C16 UNL     1      -2.166  47.899 -16.911  1.00  0.00     0.260 C 
BRANCH   4   5
HETATM    5  C15 UNL     1      -2.677  48.327 -18.288  1.00  0.00     0.185 C 
HETATM    6  O3  UNL     1      -3.779  47.906 -18.685  1.00  0.00    -0.292 OA
BRANCH   5   7
HETATM    7  C14 UNL     1      -1.798  49.139 -19.284  1.00  0.00     0.128 C 
HETATM    8  C13 UNL     1      -0.810  48.295 -20.080  1.00  0.00     0.047 C 
HETATM    9  C12 UNL     1      -1.468  48.027 -21.427  1.00  0.00     0.009 C 
HETATM   10  C11 UNL     1      -2.610  49.050 -21.595  1.00  0.00     0.002 C 
HETATM   11  C10 UNL     1      -2.540  49.841 -22.916  1.00  0.00    -0.004 C 
HETATM   12  C35 UNL     1      -2.563  49.989 -20.354  1.00  0.00    -0.002 C 
HETATM   13  C9  UNL     1      -2.775  48.955 -24.143  1.00  0.00     0.010 C 
HETATM   14  C39 UNL     1      -1.198  50.603 -23.071  1.00  0.00     0.002 C 
HETATM   15  C8  UNL     1      -2.832  49.807 -25.408  1.00  0.00     0.035 C 
HETATM   16  C7  UNL     1      -1.593  50.657 -25.574  1.00  0.00    -0.068 C 
HETATM   17  C2  UNL     1      -1.153  51.500 -24.365  1.00  0.00    -0.016 C 
HETATM   18  C6  UNL     1      -0.942  50.648 -26.749  1.00  0.00     0.053 C 
HETATM   19  C1  UNL     1      -2.083  52.727 -24.253  1.00  0.00     0.020 C 
HETATM   20  C3  UNL     1       0.316  51.983 -24.571  1.00  0.00     0.022 C 
HETATM   21  C4  UNL     1       0.586  52.545 -25.959  1.00  0.00     0.084 C 
HETATM   22  C5  UNL     1       0.210  51.542 -27.018  1.00  0.00     0.149 C 
HETATM   23  O1  UNL     1       0.768  51.496 -28.110  1.00  0.00    -0.293 OA
HETATM   24  C38 UNL     1      -0.781  51.300 -21.756  1.00  0.00     0.007 C 
HETATM   25  C37 UNL     1      -1.889  51.356 -20.711  1.00  0.00     0.013 C 
HETATM   26  C36 UNL     1      -3.991  50.364 -19.890  1.00  0.00     0.019 C 
BRANCH   7  27
HETATM   27  O2  UNL     1      -1.007  50.010 -18.447  1.00  0.00    -0.381 OA
HETATM   28  H19 UNL     1      -1.502  50.108 -17.604  1.00  0.00     0.211 HD
ENDBRANCH   7  27
ENDBRANCH   5   7
ENDBRANCH   4   5
ENDBRANCH   3   4
ENDBRANCH   1   3
BRANCH   1  29
HETATM   29  C18 UNL     1      -1.495  49.099 -14.065  1.00  0.00     0.120 C 
BRANCH  29  30
HETATM   30  C19 UNL     1      -2.059  49.358 -12.675  1.00  0.00     0.112 C 
BRANCH  30  31
HETATM   31  C20 UNL     1      -2.129  50.840 -12.368  1.00  0.00     0.217 C 
HETATM   32  O6  UNL     1      -1.146  51.519 -12.092  1.00  0.00    -0.274 OA
HETATM   33  N1  UNL     1      -3.410  51.334 -12.428  1.00  0.00    -0.361 N 
HETATM   34  H26 UNL     1      -4.094  50.778 -12.944  1.00  0.00     0.162 HD
BRANCH  33  35
HETATM   35  C21 UNL     1      -3.710  52.728 -12.201  1.00  0.00     0.122 C 
BRANCH  35  36
HETATM   36  C22 UNL     1      -3.896  53.083 -10.728  1.00  0.00     0.020 C 
BRANCH  36  37
HETATM   37  C23 UNL     1      -3.282  54.405 -10.259  1.00  0.00     0.002 C 
BRANCH  37  38
HETATM   38  C24 UNL     1      -1.782  54.607 -10.502  1.00  0.00     0.009 C 
BRANCH  38  39
HETATM   39  C25 UNL     1      -0.913  55.221  -9.405  1.00  0.00     0.103 C 
BRANCH  39  40
HETATM   40  C26 UNL     1       0.551  54.813  -9.424  1.00  0.00     0.217 C 
HETATM   41  O7  UNL     1       1.098  54.170  -8.534  1.00  0.00    -0.274 OA
HETATM   42  N2  UNL     1       1.205  55.172 -10.580  1.00  0.00    -0.361 N 
HETATM   43  H37 UNL     1       0.669  55.508 -11.371  1.00  0.00     0.162 HD
BRANCH  42  44
HETATM   44  C27 UNL     1       2.602  54.836 -10.807  1.00  0.00     0.127 C 
BRANCH  44  45
HETATM   45  C28 UNL     1       3.533  56.055 -10.798  1.00  0.00     0.058 C 
BRANCH  45  46
HETATM   46  C29 UNL     1       4.250  56.243  -9.482  1.00  0.00    -0.054 A 
HETATM   47  C30 UNL     1       3.812  57.217  -8.568  1.00  0.00     0.010 A 
HETATM   48  C31 UNL     1       4.483  57.406  -7.359  1.00  0.00     0.040 A 
HETATM   49  C32 UNL     1       5.587  56.617  -7.065  1.00  0.00     0.098 A 
HETATM   50  C33 UNL     1       6.026  55.643  -7.957  1.00  0.00     0.099 A 
HETATM   51  C34 UNL     1       5.365  55.448  -9.165  1.00  0.00     0.046 A 
BRANCH  49  52
HETATM   52  O8  UNL     1       6.238  56.810  -5.881  1.00  0.00    -0.358 OA
HETATM   53  H44 UNL     1       6.984  56.178  -5.905  1.00  0.00     0.217 HD
ENDBRANCH  49  52
BRANCH  50  54
HETATM   54  O9  UNL     1       7.116  54.897  -7.603  1.00  0.00    -0.358 OA
HETATM   55  H45 UNL     1       7.252  54.216  -8.286  1.00  0.00     0.217 HD
ENDBRANCH  50  54
ENDBRANCH  45  46
ENDBRANCH  44  45
ENDBRANCH  42  44
ENDBRANCH  39  40
ENDBRANCH  38  39
ENDBRANCH  37  38
ENDBRANCH  36  37
ENDBRANCH  35  36
ENDBRANCH  33  35
ENDBRANCH  30  31
ENDBRANCH  29  30
ENDBRANCH   1  29
TORSDOF 19
ENDMDL
