MODEL 1
REMARK minimizedAffinity -6.97199631
REMARK  2 active torsions:
REMARK  status: ('A' for Active; 'I' for Inactive)
REMARK    1  A    between atoms: C4_5  and  S1_6 
REMARK    2  A    between atoms: S1_6  and  C5_7 
ROOT
HETATM    1  C5  UNL     1      -0.192  52.521 -25.027  1.00  0.00     0.029 A 
HETATM    2  C6  UNL     1      -1.576  52.539 -24.800  1.00  0.00     0.046 A 
HETATM    3  C7  UNL     1      -2.402  51.545 -25.335  1.00  0.00     0.057 A 
HETATM    4 CL2  UNL     1      -4.096  51.652 -25.016  1.00  0.00    -0.083 Cl
HETATM    5  C8  UNL     1      -1.846  50.514 -26.098  1.00  0.00     0.057 A 
HETATM    6 CL3  UNL     1      -2.804  49.254 -26.791  1.00  0.00    -0.082 Cl
HETATM    7  C9  UNL     1      -0.468  50.478 -26.320  1.00  0.00     0.051 A 
HETATM    8  C10 UNL     1       0.358  51.473 -25.785  1.00  0.00     0.052 A 
HETATM    9 CL4  UNL     1       2.055  51.334 -26.090  1.00  0.00    -0.083 Cl
ENDROOT
BRANCH   1  10
HETATM   10  S1  UNL     1       0.775  53.841 -24.298  1.00  0.00    -0.089 SA
BRANCH  10  11
HETATM   11  C4  UNL     1       0.752  53.360 -22.579  1.00  0.00     0.005 A 
HETATM   12  C3  UNL     1       0.195  52.129 -22.215  1.00  0.00     0.020 A 
HETATM   13  C2  UNL     1       0.164  51.738 -20.874  1.00  0.00     0.025 A 
HETATM   14  C1  UNL     1       0.682  52.582 -19.895  1.00  0.00     0.034 A 
HETATM   15 CL1  UNL     1       0.645  52.102 -18.244  1.00  0.00    -0.084 Cl
HETATM   16  C12 UNL     1       1.228  53.816 -20.244  1.00  0.00     0.025 A 
HETATM   17  C11 UNL     1       1.259  54.206 -21.587  1.00  0.00     0.020 A 
ENDBRANCH  10  11
ENDBRANCH   1  10
TORSDOF 2
ENDMDL
