MODEL 1
REMARK minimizedAffinity -7.24349976
REMARK  9 active torsions:
REMARK  status: ('A' for Active; 'I' for Inactive)
REMARK    1  A    between atoms: O1_2  and  C2_3 
REMARK    2  A    between atoms: C2_3  and  C3_4 
REMARK    3  A    between atoms: C3_4  and  N1_5 
REMARK       I    between atoms: N1_5  and  C4_6 
REMARK    4  A    between atoms: C4_6  and  C5_8 
REMARK    5  A    between atoms: C5_8  and  C6_9 
REMARK    6  A    between atoms: C6_9  and  C7_10 
REMARK    7  A    between atoms: C10_13  and  O3_15 
REMARK    8  A    between atoms: C18_22  and  N2_23 
REMARK    9  A    between atoms: N2_23  and  C19_24 
ROOT
HETATM    1  C7  UNL     1      -0.012   6.662  11.331  1.00  0.00    -0.005 C 
HETATM    2  C8  UNL     1       0.152   7.394   9.960  1.00  0.00     0.015 C 
HETATM    3  C9  UNL     1       1.539   7.952   9.663  1.00  0.00     0.038 C 
HETATM    4  C10 UNL     1       2.657   6.949   9.929  1.00  0.00     0.054 C 
HETATM    5  C11 UNL     1       4.022   7.597   9.664  1.00  0.00     0.045 C 
HETATM    6  C12 UNL     1       2.603   6.329  11.336  1.00  0.00     0.043 C 
HETATM    7  C13 UNL     1       1.320   6.575  12.154  1.00  0.00     0.007 C 
HETATM    8  C14 UNL     1       1.342   7.817  13.129  1.00  0.00    -0.041 C 
HETATM    9  C15 UNL     1       1.324   7.318  14.595  1.00  0.00     0.015 C 
HETATM   10  C16 UNL     1       2.541   8.777  13.035  1.00  0.00     0.015 C 
HETATM   11  C17 UNL     1       0.046   8.587  12.798  1.00  0.00     0.045 C 
HETATM   12  C18 UNL     1      -0.949   7.547  12.259  1.00  0.00     0.230 C 
ENDROOT
BRANCH   1  13
HETATM   13  C6  UNL     1      -0.661   5.257  11.091  1.00  0.00     0.021 C 
BRANCH  13  14
HETATM   14  C5  UNL     1      -0.076   4.057  11.839  1.00  0.00     0.103 C 
BRANCH  14  15
HETATM   15  C4  UNL     1      -0.829   2.775  11.524  1.00  0.00     0.217 C 
HETATM   16  N1  UNL     1      -2.190   2.898  11.711  1.00  0.00    -0.359 N 
HETATM   17  H8  UNL     1      -2.533   3.721  12.190  1.00  0.00     0.162 HD
HETATM   18  O2  UNL     1      -0.293   1.745  11.133  1.00  0.00    -0.274 OA
BRANCH  16  19
HETATM   19  C3  UNL     1      -3.086   1.767  11.557  1.00  0.00     0.148 C 
BRANCH  19  20
HETATM   20  C2  UNL     1      -4.568   2.156  11.562  1.00  0.00     0.186 C 
BRANCH  20  21
HETATM   21  O1  UNL     1      -4.764   3.454  12.131  1.00  0.00    -0.394 OA
HETATM   22  C1  UNL     1      -6.113   3.698  12.503  1.00  0.00     0.201 C 
ENDBRANCH  20  21
ENDBRANCH  19  20
ENDBRANCH  16  19
ENDBRANCH  14  15
ENDBRANCH  13  14
ENDBRANCH   1  13
BRANCH  12  23
HETATM   23  N2  UNL     1      -1.596   6.810  13.356  1.00  0.00     0.093 N 
HETATM   24  H33 UNL     1      -1.272   5.842  13.359  1.00  0.00     0.316 HD
BRANCH  23  25
HETATM   25  C19 UNL     1      -3.068   6.781  13.304  1.00  0.00     0.225 C 
HETATM   26  C20 UNL     1      -3.690   5.979  14.460  1.00  0.00     0.062 C 
HETATM   27  C21 UNL     1      -5.094   6.469  14.807  1.00  0.00     0.169 C 
HETATM   28  O4  UNL     1      -5.729   7.014  13.658  1.00  0.00    -0.391 OA
HETATM   29  C22 UNL     1      -5.117   8.231  13.224  1.00  0.00     0.169 C 
HETATM   30  C23 UNL     1      -3.593   8.216  13.341  1.00  0.00     0.062 C 
ENDBRANCH  23  25
ENDBRANCH  12  23
BRANCH   4  31
HETATM   31  O3  UNL     1       2.513   5.888   8.971  1.00  0.00    -0.390 OA
HETATM   32  H20 UNL     1       3.312   5.335   9.022  1.00  0.00     0.210 HD
ENDBRANCH   4  31
TORSDOF 9
ENDMDL
