MODEL 1
REMARK minimizedAffinity -7.14588976
REMARK CNNscore 0.702067256
REMARK CNNaffinity 6.70562172
REMARK  13 active torsions:
REMARK  status: ('A' for Active; 'I' for Inactive)
REMARK    1  A    between atoms: C4_4  and  C5_5 
REMARK    2  A    between atoms: C5_5  and  C6_6 
REMARK    3  A    between atoms: C6_6  and  C7_7 
REMARK    4  A    between atoms: C9_9  and  C10_10 
REMARK    5  A    between atoms: C11_11  and  C12_12 
REMARK    6  A    between atoms: C14_14  and  C15_15 
REMARK    7  A    between atoms: C18_18  and  O1_19 
REMARK    8  A    between atoms: C19_21  and  C20_22 
REMARK    9  A    between atoms: C20_22  and  C21_23 
REMARK   10  A    between atoms: C21_23  and  C22_24 
REMARK   11  A    between atoms: C22_24  and  O3_25 
REMARK   12  A    between atoms: C24_27  and  C26_29 
REMARK   13  A    between atoms: C29_33  and  O5_35 
ROOT
HETATM    1  C15 UNL     1       0.630  51.885 -14.029  1.00  0.00     0.149 C 
HETATM    2  C16 UNL     1      -0.736  52.163 -13.371  1.00  0.00     0.054 C 
HETATM    3  C17 UNL     1      -0.760  51.178 -12.176  1.00  0.00     0.050 C 
HETATM    4  C18 UNL     1      -0.059  50.010 -12.890  1.00  0.00     0.270 C 
HETATM    5  O2  UNL     1       1.045  50.580 -13.579  1.00  0.00    -0.351 OA
HETATM    6  C19 UNL     1       0.099  51.834 -10.997  1.00  0.00     0.032 C 
HETATM    7  C23 UNL     1      -0.675  53.015 -10.364  1.00  0.00    -0.066 C 
HETATM    8  C24 UNL     1      -0.161  54.269 -10.281  1.00  0.00    -0.021 C 
HETATM    9  C25 UNL     1       1.217  54.676 -10.737  1.00  0.00     0.052 C 
HETATM   10  C27 UNL     1      -2.051  52.593  -9.885  1.00  0.00     0.038 C 
HETATM   11  C28 UNL     1      -2.880  52.009 -11.027  1.00  0.00     0.042 C 
HETATM   12  C29 UNL     1      -2.197  50.798 -11.685  1.00  0.00     0.067 C 
HETATM   13  C30 UNL     1      -3.145  50.246 -12.765  1.00  0.00     0.047 C 
ENDROOT
BRANCH   4  14
HETATM   14  O1  UNL     1       0.348  48.979 -12.027  1.00  0.00    -0.370 OA
HETATM   15  H26 UNL     1       0.882  48.390 -12.591  1.00  0.00     0.212 HD
ENDBRANCH   4  14
BRANCH   6  16
HETATM   16  C20 UNL     1       0.622  50.911  -9.863  1.00  0.00     0.012 C 
BRANCH  16  17
HETATM   17  C21 UNL     1       2.140  50.695  -9.943  1.00  0.00     0.027 C 
BRANCH  17  18
HETATM   18  C22 UNL     1       2.786  51.634 -10.953  1.00  0.00     0.164 C 
BRANCH  18  19
HETATM   19  O3  UNL     1       3.422  50.881 -11.978  1.00  0.00    -0.401 OA
HETATM   20  H34 UNL     1       2.746  50.314 -12.386  1.00  0.00     0.209 HD
ENDBRANCH  18  19
ENDBRANCH  17  18
ENDBRANCH  16  17
ENDBRANCH   6  16
BRANCH  12  21
HETATM   21  O5  UNL     1      -2.134  49.767 -10.690  1.00  0.00    -0.389 OA
HETATM   22  H46 UNL     1      -1.487  49.096 -10.980  1.00  0.00     0.210 HD
ENDBRANCH  12  21
BRANCH   1  23
HETATM   23  C14 UNL     1       0.572  51.862 -15.530  1.00  0.00     0.011 C 
HETATM   24  C12 UNL     1       1.561  52.140 -16.408  1.00  0.00    -0.063 C 
HETATM   25  C13 UNL     1       2.971  52.491 -16.005  1.00  0.00     0.048 C 
BRANCH  24  26
HETATM   26  C11 UNL     1       1.258  52.076 -17.841  1.00  0.00     0.006 C 
HETATM   27  C10 UNL     1       0.037  51.973 -18.397  1.00  0.00     0.001 C 
BRANCH  27  28
HETATM   28  C9  UNL     1      -0.162  51.918 -19.831  1.00  0.00     0.002 C 
HETATM   29  C7  UNL     1       0.176  52.857 -20.737  1.00  0.00    -0.084 C 
HETATM   30  C8  UNL     1       0.829  54.182 -20.437  1.00  0.00     0.043 C 
BRANCH  29  31
HETATM   31  C6  UNL     1      -0.115  52.621 -22.211  1.00  0.00     0.037 C 
BRANCH  31  32
HETATM   32  C5  UNL     1      -0.524  51.173 -22.502  1.00  0.00     0.031 C 
BRANCH  32  33
HETATM   33  C4  UNL     1      -1.055  51.024 -23.903  1.00  0.00    -0.024 C 
HETATM   34  C2  UNL     1      -0.437  51.331 -25.059  1.00  0.00    -0.091 C 
HETATM   35  C1  UNL     1       0.933  51.941 -25.177  1.00  0.00     0.042 C 
HETATM   36  C3  UNL     1      -1.116  51.078 -26.381  1.00  0.00     0.042 C 
ENDBRANCH  32  33
ENDBRANCH  31  32
ENDBRANCH  29  31
ENDBRANCH  27  28
ENDBRANCH  24  26
ENDBRANCH   1  23
BRANCH   8  37
HETATM   37  C26 UNL     1      -0.932  55.416  -9.697  1.00  0.00     0.265 C 
HETATM   38  O4  UNL     1      -0.564  56.017  -8.691  1.00  0.00    -0.302 OA
ENDBRANCH   8  37
TORSDOF 13
ENDMDL
