MODEL 1
REMARK minimizedAffinity -9.14045048
REMARK  7 active torsions:
REMARK  status: ('A' for Active; 'I' for Inactive)
REMARK    1  A    between atoms: C2_2  and  C3_3 
REMARK    2  A    between atoms: C4_5  and  C5_6 
REMARK    3  A    between atoms: C5_6  and  C6_7 
REMARK    4  A    between atoms: C6_7  and  C7_8 
REMARK    5  A    between atoms: C7_8  and  C9_10 
REMARK    6  A    between atoms: C11_12  and  O2_13 
REMARK    7  A    between atoms: C30_33  and  O4_34 
ROOT
HETATM    1  C9  UNL     1       0.863   6.438  12.874  1.00  0.00     0.001 C 
HETATM    2  C10 UNL     1       1.241   7.203  14.175  1.00  0.00     0.038 C 
HETATM    3  C11 UNL     1      -0.054   7.397  14.990  1.00  0.00     0.132 C 
HETATM    4  C12 UNL     1      -1.079   6.421  14.355  1.00  0.00     0.016 C 
HETATM    5  C13 UNL     1      -0.829   4.988  14.926  1.00  0.00     0.023 C 
HETATM    6  C14 UNL     1      -2.583   6.688  14.534  1.00  0.00    -0.037 C 
HETATM    7  C15 UNL     1      -3.459   6.304  13.564  1.00  0.00    -0.065 C 
HETATM    8  C16 UNL     1      -2.974   5.615  12.278  1.00  0.00     0.036 C 
HETATM    9  C17 UNL     1      -1.455   5.523  12.039  1.00  0.00     0.015 C 
HETATM   10  C18 UNL     1      -0.690   6.591  12.828  1.00  0.00    -0.026 C 
HETATM   11  C19 UNL     1      -1.051   7.995  12.245  1.00  0.00     0.016 C 
HETATM   12  C20 UNL     1      -4.988   6.577  13.663  1.00  0.00    -0.015 C 
HETATM   13  C21 UNL     1      -5.301   7.729  12.673  1.00  0.00     0.020 C 
HETATM   14  C22 UNL     1      -5.793   5.313  13.248  1.00  0.00     0.021 C 
HETATM   15  C23 UNL     1      -7.228   5.237  13.768  1.00  0.00     0.080 C 
HETATM   16  C24 UNL     1      -7.759   6.561  14.266  1.00  0.00     0.135 C 
HETATM   17  O3  UNL     1      -8.855   6.974  13.885  1.00  0.00    -0.297 OA
HETATM   18  C25 UNL     1      -6.920   7.302  15.315  1.00  0.00     0.018 C 
HETATM   19  C26 UNL     1      -7.414   6.819  16.694  1.00  0.00     0.023 C 
HETATM   20  C27 UNL     1      -7.207   8.815  15.226  1.00  0.00     0.023 C 
HETATM   21  C28 UNL     1      -5.409   6.928  15.134  1.00  0.00     0.016 C 
HETATM   22  C29 UNL     1      -4.439   7.949  15.748  1.00  0.00     0.043 C 
HETATM   23  C30 UNL     1      -3.023   7.376  15.810  1.00  0.00     0.148 C 
ENDROOT
BRANCH   1  24
HETATM   24  C7  UNL     1       1.721   6.888  11.657  1.00  0.00    -0.013 C 
HETATM   25  C8  UNL     1       3.099   7.422  12.059  1.00  0.00     0.010 C 
BRANCH  24  26
HETATM   26  C6  UNL     1       0.988   7.897  10.728  1.00  0.00     0.008 C 
BRANCH  26  27
HETATM   27  C5  UNL     1       1.463   8.034   9.275  1.00  0.00     0.028 C 
BRANCH  27  28
HETATM   28  C4  UNL     1       2.151   6.828   8.710  1.00  0.00    -0.017 C 
HETATM   29  C2  UNL     1       2.242   6.490   7.411  1.00  0.00    -0.028 C 
HETATM   30  C1  UNL     1       1.632   7.216   6.254  1.00  0.00     0.051 C 
BRANCH  29  31
HETATM   31  C3  UNL     1       3.007   5.254   7.059  1.00  0.00     0.265 C 
HETATM   32  O1  UNL     1       3.482   4.486   7.887  1.00  0.00    -0.302 OA
ENDBRANCH  29  31
ENDBRANCH  27  28
ENDBRANCH  26  27
ENDBRANCH  24  26
ENDBRANCH   1  24
BRANCH   3  33
HETATM   33  O2  UNL     1       0.195   7.144  16.364  1.00  0.00    -0.394 OA
HETATM   34  H18 UNL     1       0.827   7.811  16.680  1.00  0.00     0.210 HD
ENDBRANCH   3  33
BRANCH  23  35
HETATM   35  O4  UNL     1      -2.990   6.451  16.894  1.00  0.00    -0.391 OA
HETATM   36  H46 UNL     1      -3.000   5.556  16.521  1.00  0.00     0.210 HD
ENDBRANCH  23  35
TORSDOF 7
ENDMDL
