MODEL 1
REMARK minimizedAffinity -7.70536184
REMARK CNNscore 0.570001841
REMARK CNNaffinity 7.08904505
REMARK  13 active torsions:
REMARK  status: ('A' for Active; 'I' for Inactive)
REMARK    1  A    between atoms: C2_2  and  C3_3 
REMARK    2  A    between atoms: C3_3  and  C5_5 
REMARK    3  A    between atoms: C5_5  and  N1_6 
REMARK    4  A    between atoms: C5_5  and  C31_39 
REMARK       I    between atoms: N1_6  and  C6_7 
REMARK    5  A    between atoms: C6_7  and  C7_9 
REMARK    6  A    between atoms: C7_9  and  C8_10 
REMARK    7  A    between atoms: C8_10  and  C9_11 
REMARK    8  A    between atoms: C9_11  and  O3_13 
REMARK    9  A    between atoms: O3_13  and  C10_14 
REMARK   10  A    between atoms: C10_14  and  C11_15 
REMARK   11  A    between atoms: C11_15  and  C12_17 
REMARK   12  A    between atoms: C12_17  and  O5_18 
REMARK   13  A    between atoms: C31_39  and  O9_41 
ROOT
HETATM    1  C12 UNL     1      -2.097   6.869  13.570  1.00  0.00     0.128 C 
HETATM    2  C13 UNL     1      -1.976   5.450  12.972  1.00  0.00     0.047 C 
HETATM    3  C14 UNL     1      -3.415   4.895  12.879  1.00  0.00     0.009 C 
HETATM    4  C15 UNL     1      -4.309   6.055  13.312  1.00  0.00     0.002 C 
HETATM    5  C16 UNL     1      -5.723   5.738  13.819  1.00  0.00     0.003 C 
HETATM    6  C17 UNL     1      -6.526   4.959  12.771  1.00  0.00     0.010 C 
HETATM    7  C18 UNL     1      -7.947   4.690  13.249  1.00  0.00     0.035 C 
HETATM    8  C19 UNL     1      -8.658   5.965  13.639  1.00  0.00    -0.067 C 
HETATM    9  C20 UNL     1      -9.861   6.244  13.105  1.00  0.00     0.053 C 
HETATM   10  C21 UNL     1     -10.640   7.427  13.526  1.00  0.00     0.149 C 
HETATM   11  O6  UNL     1     -11.668   7.724  12.925  1.00  0.00    -0.293 OA
HETATM   12  C22 UNL     1     -10.148   8.191  14.726  1.00  0.00     0.084 C 
HETATM   13  C23 UNL     1      -8.630   8.272  14.686  1.00  0.00     0.022 C 
HETATM   14  C24 UNL     1      -7.928   6.878  14.642  1.00  0.00    -0.009 C 
HETATM   15  C25 UNL     1      -8.018   6.215  16.035  1.00  0.00     0.021 C 
HETATM   16  C26 UNL     1      -6.446   7.075  14.162  1.00  0.00     0.072 C 
HETATM   17  C27 UNL     1      -5.554   7.927  15.086  1.00  0.00     0.133 C 
HETATM   18  O7  UNL     1      -5.954   8.441  16.128  1.00  0.00    -0.297 OA
HETATM   19  C28 UNL     1      -4.122   8.166  14.617  1.00  0.00     0.091 C 
HETATM   20  C29 UNL     1      -3.443   6.819  14.347  1.00  0.00     0.005 C 
HETATM   21  C30 UNL     1      -3.286   6.061  15.688  1.00  0.00     0.019 C 
ENDROOT
BRANCH   1  22
HETATM   22  C11 UNL     1      -0.882   7.395  14.359  1.00  0.00     0.185 C 
HETATM   23  O4  UNL     1      -0.348   6.653  15.194  1.00  0.00    -0.292 OA
BRANCH  22  24
HETATM   24  C10 UNL     1      -0.408   8.828  14.127  1.00  0.00     0.260 C 
BRANCH  24  25
HETATM   25  O3  UNL     1       0.207   9.050  12.860  1.00  0.00    -0.314 OA
BRANCH  25  26
HETATM   26  C9  UNL     1       1.567   8.995  12.858  1.00  0.00     0.259 C 
HETATM   27  O2  UNL     1       2.299   9.732  13.506  1.00  0.00    -0.265 OA
BRANCH  26  28
HETATM   28  C8  UNL     1       2.038   7.867  11.977  1.00  0.00     0.120 C 
BRANCH  28  29
HETATM   29  C7  UNL     1       0.874   7.213  11.247  1.00  0.00     0.112 C 
BRANCH  29  30
HETATM   30  C6  UNL     1       1.294   5.891  10.640  1.00  0.00     0.218 C 
HETATM   31  N1  UNL     1       2.264   6.015   9.674  1.00  0.00    -0.346 N 
HETATM   32  H11 UNL     1       2.788   6.882   9.626  1.00  0.00     0.163 HD
HETATM   33  O1  UNL     1       0.810   4.814  10.974  1.00  0.00    -0.274 OA
BRANCH  31  34
HETATM   34  C5  UNL     1       2.920   4.840   9.077  1.00  0.00     0.186 C 
BRANCH  34  35
HETATM   35  C3  UNL     1       2.769   4.835   7.532  1.00  0.00     0.014 C 
HETATM   36  C4  UNL     1       2.668   6.269   6.986  1.00  0.00     0.012 C 
BRANCH  35  37
HETATM   37  C2  UNL     1       3.938   4.085   6.847  1.00  0.00     0.002 C 
HETATM   38  C1  UNL     1       3.493   3.021   5.854  1.00  0.00     0.005 C 
ENDBRANCH  35  37
ENDBRANCH  34  35
BRANCH  34  39
HETATM   39  C31 UNL     1       4.401   4.888   9.495  1.00  0.00     0.163 C 
HETATM   40  O8  UNL     1       5.246   4.026   9.310  1.00  0.00    -0.648 OA
BRANCH  39  41
HETATM   41  O9  UNL     1       4.769   6.065  10.064  1.00  0.00    -0.775 OA
HETATM   42  H43 UNL     1       5.728   5.941  10.238  1.00  0.00     0.167 HD
ENDBRANCH  39  41
ENDBRANCH  34  39
ENDBRANCH  31  34
ENDBRANCH  29  30
ENDBRANCH  28  29
ENDBRANCH  26  28
ENDBRANCH  25  26
ENDBRANCH  24  25
ENDBRANCH  22  24
ENDBRANCH   1  22
BRANCH   1  43
HETATM   43  O5  UNL     1      -2.230   7.766  12.449  1.00  0.00    -0.381 OA
HETATM   44  H18 UNL     1      -1.970   8.656  12.772  1.00  0.00     0.211 HD
ENDBRANCH   1  43
TORSDOF 13
ENDMDL
