MODEL 1
REMARK minimizedAffinity -9.4379797
REMARK CNNscore 0.708170474
REMARK CNNaffinity 7.20063162
REMARK  11 active torsions:
REMARK  status: ('A' for Active; 'I' for Inactive)
REMARK    1  A    between atoms: C3_4  and  O2_5 
REMARK    2  A    between atoms: O2_5  and  C4_6 
REMARK    3  A    between atoms: C7_9  and  C8_10 
REMARK    4  A    between atoms: N1_11  and  C9_13 
REMARK    5  A    between atoms: C9_13  and  C10_14 
REMARK    6  A    between atoms: C10_14  and  O3_15 
REMARK    7  A    between atoms: C16_21  and  C17_22 
REMARK    8  A    between atoms: C23_30  and  O6_31 
REMARK    9  A    between atoms: C27_35  and  O7_36 
REMARK   10  A    between atoms: C30_39  and  O8_40 
REMARK   11  A    between atoms: C31_41  and  O9_42 
ROOT
HETATM    1  C4  UNL     1       1.523   7.011  10.251  1.00  0.00     0.127 C 
HETATM    2  C5  UNL     1       1.028   5.610  10.607  1.00  0.00     0.033 C 
HETATM    3  C6  UNL     1      -0.236   5.571  11.473  1.00  0.00     0.021 C 
HETATM    4  C7  UNL     1      -0.460   6.786  12.408  1.00  0.00     0.026 C 
HETATM    5  C11 UNL     1      -1.904   6.690  13.038  1.00  0.00     0.009 C 
HETATM    6  C12 UNL     1      -2.175   5.485  13.941  1.00  0.00     0.007 C 
HETATM    7  C13 UNL     1      -3.679   5.368  14.187  1.00  0.00     0.013 C 
HETATM    8  C14 UNL     1      -4.343   6.662  14.727  1.00  0.00    -0.005 C 
HETATM    9  C15 UNL     1      -5.001   6.295  16.085  1.00  0.00     0.019 C 
HETATM   10  C16 UNL     1      -5.391   7.274  13.740  1.00  0.00     0.028 C 
HETATM   11  C21 UNL     1      -5.566   8.726  14.233  1.00  0.00     0.013 C 
HETATM   12  C22 UNL     1      -4.291   9.082  15.009  1.00  0.00     0.040 C 
HETATM   13  C23 UNL     1      -3.353   7.869  14.870  1.00  0.00     0.070 C 
HETATM   14  C24 UNL     1      -2.282   8.020  13.733  1.00  0.00     0.026 C 
HETATM   15  C25 UNL     1      -2.503   9.090  12.647  1.00  0.00     0.011 C 
HETATM   16  C26 UNL     1      -1.678   8.846  11.375  1.00  0.00     0.039 C 
HETATM   17  C27 UNL     1      -0.316   8.153  11.613  1.00  0.00     0.073 C 
HETATM   18  C28 UNL     1       0.354   7.987  10.229  1.00  0.00     0.071 C 
ENDROOT
BRANCH   1  19
HETATM   19  O2  UNL     1       2.097   7.007   8.939  1.00  0.00    -0.356 OA
BRANCH  19  20
HETATM   20  C3  UNL     1       3.218   6.131   8.796  1.00  0.00     0.263 C 
HETATM   21  O1  UNL     1       2.921   5.240   7.714  1.00  0.00    -0.354 OA
HETATM   22  C2  UNL     1       3.987   4.323   7.463  1.00  0.00     0.151 C 
HETATM   23  C1  UNL     1       3.626   3.526   6.214  1.00  0.00     0.042 C 
HETATM   24  C31 UNL     1       4.184   3.405   8.681  1.00  0.00     0.175 C 
HETATM   25  C30 UNL     1       4.440   4.252   9.936  1.00  0.00     0.154 C 
HETATM   26  C29 UNL     1       3.395   5.342  10.090  1.00  0.00     0.095 C 
BRANCH  24  27
HETATM   27  O9  UNL     1       5.304   2.532   8.506  1.00  0.00    -0.390 OA
HETATM   28  H47 UNL     1       5.032   1.837   7.880  1.00  0.00     0.210 HD
ENDBRANCH  24  27
BRANCH  25  29
HETATM   29  O8  UNL     1       5.743   4.849   9.850  1.00  0.00    -0.393 OA
HETATM   30  H45 UNL     1       6.312   4.131   9.503  1.00  0.00     0.210 HD
ENDBRANCH  25  29
ENDBRANCH  19  20
ENDBRANCH   1  19
BRANCH  17  31
HETATM   31  O7  UNL     1       0.460   9.090  12.392  1.00  0.00    -0.389 OA
HETATM   32  H39 UNL     1       0.774   9.794  11.796  1.00  0.00     0.210 HD
ENDBRANCH  17  31
BRANCH   4  33
HETATM   33  C8  UNL     1       0.561   6.726  13.555  1.00  0.00     0.068 C 
HETATM   34  N1  UNL     1       0.763   7.729  14.345  1.00  0.00    -0.399 N 
ATOM     35  H1  UNL     1       0.341   8.645  14.194  1.00  0.00     0.158 HD
BRANCH  34  36
HETATM   36  C9  UNL     1       1.654   7.437  15.481  1.00  0.00     0.144 C 
BRANCH  36  37
HETATM   37  C10 UNL     1       2.188   8.758  16.041  1.00  0.00     0.183 C 
BRANCH  37  38
HETATM   38  O3  UNL     1       2.357   8.677  17.457  1.00  0.00    -0.399 OA
HETATM   39  H16 UNL     1       1.484   8.414  17.814  1.00  0.00     0.209 HD
ENDBRANCH  37  38
ENDBRANCH  36  37
ENDBRANCH  34  36
ENDBRANCH   4  33
BRANCH  13  40
HETATM   40  O6  UNL     1      -2.583   7.716  16.071  1.00  0.00    -0.389 OA
HETATM   41  H33 UNL     1      -3.141   7.926  16.841  1.00  0.00     0.210 HD
ENDBRANCH  13  40
BRANCH  10  42
HETATM   42  C17 UNL     1      -6.679   6.527  13.520  1.00  0.00    -0.045 A 
HETATM   43  C18 UNL     1      -7.899   6.986  13.799  1.00  0.00     0.087 A 
HETATM   44  C19 UNL     1      -8.856   5.938  13.451  1.00  0.00     0.283 A 
HETATM   45  O4  UNL     1     -10.062   6.019  13.595  1.00  0.00    -0.260 OA
HETATM   46  O5  UNL     1      -8.178   4.870  12.953  1.00  0.00    -0.314 OA
HETATM   47  C20 UNL     1      -6.776   5.138  13.008  1.00  0.00     0.213 A 
ENDBRANCH  10  42
TORSDOF 11
ENDMDL
