MODEL 1
REMARK minimizedAffinity -8.68296909
REMARK CNNscore 0.702032328
REMARK CNNaffinity 7.67828751
REMARK  5 active torsions:
REMARK  status: ('A' for Active; 'I' for Inactive)
REMARK    1  A    between atoms: C2_2  and  C3_3 
REMARK    2  A    between atoms: C3_3  and  N1_4 
REMARK    3  A    between atoms: C4_5  and  S1_6 
REMARK    4  A    between atoms: S1_6  and  C5_7 
REMARK    5  A    between atoms: C21_31  and  C22_32 
ROOT
HETATM    1  C5  UNL     1      -0.534  50.482 -17.530  1.00  0.00     0.093 A 
HETATM    2  C6  UNL     1      -1.212  50.684 -18.696  1.00  0.00    -0.016 A 
HETATM    3  C7  UNL     1      -2.466  49.902 -19.061  1.00  0.00     0.042 C 
HETATM    4  C8  UNL     1      -2.876  49.942 -20.527  1.00  0.00     0.005 C 
HETATM    5  C9  UNL     1      -2.883  51.374 -21.016  1.00  0.00     0.005 C 
HETATM    6  C10 UNL     1      -1.473  51.942 -20.946  1.00  0.00     0.041 C 
HETATM    7  C11 UNL     1      -0.757  51.754 -19.616  1.00  0.00    -0.025 A 
HETATM    8  C12 UNL     1       0.303  52.539 -19.291  1.00  0.00     0.096 A 
HETATM    9  C13 UNL     1       0.777  53.565 -20.171  1.00  0.00     0.104 C 
HETATM   10  N2  UNL     1       1.123  54.373 -20.931  1.00  0.00    -0.191 NA
HETATM   11  C14 UNL     1       1.009  52.323 -18.073  1.00  0.00     0.135 A 
HETATM   12  N3  UNL     1       2.048  52.972 -17.595  1.00  0.00    -0.339 N 
ATOM     13  H3  UNL     1       2.518  53.776 -18.013  1.00  0.00     0.167 HD
HETATM   14  C15 UNL     1       2.367  52.349 -16.429  1.00  0.00     0.061 A 
HETATM   15  C16 UNL     1       3.413  52.657 -15.543  1.00  0.00     0.032 A 
HETATM   16  C17 UNL     1       3.597  51.869 -14.407  1.00  0.00     0.002 A 
HETATM   17  C18 UNL     1       2.759  50.788 -14.161  1.00  0.00     0.002 A 
HETATM   18  C19 UNL     1       1.711  50.469 -15.034  1.00  0.00     0.032 A 
HETATM   19  C20 UNL     1       1.514  51.276 -16.171  1.00  0.00     0.068 A 
HETATM   20  N4  UNL     1       0.598  51.285 -17.232  1.00  0.00    -0.287 N 
ENDROOT
BRANCH   1  21
HETATM   21  S1  UNL     1      -1.084  49.286 -16.375  1.00  0.00    -0.033 SA
BRANCH  21  22
HETATM   22  C4  UNL     1      -2.056  50.332 -15.387  1.00  0.00     0.169 A 
HETATM   23  N1  UNL     1      -1.772  50.631 -14.081  1.00  0.00    -0.307 N 
HETATM   24  C21 UNL     1      -2.776  51.486 -13.670  1.00  0.00     0.135 A 
HETATM   25  N6  UNL     1      -3.626  51.642 -14.668  1.00  0.00    -0.283 N 
HETATM   26  N5  UNL     1      -3.165  50.934 -15.748  1.00  0.00    -0.278 N 
ATOM     27  H6  UNL     1      -4.481  52.197 -14.641  1.00  0.00     0.188 HD
ATOM     28  H5  UNL     1      -3.605  50.883 -16.667  1.00  0.00     0.189 HD
BRANCH  23  29
HETATM   29  C3  UNL     1      -0.725  50.065 -13.248  1.00  0.00     0.159 C 
BRANCH  29  30
HETATM   30  C2  UNL     1      -1.105  48.731 -12.669  1.00  0.00    -0.017 C 
HETATM   31  C1  UNL     1      -0.649  47.554 -13.117  1.00  0.00     0.008 C 
ENDBRANCH  29  30
ENDBRANCH  23  29
BRANCH  24  32
HETATM   32  C22 UNL     1      -2.916  52.074 -12.344  1.00  0.00     0.009 A 
HETATM   33  C23 UNL     1      -2.079  51.649 -11.304  1.00  0.00     0.015 A 
HETATM   34  C24 UNL     1      -2.196  52.208 -10.030  1.00  0.00     0.001 A 
HETATM   35  C25 UNL     1      -3.156  53.187  -9.782  1.00  0.00     0.000 A 
HETATM   36  C26 UNL     1      -4.008  53.601 -10.806  1.00  0.00     0.001 A 
HETATM   37  C27 UNL     1      -3.892  53.043 -12.080  1.00  0.00     0.015 A 
ENDBRANCH  24  32
ENDBRANCH  21  22
ENDBRANCH   1  21
TORSDOF 5
ENDMDL
