MODEL 1
REMARK minimizedAffinity -6.41054296
REMARK CNNscore 0.496300846
REMARK CNNaffinity 6.83179426
REMARK  10 active torsions:
REMARK  status: ('A' for Active; 'I' for Inactive)
REMARK    1  A    between atoms: C12_14  and  C13_15 
REMARK    2  A    between atoms: C13_15  and  C15_17 
REMARK    3  A    between atoms: C15_17  and  C16_18 
REMARK    4  A    between atoms: C16_18  and  C17_19 
REMARK    5  A    between atoms: C18_20  and  C20_22 
REMARK    6  A    between atoms: C20_22  and  O3_23 
REMARK    7  A    between atoms: C26_29  and  C27_30 
REMARK    8  A    between atoms: C27_30  and  C28_31 
REMARK    9  A    between atoms: C28_31  and  C29_32 
REMARK   10  A    between atoms: C29_32  and  O5_34 
ROOT
HETATM    1  C1  UNL     1      -2.980  51.556 -10.484  1.00  0.00     0.025 C 
HETATM    2  C2  UNL     1      -2.455  52.771 -10.683  1.00  0.00     0.015 C 
HETATM    3  C3  UNL     1      -3.259  53.994 -10.437  1.00  0.00     0.289 C 
HETATM    4  O1  UNL     1      -4.465  54.054 -10.292  1.00  0.00    -0.260 OA
HETATM    5  O2  UNL     1      -2.400  55.053 -10.439  1.00  0.00    -0.311 OA
HETATM    6  C4  UNL     1      -1.039  54.578 -10.456  1.00  0.00     0.142 C 
HETATM    7  C5  UNL     1      -0.512  54.567  -9.028  1.00  0.00     0.039 C 
HETATM    8  C6  UNL     1       0.891  53.967  -8.849  1.00  0.00     0.006 C 
HETATM    9  C7  UNL     1       1.151  52.699  -9.714  1.00  0.00    -0.027 A 
HETATM   10  C8  UNL     1       2.603  52.163  -9.633  1.00  0.00     0.011 C 
HETATM   11  C9  UNL     1       3.727  53.212  -9.578  1.00  0.00     0.011 C 
HETATM   12  C10 UNL     1       3.413  54.317  -8.562  1.00  0.00    -0.032 C 
HETATM   13  C11 UNL     1       3.373  53.680  -7.142  1.00  0.00     0.016 C 
HETATM   14  C12 UNL     1       4.386  55.538  -8.561  1.00  0.00    -0.002 C 
HETATM   15  C21 UNL     1       3.510  56.693  -8.011  1.00  0.00     0.006 C 
HETATM   16  C22 UNL     1       2.039  56.224  -8.093  1.00  0.00     0.011 C 
HETATM   17  C23 UNL     1       2.059  54.990  -9.017  1.00  0.00    -0.032 C 
HETATM   18  C24 UNL     1       2.072  55.529 -10.483  1.00  0.00     0.016 C 
HETATM   19  C25 UNL     1       0.173  51.553  -9.577  1.00  0.00     0.022 A 
HETATM   20  C26 UNL     1       0.141  52.337 -10.866  1.00  0.00    -0.021 A 
HETATM   21  C31 UNL     1      -1.093  53.212 -11.116  1.00  0.00     0.063 C 
ENDROOT
BRANCH  14  22
HETATM   22  C13 UNL     1       5.812  55.389  -7.935  1.00  0.00    -0.014 C 
HETATM   23  C14 UNL     1       6.794  55.005  -9.059  1.00  0.00     0.010 C 
BRANCH  22  24
HETATM   24  C15 UNL     1       6.342  56.640  -7.191  1.00  0.00     0.008 C 
BRANCH  24  25
HETATM   25  C16 UNL     1       6.536  56.461  -5.677  1.00  0.00     0.028 C 
BRANCH  25  26
HETATM   26  C17 UNL     1       6.171  57.654  -4.839  1.00  0.00    -0.022 C 
HETATM   27  C18 UNL     1       6.962  58.708  -4.544  1.00  0.00    -0.064 C 
HETATM   28  C19 UNL     1       8.405  58.832  -4.946  1.00  0.00     0.045 C 
BRANCH  27  29
HETATM   29  C20 UNL     1       6.441  59.865  -3.730  1.00  0.00     0.197 C 
BRANCH  29  30
HETATM   30  O3  UNL     1       5.041  59.979  -3.934  1.00  0.00    -0.397 OA
HETATM   31  H29 UNL     1       4.669  59.094  -3.778  1.00  0.00     0.209 HD
ENDBRANCH  29  30
ENDBRANCH  27  29
ENDBRANCH  25  26
ENDBRANCH  24  25
ENDBRANCH  22  24
ENDBRANCH  14  22
BRANCH  20  32
HETATM   32  C27 UNL     1       0.700  51.714 -12.157  1.00  0.00     0.021 C 
BRANCH  32  33
HETATM   33  C28 UNL     1       0.388  52.490 -13.439  1.00  0.00     0.112 C 
BRANCH  33  34
HETATM   34  C29 UNL     1       0.853  51.843 -14.720  1.00  0.00     0.258 C 
HETATM   35  O4  UNL     1       0.109  51.220 -15.472  1.00  0.00    -0.265 OA
BRANCH  34  36
HETATM   36  O5  UNL     1       2.190  51.990 -14.906  1.00  0.00    -0.326 OA
HETATM   37  C30 UNL     1       2.550  52.390 -16.228  1.00  0.00     0.213 C 
ENDBRANCH  34  36
ENDBRANCH  33  34
ENDBRANCH  32  33
ENDBRANCH  20  32
TORSDOF 10
ENDMDL
