MODEL 1
REMARK minimizedAffinity -8.02950287
REMARK CNNscore 0.480539501
REMARK CNNaffinity 6.63806391
REMARK  13 active torsions:
REMARK  status: ('A' for Active; 'I' for Inactive)
REMARK    1  A    between atoms: O1_2  and  C2_3 
REMARK    2  A    between atoms: C8_9  and  O2_10 
REMARK    3  A    between atoms: O2_10  and  C9_11 
REMARK    4  A    between atoms: C10_13  and  C11_14 
REMARK    5  A    between atoms: C11_14  and  O4_15 
REMARK    6  A    between atoms: C12_16  and  O5_17 
REMARK    7  A    between atoms: C13_18  and  O6_19 
REMARK    8  A    between atoms: C14_20  and  O7_21 
REMARK    9  A    between atoms: C24_31  and  C25_32 
REMARK   10  A    between atoms: C25_32  and  C27_34 
REMARK   11  A    between atoms: C27_34  and  C28_35 
REMARK   12  A    between atoms: C29_36  and  C30_37 
REMARK   13  A    between atoms: C30_37  and  O8_40 
ROOT
HETATM    1  C2  UNL     1      -0.358  10.785  17.068  1.00  0.00     0.149 C 
HETATM    2  C3  UNL     1      -0.149   9.487  16.340  1.00  0.00     0.009 C 
HETATM    3  C4  UNL     1      -0.902   9.139  15.278  1.00  0.00    -0.066 C 
HETATM    4  C5  UNL     1      -2.010  10.112  14.885  1.00  0.00     0.024 C 
HETATM    5  C6  UNL     1      -2.867   9.621  13.704  1.00  0.00     0.012 C 
HETATM    6  C7  UNL     1      -2.068   9.051  12.534  1.00  0.00     0.034 C 
HETATM    7  C8  UNL     1      -0.760   8.334  12.903  1.00  0.00     0.136 C 
HETATM    8  C15 UNL     1      -0.657   7.903  14.399  1.00  0.00     0.002 C 
HETATM    9  C16 UNL     1       0.758   7.295  14.606  1.00  0.00     0.022 C 
HETATM   10  C17 UNL     1      -1.652   6.776  14.754  1.00  0.00     0.022 C 
HETATM   11  C18 UNL     1      -2.847  10.565  16.161  1.00  0.00    -0.030 C 
HETATM   12  C19 UNL     1      -3.608   9.326  16.729  1.00  0.00     0.016 C 
HETATM   13  C20 UNL     1      -3.929  11.606  15.727  1.00  0.00     0.011 C 
HETATM   14  C21 UNL     1      -4.516  12.563  16.783  1.00  0.00     0.011 C 
HETATM   15  C22 UNL     1      -3.639  12.824  18.019  1.00  0.00    -0.032 C 
HETATM   16  C23 UNL     1      -4.142  11.912  19.186  1.00  0.00     0.016 C 
HETATM   17  C24 UNL     1      -3.630  14.296  18.563  1.00  0.00    -0.002 C 
HETATM   18  C33 UNL     1      -2.287  14.352  19.353  1.00  0.00     0.006 C 
HETATM   19  C34 UNL     1      -1.447  13.134  18.930  1.00  0.00     0.011 C 
HETATM   20  C35 UNL     1      -2.121  12.613  17.648  1.00  0.00    -0.029 C 
HETATM   21  C36 UNL     1      -1.594  13.520  16.486  1.00  0.00     0.016 C 
HETATM   22  C37 UNL     1      -1.865  11.106  17.303  1.00  0.00     0.036 C 
ENDROOT
BRANCH   7  23
HETATM   23  O2  UNL     1      -0.603   7.181  12.063  1.00  0.00    -0.352 OA
BRANCH  23  24
HETATM   24  C9  UNL     1       0.672   7.079  11.424  1.00  0.00     0.292 C 
HETATM   25  O3  UNL     1       0.611   7.650  10.123  1.00  0.00    -0.348 OA
HETATM   26  C10 UNL     1       1.843   7.581   9.397  1.00  0.00     0.179 C 
HETATM   27  C12 UNL     1       2.297   6.126   9.197  1.00  0.00     0.180 C 
HETATM   28  C13 UNL     1       2.311   5.361  10.524  1.00  0.00     0.183 C 
HETATM   29  C14 UNL     1       1.045   5.582  11.356  1.00  0.00     0.204 C 
BRANCH  26  30
HETATM   30  C11 UNL     1       1.655   8.300   8.050  1.00  0.00     0.198 C 
BRANCH  30  31
HETATM   31  O4  UNL     1       2.875   8.893   7.605  1.00  0.00    -0.398 OA
HETATM   32  H16 UNL     1       2.687   9.328   6.756  1.00  0.00     0.209 HD
ENDBRANCH  30  31
ENDBRANCH  26  30
BRANCH  27  33
HETATM   33  O5  UNL     1       3.612   6.103   8.622  1.00  0.00    -0.390 OA
HETATM   34  H18 UNL     1       4.210   5.692   9.280  1.00  0.00     0.210 HD
ENDBRANCH  27  33
BRANCH  28  35
HETATM   35  O6  UNL     1       3.485   5.718  11.292  1.00  0.00    -0.390 OA
HETATM   36  H20 UNL     1       3.483   6.674  11.467  1.00  0.00     0.210 HD
ENDBRANCH  28  35
BRANCH  29  37
HETATM   37  O7  UNL     1       1.253   5.036  12.671  1.00  0.00    -0.388 OA
HETATM   38  H22 UNL     1       2.219   4.955  12.800  1.00  0.00     0.210 HD
ENDBRANCH  29  37
ENDBRANCH  23  24
ENDBRANCH   7  23
BRANCH   1  39
HETATM   39  O1  UNL     1       0.280  10.694  18.350  1.00  0.00    -0.386 OA
HETATM   40  C1  UNL     1       1.676  10.965  18.303  1.00  0.00     0.202 C 
ENDBRANCH   1  39
BRANCH  17  41
HETATM   41  C25 UNL     1      -4.837  14.816  19.406  1.00  0.00    -0.010 C 
HETATM   42  C26 UNL     1      -4.475  16.080  20.199  1.00  0.00     0.010 C 
BRANCH  41  43
HETATM   43  C27 UNL     1      -5.343  13.717  20.381  1.00  0.00     0.031 C 
BRANCH  43  44
HETATM   44  C28 UNL     1      -6.369  14.227  21.358  1.00  0.00    -0.027 C 
HETATM   45  C29 UNL     1      -7.127  13.445  22.147  1.00  0.00     0.006 C 
BRANCH  45  46
HETATM   46  C30 UNL     1      -8.170  13.919  23.135  1.00  0.00     0.068 C 
HETATM   47  C31 UNL     1      -8.823  12.717  23.820  1.00  0.00     0.050 C 
HETATM   48  C32 UNL     1      -7.531  14.849  24.166  1.00  0.00     0.050 C 
BRANCH  46  49
HETATM   49  O8  UNL     1      -9.188  14.648  22.451  1.00  0.00    -0.387 OA
HETATM   50  H54 UNL     1      -9.856  14.907  23.108  1.00  0.00     0.211 HD
ENDBRANCH  46  49
ENDBRANCH  45  46
ENDBRANCH  43  44
ENDBRANCH  41  43
ENDBRANCH  17  41
TORSDOF 13
ENDMDL
