MODEL 1
REMARK minimizedAffinity -8.37535191
REMARK CNNscore 0.569123685
REMARK CNNaffinity 7.48078012
REMARK  12 active torsions:
REMARK  status: ('A' for Active; 'I' for Inactive)
REMARK    1  A    between atoms: O1_2  and  C2_3 
REMARK    2  A    between atoms: C2_3  and  C5_6 
REMARK    3  A    between atoms: C6_7  and  C7_8 
REMARK    4  A    between atoms: C7_8  and  C8_9 
REMARK    5  A    between atoms: C8_9  and  C10_11 
REMARK    6  A    between atoms: C28_30  and  O3_31 
REMARK    7  A    between atoms: O3_31  and  C29_32 
REMARK    8  A    between atoms: C30_34  and  C31_35 
REMARK    9  A    between atoms: C31_35  and  O5_36 
REMARK   10  A    between atoms: C32_37  and  O6_38 
REMARK   11  A    between atoms: C33_39  and  O7_40 
REMARK   12  A    between atoms: C34_41  and  O8_42 
ROOT
HETATM    1  C10 UNL     1      -7.501   6.311  14.514  1.00  0.00    -0.002 C 
HETATM    2  C11 UNL     1      -7.194   5.550  15.848  1.00  0.00     0.006 C 
HETATM    3  C12 UNL     1      -5.682   5.711  16.138  1.00  0.00     0.011 C 
HETATM    4  C13 UNL     1      -5.242   6.844  15.196  1.00  0.00    -0.029 C 
HETATM    5  C14 UNL     1      -5.724   8.171  15.914  1.00  0.00     0.016 C 
HETATM    6  C15 UNL     1      -3.711   7.052  14.902  1.00  0.00     0.028 C 
HETATM    7  C16 UNL     1      -2.653   6.112  15.409  1.00  0.00    -0.021 C 
HETATM    8  C17 UNL     1      -1.419   6.149  14.866  1.00  0.00     0.008 C 
HETATM    9  C18 UNL     1      -1.062   7.043  13.665  1.00  0.00     0.092 C 
HETATM   10  O2  UNL     1      -1.479   6.246  12.546  1.00  0.00    -0.374 OA
HETATM   11  C19 UNL     1      -2.907   6.464  12.405  1.00  0.00     0.179 C 
HETATM   12  C20 UNL     1      -3.361   7.550  13.445  1.00  0.00    -0.004 C 
HETATM   13  C21 UNL     1      -4.524   8.375  12.880  1.00  0.00     0.014 C 
HETATM   14  C22 UNL     1      -5.902   7.657  12.885  1.00  0.00     0.011 C 
HETATM   15  C23 UNL     1      -6.068   6.503  13.908  1.00  0.00    -0.032 C 
HETATM   16  C24 UNL     1      -5.648   5.138  13.282  1.00  0.00     0.016 C 
HETATM   17  C25 UNL     1      -1.993   8.272  13.520  1.00  0.00     0.036 C 
HETATM   18  C26 UNL     1      -1.703   9.351  14.563  1.00  0.00     0.011 C 
HETATM   19  C27 UNL     1      -0.233   9.768  14.502  1.00  0.00     0.033 C 
HETATM   20  C28 UNL     1       0.722   8.566  14.636  1.00  0.00     0.136 C 
HETATM   21  C35 UNL     1       0.443   7.462  13.563  1.00  0.00     0.014 C 
HETATM   22  C36 UNL     1       0.785   7.979  12.138  1.00  0.00     0.021 C 
HETATM   23  C37 UNL     1       1.400   6.265  13.793  1.00  0.00     0.021 C 
ENDROOT
BRANCH  20  24
HETATM   24  O3  UNL     1       2.097   8.969  14.536  1.00  0.00    -0.352 OA
BRANCH  24  25
HETATM   25  C29 UNL     1       2.913   8.558  15.634  1.00  0.00     0.292 C 
HETATM   26  O4  UNL     1       2.982   9.574  16.628  1.00  0.00    -0.348 OA
HETATM   27  C30 UNL     1       3.640  10.798  16.246  1.00  0.00     0.179 C 
HETATM   28  C32 UNL     1       4.752  10.595  15.205  1.00  0.00     0.180 C 
HETATM   29  C33 UNL     1       5.359   9.215  15.404  1.00  0.00     0.183 C 
HETATM   30  C34 UNL     1       4.308   8.152  15.088  1.00  0.00     0.204 C 
BRANCH  27  31
HETATM   31  C31 UNL     1       2.639  11.865  15.779  1.00  0.00     0.198 C 
BRANCH  31  32
HETATM   32  O5  UNL     1       3.080  12.468  14.561  1.00  0.00    -0.398 OA
HETATM   33  H48 UNL     1       2.391  13.099  14.293  1.00  0.00     0.209 HD
ENDBRANCH  31  32
ENDBRANCH  27  31
BRANCH  28  34
HETATM   34  O6  UNL     1       5.765  11.602  15.339  1.00  0.00    -0.390 OA
HETATM   35  H50 UNL     1       6.546  11.235  14.879  1.00  0.00     0.210 HD
ENDBRANCH  28  34
BRANCH  29  36
HETATM   36  O7  UNL     1       6.496   9.056  14.535  1.00  0.00    -0.390 OA
HETATM   37  H52 UNL     1       6.780   8.130  14.665  1.00  0.00     0.210 HD
ENDBRANCH  29  36
BRANCH  30  38
HETATM   38  O8  UNL     1       4.779   6.904  15.639  1.00  0.00    -0.388 OA
HETATM   39  H54 UNL     1       4.149   6.212  15.367  1.00  0.00     0.210 HD
ENDBRANCH  30  38
ENDBRANCH  24  25
ENDBRANCH  20  24
BRANCH   1  40
HETATM   40  C8  UNL     1      -8.635   5.621  13.693  1.00  0.00    -0.010 C 
HETATM   41  C9  UNL     1      -8.082   4.583  12.712  1.00  0.00     0.010 C 
BRANCH  40  42
HETATM   42  C7  UNL     1      -9.461   6.690  12.925  1.00  0.00     0.031 C 
BRANCH  42  43
HETATM   43  C6  UNL     1     -10.880   6.968  13.363  1.00  0.00    -0.027 C 
HETATM   44  C5  UNL     1     -11.730   7.875  12.848  1.00  0.00     0.006 C 
BRANCH  44  45
HETATM   45  C2  UNL     1     -13.159   8.158  13.278  1.00  0.00     0.070 C 
HETATM   46  C3  UNL     1     -13.334   8.669  14.714  1.00  0.00     0.050 C 
HETATM   47  C4  UNL     1     -13.955   6.850  13.137  1.00  0.00     0.050 C 
BRANCH  45  48
HETATM   48  O1  UNL     1     -13.749   9.060  12.324  1.00  0.00    -0.382 OA
HETATM   49  C1  UNL     1     -13.082  10.301  12.142  1.00  0.00     0.202 C 
ENDBRANCH  45  48
ENDBRANCH  44  45
ENDBRANCH  42  43
ENDBRANCH  40  42
ENDBRANCH   1  40
TORSDOF 12
ENDMDL
