MODEL 1
REMARK minimizedAffinity -7.64745569
REMARK  5 active torsions:
REMARK  status: ('A' for Active; 'I' for Inactive)
REMARK    1  A    between atoms: O1_2  and  C2_3 
REMARK    2  A    between atoms: C6_11  and  N3_12 
REMARK    3  A    between atoms: C9_15  and  O2_16 
REMARK    4  A    between atoms: O2_16  and  C10_17 
REMARK    5  A    between atoms: C23_30  and  O3_31 
ROOT
HETATM    1  C2  UNL     1      10.805  34.555  19.447  1.00  0.00     0.103 A 
HETATM    2  C3  UNL     1      12.021  34.237  20.065  1.00  0.00     0.070 A 
HETATM    3  C4  UNL     1      13.245  34.491  19.457  1.00  0.00     0.049 A 
HETATM    4  N1  UNL     1      14.364  34.159  20.108  1.00  0.00    -0.351 N 
ATOM      5  H1  UNL     1      14.338  33.725  21.031  1.00  0.00     0.166 HD
HETATM    6  C5  UNL     1      15.520  34.424  19.488  1.00  0.00     0.182 A 
HETATM    7  N2  UNL     1      15.663  34.993  18.288  1.00  0.00    -0.342 N 
ATOM      8  H2  UNL     1      16.583  35.173  17.887  1.00  0.00     0.167 HD
HETATM    9  C6  UNL     1      14.530  35.315  17.637  1.00  0.00     0.096 A 
HETATM   10  C21 UNL     1      13.257  35.085  18.191  1.00  0.00     0.032 A 
HETATM   11  C22 UNL     1      12.033  35.409  17.556  1.00  0.00     0.056 A 
HETATM   12  C23 UNL     1      10.811  35.146  18.174  1.00  0.00     0.102 A 
ENDROOT
BRANCH   9  13
HETATM   13  N3  UNL     1      14.627  35.954  16.377  1.00  0.00    -0.266 NA
HETATM   14  C7  UNL     1      15.008  37.370  16.552  1.00  0.00     0.099 C 
HETATM   15  C8  UNL     1      16.378  37.510  15.904  1.00  0.00     0.048 C 
HETATM   16  C9  UNL     1      16.324  36.488  14.776  1.00  0.00     0.143 C 
HETATM   17  C20 UNL     1      15.618  35.319  15.479  1.00  0.00     0.129 C 
BRANCH  16  18
HETATM   18  O2  UNL     1      17.653  36.193  14.365  1.00  0.00    -0.345 OA
BRANCH  18  19
HETATM   19  C10 UNL     1      17.840  35.265  13.379  1.00  0.00     0.070 A 
HETATM   20  C11 UNL     1      18.163  35.806  12.135  1.00  0.00     0.037 A 
HETATM   21  C12 UNL     1      18.386  34.978  11.032  1.00  0.00     0.015 A 
HETATM   22  C13 UNL     1      18.283  33.586  11.156  1.00  0.00    -0.026 A 
HETATM   23  C14 UNL     1      18.503  32.735  10.061  1.00  0.00     0.012 A 
HETATM   24  C18 UNL     1      17.947  33.029  12.411  1.00  0.00    -0.023 A 
HETATM   25  C15 UNL     1      18.396  31.351  10.201  1.00  0.00     0.001 A 
HETATM   26  C16 UNL     1      18.066  30.801  11.434  1.00  0.00     0.001 A 
HETATM   27  C17 UNL     1      17.842  31.634  12.533  1.00  0.00     0.012 A 
HETATM   28  C19 UNL     1      17.726  33.881  13.511  1.00  0.00     0.049 A 
ENDBRANCH  18  19
ENDBRANCH  16  18
ENDBRANCH   9  13
BRANCH  12  29
HETATM   29  O3  UNL     1       9.585  35.429  17.629  1.00  0.00    -0.353 OA
HETATM   30  C24 UNL     1       8.889  36.564  18.125  1.00  0.00     0.210 C 
ENDBRANCH  12  29
BRANCH   1  31
HETATM   31  O1  UNL     1       9.570  34.327  20.002  1.00  0.00    -0.353 OA
HETATM   32  C1  UNL     1       9.399  34.631  21.380  1.00  0.00     0.210 C 
ENDBRANCH   1  31
TORSDOF 5
ENDMDL
