MODEL 1
REMARK minimizedAffinity -8.56570053
REMARK  10 active torsions:
REMARK  status: ('A' for Active; 'I' for Inactive)
REMARK    1  A    between atoms: C14_14  and  C15_15 
REMARK    2  A    between atoms: C15_15  and  C17_17 
REMARK    3  A    between atoms: C17_17  and  C18_18 
REMARK    4  A    between atoms: C18_18  and  C19_19 
REMARK    5  A    between atoms: C20_20  and  C22_22 
REMARK    6  A    between atoms: C22_22  and  O2_24 
REMARK    7  A    between atoms: C27_29  and  C28_30 
REMARK    8  A    between atoms: C28_30  and  C29_31 
REMARK    9  A    between atoms: C29_31  and  C30_32 
REMARK   10  A    between atoms: C30_32  and  O4_34 
ROOT
HETATM    1  C1  UNL     1       2.141   9.912  15.816  1.00  0.00     0.043 C 
HETATM    2  C2  UNL     1       1.594   8.847  14.883  1.00  0.00    -0.085 C 
HETATM    3  C3  UNL     1       2.562   7.699  14.760  1.00  0.00     0.043 C 
HETATM    4  C4  UNL     1       0.364   8.944  14.306  1.00  0.00    -0.073 C 
HETATM    5  C5  UNL     1      -0.595  10.018  14.804  1.00  0.00     0.035 C 
HETATM    6  C6  UNL     1      -2.064   9.731  14.501  1.00  0.00     0.010 C 
HETATM    7  C7  UNL     1      -2.472   8.243  14.680  1.00  0.00     0.003 C 
HETATM    8  C8  UNL     1      -1.463   7.209  13.967  1.00  0.00    -0.032 C 
HETATM    9  C9  UNL     1      -0.786   6.276  15.011  1.00  0.00     0.016 C 
HETATM   10  C10 UNL     1      -2.202   6.260  12.969  1.00  0.00     0.011 C 
HETATM   11  C11 UNL     1      -3.579   5.691  13.380  1.00  0.00     0.011 C 
HETATM   12  C12 UNL     1      -4.361   6.509  14.423  1.00  0.00    -0.032 C 
HETATM   13  C13 UNL     1      -4.082   5.942  15.843  1.00  0.00     0.016 C 
HETATM   14  C14 UNL     1      -5.916   6.562  14.225  1.00  0.00    -0.002 C 
HETATM   15  C23 UNL     1      -6.320   7.889  14.931  1.00  0.00     0.006 C 
HETATM   16  C24 UNL     1      -5.018   8.675  15.196  1.00  0.00     0.011 C 
HETATM   17  C25 UNL     1      -3.971   8.023  14.270  1.00  0.00    -0.032 C 
HETATM   18  C26 UNL     1      -4.229   8.632  12.845  1.00  0.00     0.016 C 
HETATM   19  C27 UNL     1      -0.314   8.042  13.248  1.00  0.00     0.024 C 
ENDROOT
BRANCH  14  20
HETATM   20  C15 UNL     1      -6.863   5.355  14.519  1.00  0.00    -0.014 C 
HETATM   21  C16 UNL     1      -7.645   5.577  15.820  1.00  0.00     0.010 C 
BRANCH  20  22
HETATM   22  C17 UNL     1      -7.813   4.900  13.385  1.00  0.00     0.008 C 
BRANCH  22  23
HETATM   23  C18 UNL     1      -7.463   3.540  12.754  1.00  0.00     0.028 C 
BRANCH  23  24
HETATM   24  C19 UNL     1      -6.039   3.464  12.275  1.00  0.00    -0.013 C 
HETATM   25  C20 UNL     1      -5.430   2.441  11.641  1.00  0.00     0.008 C 
HETATM   26  C21 UNL     1      -6.050   1.126  11.277  1.00  0.00     0.055 C 
BRANCH  25  27
HETATM   27  C22 UNL     1      -4.002   2.648  11.280  1.00  0.00     0.171 C 
HETATM   28  O1  UNL     1      -3.027   2.345  11.947  1.00  0.00    -0.646 OA
BRANCH  27  29
HETATM   29  O2  UNL     1      -3.856   3.231  10.079  1.00  0.00    -0.773 OA
HETATM   30  H35 UNL     1      -2.885   3.298   9.976  1.00  0.00     0.167 HD
ENDBRANCH  27  29
ENDBRANCH  25  27
ENDBRANCH  23  24
ENDBRANCH  22  23
ENDBRANCH  20  22
ENDBRANCH  14  20
BRANCH  19  31
HETATM   31  C28 UNL     1       0.596   7.272  12.249  1.00  0.00     0.020 C 
BRANCH  31  32
HETATM   32  C29 UNL     1      -0.051   5.998  11.694  1.00  0.00     0.110 C 
BRANCH  32  33
HETATM   33  C30 UNL     1       0.914   4.910  11.322  1.00  0.00     0.139 C 
HETATM   34  O3  UNL     1       0.669   3.716  11.268  1.00  0.00    -0.650 OA
BRANCH  33  35
HETATM   35  O4  UNL     1       2.151   5.373  11.065  1.00  0.00    -0.776 OA
HETATM   36  H48 UNL     1       2.647   4.565  10.814  1.00  0.00     0.167 HD
ENDBRANCH  33  35
ENDBRANCH  32  33
ENDBRANCH  31  32
ENDBRANCH  19  31
TORSDOF 10
ENDMDL
