MODEL 1
REMARK minimizedAffinity -9.40985394
REMARK  9 active torsions:
REMARK  status: ('A' for Active; 'I' for Inactive)
REMARK    1  A    between atoms: C12_14  and  C13_15 
REMARK    2  A    between atoms: C13_15  and  C15_17 
REMARK    3  A    between atoms: C15_17  and  C16_18 
REMARK    4  A    between atoms: C16_18  and  C17_19 
REMARK    5  A    between atoms: C18_20  and  C20_22 
REMARK    6  A    between atoms: C26_29  and  C27_30 
REMARK    7  A    between atoms: C27_30  and  C28_31 
REMARK    8  A    between atoms: C28_31  and  C29_32 
REMARK    9  A    between atoms: C29_32  and  O5_34 
ROOT
HETATM    1  C1  UNL     1       0.320  50.969 -16.936  1.00  0.00     0.025 C 
HETATM    2  C2  UNL     1      -0.727  50.926 -17.770  1.00  0.00     0.015 C 
HETATM    3  C3  UNL     1      -1.816  49.947 -17.557  1.00  0.00     0.289 C 
HETATM    4  O1  UNL     1      -1.774  48.957 -16.851  1.00  0.00    -0.260 OA
HETATM    5  O2  UNL     1      -2.880  50.350 -18.297  1.00  0.00    -0.311 OA
HETATM    6  C4  UNL     1      -2.613  51.641 -18.864  1.00  0.00     0.142 C 
HETATM    7  C5  UNL     1      -3.311  51.763 -20.207  1.00  0.00     0.039 C 
HETATM    8  C6  UNL     1      -2.799  50.706 -21.196  1.00  0.00     0.006 C 
HETATM    9  C7  UNL     1      -1.291  50.914 -21.460  1.00  0.00    -0.027 A 
HETATM   10  C8  UNL     1      -0.902  51.221 -22.912  1.00  0.00     0.011 C 
HETATM   11  C9  UNL     1      -1.635  50.429 -24.012  1.00  0.00     0.011 C 
HETATM   12  C10 UNL     1      -2.914  49.714 -23.551  1.00  0.00    -0.032 C 
HETATM   13  C11 UNL     1      -2.514  48.317 -22.986  1.00  0.00     0.016 C 
HETATM   14  C12 UNL     1      -4.031  49.517 -24.631  1.00  0.00    -0.002 C 
HETATM   15  C21 UNL     1      -5.318  49.392 -23.762  1.00  0.00     0.006 C 
HETATM   16  C22 UNL     1      -4.988  49.920 -22.356  1.00  0.00     0.011 C 
HETATM   17  C23 UNL     1      -3.636  50.641 -22.509  1.00  0.00    -0.032 C 
HETATM   18  C24 UNL     1      -3.966  52.074 -23.035  1.00  0.00     0.016 C 
HETATM   19  C25 UNL     1      -0.303  50.050 -20.697  1.00  0.00     0.022 A 
HETATM   20  C26 UNL     1      -0.438  51.497 -20.283  1.00  0.00    -0.021 A 
HETATM   21  C30 UNL     1      -1.097  51.812 -18.917  1.00  0.00     0.063 C 
ENDROOT
BRANCH  14  22
HETATM   22  C13 UNL     1      -3.914  48.372 -25.683  1.00  0.00    -0.014 C 
HETATM   23  C14 UNL     1      -2.897  48.708 -26.780  1.00  0.00     0.010 C 
BRANCH  22  24
HETATM   24  C15 UNL     1      -5.304  48.080 -26.317  1.00  0.00     0.008 C 
BRANCH  24  25
HETATM   25  C16 UNL     1      -5.287  48.000 -27.849  1.00  0.00     0.028 C 
BRANCH  25  26
HETATM   26  C17 UNL     1      -6.466  47.220 -28.361  1.00  0.00    -0.017 C 
HETATM   27  C18 UNL     1      -6.629  46.704 -29.594  1.00  0.00    -0.028 C 
HETATM   28  C19 UNL     1      -5.693  46.831 -30.754  1.00  0.00     0.051 C 
BRANCH  27  29
HETATM   29  C20 UNL     1      -7.883  45.939 -29.871  1.00  0.00     0.265 C 
HETATM   30  O3  UNL     1      -8.182  45.483 -30.968  1.00  0.00    -0.302 OA
ENDBRANCH  27  29
ENDBRANCH  25  26
ENDBRANCH  24  25
ENDBRANCH  22  24
ENDBRANCH  14  22
BRANCH  20  31
HETATM   31  C27 UNL     1       0.686  52.472 -20.665  1.00  0.00     0.021 C 
BRANCH  31  32
HETATM   32  C28 UNL     1       0.601  53.010 -22.089  1.00  0.00     0.111 C 
BRANCH  32  33
HETATM   33  C29 UNL     1       1.450  54.240 -22.270  1.00  0.00     0.139 C 
HETATM   34  O4  UNL     1       2.117  54.814 -21.427  1.00  0.00    -0.650 OA
BRANCH  33  35
HETATM   35  O5  UNL     1       1.412  54.689 -23.541  1.00  0.00    -0.776 OA
HETATM   36  H41 UNL     1       1.988  55.482 -23.531  1.00  0.00     0.167 HD
ENDBRANCH  33  35
ENDBRANCH  32  33
ENDBRANCH  31  32
ENDBRANCH  20  31
TORSDOF 9
ENDMDL
