MODEL 1
REMARK minimizedAffinity -8.45904732
REMARK CNNscore 0.668131113
REMARK CNNaffinity 7.48112488
REMARK  12 active torsions:
REMARK  status: ('A' for Active; 'I' for Inactive)
REMARK    1  A    between atoms: C2_2  and  C3_3 
REMARK    2  A    between atoms: C2_2  and  C9_10 
REMARK    3  A    between atoms: C3_3  and  C4_4 
REMARK    4  A    between atoms: C5_5  and  C6_6 
REMARK    5  A    between atoms: C6_6  and  O1_9 
REMARK    6  A    between atoms: C27_29  and  O3_30 
REMARK    7  A    between atoms: O3_30  and  C28_31 
REMARK    8  A    between atoms: C29_33  and  C30_34 
REMARK    9  A    between atoms: C30_34  and  O5_35 
REMARK   10  A    between atoms: C31_36  and  O6_37 
REMARK   11  A    between atoms: C32_38  and  O7_39 
REMARK   12  A    between atoms: C33_40  and  O8_41 
ROOT
HETATM    1  C9  UNL     1      -0.234  50.911 -20.495  1.00  0.00    -0.002 C 
HETATM    2  C10 UNL     1      -0.332  51.636 -19.125  1.00  0.00     0.006 C 
HETATM    3  C11 UNL     1      -1.599  51.092 -18.420  1.00  0.00     0.011 C 
HETATM    4  C12 UNL     1      -2.011  49.853 -19.246  1.00  0.00    -0.029 C 
HETATM    5  C13 UNL     1      -1.105  48.688 -18.729  1.00  0.00     0.016 C 
HETATM    6  C14 UNL     1      -3.517  49.451 -19.176  1.00  0.00     0.028 C 
HETATM    7  C15 UNL     1      -3.960  49.053 -17.780  1.00  0.00    -0.021 C 
HETATM    8  C16 UNL     1      -4.642  47.919 -17.544  1.00  0.00     0.008 C 
HETATM    9  C17 UNL     1      -5.009  46.964 -18.674  1.00  0.00     0.092 C 
HETATM   10  O2  UNL     1      -6.047  47.669 -19.391  1.00  0.00    -0.374 OA
HETATM   11  C18 UNL     1      -5.447  48.395 -20.472  1.00  0.00     0.179 C 
HETATM   12  C19 UNL     1      -3.911  48.360 -20.273  1.00  0.00    -0.004 C 
HETATM   13  C20 UNL     1      -3.230  48.579 -21.653  1.00  0.00     0.014 C 
HETATM   14  C21 UNL     1      -1.801  49.150 -21.656  1.00  0.00     0.011 C 
HETATM   15  C22 UNL     1      -1.672  50.345 -20.699  1.00  0.00    -0.032 C 
HETATM   16  C23 UNL     1      -2.611  51.475 -21.219  1.00  0.00     0.016 C 
HETATM   17  C24 UNL     1      -3.794  46.946 -19.648  1.00  0.00     0.036 C 
HETATM   18  C25 UNL     1      -3.831  45.757 -20.604  1.00  0.00     0.011 C 
HETATM   19  C26 UNL     1      -3.817  44.431 -19.841  1.00  0.00     0.033 C 
HETATM   20  C27 UNL     1      -4.350  44.512 -18.399  1.00  0.00     0.136 C 
HETATM   21  C34 UNL     1      -5.529  45.524 -18.271  1.00  0.00     0.014 C 
HETATM   22  C35 UNL     1      -6.721  45.070 -19.160  1.00  0.00     0.021 C 
HETATM   23  C36 UNL     1      -6.082  45.472 -16.824  1.00  0.00     0.021 C 
ENDROOT
BRANCH  20  24
HETATM   24  O3  UNL     1      -4.788  43.215 -17.962  1.00  0.00    -0.352 OA
BRANCH  24  25
HETATM   25  C28 UNL     1      -5.179  42.328 -19.023  1.00  0.00     0.292 C 
HETATM   26  O4  UNL     1      -6.522  41.900 -18.837  1.00  0.00    -0.348 OA
HETATM   27  C29 UNL     1      -6.906  40.691 -19.528  1.00  0.00     0.179 C 
HETATM   28  C31 UNL     1      -5.922  40.215 -20.610  1.00  0.00     0.180 C 
HETATM   29  C32 UNL     1      -4.468  40.175 -20.120  1.00  0.00     0.183 C 
HETATM   30  C33 UNL     1      -4.213  41.135 -18.954  1.00  0.00     0.204 C 
BRANCH  27  31
HETATM   31  C30 UNL     1      -7.169  39.614 -18.466  1.00  0.00     0.198 C 
BRANCH  31  32
HETATM   32  O5  UNL     1      -7.912  40.183 -17.385  1.00  0.00    -0.398 OA
HETATM   33  H46 UNL     1      -7.485  41.041 -17.195  1.00  0.00     0.209 HD
ENDBRANCH  31  32
ENDBRANCH  27  31
BRANCH  28  34
HETATM   34  O6  UNL     1      -6.003  41.138 -21.711  1.00  0.00    -0.390 OA
HETATM   35  H48 UNL     1      -5.596  40.701 -22.483  1.00  0.00     0.210 HD
ENDBRANCH  28  34
BRANCH  29  36
HETATM   36  O7  UNL     1      -4.128  38.841 -19.719  1.00  0.00    -0.390 OA
HETATM   37  H50 UNL     1      -3.199  38.883 -19.416  1.00  0.00     0.210 HD
ENDBRANCH  29  36
BRANCH  30  38
HETATM   38  O8  UNL     1      -2.837  41.551 -18.984  1.00  0.00    -0.388 OA
HETATM   39  H52 UNL     1      -2.790  42.285 -18.337  1.00  0.00     0.210 HD
ENDBRANCH  30  38
ENDBRANCH  24  25
ENDBRANCH  20  24
BRANCH   1  40
HETATM   40  C2  UNL     1       0.434  51.704 -21.661  1.00  0.00    -0.010 C 
HETATM   41  C1  UNL     1       1.323  52.809 -21.058  1.00  0.00     0.010 C 
BRANCH  40  42
HETATM   42  C3  UNL     1      -0.535  52.349 -22.683  1.00  0.00     0.031 C 
BRANCH  42  43
HETATM   43  C4  UNL     1      -0.318  52.080 -24.156  1.00  0.00    -0.027 C 
HETATM   44  C5  UNL     1       0.625  52.591 -24.969  1.00  0.00     0.006 C 
BRANCH  44  45
HETATM   45  C6  UNL     1       0.840  52.266 -26.430  1.00  0.00     0.068 C 
HETATM   46  C7  UNL     1       0.266  50.885 -26.759  1.00  0.00     0.050 C 
HETATM   47  C8  UNL     1       0.189  53.338 -27.304  1.00  0.00     0.050 C 
BRANCH  45  48
HETATM   48  O1  UNL     1       2.232  52.249 -26.746  1.00  0.00    -0.387 OA
HETATM   49  H15 UNL     1       2.630  51.527 -26.228  1.00  0.00     0.211 HD
ENDBRANCH  45  48
ENDBRANCH  44  45
ENDBRANCH  42  43
ENDBRANCH  40  42
ENDBRANCH   1  40
TORSDOF 12
ENDMDL
