MODEL 1
REMARK minimizedAffinity -7.76432753
REMARK CNNscore 0.496560186
REMARK CNNaffinity 6.26126909
REMARK  13 active torsions:
REMARK  status: ('A' for Active; 'I' for Inactive)
REMARK    1  A    between atoms: C3_3  and  O1_4 
REMARK    2  A    between atoms: N1_14  and  O2_16 
REMARK    3  A    between atoms: O2_16  and  C13_17 
REMARK    4  A    between atoms: C13_17  and  C14_18 
REMARK       I    between atoms: C14_18  and  N2_20 
REMARK    5  A    between atoms: N2_20  and  C15_21 
REMARK    6  A    between atoms: C15_21  and  C16_22 
REMARK    7  A    between atoms: C15_21  and  C21_32 
REMARK       I    between atoms: C16_22  and  N3_24 
REMARK    8  A    between atoms: N3_24  and  C17_25 
REMARK    9  A    between atoms: C17_25  and  C18_26 
REMARK   10  A    between atoms: C17_25  and  C19_28 
REMARK   11  A    between atoms: C18_26  and  S1_27 
REMARK   12  A    between atoms: C19_28  and  C20_29 
REMARK   13  A    between atoms: C20_29  and  O6_31 
ROOT
HETATM    1  C1  UNL     1      -1.618   5.771  12.438  1.00  0.00     0.015 C 
HETATM    2  C2  UNL     1      -2.198   6.659  13.000  1.00  0.00    -0.078 C 
HETATM    3  C3  UNL     1      -2.859   7.799  13.659  1.00  0.00     0.128 C 
HETATM    4  C4  UNL     1      -4.283   8.013  13.140  1.00  0.00     0.052 C 
HETATM    5  C5  UNL     1      -5.023   8.776  14.247  1.00  0.00     0.010 C 
HETATM    6  C6  UNL     1      -4.151   8.699  15.519  1.00  0.00     0.002 C 
HETATM    7  C7  UNL     1      -3.714  10.073  16.117  1.00  0.00    -0.004 C 
HETATM    8  C8  UNL     1      -3.312  11.192  15.131  1.00  0.00     0.010 C 
HETATM    9  C9  UNL     1      -2.959  12.504  15.832  1.00  0.00     0.035 C 
HETATM   10  C10 UNL     1      -1.967  12.331  16.958  1.00  0.00    -0.069 C 
HETATM   11  C11 UNL     1      -0.905  13.147  17.052  1.00  0.00     0.030 C 
HETATM   12  C12 UNL     1       0.006  13.105  18.226  1.00  0.00     0.032 C 
HETATM   13  N1  UNL     1       1.117  13.784  18.162  1.00  0.00    -0.271 N 
ATOM     14  H1  UNL     1       1.398  14.347  17.359  1.00  0.00     0.194 HD
HETATM   15  C24 UNL     1      -0.453  12.309  19.431  1.00  0.00     0.060 C 
HETATM   16  C25 UNL     1      -1.084  11.010  18.949  1.00  0.00     0.020 C 
HETATM   17  C26 UNL     1      -2.270  11.219  17.959  1.00  0.00    -0.016 C 
HETATM   18  C27 UNL     1      -3.493  11.652  18.814  1.00  0.00     0.020 C 
HETATM   19  C28 UNL     1      -2.612   9.874  17.196  1.00  0.00     0.002 C 
HETATM   20  C29 UNL     1      -1.410   9.186  16.513  1.00  0.00     0.007 C 
HETATM   21  C30 UNL     1      -1.764   7.786  16.027  1.00  0.00     0.014 C 
HETATM   22  C31 UNL     1      -3.052   7.641  15.196  1.00  0.00     0.003 C 
HETATM   23  C32 UNL     1      -3.628   6.224  15.523  1.00  0.00     0.020 C 
ENDROOT
BRANCH   3  24
HETATM   24  O1  UNL     1      -2.108   8.962  13.336  1.00  0.00    -0.377 OA
HETATM   25  H2  UNL     1      -1.190   8.809  13.609  1.00  0.00     0.211 HD
ENDBRANCH   3  24
BRANCH  13  26
HETATM   26  O2  UNL     1       1.877  13.646  19.332  1.00  0.00    -0.271 OA
BRANCH  26  27
HETATM   27  C13 UNL     1       3.142  13.071  19.020  1.00  0.00     0.303 C 
BRANCH  27  28
HETATM   28  C14 UNL     1       3.773  12.431  20.249  1.00  0.00     0.244 C 
HETATM   29  O3  UNL     1       4.830  11.804  20.199  1.00  0.00    -0.271 OA
HETATM   30  N2  UNL     1       3.081  12.659  21.421  1.00  0.00    -0.346 N 
HETATM   31  H16 UNL     1       2.100  12.901  21.275  1.00  0.00     0.163 HD
BRANCH  30  32
HETATM   32  C15 UNL     1       3.408  11.897  22.624  1.00  0.00     0.180 C 
BRANCH  32  33
HETATM   33  C16 UNL     1       4.906  12.135  22.924  1.00  0.00     0.241 C 
HETATM   34  O4  UNL     1       5.662  11.233  23.289  1.00  0.00    -0.271 OA
HETATM   35  N3  UNL     1       5.330  13.436  22.756  1.00  0.00    -0.353 N 
HETATM   36  H18 UNL     1       4.668  14.138  22.456  1.00  0.00     0.163 HD
BRANCH  35  37
HETATM   37  C17 UNL     1       6.737  13.821  22.926  1.00  0.00     0.103 C 
BRANCH  37  38
HETATM   38  C18 UNL     1       6.906  15.354  22.852  1.00  0.00     0.096 C 
BRANCH  38  39
HETATM   39  S1  UNL     1       7.904  16.012  24.228  1.00  0.00    -0.180 SA
HETATM   40  H22 UNL     1       9.002  15.276  23.964  1.00  0.00     0.101 HD
ENDBRANCH  38  39
ENDBRANCH  37  38
BRANCH  37  41
HETATM   41  C19 UNL     1       7.607  13.132  21.861  1.00  0.00     0.136 C 
BRANCH  41  42
HETATM   42  C20 UNL     1       8.853  12.538  22.457  1.00  0.00     0.141 C 
HETATM   43  O5  UNL     1       9.363  12.815  23.528  1.00  0.00    -0.650 OA
BRANCH  42  44
HETATM   44  O6  UNL     1       9.403  11.607  21.651  1.00  0.00    -0.776 OA
HETATM   45  H25 UNL     1      10.151  11.246  22.168  1.00  0.00     0.167 HD
ENDBRANCH  42  44
ENDBRANCH  41  42
ENDBRANCH  37  41
ENDBRANCH  35  37
ENDBRANCH  32  33
BRANCH  32  46
HETATM   46  C21 UNL     1       3.037  10.407  22.468  1.00  0.00     0.009 C 
HETATM   47  C22 UNL     1       4.280   9.536  22.258  1.00  0.00     0.012 C 
HETATM   48  C23 UNL     1       2.014  10.134  21.360  1.00  0.00     0.012 C 
ENDBRANCH  32  46
ENDBRANCH  30  32
ENDBRANCH  27  28
ENDBRANCH  26  27
ENDBRANCH  13  26
TORSDOF 13
ENDMDL
