MODEL 1
REMARK minimizedAffinity -7.2195363
REMARK CNNscore 0.749232531
REMARK CNNaffinity 7.29882479
REMARK  12 active torsions:
REMARK  status: ('A' for Active; 'I' for Inactive)
REMARK    1  A    between atoms: O1_2  and  C2_3 
REMARK    2  A    between atoms: C2_3  and  C3_4 
REMARK    3  A    between atoms: C3_4  and  C4_5 
REMARK    4  A    between atoms: C4_5  and  N1_6 
REMARK    5  A    between atoms: N1_6  and  C5_7 
REMARK    6  A    between atoms: C5_7  and  C6_8 
REMARK    7  A    between atoms: C10_12  and  O2_13 
REMARK    8  A    between atoms: C16_19  and  O3_20 
REMARK    9  A    between atoms: C20_24  and  C21_25 
REMARK   10  A    between atoms: C27_31  and  O4_32 
REMARK   11  A    between atoms: C30_35  and  C31_36 
REMARK   12  A    between atoms: C32_38  and  O6_39 
ROOT
HETATM    1  C6  UNL     1      -5.789  42.295 -19.332  1.00  0.00    -0.022 C 
HETATM    2  C7  UNL     1      -5.915  43.263 -20.274  1.00  0.00    -0.014 C 
HETATM    3  C8  UNL     1      -5.791  44.726 -19.926  1.00  0.00     0.021 C 
HETATM    4  C9  UNL     1      -5.099  45.659 -20.919  1.00  0.00     0.051 C 
HETATM    5  C10 UNL     1      -5.060  46.988 -20.125  1.00  0.00     0.098 C 
HETATM    6  C11 UNL     1      -4.701  46.529 -18.646  1.00  0.00    -0.002 C 
HETATM    7  C12 UNL     1      -5.549  47.269 -17.595  1.00  0.00     0.019 C 
HETATM    8  C13 UNL     1      -3.201  46.743 -18.327  1.00  0.00     0.013 C 
HETATM    9  C14 UNL     1      -2.703  48.125 -18.703  1.00  0.00     0.010 C 
HETATM   10  C15 UNL     1      -2.778  48.332 -20.229  1.00  0.00     0.041 C 
HETATM   11  C16 UNL     1      -4.216  48.175 -20.744  1.00  0.00     0.095 C 
HETATM   12  C17 UNL     1      -4.173  48.107 -22.277  1.00  0.00     0.049 C 
HETATM   13  C18 UNL     1      -3.126  49.010 -22.994  1.00  0.00     0.025 C 
HETATM   14  C19 UNL     1      -3.760  49.328 -24.373  1.00  0.00     0.012 C 
HETATM   15  C20 UNL     1      -2.937  50.138 -25.390  1.00  0.00    -0.011 C 
HETATM   16  C24 UNL     1      -2.949  51.616 -24.985  1.00  0.00     0.005 C 
HETATM   17  C25 UNL     1      -1.888  52.001 -23.965  1.00  0.00     0.010 C 
HETATM   18  C26 UNL     1      -1.443  50.940 -22.933  1.00  0.00     0.050 C 
HETATM   19  C27 UNL     1      -0.403  51.610 -22.014  1.00  0.00     0.125 C 
HETATM   20  C28 UNL     1       0.326  50.576 -21.164  1.00  0.00     0.033 C 
HETATM   21  C29 UNL     1      -0.551  49.380 -20.782  1.00  0.00     0.023 C 
HETATM   22  C30 UNL     1      -2.078  49.682 -20.705  1.00  0.00     0.051 C 
HETATM   23  C32 UNL     1      -2.588  50.207 -22.135  1.00  0.00     0.082 C 
HETATM   24  C33 UNL     1      -4.945  44.972 -18.664  1.00  0.00     0.036 C 
HETATM   25  C34 UNL     1      -5.517  44.097 -17.598  1.00  0.00    -0.035 C 
HETATM   26  C35 UNL     1      -6.189  44.307 -16.471  1.00  0.00     0.088 C 
HETATM   27  C36 UNL     1      -6.674  42.994 -16.036  1.00  0.00     0.284 C 
HETATM   28  O7  UNL     1      -7.326  42.800 -15.026  1.00  0.00    -0.260 OA
HETATM   29  O8  UNL     1      -6.322  42.046 -16.947  1.00  0.00    -0.304 OA
HETATM   30  C37 UNL     1      -5.436  42.632 -17.891  1.00  0.00     0.192 C 
ENDROOT
BRANCH   1  31
HETATM   31  C5  UNL     1      -6.041  40.846 -19.666  1.00  0.00     0.306 C 
BRANCH  31  32
HETATM   32  N1  UNL     1      -5.670  40.486 -21.030  1.00  0.00     0.087 N 
HETATM   33  H10 UNL     1      -4.986  39.732 -21.006  1.00  0.00     0.316 HD
BRANCH  32  34
HETATM   34  C4  UNL     1      -6.775  40.142 -21.920  1.00  0.00     0.272 C 
BRANCH  34  35
HETATM   35  C3  UNL     1      -7.313  38.718 -21.776  1.00  0.00     0.056 C 
BRANCH  35  36
HETATM   36  C2  UNL     1      -6.230  37.652 -21.898  1.00  0.00     0.168 C 
BRANCH  36  37
HETATM   37  O1  UNL     1      -5.334  38.041 -22.943  1.00  0.00    -0.396 OA
HETATM   38  C1  UNL     1      -5.723  37.492 -24.194  1.00  0.00     0.201 C 
ENDBRANCH  36  37
ENDBRANCH  35  36
ENDBRANCH  34  35
ENDBRANCH  32  34
ENDBRANCH  31  32
ENDBRANCH   1  31
BRANCH   5  39
HETATM   39  O2  UNL     1      -6.439  47.452 -20.119  1.00  0.00    -0.386 OA
HETATM   40  H17 UNL     1      -6.638  47.823 -21.001  1.00  0.00     0.210 HD
ENDBRANCH   5  39
BRANCH  11  41
HETATM   41  O3  UNL     1      -4.924  49.397 -20.461  1.00  0.00    -0.386 OA
HETATM   42  H26 UNL     1      -5.546  49.225 -19.723  1.00  0.00     0.210 HD
ENDBRANCH  11  41
BRANCH  22  43
HETATM   43  C31 UNL     1      -2.276  50.751 -19.601  1.00  0.00     0.244 C 
HETATM   44  O5  UNL     1      -3.284  51.435 -19.449  1.00  0.00    -0.306 OA
ENDBRANCH  22  43
BRANCH  23  45
HETATM   45  O6  UNL     1      -3.655  51.143 -21.980  1.00  0.00    -0.388 OA
HETATM   46  H52 UNL     1      -4.264  50.787 -21.289  1.00  0.00     0.210 HD
ENDBRANCH  23  45
BRANCH  15  47
HETATM   47  C21 UNL     1      -3.498  49.909 -26.831  1.00  0.00    -0.019 C 
HETATM   48  C22 UNL     1      -2.855  50.797 -27.902  1.00  0.00     0.010 C 
HETATM   49  C23 UNL     1      -3.406  48.436 -27.250  1.00  0.00     0.010 C 
ENDBRANCH  15  47
BRANCH  19  50
HETATM   50  O4  UNL     1      -0.981  52.583 -21.149  1.00  0.00    -0.395 OA
HETATM   51  H46 UNL     1      -1.910  52.742 -21.412  1.00  0.00     0.210 HD
ENDBRANCH  19  50
TORSDOF 12
ENDMDL
