MODEL 1
REMARK minimizedAffinity -6.78430462
REMARK CNNscore 0.630125642
REMARK CNNaffinity 6.21971369
REMARK  15 active torsions:
REMARK  status: ('A' for Active; 'I' for Inactive)
REMARK    1  A    between atoms: C14_15  and  O2_16 
REMARK    2  A    between atoms: C14_15  and  C15_17 
REMARK    3  A    between atoms: C15_17  and  C16_19 
REMARK    4  A    between atoms: C16_19  and  O4_20 
REMARK    5  A    between atoms: O4_20  and  C17_21 
REMARK    6  A    between atoms: C17_21  and  C18_23 
REMARK    7  A    between atoms: C18_23  and  C19_24 
REMARK    8  A    between atoms: C19_24  and  C20_25 
REMARK       I    between atoms: C20_25  and  N1_27 
REMARK    9  A    between atoms: N1_27  and  C21_28 
REMARK   10  A    between atoms: C21_28  and  C22_29 
REMARK   11  A    between atoms: C22_29  and  C23_30 
REMARK   12  A    between atoms: C23_30  and  C24_31 
REMARK   13  A    between atoms: C24_31  and  C25_32 
REMARK   14  A    between atoms: C25_32  and  C26_33 
REMARK   15  A    between atoms: C26_33  and  O8_35 
ROOT
HETATM    1  C1  UNL     1      -2.783  49.663 -23.886  1.00  0.00     0.020 C 
HETATM    2  C2  UNL     1      -2.937  49.744 -22.350  1.00  0.00    -0.016 C 
HETATM    3  C3  UNL     1      -2.888  51.244 -21.922  1.00  0.00     0.022 C 
HETATM    4  C4  UNL     1      -1.498  51.858 -21.979  1.00  0.00     0.084 C 
HETATM    5  C5  UNL     1      -0.529  51.042 -21.166  1.00  0.00     0.149 C 
HETATM    6  O1  UNL     1       0.436  51.543 -20.596  1.00  0.00    -0.293 OA
HETATM    7  C6  UNL     1      -0.710  49.573 -21.139  1.00  0.00     0.053 C 
HETATM    8  C7  UNL     1      -1.773  48.981 -21.713  1.00  0.00    -0.068 C 
HETATM    9  C8  UNL     1      -1.848  47.476 -21.770  1.00  0.00     0.035 C 
HETATM   10  C9  UNL     1      -3.176  46.949 -21.242  1.00  0.00     0.010 C 
HETATM   11  C10 UNL     1      -4.383  47.593 -21.945  1.00  0.00    -0.004 C 
HETATM   12  C11 UNL     1      -5.779  46.984 -21.570  1.00  0.00     0.002 C 
HETATM   13  C12 UNL     1      -5.811  46.014 -20.381  1.00  0.00     0.009 C 
HETATM   14  C13 UNL     1      -6.024  46.891 -19.158  1.00  0.00     0.047 C 
HETATM   15  C14 UNL     1      -6.850  48.097 -19.635  1.00  0.00     0.128 C 
HETATM   16  C27 UNL     1      -6.931  47.982 -21.213  1.00  0.00    -0.002 C 
HETATM   17  C28 UNL     1      -8.273  47.323 -21.642  1.00  0.00     0.019 C 
HETATM   18  C29 UNL     1      -6.862  49.336 -21.954  1.00  0.00     0.013 C 
HETATM   19  C30 UNL     1      -5.524  49.718 -22.575  1.00  0.00     0.007 C 
HETATM   20  C31 UNL     1      -4.308  49.134 -21.850  1.00  0.00     0.002 C 
ENDROOT
BRANCH  15  21
HETATM   21  O2  UNL     1      -6.096  49.257 -19.234  1.00  0.00    -0.381 OA
HETATM   22  H19 UNL     1      -6.712  50.018 -19.259  1.00  0.00     0.211 HD
ENDBRANCH  15  21
BRANCH  15  23
HETATM   23  C15 UNL     1      -8.217  48.308 -18.938  1.00  0.00     0.185 C 
HETATM   24  O3  UNL     1      -8.595  49.464 -18.694  1.00  0.00    -0.292 OA
BRANCH  23  25
HETATM   25  C16 UNL     1      -9.050  47.093 -18.532  1.00  0.00     0.260 C 
BRANCH  25  26
HETATM   26  O4  UNL     1     -10.309  47.440 -17.953  1.00  0.00    -0.314 OA
BRANCH  26  27
HETATM   27  C17 UNL     1     -11.366  47.382 -18.806  1.00  0.00     0.259 C 
HETATM   28  O5  UNL     1     -11.276  47.338 -20.026  1.00  0.00    -0.265 OA
BRANCH  27  29
HETATM   29  C18 UNL     1     -12.654  47.330 -18.030  1.00  0.00     0.120 C 
BRANCH  29  30
HETATM   30  C19 UNL     1     -13.754  48.105 -18.745  1.00  0.00     0.112 C 
BRANCH  30  31
HETATM   31  C20 UNL     1     -14.729  47.174 -19.430  1.00  0.00     0.217 C 
HETATM   32  O6  UNL     1     -14.490  46.600 -20.486  1.00  0.00    -0.274 OA
HETATM   33  N1  UNL     1     -15.919  47.045 -18.744  1.00  0.00    -0.361 N 
HETATM   34  H26 UNL     1     -16.084  47.630 -17.935  1.00  0.00     0.162 HD
BRANCH  33  35
HETATM   35  C21 UNL     1     -17.022  46.267 -19.271  1.00  0.00     0.122 C 
BRANCH  35  36
HETATM   36  C22 UNL     1     -18.132  47.171 -19.799  1.00  0.00     0.020 C 
BRANCH  36  37
HETATM   37  C23 UNL     1     -19.266  46.426 -20.510  1.00  0.00     0.002 C 
BRANCH  37  38
HETATM   38  C24 UNL     1     -18.819  45.571 -21.700  1.00  0.00     0.010 C 
BRANCH  38  39
HETATM   39  C25 UNL     1     -18.271  46.396 -22.864  1.00  0.00     0.110 C 
BRANCH  39  40
HETATM   40  C26 UNL     1     -19.176  46.326 -24.066  1.00  0.00     0.139 C 
HETATM   41  O7  UNL     1     -19.840  45.377 -24.441  1.00  0.00    -0.650 OA
BRANCH  40  42
HETATM   42  O8  UNL     1     -19.180  47.481 -24.759  1.00  0.00    -0.776 OA
HETATM   43  H37 UNL     1     -19.799  47.309 -25.499  1.00  0.00     0.167 HD
ENDBRANCH  40  42
ENDBRANCH  39  40
ENDBRANCH  38  39
ENDBRANCH  37  38
ENDBRANCH  36  37
ENDBRANCH  35  36
ENDBRANCH  33  35
ENDBRANCH  30  31
ENDBRANCH  29  30
ENDBRANCH  27  29
ENDBRANCH  26  27
ENDBRANCH  25  26
ENDBRANCH  23  25
ENDBRANCH  15  23
TORSDOF 15
ENDMDL
