MODEL 1
REMARK minimizedAffinity -8.75771236
REMARK  4 active torsions:
REMARK  status: ('A' for Active; 'I' for Inactive)
REMARK    1  A    between atoms: C4_4  and  C5_5 
REMARK    2  A    between atoms: C5_5  and  C6_6 
REMARK    3  A    between atoms: C6_6  and  C7_7 
REMARK    4  A    between atoms: C7_7  and  C9_9 
ROOT
HETATM    1  C9  UNL     1      -1.001  51.165 -21.012  1.00  0.00    -0.002 C 
HETATM    2  C10 UNL     1      -0.082  49.908 -21.097  1.00  0.00     0.007 C 
HETATM    3  C11 UNL     1      -0.974  48.668 -20.907  1.00  0.00     0.015 C 
HETATM    4  C12 UNL     1      -2.316  49.225 -20.391  1.00  0.00    -0.013 C 
HETATM    5  C13 UNL     1      -2.138  49.419 -18.851  1.00  0.00     0.021 C 
HETATM    6  C14 UNL     1      -3.565  48.370 -20.572  1.00  0.00    -0.070 C 
HETATM    7  C15 UNL     1      -3.527  47.029 -20.596  1.00  0.00    -0.022 C 
HETATM    8  C16 UNL     1      -4.720  46.135 -20.706  1.00  0.00     0.034 C 
HETATM    9  C17 UNL     1      -6.118  46.805 -20.718  1.00  0.00     0.013 C 
HETATM   10  C18 UNL     1      -6.923  46.601 -22.052  1.00  0.00     0.018 C 
HETATM   11  C19 UNL     1      -7.119  45.093 -22.336  1.00  0.00     0.023 C 
HETATM   12  C20 UNL     1      -6.272  47.253 -23.278  1.00  0.00     0.023 C 
HETATM   13  C21 UNL     1      -8.335  47.195 -21.895  1.00  0.00     0.135 C 
HETATM   14  O1  UNL     1      -9.234  46.966 -22.707  1.00  0.00    -0.297 OA
HETATM   15  C22 UNL     1      -8.603  48.065 -20.690  1.00  0.00     0.080 C 
HETATM   16  C23 UNL     1      -7.434  49.014 -20.502  1.00  0.00     0.017 C 
HETATM   17  C24 UNL     1      -6.109  48.279 -20.147  1.00  0.00    -0.031 C 
HETATM   18  C25 UNL     1      -6.027  48.175 -18.596  1.00  0.00     0.016 C 
HETATM   19  C26 UNL     1      -4.891  49.107 -20.707  1.00  0.00     0.024 C 
HETATM   20  C27 UNL     1      -4.822  50.568 -20.195  1.00  0.00     0.010 C 
HETATM   21  C28 UNL     1      -3.608  51.392 -20.683  1.00  0.00     0.011 C 
HETATM   22  C29 UNL     1      -2.427  50.554 -21.222  1.00  0.00    -0.029 C 
HETATM   23  C30 UNL     1      -2.638  50.315 -22.751  1.00  0.00     0.016 C 
ENDROOT
BRANCH   1  24
HETATM   24  C7  UNL     1      -0.499  52.322 -21.931  1.00  0.00    -0.014 C 
HETATM   25  C8  UNL     1       0.850  52.880 -21.469  1.00  0.00     0.010 C 
BRANCH  24  26
HETATM   26  C6  UNL     1      -0.396  51.825 -23.402  1.00  0.00     0.008 C 
BRANCH  26  27
HETATM   27  C5  UNL     1       0.661  52.507 -24.282  1.00  0.00     0.028 C 
BRANCH  27  28
HETATM   28  C4  UNL     1       0.392  52.368 -25.755  1.00  0.00    -0.025 C 
HETATM   29  C2  UNL     1       1.213  51.855 -26.693  1.00  0.00    -0.091 C 
HETATM   30  C1  UNL     1       0.799  51.819 -28.140  1.00  0.00     0.042 C 
HETATM   31  C3  UNL     1       2.571  51.271 -26.422  1.00  0.00     0.042 C 
ENDBRANCH  27  28
ENDBRANCH  26  27
ENDBRANCH  24  26
ENDBRANCH   1  24
TORSDOF 4
ENDMDL
