MODEL 1
REMARK minimizedAffinity -9.06375885
REMARK CNNscore 0.669426262
REMARK CNNaffinity 7.7323494
REMARK  11 active torsions:
REMARK  status: ('A' for Active; 'I' for Inactive)
REMARK    1  A    between atoms: C19_21  and  O3_22 
REMARK    2  A    between atoms: C19_21  and  C20_23 
REMARK    3  A    between atoms: C20_23  and  C21_25 
REMARK    4  A    between atoms: C21_25  and  O5_26 
REMARK    5  A    between atoms: O5_26  and  C22_27 
REMARK    6  A    between atoms: C22_27  and  C23_29 
REMARK    7  A    between atoms: C23_29  and  C24_30 
REMARK    8  A    between atoms: C24_30  and  C25_31 
REMARK       I    between atoms: C25_31  and  N1_33 
REMARK    9  A    between atoms: N1_33  and  C26_34 
REMARK   10  A    between atoms: C26_34  and  C27_35 
REMARK   11  A    between atoms: C27_35  and  C28_36 
ROOT
HETATM    1  C20 UNL     1      -5.370   5.735  14.557  1.00  0.00     0.185 C 
HETATM    2  O4  UNL     1      -4.791   6.211  15.544  1.00  0.00    -0.292 OA
ENDROOT
BRANCH   1   3
HETATM    3  C19 UNL     1      -6.897   5.455  14.646  1.00  0.00     0.128 C 
HETATM    4  C14 UNL     1      -7.841   6.540  14.036  1.00  0.00     0.005 C 
HETATM    5  C13 UNL     1      -9.114   5.903  13.421  1.00  0.00     0.091 C 
HETATM    6  C15 UNL     1      -7.130   7.350  12.930  1.00  0.00     0.019 C 
HETATM    7  C16 UNL     1      -8.237   7.447  15.245  1.00  0.00     0.002 C 
HETATM    8  C12 UNL     1     -10.097   6.964  12.967  1.00  0.00     0.133 C 
HETATM    9  C11 UNL     1     -10.342   8.145  13.909  1.00  0.00     0.072 C 
HETATM   10  O2  UNL     1     -10.603   6.892  11.849  1.00  0.00    -0.297 OA
HETATM   11  C2  UNL     1     -11.815   8.723  13.996  1.00  0.00    -0.009 C 
HETATM   12  C10 UNL     1      -9.747   7.805  15.307  1.00  0.00     0.003 C 
HETATM   13  C1  UNL     1     -11.744  10.236  13.637  1.00  0.00     0.021 C 
HETATM   14  C3  UNL     1     -12.883   8.142  13.027  1.00  0.00     0.022 C 
HETATM   15  C7  UNL     1     -12.317   8.566  15.439  1.00  0.00    -0.067 C 
HETATM   16  C4  UNL     1     -13.415   6.779  13.440  1.00  0.00     0.084 C 
HETATM   17  C5  UNL     1     -13.989   6.857  14.831  1.00  0.00     0.149 C 
HETATM   18  O1  UNL     1     -14.915   6.144  15.207  1.00  0.00    -0.293 OA
HETATM   19  C6  UNL     1     -13.326   7.756  15.803  1.00  0.00     0.053 C 
HETATM   20  C8  UNL     1     -11.492   9.263  16.493  1.00  0.00     0.035 C 
HETATM   21  C9  UNL     1     -10.001   8.964  16.298  1.00  0.00     0.010 C 
HETATM   22  C17 UNL     1      -7.819   6.677  16.518  1.00  0.00     0.009 C 
HETATM   23  C18 UNL     1      -7.408   5.285  16.071  1.00  0.00     0.047 C 
BRANCH   3  24
HETATM   24  O3  UNL     1      -7.092   4.201  13.975  1.00  0.00    -0.381 OA
HETATM   25  H25 UNL     1      -6.346   4.095  13.343  1.00  0.00     0.211 HD
ENDBRANCH   3  24
ENDBRANCH   1   3
BRANCH   1  26
HETATM   26  C21 UNL     1      -4.619   5.425  13.265  1.00  0.00     0.260 C 
BRANCH  26  27
HETATM   27  O5  UNL     1      -4.354   4.027  13.117  1.00  0.00    -0.314 OA
BRANCH  27  28
HETATM   28  C22 UNL     1      -4.656   3.514  11.896  1.00  0.00     0.259 C 
HETATM   29  O6  UNL     1      -5.749   3.064  11.578  1.00  0.00    -0.265 OA
BRANCH  28  30
HETATM   30  C23 UNL     1      -3.489   3.634  10.958  1.00  0.00     0.120 C 
BRANCH  30  31
HETATM   31  C24 UNL     1      -2.497   2.517  11.238  1.00  0.00     0.112 C 
BRANCH  31  32
HETATM   32  C25 UNL     1      -1.160   3.057  11.691  1.00  0.00     0.218 C 
HETATM   33  O7  UNL     1      -0.086   2.557  11.380  1.00  0.00    -0.274 OA
HETATM   34  N1  UNL     1      -1.277   4.166  12.501  1.00  0.00    -0.361 N 
HETATM   35  H32 UNL     1      -2.191   4.545  12.705  1.00  0.00     0.162 HD
BRANCH  34  36
HETATM   36  C26 UNL     1      -0.109   4.853  13.022  1.00  0.00     0.127 C 
BRANCH  36  37
HETATM   37  C27 UNL     1       0.151   6.190  12.323  1.00  0.00     0.060 C 
BRANCH  37  38
HETATM   38  C28 UNL     1       1.109   6.053  11.183  1.00  0.00    -0.029 A 
HETATM   39  C29 UNL     1       2.184   5.188  11.106  1.00  0.00     0.096 A 
HETATM   40  N2  UNL     1       2.803   5.380   9.900  1.00  0.00    -0.365 N 
HETATM   41  C30 UNL     1       2.160   6.359   9.183  1.00  0.00     0.042 A 
HETATM   42  H38 UNL     1       3.618   4.878   9.577  1.00  0.00     0.165 HD
HETATM   43  C31 UNL     1       2.440   6.882   7.915  1.00  0.00     0.030 A 
HETATM   44  C35 UNL     1       1.088   6.799   9.960  1.00  0.00    -0.002 A 
HETATM   45  C32 UNL     1       1.597   7.886   7.427  1.00  0.00     0.002 A 
HETATM   46  C33 UNL     1       0.519   8.345   8.180  1.00  0.00     0.001 A 
HETATM   47  C34 UNL     1       0.251   7.811   9.446  1.00  0.00     0.014 A 
ENDBRANCH  37  38
ENDBRANCH  36  37
ENDBRANCH  34  36
ENDBRANCH  31  32
ENDBRANCH  30  31
ENDBRANCH  28  30
ENDBRANCH  27  28
ENDBRANCH  26  27
ENDBRANCH   1  26
TORSDOF 11
ENDMDL
