MODEL 1
REMARK minimizedAffinity -7.83565712
REMARK CNNscore 0.829069018
REMARK CNNaffinity 7.64292145
REMARK  10 active torsions:
REMARK  status: ('A' for Active; 'I' for Inactive)
REMARK    1  A    between atoms: C2_2  and  C4_4 
REMARK    2  A    between atoms: C7_7  and  C8_8 
REMARK    3  A    between atoms: C8_8  and  O2_10 
REMARK    4  A    between atoms: C21_23  and  O3_24 
REMARK    5  A    between atoms: O3_24  and  C22_25 
REMARK    6  A    between atoms: C24_28  and  O5_29 
REMARK    7  A    between atoms: C25_30  and  O6_31 
REMARK    8  A    between atoms: C26_32  and  O7_33 
REMARK    9  A    between atoms: C27_34  and  C29_36 
REMARK   10  A    between atoms: C29_36  and  O8_37 
ROOT
HETATM    1  C4  UNL     1       3.499  56.231  -6.709  1.00  0.00     0.019 C 
HETATM    2  C5  UNL     1       4.973  56.716  -6.667  1.00  0.00     0.011 C 
HETATM    3  C6  UNL     1       5.621  56.299  -8.000  1.00  0.00     0.021 C 
HETATM    4  C7  UNL     1       4.742  55.154  -8.510  1.00  0.00     0.050 C 
HETATM    5  C9  UNL     1       4.792  54.900 -10.023  1.00  0.00     0.022 C 
HETATM    6  C10 UNL     1       3.711  53.880 -10.436  1.00  0.00     0.011 C 
HETATM    7  C11 UNL     1       2.244  54.258 -10.012  1.00  0.00    -0.032 C 
HETATM    8  C12 UNL     1       1.859  55.487 -10.894  1.00  0.00     0.016 C 
HETATM    9  C13 UNL     1       2.242  54.652  -8.476  1.00  0.00     0.000 C 
HETATM   10  C14 UNL     1       0.841  55.039  -7.987  1.00  0.00     0.006 C 
HETATM   11  C15 UNL     1      -0.162  53.905  -8.201  1.00  0.00     0.006 C 
HETATM   12  C16 UNL     1      -0.237  53.451  -9.676  1.00  0.00     0.003 C 
HETATM   13  C17 UNL     1      -1.456  52.468  -9.994  1.00  0.00    -0.035 C 
HETATM   14  C18 UNL     1      -1.376  51.166  -9.163  1.00  0.00     0.016 C 
HETATM   15  C19 UNL     1      -2.791  53.196  -9.609  1.00  0.00     0.012 C 
HETATM   16  C20 UNL     1      -3.980  52.972 -10.551  1.00  0.00     0.034 C 
HETATM   17  C21 UNL     1      -3.997  51.613 -11.245  1.00  0.00     0.135 C 
HETATM   18  C27 UNL     1      -2.704  51.395 -12.108  1.00  0.00     0.008 C 
HETATM   19  C28 UNL     1      -2.416  49.882 -12.255  1.00  0.00     0.020 C 
HETATM   20  C30 UNL     1      -1.470  52.209 -11.542  1.00  0.00     0.007 C 
HETATM   21  C31 UNL     1      -0.104  51.700 -12.055  1.00  0.00     0.007 C 
HETATM   22  C32 UNL     1       1.024  52.692 -11.748  1.00  0.00     0.011 C 
HETATM   23  C33 UNL     1       1.187  53.032 -10.239  1.00  0.00    -0.032 C 
HETATM   24  C34 UNL     1       1.724  51.746  -9.542  1.00  0.00     0.016 C 
HETATM   25  C35 UNL     1       3.335  55.699  -8.157  1.00  0.00     0.017 C 
ENDROOT
BRANCH  17  26
HETATM   26  O3  UNL     1      -4.140  50.548 -10.301  1.00  0.00    -0.352 OA
BRANCH  26  27
HETATM   27  C22 UNL     1      -4.959  49.458 -10.724  1.00  0.00     0.291 C 
HETATM   28  O4  UNL     1      -6.329  49.841 -10.849  1.00  0.00    -0.356 OA
HETATM   29  C23 UNL     1      -7.042  49.783  -9.616  1.00  0.00     0.205 C 
HETATM   30  C24 UNL     1      -7.141  48.349  -9.077  1.00  0.00     0.173 C 
HETATM   31  C25 UNL     1      -5.985  47.476  -9.585  1.00  0.00     0.182 C 
HETATM   32  C26 UNL     1      -4.721  48.313  -9.711  1.00  0.00     0.204 C 
BRANCH  30  33
HETATM   33  O5  UNL     1      -7.134  48.381  -7.643  1.00  0.00    -0.391 OA
HETATM   34  H37 UNL     1      -6.829  47.486  -7.377  1.00  0.00     0.210 HD
ENDBRANCH  30  33
BRANCH  31  35
HETATM   35  O6  UNL     1      -5.778  46.386  -8.668  1.00  0.00    -0.390 OA
HETATM   36  H39 UNL     1      -4.938  45.972  -8.968  1.00  0.00     0.210 HD
ENDBRANCH  31  35
BRANCH  32  37
HETATM   37  O7  UNL     1      -3.625  47.467 -10.120  1.00  0.00    -0.388 OA
HETATM   38  H41 UNL     1      -2.911  48.071 -10.392  1.00  0.00     0.210 HD
ENDBRANCH  32  37
ENDBRANCH  26  27
ENDBRANCH  17  26
BRANCH  18  39
HETATM   39  C29 UNL     1      -2.991  51.949 -13.546  1.00  0.00     0.176 C 
BRANCH  39  40
HETATM   40  O8  UNL     1      -3.334  50.911 -14.461  1.00  0.00    -0.400 OA
HETATM   41  H47 UNL     1      -2.510  50.616 -14.886  1.00  0.00     0.209 HD
ENDBRANCH  39  40
ENDBRANCH  18  39
BRANCH   1  42
HETATM   42  C2  UNL     1       2.561  57.318  -6.202  1.00  0.00    -0.088 C 
HETATM   43  C1  UNL     1       2.835  58.174  -5.201  1.00  0.00     0.014 C 
HETATM   44  C3  UNL     1       1.246  57.407  -6.939  1.00  0.00     0.043 C 
ENDBRANCH   1  42
BRANCH   4  45
HETATM   45  C8  UNL     1       5.175  53.889  -7.755  1.00  0.00     0.149 C 
HETATM   46  O1  UNL     1       6.304  53.449  -7.615  1.00  0.00    -0.649 OA
BRANCH  45  47
HETATM   47  O2  UNL     1       4.132  53.196  -7.246  1.00  0.00    -0.776 OA
HETATM   48  H11 UNL     1       4.557  52.422  -6.824  1.00  0.00     0.167 HD
ENDBRANCH  45  47
ENDBRANCH   4  45
TORSDOF 10
ENDMDL
