MODEL 1
REMARK minimizedAffinity -8.22111797
REMARK  12 active torsions:
REMARK  status: ('A' for Active; 'I' for Inactive)
REMARK    1  A    between atoms: C2_2  and  C3_3 
REMARK    2  A    between atoms: C3_3  and  O2_5 
REMARK    3  A    between atoms: C14_16  and  C15_17 
REMARK    4  A    between atoms: C15_17  and  C17_19 
REMARK    5  A    between atoms: C17_19  and  C18_20 
REMARK    6  A    between atoms: C18_20  and  C19_21 
REMARK    7  A    between atoms: C20_22  and  C22_24 
REMARK    8  A    between atoms: C22_24  and  O4_26 
REMARK    9  A    between atoms: C27_31  and  C28_32 
REMARK   10  A    between atoms: C28_32  and  C29_33 
REMARK   11  A    between atoms: C29_33  and  C30_34 
REMARK   12  A    between atoms: C30_34  and  O5_35 
ROOT
HETATM    1  C1  UNL     1      -5.608  48.206 -24.550  1.00  0.00     0.056 C 
HETATM    2  C2  UNL     1      -5.736  48.731 -23.150  1.00  0.00     0.014 C 
HETATM    3  C4  UNL     1      -5.022  48.292 -22.082  1.00  0.00    -0.062 C 
HETATM    4  C5  UNL     1      -4.021  47.174 -22.197  1.00  0.00     0.036 C 
HETATM    5  C6  UNL     1      -2.613  47.628 -21.824  1.00  0.00     0.010 C 
HETATM    6  C7  UNL     1      -2.514  48.624 -20.640  1.00  0.00     0.003 C 
HETATM    7  C8  UNL     1      -3.837  48.703 -19.767  1.00  0.00    -0.032 C 
HETATM    8  C9  UNL     1      -3.894  47.405 -18.908  1.00  0.00     0.016 C 
HETATM    9  C10 UNL     1      -3.792  49.882 -18.721  1.00  0.00     0.011 C 
HETATM   10  C11 UNL     1      -3.085  51.182 -19.146  1.00  0.00     0.011 C 
HETATM   11  C12 UNL     1      -1.698  50.900 -19.744  1.00  0.00    -0.032 C 
HETATM   12  C13 UNL     1      -0.812  50.223 -18.649  1.00  0.00     0.016 C 
HETATM   13  C14 UNL     1      -0.902  52.108 -20.335  1.00  0.00    -0.002 C 
HETATM   14  C23 UNL     1       0.061  51.401 -21.343  1.00  0.00     0.006 C 
HETATM   15  C24 UNL     1      -0.491  49.985 -21.604  1.00  0.00     0.011 C 
HETATM   16  C25 UNL     1      -1.921  50.018 -21.036  1.00  0.00    -0.032 C 
HETATM   17  C26 UNL     1      -2.785  50.706 -22.142  1.00  0.00     0.016 C 
HETATM   18  C27 UNL     1      -5.143  48.871 -20.666  1.00  0.00     0.024 C 
ENDROOT
BRANCH  13  19
HETATM   19  C15 UNL     1      -0.131  53.087 -19.393  1.00  0.00    -0.014 C 
HETATM   20  C16 UNL     1       1.062  53.745 -20.094  1.00  0.00     0.010 C 
BRANCH  19  21
HETATM   21  C17 UNL     1       0.351  52.327 -18.124  1.00  0.00     0.008 C 
BRANCH  21  22
HETATM   22  C18 UNL     1       1.733  52.723 -17.580  1.00  0.00     0.028 C 
BRANCH  22  23
HETATM   23  C19 UNL     1       1.979  52.223 -16.183  1.00  0.00    -0.013 C 
HETATM   24  C20 UNL     1       3.162  52.025 -15.567  1.00  0.00     0.008 C 
HETATM   25  C21 UNL     1       4.521  52.268 -16.152  1.00  0.00     0.055 C 
BRANCH  24  26
HETATM   26  C22 UNL     1       3.099  51.523 -14.169  1.00  0.00     0.171 C 
HETATM   27  O3  UNL     1       3.690  50.562 -13.710  1.00  0.00    -0.646 OA
BRANCH  26  28
HETATM   28  O4  UNL     1       2.282  52.260 -13.397  1.00  0.00    -0.773 OA
HETATM   29  H33 UNL     1       2.340  51.820 -12.524  1.00  0.00     0.167 HD
ENDBRANCH  26  28
ENDBRANCH  24  26
ENDBRANCH  22  23
ENDBRANCH  21  22
ENDBRANCH  19  21
ENDBRANCH  13  19
BRANCH  18  30
HETATM   30  C28 UNL     1      -6.486  48.487 -19.972  1.00  0.00     0.012 C 
BRANCH  30  31
HETATM   31  C29 UNL     1      -7.330  49.641 -19.410  1.00  0.00     0.027 C 
BRANCH  31  32
HETATM   32  C30 UNL     1      -8.328  49.157 -18.362  1.00  0.00     0.164 C 
BRANCH  32  33
HETATM   33  O5  UNL     1      -7.645  48.509 -17.298  1.00  0.00    -0.401 OA
HETATM   34  H48 UNL     1      -8.319  48.219 -16.662  1.00  0.00     0.209 HD
ENDBRANCH  32  33
ENDBRANCH  31  32
ENDBRANCH  30  31
ENDBRANCH  18  30
BRANCH   2  35
HETATM   35  C3  UNL     1      -6.731  49.820 -23.010  1.00  0.00     0.171 C 
HETATM   36  O1  UNL     1      -7.937  49.710 -22.904  1.00  0.00    -0.646 OA
BRANCH  35  37
HETATM   37  O2  UNL     1      -6.119  51.017 -23.005  1.00  0.00    -0.773 OA
HETATM   38  H4  UNL     1      -6.862  51.656 -22.966  1.00  0.00     0.167 HD
ENDBRANCH  35  37
ENDBRANCH   2  35
TORSDOF 12
ENDMDL
