MODEL 1
REMARK minimizedAffinity -7.25566673
REMARK CNNscore 0.701831758
REMARK CNNaffinity 6.91747808
REMARK  7 active torsions:
REMARK  status: ('A' for Active; 'I' for Inactive)
REMARK    1  A    between atoms: C2_2  and  C4_4 
REMARK    2  A    between atoms: C7_7  and  O1_9 
REMARK    3  A    between atoms: C9_10  and  C10_11 
REMARK    4  A    between atoms: C11_12  and  C12_13 
REMARK    5  A    between atoms: C14_15  and  C15_16 
REMARK    6  A    between atoms: C24_26  and  C26_28 
REMARK    7  A    between atoms: C29_32  and  O4_34 
ROOT
HETATM    1  C15 UNL     1      -0.843  52.223 -12.473  1.00  0.00     0.149 C 
HETATM    2  C16 UNL     1      -0.239  50.841 -12.195  1.00  0.00     0.054 C 
HETATM    3  C17 UNL     1       0.613  50.482 -13.450  1.00  0.00     0.050 C 
HETATM    4  C18 UNL     1      -0.203  51.289 -14.480  1.00  0.00     0.272 C 
HETATM    5  O2  UNL     1       0.343  51.472 -15.765  1.00  0.00    -0.360 OA
HETATM    6  C19 UNL     1       1.425  52.377 -15.840  1.00  0.00     0.171 C 
HETATM    7  C20 UNL     1       2.736  51.627 -15.772  1.00  0.00     0.027 C 
HETATM    8  C21 UNL     1       3.089  50.988 -14.433  1.00  0.00     0.012 C 
HETATM    9  C22 UNL     1       2.079  51.041 -13.255  1.00  0.00     0.032 C 
HETATM   10  C23 UNL     1       2.768  50.327 -12.063  1.00  0.00    -0.066 C 
HETATM   11  C24 UNL     1       3.358  50.997 -11.036  1.00  0.00    -0.021 C 
HETATM   12  C25 UNL     1       3.439  52.497 -10.903  1.00  0.00     0.052 C 
HETATM   13  C27 UNL     1       2.744  48.809 -12.210  1.00  0.00     0.038 C 
HETATM   14  C28 UNL     1       1.364  48.235 -12.530  1.00  0.00     0.042 C 
HETATM   15  C29 UNL     1       0.654  48.938 -13.708  1.00  0.00     0.067 C 
HETATM   16  C30 UNL     1      -0.716  48.263 -13.914  1.00  0.00     0.047 C 
HETATM   17  O5  UNL     1      -0.531  52.537 -13.839  1.00  0.00    -0.351 OA
ENDROOT
BRANCH   1  18
HETATM   18  C14 UNL     1      -0.276  53.302 -11.602  1.00  0.00     0.011 C 
HETATM   19  C12 UNL     1      -0.917  54.108 -10.725  1.00  0.00    -0.064 C 
HETATM   20  C13 UNL     1      -2.402  54.074 -10.471  1.00  0.00     0.048 C 
BRANCH  19  21
HETATM   21  C11 UNL     1      -0.108  55.050  -9.952  1.00  0.00     0.003 C 
HETATM   22  C10 UNL     1       1.062  54.793  -9.344  1.00  0.00    -0.018 C 
BRANCH  22  23
HETATM   23  C9  UNL     1       1.912  55.797  -8.588  1.00  0.00     0.050 C 
HETATM   24  C4  UNL     1       3.437  55.508  -8.486  1.00  0.00     0.024 C 
HETATM   25  C5  UNL     1       3.871  56.338  -7.271  1.00  0.00     0.013 C 
HETATM   26  C6  UNL     1       2.754  56.058  -6.272  1.00  0.00     0.039 C 
HETATM   27  C7  UNL     1       1.463  56.097  -7.116  1.00  0.00     0.062 C 
HETATM   28  C8  UNL     1       0.400  55.173  -6.519  1.00  0.00     0.046 C 
BRANCH  24  29
HETATM   29  C2  UNL     1       4.227  55.788  -9.755  1.00  0.00    -0.088 C 
HETATM   30  C1  UNL     1       5.515  55.409  -9.867  1.00  0.00     0.014 C 
HETATM   31  C3  UNL     1       3.540  56.508 -10.889  1.00  0.00     0.043 C 
ENDBRANCH  24  29
BRANCH  27  32
HETATM   32  O1  UNL     1       0.954  57.440  -7.061  1.00  0.00    -0.390 OA
HETATM   33  H14 UNL     1       0.131  57.465  -7.580  1.00  0.00     0.210 HD
ENDBRANCH  27  32
ENDBRANCH  22  23
ENDBRANCH  19  21
ENDBRANCH   1  18
BRANCH  15  34
HETATM   34  O4  UNL     1       1.397  48.666 -14.902  1.00  0.00    -0.389 OA
HETATM   35  H44 UNL     1       1.389  47.706 -15.063  1.00  0.00     0.210 HD
ENDBRANCH  15  34
BRANCH  11  36
HETATM   36  C26 UNL     1       4.007  50.309  -9.870  1.00  0.00     0.265 C 
HETATM   37  O3  UNL     1       5.219  50.336  -9.675  1.00  0.00    -0.302 OA
ENDBRANCH  11  36
TORSDOF 7
ENDMDL
