MODEL 1
REMARK minimizedAffinity -9.45401764
REMARK  9 active torsions:
REMARK  status: ('A' for Active; 'I' for Inactive)
REMARK    1  A    between atoms: C2_2  and  C3_3 
REMARK    2  A    between atoms: C2_2  and  C9_12 
REMARK    3  A    between atoms: C3_3  and  C4_4 
REMARK    4  A    between atoms: C4_4  and  C5_5 
REMARK    5  A    between atoms: C5_5  and  O1_6 
REMARK    6  A    between atoms: C5_5  and  C6_7 
REMARK    7  A    between atoms: C6_7  and  O2_9 
REMARK    8  A    between atoms: C6_7  and  C8_10 
REMARK    9  A    between atoms: C8_10  and  O3_11 
ROOT
HETATM    1  C9  UNL     1      -0.181  50.897 -20.913  1.00  0.00    -0.002 C 
HETATM    2  C10 UNL     1      -0.545  51.486 -19.519  1.00  0.00     0.007 C 
HETATM    3  C11 UNL     1      -1.707  50.644 -18.960  1.00  0.00     0.015 C 
HETATM    4  C12 UNL     1      -2.459  50.176 -20.219  1.00  0.00    -0.013 C 
HETATM    5  C13 UNL     1      -3.303  51.399 -20.704  1.00  0.00     0.021 C 
HETATM    6  C14 UNL     1      -3.480  49.041 -20.093  1.00  0.00    -0.070 C 
HETATM    7  C15 UNL     1      -4.263  48.923 -19.004  1.00  0.00    -0.022 C 
HETATM    8  C16 UNL     1      -5.501  48.083 -18.977  1.00  0.00     0.034 C 
HETATM    9  C17 UNL     1      -6.095  47.975 -20.399  1.00  0.00     0.013 C 
HETATM   10  C18 UNL     1      -7.566  47.424 -20.432  1.00  0.00     0.018 C 
HETATM   11  C19 UNL     1      -8.511  48.471 -19.785  1.00  0.00     0.023 C 
HETATM   12  C20 UNL     1      -7.794  46.098 -19.689  1.00  0.00     0.023 C 
HETATM   13  C21 UNL     1      -8.013  47.238 -21.892  1.00  0.00     0.135 C 
HETATM   14  O4  UNL     1      -9.163  47.485 -22.263  1.00  0.00    -0.297 OA
HETATM   15  C22 UNL     1      -7.033  46.617 -22.857  1.00  0.00     0.080 C 
HETATM   16  C23 UNL     1      -5.681  47.310 -22.792  1.00  0.00     0.017 C 
HETATM   17  C24 UNL     1      -5.053  47.325 -21.377  1.00  0.00    -0.031 C 
HETATM   18  C25 UNL     1      -4.700  45.861 -20.988  1.00  0.00     0.016 C 
HETATM   19  C26 UNL     1      -3.667  48.133 -21.320  1.00  0.00     0.024 C 
HETATM   20  C27 UNL     1      -3.211  48.823 -22.627  1.00  0.00     0.010 C 
HETATM   21  C28 UNL     1      -1.815  49.510 -22.575  1.00  0.00     0.011 C 
HETATM   22  C29 UNL     1      -1.269  49.777 -21.158  1.00  0.00    -0.029 C 
HETATM   23  C30 UNL     1      -0.527  48.467 -20.685  1.00  0.00     0.016 C 
ENDROOT
BRANCH   1  24
HETATM   24  C2  UNL     1       0.226  51.963 -21.972  1.00  0.00    -0.014 C 
HETATM   25  C1  UNL     1       1.077  53.133 -21.476  1.00  0.00     0.010 C 
BRANCH  24  26
HETATM   26  C3  UNL     1      -0.951  52.506 -22.826  1.00  0.00     0.007 C 
BRANCH  26  27
HETATM   27  C4  UNL     1      -0.749  52.342 -24.339  1.00  0.00     0.035 C 
BRANCH  27  28
HETATM   28  C5  UNL     1       0.710  52.442 -24.830  1.00  0.00     0.154 C 
BRANCH  28  29
HETATM   29  O1  UNL     1       1.089  53.832 -24.858  1.00  0.00    -0.392 OA
HETATM   30  H10 UNL     1       0.928  54.193 -23.967  1.00  0.00     0.210 HD
ENDBRANCH  28  29
BRANCH  28  31
HETATM   31  C6  UNL     1       1.026  51.836 -26.228  1.00  0.00     0.101 C 
HETATM   32  C7  UNL     1      -0.039  50.835 -26.679  1.00  0.00     0.051 C 
BRANCH  31  33
HETATM   33  O2  UNL     1       1.085  52.894 -27.200  1.00  0.00    -0.385 OA
HETATM   34  H14 UNL     1       1.555  53.624 -26.751  1.00  0.00     0.210 HD
ENDBRANCH  31  33
BRANCH  31  35
HETATM   35  C8  UNL     1       2.415  51.153 -26.215  1.00  0.00     0.204 C 
BRANCH  35  36
HETATM   36  O3  UNL     1       3.224  51.558 -27.316  1.00  0.00    -0.398 OA
HETATM   37  H17 UNL     1       3.423  50.754 -27.831  1.00  0.00     0.209 HD
ENDBRANCH  35  36
ENDBRANCH  31  35
ENDBRANCH  28  31
ENDBRANCH  27  28
ENDBRANCH  26  27
ENDBRANCH  24  26
ENDBRANCH   1  24
TORSDOF 9
ENDMDL
