MODEL 1
REMARK minimizedAffinity -9.60691357
REMARK CNNscore 0.405157983
REMARK CNNaffinity 6.58509254
REMARK  6 active torsions:
REMARK  status: ('A' for Active; 'I' for Inactive)
REMARK    1  A    between atoms: C2_2  and  C3_3 
REMARK    2  A    between atoms: C7_8  and  C8_9 
REMARK    3  A    between atoms: C21_24  and  C22_25 
REMARK    4  A    between atoms: C22_25  and  O1_26 
REMARK    5  A    between atoms: C23_27  and  C26_30 
REMARK    6  A    between atoms: C27_31  and  O2_32 
ROOT
HETATM    1  C8  UNL     1      -8.489  46.812 -24.812  1.00  0.00    -0.003 C 
HETATM    2  C9  UNL     1      -8.480  46.481 -23.506  1.00  0.00     0.102 C 
HETATM    3  N2  UNL     1      -7.502  46.911 -22.633  1.00  0.00    -0.349 N 
HETATM    4  C10 UNL     1      -7.762  47.602 -21.416  1.00  0.00     0.041 A 
HETATM    5  C11 UNL     1      -8.933  47.586 -20.674  1.00  0.00     0.030 A 
HETATM    6  C12 UNL     1      -9.007  48.367 -19.516  1.00  0.00     0.002 A 
HETATM    7  C13 UNL     1      -7.917  49.150 -19.111  1.00  0.00     0.001 A 
HETATM    8  C14 UNL     1      -6.735  49.161 -19.853  1.00  0.00     0.010 A 
HETATM    9  C15 UNL     1      -6.671  48.386 -21.001  1.00  0.00    -0.018 A 
HETATM   10  C16 UNL     1      -5.523  48.184 -21.946  1.00  0.00     0.043 C 
HETATM   11  C17 UNL     1      -4.493  47.214 -21.356  1.00  0.00     0.049 C 
HETATM   12  C18 UNL     1      -3.313  47.366 -22.301  1.00  0.00     0.274 C 
HETATM   13  N3  UNL     1      -3.367  48.754 -22.766  1.00  0.00     0.098 N 
HETATM   14  C19 UNL     1      -3.044  48.919 -24.178  1.00  0.00     0.307 C 
HETATM   15  C20 UNL     1      -4.228  48.810 -25.138  1.00  0.00    -0.049 C 
HETATM   16  C21 UNL     1      -3.999  48.292 -26.366  1.00  0.00     0.004 C 
HETATM   17  C23 UNL     1      -5.528  49.471 -24.667  1.00  0.00     0.027 C 
HETATM   18  C24 UNL     1      -5.220  50.302 -23.404  1.00  0.00     0.046 C 
HETATM   19  C25 UNL     1      -4.634  49.379 -22.331  1.00  0.00     0.239 C 
HETATM   20  C26 UNL     1      -6.689  48.537 -24.243  1.00  0.00     0.052 C 
HETATM   21  C27 UNL     1      -7.418  47.757 -25.353  1.00  0.00     0.160 C 
HETATM   22  C28 UNL     1      -6.260  47.540 -23.153  1.00  0.00     0.112 C 
ENDROOT
BRANCH   1  23
HETATM   23  C7  UNL     1      -9.473  46.243 -25.758  1.00  0.00    -0.016 A 
HETATM   24  C3  UNL     1      -9.132  45.486 -26.896  1.00  0.00    -0.032 A 
HETATM   25  C4  UNL     1     -10.168  45.055 -27.731  1.00  0.00     0.099 A 
HETATM   26  N1  UNL     1     -11.469  45.284 -27.438  1.00  0.00    -0.354 N 
HETATM   27  C5  UNL     1     -11.813  45.950 -26.302  1.00  0.00     0.062 A 
HETATM   28  C32 UNL     1     -12.518  44.888 -28.442  1.00  0.00     0.133 C 
HETATM   29  C6  UNL     1     -10.827  46.452 -25.465  1.00  0.00     0.044 A 
HETATM   30  C29 UNL     1     -13.234  46.051 -26.021  1.00  0.00     0.067 A 
HETATM   31  C30 UNL     1     -14.203  45.348 -26.704  1.00  0.00    -0.015 A 
HETATM   32  N4  UNL     1     -13.861  46.775 -25.040  1.00  0.00    -0.353 N 
HETATM   33  C31 UNL     1     -13.823  44.416 -27.792  1.00  0.00     0.062 C 
HETATM   34  C33 UNL     1     -15.468  45.683 -26.157  1.00  0.00    -0.001 A 
HETATM   35  C34 UNL     1     -16.795  45.304 -26.433  1.00  0.00     0.014 A 
HETATM   36  C38 UNL     1     -15.225  46.581 -25.115  1.00  0.00     0.043 A 
HETATM   37  C35 UNL     1     -17.832  45.842 -25.662  1.00  0.00     0.001 A 
HETATM   38  C36 UNL     1     -17.562  46.736 -24.628  1.00  0.00     0.002 A 
HETATM   39  C37 UNL     1     -16.252  47.122 -24.334  1.00  0.00     0.030 A 
HETATM   40  H39 UNL     1     -13.418  47.366 -24.346  1.00  0.00     0.166 HD
BRANCH  24  41
HETATM   41  C2  UNL     1      -7.685  45.161 -27.227  1.00  0.00     0.036 C 
HETATM   42  C1  UNL     1      -7.222  45.484 -28.645  1.00  0.00     0.010 C 
ENDBRANCH  24  41
ENDBRANCH   1  23
BRANCH  21  43
HETATM   43  O2  UNL     1      -8.046  48.682 -26.246  1.00  0.00    -0.390 OA
HETATM   44  H29 UNL     1      -8.604  49.268 -25.706  1.00  0.00     0.210 HD
ENDBRANCH  21  43
BRANCH  16  45
HETATM   45  C22 UNL     1      -4.887  48.260 -27.565  1.00  0.00     0.191 C 
BRANCH  45  46
HETATM   46  O1  UNL     1      -4.341  49.134 -28.549  1.00  0.00    -0.397 OA
HETATM   47  H22 UNL     1      -4.567  50.034 -28.257  1.00  0.00     0.209 HD
ENDBRANCH  45  46
ENDBRANCH  16  45
TORSDOF 6
ENDMDL
