MODEL 1
REMARK minimizedAffinity -7.43504953
REMARK CNNscore 0.875217676
REMARK CNNaffinity 7.2326417
REMARK  8 active torsions:
REMARK  status: ('A' for Active; 'I' for Inactive)
REMARK    1  A    between atoms: C2_2  and  C30_33 
REMARK    2  A    between atoms: C3_3  and  C4_4 
REMARK    3  A    between atoms: C4_4  and  C5_5 
REMARK    4  A    between atoms: C5_5  and  C6_6 
REMARK    5  A    between atoms: C6_6  and  C8_8 
REMARK    6  A    between atoms: C21_22  and  O2_23 
REMARK    7  A    between atoms: C23_25  and  O3_26 
REMARK    8  A    between atoms: C30_33  and  O4_34 
ROOT
HETATM    1  C8  UNL     1       4.941  55.664  -8.975  1.00  0.00    -0.001 C 
HETATM    2  C9  UNL     1       4.094  56.754  -8.262  1.00  0.00     0.007 C 
HETATM    3  C10 UNL     1       2.622  56.502  -8.646  1.00  0.00     0.015 C 
HETATM    4  C11 UNL     1       2.686  55.509  -9.822  1.00  0.00    -0.012 C 
HETATM    5  C12 UNL     1       2.936  56.339 -11.122  1.00  0.00     0.021 C 
HETATM    6  C13 UNL     1       1.472  54.647 -10.136  1.00  0.00    -0.060 C 
HETATM    7  C14 UNL     1       1.613  53.460 -10.777  1.00  0.00     0.002 C 
HETATM    8  C15 UNL     1       3.017  52.993 -11.139  1.00  0.00     0.157 C 
HETATM    9  O1  UNL     1       3.179  52.068 -11.944  1.00  0.00    -0.293 OA
HETATM   10  C16 UNL     1       4.243  53.675 -10.534  1.00  0.00     0.094 C 
HETATM   11  C17 UNL     1       3.882  54.592  -9.367  1.00  0.00    -0.022 C 
HETATM   12  C18 UNL     1       3.528  53.694  -8.144  1.00  0.00     0.017 C 
HETATM   13  C19 UNL     1       0.413  52.588 -11.231  1.00  0.00     0.017 C 
HETATM   14  C20 UNL     1       0.248  52.905 -12.744  1.00  0.00     0.023 C 
HETATM   15  C21 UNL     1       0.703  51.060 -10.972  1.00  0.00     0.134 C 
HETATM   16  C22 UNL     1      -0.469  50.253 -10.399  1.00  0.00     0.065 C 
HETATM   17  C23 UNL     1      -1.810  50.648 -11.013  1.00  0.00     0.128 C 
HETATM   18  C24 UNL     1      -2.163  52.146 -10.737  1.00  0.00    -0.017 C 
HETATM   19  C25 UNL     1      -3.075  52.171  -9.477  1.00  0.00     0.018 C 
HETATM   20  C26 UNL     1      -3.005  52.751 -11.881  1.00  0.00     0.018 C 
HETATM   21  C27 UNL     1      -0.863  52.982 -10.400  1.00  0.00     0.011 C 
HETATM   22  C28 UNL     1      -1.076  54.509 -10.389  1.00  0.00     0.011 C 
HETATM   23  C29 UNL     1       0.125  55.226  -9.773  1.00  0.00     0.036 C 
ENDROOT
BRANCH   1  24
HETATM   24  C6  UNL     1       6.276  55.335  -8.245  1.00  0.00    -0.014 C 
HETATM   25  C7  UNL     1       6.920  54.064  -8.812  1.00  0.00     0.010 C 
BRANCH  24  26
HETATM   26  C5  UNL     1       6.247  55.288  -6.702  1.00  0.00     0.008 C 
BRANCH  26  27
HETATM   27  C4  UNL     1       7.654  55.308  -6.085  1.00  0.00     0.028 C 
BRANCH  27  28
HETATM   28  C3  UNL     1       8.009  56.689  -5.609  1.00  0.00    -0.022 C 
HETATM   29  C2  UNL     1       9.222  57.146  -5.236  1.00  0.00    -0.064 C 
HETATM   30  C1  UNL     1      10.494  56.342  -5.272  1.00  0.00     0.045 C 
BRANCH  29  31
HETATM   31  C30 UNL     1       9.394  58.566  -4.763  1.00  0.00     0.197 C 
BRANCH  31  32
HETATM   32  O4  UNL     1      10.619  59.076  -5.271  1.00  0.00    -0.397 OA
HETATM   33  H48 UNL     1      10.777  59.918  -4.818  1.00  0.00     0.209 HD
ENDBRANCH  31  32
ENDBRANCH  29  31
ENDBRANCH  27  28
ENDBRANCH  26  27
ENDBRANCH  24  26
ENDBRANCH   1  24
BRANCH  15  34
HETATM   34  O2  UNL     1       1.095  50.408 -12.188  1.00  0.00    -0.394 OA
HETATM   35  H30 UNL     1       2.043  50.645 -12.325  1.00  0.00     0.210 HD
ENDBRANCH  15  34
BRANCH  17  36
HETATM   36  O3  UNL     1      -1.820  50.324 -12.402  1.00  0.00    -0.395 OA
HETATM   37  H34 UNL     1      -0.898  50.263 -12.713  1.00  0.00     0.210 HD
ENDBRANCH  17  36
TORSDOF 8
ENDMDL
