MODEL 1
REMARK minimizedAffinity -8.25205421
REMARK CNNscore 0.483842462
REMARK CNNaffinity 6.93193579
REMARK  9 active torsions:
REMARK  status: ('A' for Active; 'I' for Inactive)
REMARK    1  A    between atoms: C11_11  and  C13_13 
REMARK    2  A    between atoms: C13_13  and  O2_15 
REMARK    3  A    between atoms: C15_17  and  C16_18 
REMARK    4  A    between atoms: C16_18  and  C17_19 
REMARK    5  A    between atoms: C17_19  and  C18_20 
REMARK    6  A    between atoms: C19_21  and  C20_22 
REMARK    7  A    between atoms: C20_22  and  O3_23 
REMARK    8  A    between atoms: O3_23  and  C21_24 
REMARK    9  A    between atoms: C21_24  and  C22_26 
ROOT
HETATM    1  C16 UNL     1      -2.464  51.271 -25.023  1.00  0.00     0.014 C 
ENDROOT
BRANCH   1   2
HETATM    2  C15 UNL     1      -3.700  50.384 -24.695  1.00  0.00     0.022 C 
HETATM    3  C2  UNL     1      -3.833  49.111 -25.534  1.00  0.00    -0.084 C 
HETATM    4  C1  UNL     1      -2.891  48.575 -26.329  1.00  0.00     0.014 C 
HETATM    5  C3  UNL     1      -5.160  48.419 -25.365  1.00  0.00     0.034 C 
HETATM    6  C4  UNL     1      -5.388  48.054 -23.899  1.00  0.00     0.011 C 
HETATM    7  C5  UNL     1      -5.250  49.284 -22.971  1.00  0.00     0.012 C 
HETATM    8  C6  UNL     1      -3.856  50.014 -23.153  1.00  0.00    -0.032 C 
HETATM    9  C11 UNL     1      -5.697  49.046 -21.482  1.00  0.00     0.049 C 
HETATM   10  C7  UNL     1      -2.660  49.141 -22.702  1.00  0.00     0.016 C 
HETATM   11  C8  UNL     1      -3.871  51.313 -22.299  1.00  0.00     0.010 C 
HETATM   12  C9  UNL     1      -4.287  51.103 -20.847  1.00  0.00     0.002 C 
HETATM   13  C10 UNL     1      -5.634  50.403 -20.735  1.00  0.00     0.020 C 
HETATM   14  C12 UNL     1      -7.172  48.577 -21.419  1.00  0.00     0.026 C 
BRANCH   9  15
HETATM   15  C13 UNL     1      -4.908  47.924 -20.777  1.00  0.00     0.267 C 
HETATM   16  O1  UNL     1      -4.849  46.768 -21.177  1.00  0.00    -0.264 OA
BRANCH  15  17
HETATM   17  O2  UNL     1      -4.331  48.347 -19.619  1.00  0.00    -0.326 OA
HETATM   18  C14 UNL     1      -4.225  47.341 -18.610  1.00  0.00     0.213 C 
ENDBRANCH  15  17
ENDBRANCH   9  15
ENDBRANCH   1   2
BRANCH   1  19
HETATM   19  C17 UNL     1      -1.144  50.806 -24.380  1.00  0.00     0.042 C 
BRANCH  19  20
HETATM   20  C18 UNL     1      -0.349  51.921 -23.780  1.00  0.00    -0.024 A 
HETATM   21  C19 UNL     1       0.011  52.085 -22.451  1.00  0.00     0.083 A 
HETATM   22  O5  UNL     1       0.752  53.222 -22.300  1.00  0.00    -0.324 OA
HETATM   23  C28 UNL     1       0.857  53.797 -23.523  1.00  0.00     0.143 A 
HETATM   24  C29 UNL     1       0.201  53.043 -24.464  1.00  0.00     0.034 A 
BRANCH  21  25
HETATM   25  C20 UNL     1      -0.237  51.296 -21.217  1.00  0.00     0.244 C 
BRANCH  25  26
HETATM   26  O3  UNL     1       0.397  51.979 -20.127  1.00  0.00    -0.311 OA
BRANCH  26  27
HETATM   27  C21 UNL     1      -0.321  52.054 -18.984  1.00  0.00     0.293 C 
HETATM   28  O4  UNL     1      -1.532  52.182 -18.893  1.00  0.00    -0.259 OA
BRANCH  27  29
HETATM   29  C22 UNL     1       0.579  51.937 -17.803  1.00  0.00     0.039 A 
HETATM   30  C23 UNL     1       0.284  50.961 -16.839  1.00  0.00     0.019 A 
HETATM   31  C24 UNL     1       1.100  50.813 -15.714  1.00  0.00     0.025 A 
HETATM   32  C25 UNL     1       2.209  51.640 -15.547  1.00  0.00     0.034 A 
HETATM   33 CL1  UNL     1       3.213  51.458 -14.162  1.00  0.00    -0.084 Cl
HETATM   34  C26 UNL     1       2.510  52.617 -16.496  1.00  0.00     0.025 A 
HETATM   35  C27 UNL     1       1.695  52.767 -17.623  1.00  0.00     0.019 A 
ENDBRANCH  27  29
ENDBRANCH  26  27
ENDBRANCH  25  26
ENDBRANCH  21  25
ENDBRANCH  19  20
ENDBRANCH   1  19
TORSDOF 9
ENDMDL
