MODEL 1
REMARK minimizedAffinity -9.18966961
REMARK  6 active torsions:
REMARK  status: ('A' for Active; 'I' for Inactive)
REMARK    1  A    between atoms: C2_2  and  C30_31 
REMARK    2  A    between atoms: C3_3  and  C4_4 
REMARK    3  A    between atoms: C4_4  and  C5_5 
REMARK    4  A    between atoms: C5_5  and  C6_6 
REMARK    5  A    between atoms: C6_6  and  C8_8 
REMARK    6  A    between atoms: C30_31  and  O3_33 
ROOT
HETATM    1  C8  UNL     1      -2.485   5.407  12.499  1.00  0.00    -0.002 C 
HETATM    2  C9  UNL     1      -1.015   4.980  12.760  1.00  0.00     0.007 C 
HETATM    3  C10 UNL     1      -0.339   6.136  13.540  1.00  0.00     0.015 C 
HETATM    4  C11 UNL     1      -1.331   7.317  13.436  1.00  0.00    -0.013 C 
HETATM    5  C12 UNL     1      -1.035   7.993  12.061  1.00  0.00     0.021 C 
HETATM    6  C13 UNL     1      -1.355   8.418  14.492  1.00  0.00    -0.070 C 
HETATM    7  C14 UNL     1      -0.521   8.456  15.548  1.00  0.00    -0.022 C 
HETATM    8  C15 UNL     1      -0.661   9.409  16.699  1.00  0.00     0.034 C 
HETATM    9  C16 UNL     1      -2.050  10.085  16.745  1.00  0.00     0.013 C 
HETATM   10  C17 UNL     1      -2.282  11.079  17.950  1.00  0.00     0.018 C 
HETATM   11  C18 UNL     1      -3.430  10.547  18.839  1.00  0.00     0.023 C 
HETATM   12  C19 UNL     1      -1.044  11.238  18.859  1.00  0.00     0.023 C 
HETATM   13  C20 UNL     1      -2.721  12.481  17.493  1.00  0.00     0.135 C 
HETATM   14  O1  UNL     1      -2.354  13.503  18.082  1.00  0.00    -0.297 OA
HETATM   15  C21 UNL     1      -3.705  12.610  16.352  1.00  0.00     0.080 C 
HETATM   16  C22 UNL     1      -3.761  11.388  15.449  1.00  0.00     0.017 C 
HETATM   17  C23 UNL     1      -2.415  10.645  15.334  1.00  0.00    -0.031 C 
HETATM   18  C24 UNL     1      -1.331  11.635  14.811  1.00  0.00     0.016 C 
HETATM   19  C25 UNL     1      -2.489   9.446  14.302  1.00  0.00     0.024 C 
HETATM   20  C26 UNL     1      -3.860   8.723  14.209  1.00  0.00     0.010 C 
HETATM   21  C27 UNL     1      -3.867   7.507  13.255  1.00  0.00     0.011 C 
HETATM   22  C28 UNL     1      -2.699   6.544  13.544  1.00  0.00    -0.029 C 
HETATM   23  C29 UNL     1      -2.942   5.927  14.960  1.00  0.00     0.016 C 
ENDROOT
BRANCH   1  24
HETATM   24  C6  UNL     1      -3.564   4.286  12.437  1.00  0.00    -0.014 C 
HETATM   25  C7  UNL     1      -3.819   3.670  11.058  1.00  0.00     0.010 C 
BRANCH  24  26
HETATM   26  C5  UNL     1      -4.902   4.738  13.077  1.00  0.00     0.008 C 
BRANCH  26  27
HETATM   27  C4  UNL     1      -6.113   3.840  12.783  1.00  0.00     0.028 C 
BRANCH  27  28
HETATM   28  C3  UNL     1      -7.376   4.654  12.654  1.00  0.00    -0.013 C 
HETATM   29  C2  UNL     1      -8.034   5.305  13.634  1.00  0.00     0.008 C 
HETATM   30  C1  UNL     1      -9.303   6.060  13.357  1.00  0.00     0.055 C 
BRANCH  29  31
HETATM   31  C30 UNL     1      -7.506   5.373  15.018  1.00  0.00     0.171 C 
HETATM   32  O2  UNL     1      -6.767   6.219  15.486  1.00  0.00    -0.646 OA
BRANCH  31  33
HETATM   33  O3  UNL     1      -7.959   4.360  15.777  1.00  0.00    -0.773 OA
HETATM   34  H46 UNL     1      -7.558   4.532  16.652  1.00  0.00     0.167 HD
ENDBRANCH  31  33
ENDBRANCH  29  31
ENDBRANCH  27  28
ENDBRANCH  26  27
ENDBRANCH  24  26
ENDBRANCH   1  24
TORSDOF 6
ENDMDL
