MODEL 1
REMARK minimizedAffinity -7.15762663
REMARK CNNscore 0.298331797
REMARK CNNaffinity 6.23198462
REMARK  8 active torsions:
REMARK  status: ('A' for Active; 'I' for Inactive)
REMARK    1  A    between atoms: C10_11  and  C11_12 
REMARK    2  A    between atoms: C29_32  and  C30_33 
REMARK    3  A    between atoms: C29_32  and  C31_35 
REMARK    4  A    between atoms: C30_33  and  O1_34 
REMARK    5  A    between atoms: C31_35  and  O3_37 
REMARK    6  A    between atoms: C41_48  and  C42_49 
REMARK    7  A    between atoms: C42_49  and  O5_51 
REMARK    8  A    between atoms: C44_53  and  O6_54 
ROOT
HETATM    1  C1  UNL     1      -6.202  47.783 -25.541  1.00  0.00     0.036 C 
HETATM    2  C2  UNL     1      -6.861  47.770 -26.880  1.00  0.00    -0.026 C 
HETATM    3  C3  UNL     1      -7.590  46.789 -27.448  1.00  0.00    -0.050 C 
HETATM    4  C4  UNL     1      -8.065  46.990 -28.883  1.00  0.00     0.310 C 
HETATM    5  N1  UNL     1      -9.448  46.647 -29.171  1.00  0.00     0.125 N 
HETATM    6  C5  UNL     1     -10.366  47.654 -28.621  1.00  0.00     0.277 C 
HETATM    7  C6  UNL     1     -10.590  47.245 -27.179  1.00  0.00     0.051 C 
HETATM    8  C7  UNL     1     -10.454  45.708 -27.210  1.00  0.00     0.070 C 
HETATM    9  C8  UNL     1     -11.859  45.126 -27.215  1.00  0.00    -0.016 A 
HETATM   10  C9  UNL     1     -12.774  45.046 -26.168  1.00  0.00     0.018 A 
HETATM   11  C10 UNL     1     -14.038  44.486 -26.390  1.00  0.00    -0.048 A 
HETATM   12  C33 UNL     1     -14.378  44.073 -27.694  1.00  0.00     0.010 A 
HETATM   13  C34 UNL     1     -13.461  44.185 -28.744  1.00  0.00     0.030 A 
HETATM   14  C35 UNL     1     -12.199  44.697 -28.498  1.00  0.00     0.039 A 
HETATM   15  N4  UNL     1     -11.147  44.797 -29.386  1.00  0.00    -0.347 N 
HETATM   16  C36 UNL     1     -11.333  45.004 -30.803  1.00  0.00     0.152 C 
HETATM   17  C37 UNL     1      -9.961  45.344 -28.685  1.00  0.00     0.274 C 
HETATM   18  C38 UNL     1      -8.954  44.082 -28.546  1.00  0.00     0.186 C 
HETATM   19  C39 UNL     1      -7.593  44.392 -27.934  1.00  0.00     0.047 C 
HETATM   20  C40 UNL     1      -7.883  45.415 -26.816  1.00  0.00     0.043 C 
HETATM   21  C41 UNL     1      -9.360  45.133 -26.250  1.00  0.00     0.121 C 
HETATM   22  C44 UNL     1      -9.557  43.593 -26.266  1.00  0.00     0.277 C 
HETATM   23  O7  UNL     1      -9.523  43.104 -27.620  1.00  0.00    -0.350 OA
ENDROOT
BRANCH  11  24
HETATM   24  C11 UNL     1     -14.989  44.227 -25.207  1.00  0.00     0.070 C 
HETATM   25  C12 UNL     1     -16.425  44.283 -25.771  1.00  0.00     0.026 C 
HETATM   26  C13 UNL     1     -17.559  43.439 -25.116  1.00  0.00     0.039 C 
HETATM   27  C14 UNL     1     -17.049  42.224 -24.360  1.00  0.00    -0.051 C 
HETATM   28  C29 UNL     1     -18.564  44.257 -24.267  1.00  0.00     0.107 C 
HETATM   29  C15 UNL     1     -16.695  41.067 -24.961  1.00  0.00    -0.026 C 
HETATM   30  C17 UNL     1     -16.988  42.318 -22.849  1.00  0.00     0.306 C 
HETATM   31  C16 UNL     1     -16.702  40.756 -26.427  1.00  0.00     0.036 C 
HETATM   32  N2  UNL     1     -16.992  43.666 -22.309  1.00  0.00     0.094 N 
HETATM   33  C18 UNL     1     -17.109  43.668 -20.853  1.00  0.00     0.310 C 
HETATM   34  C19 UNL     1     -17.843  44.691 -22.951  1.00  0.00     0.248 C 
HETATM   35  C20 UNL     1     -17.001  46.007 -23.101  1.00  0.00     0.079 C 
HETATM   36  C21 UNL     1     -15.497  45.898 -23.174  1.00  0.00    -0.020 A 
HETATM   37  C22 UNL     1     -14.707  45.163 -24.053  1.00  0.00     0.025 A 
HETATM   38  C28 UNL     1     -14.595  46.598 -22.285  1.00  0.00    -0.001 A 
HETATM   39  N3  UNL     1     -13.395  45.346 -23.663  1.00  0.00    -0.358 N 
HETATM   40  C23 UNL     1     -13.296  46.236 -22.622  1.00  0.00     0.043 A 
HETATM   41  H28 UNL     1     -12.605  44.897 -24.113  1.00  0.00     0.166 HD
HETATM   42  C24 UNL     1     -12.165  46.726 -21.954  1.00  0.00     0.030 A 
HETATM   43  C25 UNL     1     -12.366  47.616 -20.899  1.00  0.00     0.002 A 
HETATM   44  C26 UNL     1     -13.654  47.999 -20.531  1.00  0.00     0.001 A 
HETATM   45  C27 UNL     1     -14.773  47.502 -21.213  1.00  0.00     0.014 A 
BRANCH  28  46
HETATM   46  C30 UNL     1     -19.900  43.465 -24.003  1.00  0.00     0.186 C 
BRANCH  46  47
HETATM   47  O1  UNL     1     -20.891  44.119 -23.239  1.00  0.00    -0.399 OA
HETATM   48  H35 UNL     1     -21.584  43.468 -23.028  1.00  0.00     0.209 HD
ENDBRANCH  46  47
ENDBRANCH  28  46
BRANCH  28  49
HETATM   49  C31 UNL     1     -19.151  45.460 -25.018  1.00  0.00     0.272 C 
HETATM   50  O2  UNL     1     -19.779  46.353 -24.466  1.00  0.00    -0.264 OA
BRANCH  49  51
HETATM   51  O3  UNL     1     -18.998  45.373 -26.366  1.00  0.00    -0.326 OA
HETATM   52  C32 UNL     1     -19.954  44.552 -27.035  1.00  0.00     0.213 C 
ENDBRANCH  49  51
ENDBRANCH  28  49
ENDBRANCH  11  24
BRANCH  21  53
HETATM   53  C42 UNL     1      -9.567  45.590 -24.817  1.00  0.00     0.274 C 
HETATM   54  O4  UNL     1      -9.244  46.694 -24.393  1.00  0.00    -0.264 OA
BRANCH  53  55
HETATM   55  O5  UNL     1     -10.092  44.626 -24.016  1.00  0.00    -0.326 OA
HETATM   56  C43 UNL     1      -9.438  44.495 -22.753  1.00  0.00     0.213 C 
ENDBRANCH  53  55
ENDBRANCH  21  53
BRANCH  22  57
HETATM   57  O6  UNL     1      -8.533  42.936 -25.533  1.00  0.00    -0.370 OA
HETATM   58  H52 UNL     1      -8.837  42.015 -25.458  1.00  0.00     0.212 HD
ENDBRANCH  22  57
TORSDOF 8
ENDMDL
