MODEL 1
REMARK minimizedAffinity -11.0075741
REMARK CNNscore 0.724656343
REMARK CNNaffinity 8.05384827
REMARK  12 active torsions:
REMARK  status: ('A' for Active; 'I' for Inactive)
REMARK    1  A    between atoms: O1_2  and  C2_3 
REMARK    2  A    between atoms: C4_5  and  C5_6 
REMARK    3  A    between atoms: C8_10  and  O3_11 
REMARK    4  A    between atoms: O3_11  and  C9_12 
REMARK    5  A    between atoms: C9_12  and  C10_13 
REMARK    6  A    between atoms: C10_13  and  O4_14 
REMARK    7  A    between atoms: C15_19  and  O5_20 
REMARK    8  A    between atoms: C19_24  and  C20_25 
REMARK    9  A    between atoms: C20_25  and  C21_26 
REMARK   10  A    between atoms: C21_26  and  N1_27 
REMARK   11  A    between atoms: C32_39  and  O6_40 
REMARK   12  A    between atoms: C35_43  and  O7_44 
ROOT
HETATM    1  C5  UNL     1      -4.370  48.364 -26.654  1.00  0.00     0.191 C 
HETATM    2  O2  UNL     1      -3.843  49.668 -26.910  1.00  0.00    -0.338 OA
HETATM    3  C6  UNL     1      -3.056  50.200 -25.918  1.00  0.00     0.079 A 
HETATM    4  C7  UNL     1      -2.411  51.369 -26.309  1.00  0.00     0.075 A 
HETATM    5  C8  UNL     1      -1.606  52.065 -25.418  1.00  0.00     0.083 A 
HETATM    6  C11 UNL     1      -1.339  51.524 -24.133  1.00  0.00     0.015 A 
HETATM    7  C12 UNL     1      -0.472  52.236 -23.137  1.00  0.00    -0.016 A 
HETATM    8  C13 UNL     1       0.612  53.065 -23.475  1.00  0.00     0.015 A 
HETATM    9  C14 UNL     1       1.339  53.762 -22.503  1.00  0.00     0.037 A 
HETATM   10  C15 UNL     1       1.001  53.621 -21.166  1.00  0.00     0.066 A 
HETATM   11  C16 UNL     1      -0.023  52.769 -20.785  1.00  0.00     0.044 A 
HETATM   12  C17 UNL     1      -0.734  52.057 -21.761  1.00  0.00    -0.044 A 
HETATM   13  C18 UNL     1      -1.755  51.020 -21.362  1.00  0.00     0.049 C 
HETATM   14  C19 UNL     1      -1.584  49.807 -22.302  1.00  0.00     0.027 C 
HETATM   15  C29 UNL     1      -2.004  50.299 -23.724  1.00  0.00    -0.031 A 
HETATM   16  C30 UNL     1      -2.930  49.681 -24.613  1.00  0.00    -0.015 A 
HETATM   17  C31 UNL     1      -3.822  48.516 -24.253  1.00  0.00     0.076 C 
HETATM   18  C32 UNL     1      -4.979  48.307 -25.241  1.00  0.00     0.156 C 
ENDROOT
BRANCH  14  19
HETATM   19  C20 UNL     1      -2.150  48.478 -21.731  1.00  0.00     0.041 C 
BRANCH  19  20
HETATM   20  C21 UNL     1      -3.314  48.460 -20.672  1.00  0.00     0.038 C 
HETATM   21  C25 UNL     1      -2.831  48.891 -19.263  1.00  0.00     0.031 C 
HETATM   22  C26 UNL     1      -3.326  50.315 -19.080  1.00  0.00     0.002 C 
HETATM   23  C27 UNL     1      -4.657  50.338 -19.810  1.00  0.00     0.002 C 
HETATM   24  C28 UNL     1      -4.464  49.439 -21.026  1.00  0.00     0.031 C 
BRANCH  20  25
HETATM   25  N1  UNL     1      -3.922  47.065 -20.593  1.00  0.00    -0.342 N 
HETATM   26  C22 UNL     1      -4.867  46.553 -21.403  1.00  0.00     0.183 A 
HETATM   27  N2  UNL     1      -5.110  45.299 -21.007  1.00  0.00    -0.361 N 
HETATM   28  C23 UNL     1      -4.371  44.991 -19.894  1.00  0.00     0.106 A 
HETATM   29  H22 UNL     1      -5.764  44.670 -21.470  1.00  0.00     0.166 HD
HETATM   30  C24 UNL     1      -3.636  46.106 -19.607  1.00  0.00     0.109 A 
ENDBRANCH  20  25
ENDBRANCH  19  20
ENDBRANCH  14  19
BRANCH   5  31
HETATM   31  O3  UNL     1      -1.054  53.279 -25.736  1.00  0.00    -0.348 OA
BRANCH  31  32
HETATM   32  C9  UNL     1      -0.052  53.316 -26.765  1.00  0.00     0.201 C 
BRANCH  32  33
HETATM   33  C10 UNL     1      -0.497  54.316 -27.830  1.00  0.00     0.190 C 
BRANCH  33  34
HETATM   34  O4  UNL     1      -1.863  54.086 -28.175  1.00  0.00    -0.399 OA
HETATM   35  H11 UNL     1      -2.157  54.846 -28.707  1.00  0.00     0.209 HD
ENDBRANCH  33  34
ENDBRANCH  32  33
ENDBRANCH  31  32
ENDBRANCH   5  31
BRANCH  10  36
HETATM   36  O5  UNL     1       1.678  54.281 -20.184  1.00  0.00    -0.361 OA
HETATM   37  H14 UNL     1       2.274  54.928 -20.598  1.00  0.00     0.217 HD
ENDBRANCH  10  36
BRANCH  18  38
HETATM   38  O6  UNL     1      -6.001  49.290 -25.037  1.00  0.00    -0.392 OA
HETATM   39  H36 UNL     1      -5.913  49.702 -24.160  1.00  0.00     0.210 HD
ENDBRANCH  18  38
BRANCH   1  40
HETATM   40  C4  UNL     1      -5.260  47.974 -27.822  1.00  0.00    -0.024 A 
HETATM   41  C3  UNL     1      -6.506  47.374 -27.543  1.00  0.00     0.049 A 
HETATM   42  C2  UNL     1      -7.376  46.996 -28.570  1.00  0.00     0.101 A 
HETATM   43  C35 UNL     1      -7.009  47.230 -29.896  1.00  0.00     0.099 A 
HETATM   44  C34 UNL     1      -5.774  47.801 -30.197  1.00  0.00     0.040 A 
HETATM   45  C33 UNL     1      -4.905  48.165 -29.165  1.00  0.00     0.013 A 
BRANCH  42  46
HETATM   46  O1  UNL     1      -8.613  46.454 -28.338  1.00  0.00    -0.353 OA
HETATM   47  C1  UNL     1      -9.573  47.364 -27.815  1.00  0.00     0.210 C 
ENDBRANCH  42  46
BRANCH  43  48
HETATM   48  O7  UNL     1      -7.864  46.877 -30.905  1.00  0.00    -0.358 OA
HETATM   49  H39 UNL     1      -7.436  47.033 -31.759  1.00  0.00     0.217 HD
ENDBRANCH  43  48
ENDBRANCH   1  40
TORSDOF 12
ENDMDL
