MODEL 1
REMARK minimizedAffinity -8.36563015
REMARK CNNscore 0.530300915
REMARK CNNaffinity 6.43195486
REMARK  12 active torsions:
REMARK  status: ('A' for Active; 'I' for Inactive)
REMARK    1  A    between atoms: O1_2  and  C2_3 
REMARK    2  A    between atoms: C3_5  and  C4_6 
REMARK    3  A    between atoms: C4_6  and  O3_7 
REMARK    4  A    between atoms: C4_6  and  C5_8 
REMARK    5  A    between atoms: C5_8  and  O4_10 
REMARK    6  A    between atoms: C5_8  and  C7_11 
REMARK    7  A    between atoms: C7_11  and  O5_12 
REMARK    8  A    between atoms: C9_14  and  C10_15 
REMARK    9  A    between atoms: C23_28  and  O6_29 
REMARK   10  A    between atoms: O6_29  and  C24_30 
REMARK   11  A    between atoms: C24_30  and  C25_32 
REMARK   12  A    between atoms: C34_41  and  O8_42 
ROOT
HETATM    1  C10 UNL     1       6.279  13.070  21.714  1.00  0.00     0.004 C 
HETATM    2  C11 UNL     1       5.717  12.211  22.871  1.00  0.00     0.007 C 
HETATM    3  C12 UNL     1       4.839  11.127  22.245  1.00  0.00     0.011 C 
HETATM    4  C13 UNL     1       4.410  11.720  20.913  1.00  0.00    -0.021 A 
HETATM    5  C14 UNL     1       5.357  11.405  19.782  1.00  0.00     0.022 A 
HETATM    6  C15 UNL     1       5.431  12.758  20.484  1.00  0.00    -0.027 A 
HETATM    7  C16 UNL     1       5.060  13.933  19.598  1.00  0.00     0.011 C 
HETATM    8  C17 UNL     1       3.555  14.213  19.510  1.00  0.00     0.007 C 
HETATM    9  C18 UNL     1       2.721  12.918  19.387  1.00  0.00     0.005 C 
HETATM   10  C19 UNL     1       1.228  13.125  18.870  1.00  0.00    -0.035 C 
HETATM   11  C20 UNL     1       0.442  14.127  19.745  1.00  0.00     0.016 C 
HETATM   12  C21 UNL     1       1.267  13.705  17.421  1.00  0.00     0.012 C 
HETATM   13  C22 UNL     1      -0.083  13.682  16.699  1.00  0.00     0.034 C 
HETATM   14  C23 UNL     1      -0.710  12.289  16.664  1.00  0.00     0.140 C 
HETATM   15  C29 UNL     1      -0.838  11.630  18.074  1.00  0.00    -0.016 C 
HETATM   16  C30 UNL     1      -1.232  10.144  17.848  1.00  0.00     0.018 C 
HETATM   17  C31 UNL     1      -1.991  12.253  18.888  1.00  0.00     0.018 C 
HETATM   18  C32 UNL     1       0.561  11.699  18.785  1.00  0.00     0.007 C 
HETATM   19  C33 UNL     1       0.637  10.957  20.141  1.00  0.00     0.038 C 
HETATM   20  C34 UNL     1       2.093  10.727  20.574  1.00  0.00     0.128 C 
HETATM   21  C35 UNL     1       2.900  12.050  20.699  1.00  0.00    -0.005 C 
HETATM   22  C36 UNL     1       2.404  12.812  21.966  1.00  0.00     0.019 C 
ENDROOT
BRANCH   1  23
HETATM   23  C9  UNL     1       7.805  13.013  21.587  1.00  0.00     0.048 C 
HETATM   24  C2  UNL     1       8.609  12.221  22.622  1.00  0.00     0.264 C 
HETATM   25  O2  UNL     1       9.749  11.682  21.920  1.00  0.00    -0.353 OA
HETATM   26  C3  UNL     1       9.817  12.333  20.647  1.00  0.00     0.157 C 
HETATM   27  C8  UNL     1       8.351  12.485  20.269  1.00  0.00     0.044 C 
BRANCH  24  28
HETATM   28  O1  UNL     1       9.029  13.102  23.656  1.00  0.00    -0.366 OA
HETATM   29  C1  UNL     1       8.591  14.436  23.429  1.00  0.00     0.204 C 
ENDBRANCH  24  28
BRANCH  26  30
HETATM   30  C4  UNL     1      10.691  11.546  19.659  1.00  0.00     0.183 C 
BRANCH  30  31
HETATM   31  O3  UNL     1      11.750  10.817  20.303  1.00  0.00    -0.390 OA
HETATM   32  H7  UNL     1      11.677  10.954  21.271  1.00  0.00     0.210 HD
ENDBRANCH  30  31
BRANCH  30  33
HETATM   33  C5  UNL     1      11.341  12.395  18.528  1.00  0.00     0.103 C 
HETATM   34  C6  UNL     1      10.929  13.868  18.593  1.00  0.00     0.051 C 
BRANCH  33  35
HETATM   35  O4  UNL     1      10.822  11.885  17.271  1.00  0.00    -0.385 OA
HETATM   36  H11 UNL     1      10.860  10.908  17.374  1.00  0.00     0.210 HD
ENDBRANCH  33  35
BRANCH  33  37
HETATM   37  C7  UNL     1      12.880  12.249  18.441  1.00  0.00     0.204 C 
BRANCH  37  38
HETATM   38  O5  UNL     1      13.226  10.987  17.857  1.00  0.00    -0.398 OA
HETATM   39  H14 UNL     1      12.513  10.368  18.130  1.00  0.00     0.209 HD
ENDBRANCH  37  38
ENDBRANCH  33  37
ENDBRANCH  30  33
ENDBRANCH  26  30
ENDBRANCH   1  23
BRANCH  20  40
HETATM   40  O8  UNL     1       2.702   9.856  19.612  1.00  0.00    -0.395 OA
HETATM   41  H55 UNL     1       2.233   9.000  19.644  1.00  0.00     0.210 HD
ENDBRANCH  20  40
BRANCH  14  42
HETATM   42  O6  UNL     1      -2.025  12.396  16.084  1.00  0.00    -0.312 OA
BRANCH  42  43
HETATM   43  C24 UNL     1      -2.112  12.316  14.738  1.00  0.00     0.283 C 
HETATM   44  O7  UNL     1      -2.300  13.235  13.959  1.00  0.00    -0.260 OA
BRANCH  43  45
HETATM   45  C25 UNL     1      -1.846  10.931  14.294  1.00  0.00     0.084 C 
HETATM   46  C26 UNL     1      -2.655   9.860  14.406  1.00  0.00    -0.082 C 
HETATM   47  C27 UNL     1      -4.059   9.874  14.950  1.00  0.00     0.043 C 
HETATM   48  C28 UNL     1      -2.184   8.511  13.940  1.00  0.00     0.043 C 
ENDBRANCH  43  45
ENDBRANCH  42  43
ENDBRANCH  14  42
TORSDOF 12
ENDMDL
