MODEL 1
REMARK minimizedAffinity -7.32261896
REMARK CNNscore 0.66437155
REMARK CNNaffinity 5.08234262
REMARK  11 active torsions:
REMARK  status: ('A' for Active; 'I' for Inactive)
REMARK    1  A    between atoms: C4_4  and  O1_5 
REMARK    2  A    between atoms: O1_5  and  C5_6 
REMARK    3  A    between atoms: C6_8  and  C7_9 
REMARK    4  A    between atoms: C7_9  and  O3_10 
REMARK    5  A    between atoms: C8_11  and  O4_12 
REMARK    6  A    between atoms: C9_13  and  O5_14 
REMARK    7  A    between atoms: C10_15  and  O6_16 
REMARK    8  A    between atoms: C15_21  and  O7_22 
REMARK    9  A    between atoms: C15_21  and  C16_23 
REMARK   10  A    between atoms: C17_24  and  C18_25 
REMARK   11  A    between atoms: C18_25  and  O8_27 
ROOT
HETATM    1  C1  UNL     1      -5.520   5.161  13.669  1.00  0.00     0.013 C 
HETATM    2  C2  UNL     1      -6.620   6.164  13.298  1.00  0.00     0.023 C 
HETATM    3  C3  UNL     1      -6.047   7.572  13.043  1.00  0.00     0.039 C 
HETATM    4  C4  UNL     1      -5.792   8.396  14.308  1.00  0.00     0.126 C 
HETATM    5  C11 UNL     1      -7.041   8.439  15.200  1.00  0.00     0.044 C 
HETATM    6  C12 UNL     1      -7.667   7.058  15.547  1.00  0.00    -0.010 C 
HETATM    7  C13 UNL     1      -6.815   6.327  16.613  1.00  0.00     0.018 C 
HETATM    8  C14 UNL     1      -9.023   7.336  16.260  1.00  0.00     0.018 C 
HETATM    9  C15 UNL     1      -7.867   6.192  14.239  1.00  0.00     0.086 C 
ENDROOT
BRANCH   4  10
HETATM   10  O1  UNL     1      -4.712   7.895  15.094  1.00  0.00    -0.353 OA
BRANCH  10  11
HETATM   11  C5  UNL     1      -3.963   8.901  15.795  1.00  0.00     0.292 C 
HETATM   12  O2  UNL     1      -3.840  10.074  14.995  1.00  0.00    -0.348 OA
HETATM   13  C6  UNL     1      -2.740  10.950  15.324  1.00  0.00     0.179 C 
HETATM   14  C8  UNL     1      -2.121  10.699  16.708  1.00  0.00     0.180 C 
HETATM   15  C9  UNL     1      -1.734   9.229  16.918  1.00  0.00     0.183 C 
HETATM   16  C10 UNL     1      -2.588   8.276  16.077  1.00  0.00     0.204 C 
BRANCH  13  17
HETATM   17  C7  UNL     1      -1.706  10.879  14.191  1.00  0.00     0.198 C 
BRANCH  17  18
HETATM   18  O3  UNL     1      -1.330  12.205  13.810  1.00  0.00    -0.398 OA
HETATM   19  H12 UNL     1      -2.165  12.703  13.723  1.00  0.00     0.209 HD
ENDBRANCH  17  18
ENDBRANCH  13  17
BRANCH  14  20
HETATM   20  O4  UNL     1      -3.092  11.049  17.711  1.00  0.00    -0.390 OA
HETATM   21  H14 UNL     1      -3.251  12.009  17.645  1.00  0.00     0.210 HD
ENDBRANCH  14  20
BRANCH  15  22
HETATM   22  O5  UNL     1      -0.353   9.032  16.580  1.00  0.00    -0.390 OA
HETATM   23  H16 UNL     1      -0.155   8.103  16.814  1.00  0.00     0.210 HD
ENDBRANCH  15  22
BRANCH  16  24
HETATM   24  O6  UNL     1      -2.698   7.011  16.749  1.00  0.00    -0.388 OA
HETATM   25  H18 UNL     1      -3.399   6.530  16.263  1.00  0.00     0.210 HD
ENDBRANCH  16  24
ENDBRANCH  10  11
ENDBRANCH   4  10
BRANCH   9  26
HETATM   26  O7  UNL     1      -8.175   4.842  14.606  1.00  0.00    -0.385 OA
HETATM   27  H27 UNL     1      -8.998   4.862  15.122  1.00  0.00     0.211 HD
ENDBRANCH   9  26
BRANCH   9  28
HETATM   28  C16 UNL     1      -9.038   6.713  13.398  1.00  0.00     0.010 C 
HETATM   29  C17 UNL     1     -10.339   6.720  13.750  1.00  0.00     0.003 C 
BRANCH  29  30
HETATM   30  C18 UNL     1     -11.441   7.246  12.878  1.00  0.00     0.136 C 
HETATM   31  C19 UNL     1     -12.816   6.880  13.418  1.00  0.00     0.043 C 
BRANCH  30  32
HETATM   32  O8  UNL     1     -11.314   8.662  12.820  1.00  0.00    -0.392 OA
HETATM   33  H34 UNL     1     -11.483   9.008  13.712  1.00  0.00     0.210 HD
ENDBRANCH  30  32
ENDBRANCH  29  30
ENDBRANCH   9  28
TORSDOF 11
ENDMDL
