MODEL 1
REMARK minimizedAffinity -7.76359367
REMARK  12 active torsions:
REMARK  status: ('A' for Active; 'I' for Inactive)
REMARK    1  A    between atoms: C3_3  and  O1_4 
REMARK    2  A    between atoms: O1_4  and  C4_5 
REMARK    3  A    between atoms: C5_7  and  C6_8 
REMARK    4  A    between atoms: C6_8  and  O3_9 
REMARK    5  A    between atoms: C7_10  and  O4_11 
REMARK    6  A    between atoms: C8_12  and  O5_13 
REMARK    7  A    between atoms: C9_14  and  O6_15 
REMARK    8  A    between atoms: C10_16  and  O7_17 
REMARK    9  A    between atoms: C15_22  and  O8_23 
REMARK   10  A    between atoms: C15_22  and  C16_24 
REMARK   11  A    between atoms: C17_25  and  C18_26 
REMARK   12  A    between atoms: C18_26  and  O9_28 
ROOT
HETATM    1  C1  UNL     1       2.419   7.384  14.402  1.00  0.00     0.016 C 
HETATM    2  C2  UNL     1       1.265   6.473  13.958  1.00  0.00     0.052 C 
HETATM    3  C3  UNL     1       1.485   5.918  12.539  1.00  0.00     0.160 C 
HETATM    4  C10 UNL     1       0.449   4.792  12.239  1.00  0.00     0.148 C 
HETATM    5  C11 UNL     1      -0.811   4.827  13.117  1.00  0.00     0.046 C 
HETATM    6  C12 UNL     1      -1.312   6.253  13.449  1.00  0.00    -0.010 C 
HETATM    7  C13 UNL     1      -2.607   6.104  14.292  1.00  0.00     0.018 C 
HETATM    8  C14 UNL     1      -1.739   6.959  12.137  1.00  0.00     0.018 C 
HETATM    9  C15 UNL     1      -0.180   7.033  14.247  1.00  0.00     0.088 C 
ENDROOT
BRANCH   3  10
HETATM   10  O1  UNL     1       1.492   6.982  11.582  1.00  0.00    -0.350 OA
BRANCH  10  11
HETATM   11  C4  UNL     1       2.817   7.419  11.243  1.00  0.00     0.292 C 
HETATM   12  O2  UNL     1       2.732   8.242  10.068  1.00  0.00    -0.348 OA
HETATM   13  C5  UNL     1       3.012   7.585   8.824  1.00  0.00     0.179 C 
HETATM   14  C7  UNL     1       2.598   6.109   8.859  1.00  0.00     0.180 C 
HETATM   15  C8  UNL     1       3.541   5.394   9.829  1.00  0.00     0.183 C 
HETATM   16  C9  UNL     1       3.754   6.190  11.127  1.00  0.00     0.204 C 
BRANCH  13  17
HETATM   17  C6  UNL     1       2.297   8.374   7.725  1.00  0.00     0.198 C 
BRANCH  17  18
HETATM   18  O3  UNL     1       1.788   7.487   6.730  1.00  0.00    -0.398 OA
HETATM   19  H10 UNL     1       1.201   6.874   7.214  1.00  0.00     0.209 HD
ENDBRANCH  17  18
ENDBRANCH  13  17
BRANCH  14  20
HETATM   20  O4  UNL     1       2.692   5.462   7.583  1.00  0.00    -0.390 OA
HETATM   21  H12 UNL     1       1.948   5.800   7.049  1.00  0.00     0.210 HD
ENDBRANCH  14  20
BRANCH  15  22
HETATM   22  O5  UNL     1       3.047   4.075  10.104  1.00  0.00    -0.390 OA
HETATM   23  H14 UNL     1       2.877   3.681   9.227  1.00  0.00     0.210 HD
ENDBRANCH  15  22
BRANCH  16  24
HETATM   24  O6  UNL     1       5.129   6.635  11.155  1.00  0.00    -0.388 OA
HETATM   25  H16 UNL     1       5.661   5.853  11.390  1.00  0.00     0.210 HD
ENDBRANCH  16  24
ENDBRANCH  10  11
ENDBRANCH   3  10
BRANCH   4  26
HETATM   26  O7  UNL     1       0.084   4.751  10.857  1.00  0.00    -0.393 OA
HETATM   27  H18 UNL     1      -0.556   4.026  10.741  1.00  0.00     0.210 HD
ENDBRANCH   4  26
BRANCH   9  28
HETATM   28  O8  UNL     1      -0.348   6.697  15.654  1.00  0.00    -0.385 OA
HETATM   29  H27 UNL     1       0.135   7.366  16.170  1.00  0.00     0.211 HD
ENDBRANCH   9  28
BRANCH   9  30
HETATM   30  C16 UNL     1      -0.438   8.529  14.222  1.00  0.00     0.010 C 
HETATM   31  C17 UNL     1      -1.144   9.276  15.088  1.00  0.00     0.003 C 
BRANCH  31  32
HETATM   32  C18 UNL     1      -1.356  10.764  15.024  1.00  0.00     0.136 C 
HETATM   33  C19 UNL     1      -0.284  11.505  15.811  1.00  0.00     0.043 C 
BRANCH  32  34
HETATM   34  O9  UNL     1      -1.345  11.212  13.674  1.00  0.00    -0.392 OA
HETATM   35  H34 UNL     1      -1.452  12.177  13.690  1.00  0.00     0.210 HD
ENDBRANCH  32  34
ENDBRANCH  31  32
ENDBRANCH   9  30
TORSDOF 12
ENDMDL
