MODEL 1
REMARK minimizedAffinity -7.01038551
REMARK CNNscore 0.838936031
REMARK CNNaffinity 7.33732939
REMARK  9 active torsions:
REMARK  status: ('A' for Active; 'I' for Inactive)
REMARK    1  A    between atoms: C2_2  and  C3_3 
REMARK    2  A    between atoms: C2_2  and  C9_11 
REMARK    3  A    between atoms: C3_3  and  C4_4 
REMARK    4  A    between atoms: C4_4  and  C5_5 
REMARK    5  A    between atoms: C5_5  and  O1_6 
REMARK    6  A    between atoms: C5_5  and  C6_7 
REMARK    7  A    between atoms: C6_7  and  O2_10 
REMARK    8  A    between atoms: C17_19  and  C18_20 
REMARK    9  A    between atoms: C18_20  and  O3_23 
ROOT
HETATM    1  C9  UNL     1      -2.267  52.031 -10.191  1.00  0.00    -0.002 C 
HETATM    2  C10 UNL     1      -2.404  51.672  -8.682  1.00  0.00     0.006 C 
HETATM    3  C11 UNL     1      -1.089  52.131  -7.995  1.00  0.00     0.011 C 
HETATM    4  C12 UNL     1      -0.136  52.469  -9.161  1.00  0.00    -0.032 C 
HETATM    5  C13 UNL     1       0.451  51.092  -9.624  1.00  0.00     0.016 C 
HETATM    6  C14 UNL     1       0.990  53.496  -8.852  1.00  0.00     0.003 C 
HETATM    7  C15 UNL     1       1.895  53.119  -7.672  1.00  0.00     0.009 C 
HETATM    8  C16 UNL     1       3.194  53.918  -7.574  1.00  0.00     0.042 C 
HETATM    9  C17 UNL     1       3.257  55.300  -8.281  1.00  0.00     0.095 C 
HETATM   10  O4  UNL     1       4.683  55.600  -8.435  1.00  0.00    -0.377 OA
HETATM   11  C21 UNL     1       5.311  55.023  -9.567  1.00  0.00     0.169 C 
HETATM   12  C22 UNL     1       4.804  55.670 -10.837  1.00  0.00     0.027 C 
HETATM   13  C23 UNL     1       3.330  56.050 -10.768  1.00  0.00     0.010 C 
HETATM   14  C24 UNL     1       2.504  55.347  -9.667  1.00  0.00     0.032 C 
HETATM   15  C25 UNL     1       1.778  53.999 -10.117  1.00  0.00    -0.033 C 
HETATM   16  C26 UNL     1       2.781  52.958 -10.659  1.00  0.00     0.016 C 
HETATM   17  C27 UNL     1       0.794  54.324 -11.310  1.00  0.00     0.011 C 
HETATM   18  C28 UNL     1      -0.416  53.379 -11.504  1.00  0.00     0.011 C 
HETATM   19  C29 UNL     1      -1.151  53.118 -10.180  1.00  0.00    -0.032 C 
HETATM   20  C30 UNL     1      -1.761  54.479  -9.718  1.00  0.00     0.016 C 
ENDROOT
BRANCH   1  21
HETATM   21  C2  UNL     1      -3.586  52.309 -10.970  1.00  0.00    -0.014 C 
HETATM   22  C1  UNL     1      -4.173  53.650 -10.489  1.00  0.00     0.010 C 
BRANCH  21  23
HETATM   23  C3  UNL     1      -3.467  52.325 -12.513  1.00  0.00     0.007 C 
BRANCH  23  24
HETATM   24  C4  UNL     1      -2.928  50.999 -13.083  1.00  0.00     0.035 C 
BRANCH  24  25
HETATM   25  C5  UNL     1      -2.480  51.139 -14.551  1.00  0.00     0.151 C 
BRANCH  25  26
HETATM   26  O1  UNL     1      -3.476  50.597 -15.423  1.00  0.00    -0.393 OA
HETATM   27  H10 UNL     1      -3.779  49.751 -15.047  1.00  0.00     0.210 HD
ENDBRANCH  25  26
BRANCH  25  28
HETATM   28  C6  UNL     1      -1.084  50.507 -14.843  1.00  0.00     0.076 C 
HETATM   29  C7  UNL     1       0.067  51.501 -14.655  1.00  0.00     0.048 C 
HETATM   30  C8  UNL     1      -0.857  49.290 -13.935  1.00  0.00     0.048 C 
BRANCH  28  31
HETATM   31  O2  UNL     1      -1.054  50.052 -16.202  1.00  0.00    -0.388 OA
HETATM   32  H17 UNL     1      -0.205  49.602 -16.352  1.00  0.00     0.210 HD
ENDBRANCH  28  31
ENDBRANCH  25  28
ENDBRANCH  24  25
ENDBRANCH  23  24
ENDBRANCH  21  23
ENDBRANCH   1  21
BRANCH   9  33
HETATM   33  C18 UNL     1       2.793  56.466  -7.288  1.00  0.00     0.082 C 
HETATM   34  C19 UNL     1       1.297  56.787  -7.297  1.00  0.00     0.049 C 
HETATM   35  C20 UNL     1       3.573  57.779  -7.484  1.00  0.00     0.049 C 
BRANCH  33  36
HETATM   36  O3  UNL     1       3.102  56.045  -5.940  1.00  0.00    -0.388 OA
HETATM   37  H37 UNL     1       3.997  55.654  -6.008  1.00  0.00     0.210 HD
ENDBRANCH  33  36
ENDBRANCH   9  33
TORSDOF 9
ENDMDL
