MODEL 1
REMARK minimizedAffinity -8.42717361
REMARK  10 active torsions:
REMARK  status: ('A' for Active; 'I' for Inactive)
REMARK    1  A    between atoms: O1_1  and  C1_2 
REMARK    2  A    between atoms: C1_2  and  C2_3 
REMARK    3  A    between atoms: C3_5  and  C4_6 
REMARK    4  A    between atoms: C4_6  and  O2_7 
REMARK    5  A    between atoms: C4_6  and  C5_8 
REMARK    6  A    between atoms: C5_8  and  C6_9 
REMARK    7  A    between atoms: C6_9  and  C7_10 
REMARK    8  A    between atoms: C7_10  and  C8_11 
REMARK    9  A    between atoms: C17_22  and  O5_23 
REMARK   10  A    between atoms: C18_24  and  O6_25 
ROOT
HETATM    1  C4  UNL     1      -2.410  50.260 -26.838  1.00  0.00     0.154 C 
ENDROOT
BRANCH   1   2
HETATM    2  C3  UNL     1      -1.170  50.997 -26.275  1.00  0.00     0.280 C 
HETATM    3  N1  UNL     1       0.090  50.708 -27.021  1.00  0.00     0.102 N 
HETATM    4  C2  UNL     1       0.934  51.935 -26.856  1.00  0.00     0.275 C 
HETATM    5  H5  UNL     1      -0.124  50.632 -28.019  1.00  0.00     0.317 HD
HETATM    6  C18 UNL     1       0.172  52.904 -25.947  1.00  0.00     0.184 C 
HETATM    7  C17 UNL     1      -1.280  52.520 -26.210  1.00  0.00     0.184 C 
BRANCH   4   8
HETATM    8  C1  UNL     1       2.313  51.575 -26.295  1.00  0.00     0.202 C 
BRANCH   8   9
HETATM    9  O1  UNL     1       3.255  51.485 -27.363  1.00  0.00    -0.399 OA
HETATM   10  H1  UNL     1       2.820  50.914 -28.027  1.00  0.00     0.209 HD
ENDBRANCH   8   9
ENDBRANCH   4   8
BRANCH   6  11
HETATM   11  O6  UNL     1       0.405  54.265 -26.292  1.00  0.00    -0.391 OA
HETATM   12  H33 UNL     1       0.102  54.806 -25.542  1.00  0.00     0.210 HD
ENDBRANCH   6  11
BRANCH   7  13
HETATM   13  O5  UNL     1      -2.127  52.960 -25.156  1.00  0.00    -0.391 OA
HETATM   14  H31 UNL     1      -2.276  53.913 -25.288  1.00  0.00     0.210 HD
ENDBRANCH   7  13
ENDBRANCH   1   2
BRANCH   1  15
HETATM   15  O2  UNL     1      -3.561  51.058 -26.520  1.00  0.00    -0.393 OA
HETATM   16  H8  UNL     1      -3.381  51.472 -25.655  1.00  0.00     0.210 HD
ENDBRANCH   1  15
BRANCH   1  17
HETATM   17  C5  UNL     1      -2.642  48.847 -26.278  1.00  0.00     0.034 C 
BRANCH  17  18
HETATM   18  C6  UNL     1      -3.502  48.810 -25.004  1.00  0.00     0.005 C 
BRANCH  18  19
HETATM   19  C7  UNL     1      -2.731  48.458 -23.728  1.00  0.00     0.032 C 
BRANCH  19  20
HETATM   20  C8  UNL     1      -2.941  49.453 -22.575  1.00  0.00     0.125 C 
HETATM   21  C9  UNL     1      -3.785  50.662 -22.980  1.00  0.00     0.032 C 
HETATM   22  C10 UNL     1      -4.036  51.567 -21.775  1.00  0.00     0.008 C 
HETATM   23  C11 UNL     1      -2.930  51.446 -20.725  1.00  0.00     0.068 C 
HETATM   24  C12 UNL     1      -1.583  51.067 -21.361  1.00  0.00     0.164 C 
HETATM   25  C13 UNL     1      -0.496  50.913 -20.273  1.00  0.00     0.068 C 
HETATM   26  O3  UNL     1      -1.252  52.110 -22.293  1.00  0.00    -0.355 OA
HETATM   27  O4  UNL     1      -1.662  49.812 -22.045  1.00  0.00    -0.350 OA
HETATM   28  C14 UNL     1       0.260  52.215 -20.047  1.00  0.00     0.007 C 
HETATM   29  C15 UNL     1       0.888  52.699 -21.353  1.00  0.00     0.026 C 
HETATM   30  C16 UNL     1       0.140  52.180 -22.576  1.00  0.00     0.171 C 
ENDBRANCH  19  20
ENDBRANCH  18  19
ENDBRANCH  17  18
ENDBRANCH   1  17
TORSDOF 10
ENDMDL
