MODEL 1
REMARK minimizedAffinity -8.91389656
REMARK CNNscore 0.461152345
REMARK CNNaffinity 7.03810835
REMARK  15 active torsions:
REMARK  status: ('A' for Active; 'I' for Inactive)
REMARK    1  A    between atoms: C19_20  and  O2_21 
REMARK    2  A    between atoms: C19_20  and  C20_22 
REMARK    3  A    between atoms: C20_22  and  C21_24 
REMARK    4  A    between atoms: C21_24  and  O4_25 
REMARK    5  A    between atoms: O4_25  and  C22_26 
REMARK    6  A    between atoms: C22_26  and  C23_28 
REMARK    7  A    between atoms: C23_28  and  C24_29 
REMARK    8  A    between atoms: C24_29  and  C25_30 
REMARK       I    between atoms: C25_30  and  N1_32 
REMARK    9  A    between atoms: N1_32  and  C26_33 
REMARK   10  A    between atoms: C26_33  and  C27_34 
REMARK       I    between atoms: C27_34  and  N2_36 
REMARK   11  A    between atoms: N2_36  and  C28_37 
REMARK   12  A    between atoms: C28_37  and  C29_38 
REMARK   13  A    between atoms: C28_37  and  C38_48 
REMARK   14  A    between atoms: C29_38  and  C30_39 
REMARK   15  A    between atoms: C38_48  and  O9_50 
ROOT
HETATM    1  C22 UNL     1      -3.694   3.132  11.304  1.00  0.00     0.259 C 
HETATM    2  O5  UNL     1      -3.848   3.637  10.197  1.00  0.00    -0.265 OA
ENDROOT
BRANCH   1   3
HETATM    3  O4  UNL     1      -2.650   3.376  12.143  1.00  0.00    -0.314 OA
BRANCH   3   4
HETATM    4  C21 UNL     1      -2.300   4.751  12.332  1.00  0.00     0.260 C 
BRANCH   4   5
HETATM    5  C20 UNL     1      -1.073   5.103  11.486  1.00  0.00     0.185 C 
HETATM    6  O3  UNL     1      -1.095   5.038  10.252  1.00  0.00    -0.292 OA
BRANCH   5   7
HETATM    7  C19 UNL     1       0.190   5.574  12.257  1.00  0.00     0.128 C 
HETATM    8  C14 UNL     1       0.511   7.108  12.106  1.00  0.00    -0.002 C 
HETATM    9  C13 UNL     1       1.029   7.763  13.420  1.00  0.00     0.013 C 
HETATM   10  C15 UNL     1      -0.720   7.947  11.686  1.00  0.00     0.019 C 
HETATM   11  C16 UNL     1       1.581   7.195  10.961  1.00  0.00     0.002 C 
HETATM   12  C12 UNL     1       2.466   7.425  13.814  1.00  0.00     0.007 C 
HETATM   13  C11 UNL     1       3.480   7.506  12.652  1.00  0.00     0.002 C 
HETATM   14  C2  UNL     1       4.813   8.268  12.978  1.00  0.00    -0.016 C 
HETATM   15  C10 UNL     1       2.808   8.050  11.366  1.00  0.00    -0.004 C 
HETATM   16  C1  UNL     1       4.560   9.784  13.166  1.00  0.00     0.020 C 
HETATM   17  C3  UNL     1       5.479   7.689  14.257  1.00  0.00     0.022 C 
HETATM   18  C7  UNL     1       5.781   8.057  11.808  1.00  0.00    -0.068 C 
HETATM   19  C4  UNL     1       6.869   8.261  14.526  1.00  0.00     0.084 C 
HETATM   20  C5  UNL     1       7.748   8.226  13.300  1.00  0.00     0.149 C 
HETATM   21  O1  UNL     1       8.969   8.332  13.375  1.00  0.00    -0.293 OA
HETATM   22  C6  UNL     1       7.117   8.061  11.968  1.00  0.00     0.053 C 
HETATM   23  C8  UNL     1       5.202   7.724  10.453  1.00  0.00     0.035 C 
HETATM   24  C9  UNL     1       3.804   8.285  10.211  1.00  0.00     0.010 C 
HETATM   25  C17 UNL     1       1.919   5.749  10.569  1.00  0.00     0.009 C 
HETATM   26  C18 UNL     1       1.442   4.874  11.715  1.00  0.00     0.047 C 
BRANCH   7  27
HETATM   27  O2  UNL     1       0.030   5.202  13.626  1.00  0.00    -0.381 OA
HETATM   28  H27 UNL     1       0.251   4.255  13.720  1.00  0.00     0.211 HD
ENDBRANCH   7  27
ENDBRANCH   5   7
ENDBRANCH   4   5
ENDBRANCH   3   4
ENDBRANCH   1   3
BRANCH   1  29
HETATM   29  C23 UNL     1      -4.618   2.124  11.933  1.00  0.00     0.120 C 
BRANCH  29  30
HETATM   30  C24 UNL     1      -6.043   2.297  11.421  1.00  0.00     0.112 C 
BRANCH  30  31
HETATM   31  C25 UNL     1      -6.966   2.785  12.514  1.00  0.00     0.218 C 
HETATM   32  O6  UNL     1      -8.039   2.263  12.790  1.00  0.00    -0.274 OA
HETATM   33  N1  UNL     1      -6.506   3.911  13.153  1.00  0.00    -0.352 N 
HETATM   34  H34 UNL     1      -5.702   4.408  12.780  1.00  0.00     0.162 HD
BRANCH  33  35
HETATM   35  C26 UNL     1      -7.232   4.528  14.253  1.00  0.00     0.225 C 
BRANCH  35  36
HETATM   36  C27 UNL     1      -7.945   5.827  13.860  1.00  0.00     0.236 C 
HETATM   37  O7  UNL     1      -7.353   6.739  13.288  1.00  0.00    -0.272 OA
HETATM   38  N2  UNL     1      -9.247   5.934  14.287  1.00  0.00    -0.345 N 
HETATM   39  H37 UNL     1      -9.539   5.308  15.040  1.00  0.00     0.163 HD
BRANCH  38  40
HETATM   40  C28 UNL     1     -10.008   7.190  14.166  1.00  0.00     0.186 C 
BRANCH  40  41
HETATM   41  C29 UNL     1     -11.441   6.929  13.676  1.00  0.00     0.077 C 
BRANCH  41  42
HETATM   42  C30 UNL     1     -12.084   8.128  13.047  1.00  0.00    -0.028 A 
HETATM   43  C31 UNL     1     -11.516   8.968  12.110  1.00  0.00     0.096 A 
HETATM   44  N3  UNL     1     -12.435   9.924  11.771  1.00  0.00    -0.365 N 
HETATM   45  C32 UNL     1     -13.597   9.738  12.480  1.00  0.00     0.042 A 
HETATM   46  H42 UNL     1     -12.289  10.654  11.088  1.00  0.00     0.165 HD
HETATM   47  C33 UNL     1     -14.798  10.458  12.450  1.00  0.00     0.030 A 
HETATM   48  C37 UNL     1     -13.405   8.623  13.299  1.00  0.00    -0.002 A 
HETATM   49  C34 UNL     1     -15.829  10.033  13.292  1.00  0.00     0.002 A 
HETATM   50  C35 UNL     1     -15.665   8.931  14.129  1.00  0.00     0.001 A 
HETATM   51  C36 UNL     1     -14.461   8.218  14.140  1.00  0.00     0.014 A 
ENDBRANCH  41  42
ENDBRANCH  40  41
BRANCH  40  52
HETATM   52  C38 UNL     1     -10.032   7.904  15.527  1.00  0.00     0.163 C 
HETATM   53  O8  UNL     1     -10.569   8.962  15.807  1.00  0.00    -0.648 OA
BRANCH  52  54
HETATM   54  O9  UNL     1      -9.335   7.244  16.483  1.00  0.00    -0.775 OA
HETATM   55  H47 UNL     1      -9.373   7.843  17.262  1.00  0.00     0.167 HD
ENDBRANCH  52  54
ENDBRANCH  40  52
ENDBRANCH  38  40
ENDBRANCH  35  36
ENDBRANCH  33  35
ENDBRANCH  30  31
ENDBRANCH  29  30
ENDBRANCH   1  29
TORSDOF 15
ENDMDL
