MODEL 1
REMARK minimizedAffinity -10.7622681
REMARK CNNscore 0.70850265
REMARK CNNaffinity 8.58834743
REMARK  8 active torsions:
REMARK  status: ('A' for Active; 'I' for Inactive)
REMARK    1  A    between atoms: C3_4  and  O2_5 
REMARK    2  A    between atoms: O2_5  and  C4_6 
REMARK    3  A    between atoms: C7_10  and  O4_11 
REMARK    4  A    between atoms: O4_11  and  C8_12 
REMARK    5  A    between atoms: C11_16  and  O6_17 
REMARK    6  A    between atoms: O6_17  and  C12_18 
REMARK    7  A    between atoms: C26_33  and  C27_34 
REMARK    8  A    between atoms: C33_42  and  O10_43 
ROOT
HETATM    1  C12 UNL     1      -0.970  50.813 -12.727  1.00  0.00     0.125 C 
HETATM    2  C13 UNL     1      -1.771  51.863 -13.430  1.00  0.00     0.033 C 
HETATM    3  C14 UNL     1      -2.202  52.952 -12.482  1.00  0.00     0.012 C 
HETATM    4  C15 UNL     1      -2.706  52.454 -11.066  1.00  0.00    -0.036 C 
HETATM    5  C16 UNL     1      -4.006  53.206 -10.694  1.00  0.00     0.016 C 
HETATM    6  C17 UNL     1      -2.918  50.906 -11.110  1.00  0.00    -0.004 C 
HETATM    7  C18 UNL     1      -3.388  50.426  -9.710  1.00  0.00     0.006 C 
HETATM    8  C19 UNL     1      -2.364  50.674  -8.616  1.00  0.00     0.008 C 
HETATM    9  C20 UNL     1      -1.649  52.083  -8.624  1.00  0.00     0.026 C 
HETATM   10  C21 UNL     1      -1.595  52.756 -10.023  1.00  0.00     0.008 C 
HETATM   11  C22 UNL     1      -1.275  54.256  -9.831  1.00  0.00     0.085 C 
HETATM   12  C23 UNL     1      -0.289  54.554  -8.722  1.00  0.00     0.139 C 
HETATM   13  O7  UNL     1      -0.283  55.632  -8.114  1.00  0.00    -0.297 OA
HETATM   14  C24 UNL     1       0.692  53.434  -8.396  1.00  0.00     0.055 C 
HETATM   15  C25 UNL     1       1.723  53.892  -7.307  1.00  0.00     0.027 C 
HETATM   16  C26 UNL     1       1.490  52.941  -9.650  1.00  0.00     0.035 C 
HETATM   17  C31 UNL     1       1.950  51.518  -9.244  1.00  0.00     0.013 C 
HETATM   18  C32 UNL     1       0.759  50.938  -8.511  1.00  0.00     0.040 C 
HETATM   19  C33 UNL     1      -0.152  52.133  -8.005  1.00  0.00     0.077 C 
HETATM   20  C34 UNL     1      -1.662  50.158 -11.559  1.00  0.00     0.037 C 
ENDROOT
BRANCH   1  21
HETATM   21  O6  UNL     1       0.125  50.222 -13.130  1.00  0.00    -0.355 OA
BRANCH  21  22
HETATM   22  C11 UNL     1       0.647  50.385 -14.300  1.00  0.00     0.274 C 
HETATM   23  C10 UNL     1       0.094  49.636 -15.476  1.00  0.00     0.147 C 
HETATM   24  C9  UNL     1      -0.423  50.768 -16.412  1.00  0.00     0.190 C 
HETATM   25  C8  UNL     1       0.487  51.744 -16.599  1.00  0.00     0.150 C 
HETATM   26  O5  UNL     1      -1.577  50.586 -16.854  1.00  0.00    -0.290 OA
HETATM   27  C35 UNL     1       1.698  51.705 -15.765  1.00  0.00     0.100 C 
HETATM   28  O11 UNL     1       1.461  51.358 -14.403  1.00  0.00    -0.318 OA
HETATM   29  C36 UNL     1       2.860  52.249 -16.107  1.00  0.00     0.054 C 
BRANCH  25  30
HETATM   30  O4  UNL     1       0.301  52.849 -17.473  1.00  0.00    -0.313 OA
BRANCH  30  31
HETATM   31  C7  UNL     1       0.455  52.525 -18.785  1.00  0.00     0.280 C 
HETATM   32  C6  UNL     1       1.170  53.624 -19.569  1.00  0.00     0.147 C 
HETATM   33  C5  UNL     1       1.304  53.380 -21.078  1.00  0.00     0.190 C 
HETATM   34  C4  UNL     1       0.886  52.182 -21.539  1.00  0.00     0.150 C 
HETATM   35  O3  UNL     1       1.781  54.380 -21.698  1.00  0.00    -0.290 OA
HETATM   36  C37 UNL     1       0.283  51.189 -20.650  1.00  0.00     0.100 C 
HETATM   37  O12 UNL     1      -0.089  51.473 -19.323  1.00  0.00    -0.318 OA
HETATM   38  C38 UNL     1      -0.108  49.958 -21.019  1.00  0.00     0.054 C 
BRANCH  34  39
HETATM   39  O2  UNL     1       1.022  51.753 -22.902  1.00  0.00    -0.313 OA
BRANCH  39  40
HETATM   40  C3  UNL     1       0.110  52.331 -23.724  1.00  0.00     0.280 C 
HETATM   41  O1  UNL     1       0.470  53.057 -24.747  1.00  0.00    -0.316 OA
HETATM   42  C2  UNL     1      -0.496  53.264 -25.738  1.00  0.00     0.116 C 
HETATM   43  C1  UNL     1       0.014  53.889 -26.809  1.00  0.00     0.055 C 
HETATM   44  C41 UNL     1      -1.903  52.819 -25.691  1.00  0.00     0.249 C 
HETATM   45  C40 UNL     1      -2.327  52.469 -24.294  1.00  0.00     0.206 C 
HETATM   46  O14 UNL     1      -2.701  52.781 -26.609  1.00  0.00    -0.281 OA
HETATM   47  C39 UNL     1      -1.285  52.215 -23.275  1.00  0.00     0.149 C 
HETATM   48  O13 UNL     1      -3.502  52.523 -23.981  1.00  0.00    -0.289 OA
ENDBRANCH  39  40
ENDBRANCH  34  39
ENDBRANCH  30  31
ENDBRANCH  25  30
ENDBRANCH  21  22
ENDBRANCH   1  21
BRANCH  19  49
HETATM   49  O10 UNL     1      -0.273  51.978  -6.708  1.00  0.00    -0.388 OA
ATOM     50  H10 UNL     1       0.604  52.006  -6.345  1.00  0.00     0.210 HD
ENDBRANCH  19  49
BRANCH  16  51
HETATM   51  C27 UNL     1       2.590  53.698 -10.358  1.00  0.00    -0.045 C 
HETATM   52  C28 UNL     1       2.562  54.971 -10.493  1.00  0.00     0.087 C 
HETATM   53  C29 UNL     1       3.634  55.693 -10.269  1.00  0.00     0.283 C 
HETATM   54  O8  UNL     1       3.511  56.941 -10.312  1.00  0.00    -0.260 OA
HETATM   55  O9  UNL     1       4.706  54.792 -10.210  1.00  0.00    -0.314 OA
HETATM   56  C30 UNL     1       4.062  53.420 -10.163  1.00  0.00     0.213 C 
ENDBRANCH  16  51
TORSDOF 8
ENDMDL
