MODEL 1
REMARK minimizedAffinity -6.73595858
REMARK  9 active torsions:
REMARK  status: ('A' for Active; 'I' for Inactive)
REMARK    1  A    between atoms: N1_1  and  C1_2 
REMARK    2  A    between atoms: N5_13  and  C6_14 
REMARK    3  A    between atoms: C6_14  and  C7_15 
REMARK    4  A    between atoms: C7_15  and  C8_16 
REMARK    5  A    between atoms: C7_15  and  O1_18 
REMARK    6  A    between atoms: O1_18  and  C9_19 
REMARK    7  A    between atoms: C9_19  and  P1_20 
REMARK    8  A    between atoms: P1_20  and  O3_22 
REMARK    9  A    between atoms: P1_20  and  O4_23 
ROOT
HETATM    1  C1  UNL     1      -0.737   2.487  11.416  1.00  0.00     0.109 A 
HETATM    2  N2  UNL     1      -0.023   3.593  11.729  1.00  0.00    -0.341 N 
ATOM      3  H2  UNL     1       0.993   3.601  11.643  1.00  0.00     0.167 HD
HETATM    4  C2  UNL     1      -0.691   4.687  12.159  1.00  0.00     0.183 A 
HETATM    5  N3  UNL     1      -2.020   4.854  12.315  1.00  0.00    -0.336 N 
ATOM      6  H3  UNL     1      -2.464   5.713  12.640  1.00  0.00     0.168 HD
HETATM    7  C3  UNL     1      -2.678   3.731  11.980  1.00  0.00     0.140 A 
HETATM    8  C4  UNL     1      -2.137   2.539  11.528  1.00  0.00     0.116 A 
HETATM    9  N4  UNL     1      -3.132   1.619  11.256  1.00  0.00    -0.346 N 
ATOM     10  H4  UNL     1      -3.021   0.667  10.907  1.00  0.00     0.167 HD
HETATM   11  C5  UNL     1      -4.255   2.243  11.548  1.00  0.00     0.185 A 
HETATM   12  N5  UNL     1      -4.027   3.515  12.000  1.00  0.00    -0.325 N 
ENDROOT
BRANCH  12  13
HETATM   13  C6  UNL     1      -5.030   4.472  12.428  1.00  0.00     0.165 C 
BRANCH  13  14
HETATM   14  C7  UNL     1      -6.188   3.786  13.160  1.00  0.00     0.169 C 
BRANCH  14  15
HETATM   15  C8  UNL     1      -6.806   2.721  12.253  1.00  0.00     0.255 C 
HETATM   16  F1  UNL     1      -7.597   1.896  12.992  1.00  0.00    -0.253 F 
ENDBRANCH  14  15
BRANCH  14  17
HETATM   17  O1  UNL     1      -7.135   4.807  13.515  1.00  0.00    -0.370 OA
BRANCH  17  18
HETATM   18  C9  UNL     1      -6.605   5.836  14.360  1.00  0.00     0.292 C 
BRANCH  18  19
HETATM   19  P1  UNL     1      -7.783   6.132  15.679  1.00  0.00     0.260 P 
HETATM   20  O2  UNL     1      -8.951   7.027  15.432  1.00  0.00    -0.652 OA
BRANCH  19  21
HETATM   21  O3  UNL     1      -8.261   4.682  16.177  1.00  0.00    -0.328 OA
HETATM   22  H12 UNL     1      -9.025   4.731  16.780  1.00  0.00     0.220 HD
ENDBRANCH  19  21
BRANCH  19  23
HETATM   23  O4  UNL     1      -6.925   6.605  16.949  1.00  0.00    -0.328 OA
HETATM   24  H13 UNL     1      -7.469   7.024  17.641  1.00  0.00     0.220 HD
ENDBRANCH  19  23
ENDBRANCH  18  19
ENDBRANCH  17  18
ENDBRANCH  14  17
ENDBRANCH  13  14
ENDBRANCH  12  13
BRANCH   1  25
HETATM   25  N1  UNL     1      -0.050   1.362  10.979  1.00  0.00    -0.287 NA
HETATM   26  H1  UNL     1       0.860   1.592  10.604  1.00  0.00     0.125 HD
HETATM   27  H2  UNL     1      -0.631   0.716  10.456  1.00  0.00     0.125 HD
ENDBRANCH   1  25
TORSDOF 9
ENDMDL
