MODEL 1
REMARK minimizedAffinity -10.0304785
REMARK CNNscore 0.645236015
REMARK CNNaffinity 7.58976603
REMARK  11 active torsions:
REMARK  status: ('A' for Active; 'I' for Inactive)
REMARK    1  A    between atoms: C2_2  and  C4_4 
REMARK    2  A    between atoms: C4_4  and  C6_6 
REMARK    3  A    between atoms: C7_7  and  C8_8 
REMARK    4  A    between atoms: C8_8  and  C10_10 
REMARK    5  A    between atoms: C24_24  and  O1_25 
REMARK    6  A    between atoms: O1_25  and  C25_26 
REMARK    7  A    between atoms: C26_28  and  C27_29 
REMARK    8  A    between atoms: C27_29  and  O3_30 
REMARK    9  A    between atoms: C28_31  and  O4_32 
REMARK   10  A    between atoms: C29_33  and  O5_34 
REMARK   11  A    between atoms: C30_35  and  O6_36 
ROOT
HETATM    1  C10 UNL     1      -3.438  51.144 -24.090  1.00  0.00     0.001 C 
HETATM    2  C11 UNL     1      -4.746  51.859 -23.660  1.00  0.00     0.006 C 
HETATM    3  C12 UNL     1      -4.729  51.900 -22.118  1.00  0.00     0.009 C 
HETATM    4  C13 UNL     1      -3.370  51.318 -21.743  1.00  0.00     0.036 C 
HETATM    5  C14 UNL     1      -3.083  50.269 -22.847  1.00  0.00    -0.033 C 
HETATM    6  C15 UNL     1      -3.946  48.995 -22.753  1.00  0.00     0.016 C 
HETATM    7  C16 UNL     1      -1.596  49.885 -22.745  1.00  0.00     0.010 C 
HETATM    8  C17 UNL     1      -1.236  49.355 -21.343  1.00  0.00     0.010 C 
HETATM    9  C18 UNL     1      -1.621  50.334 -20.210  1.00  0.00     0.039 C 
HETATM   10  C19 UNL     1      -3.094  50.871 -20.303  1.00  0.00     0.123 C 
HETATM   11  C20 UNL     1      -4.100  49.955 -19.655  1.00  0.00     0.014 C 
HETATM   12  C21 UNL     1      -3.839  49.698 -18.366  1.00  0.00     0.014 C 
HETATM   13  C22 UNL     1      -2.552  50.328 -17.869  1.00  0.00     0.124 C 
HETATM   14  C23 UNL     1      -2.350  50.114 -16.363  1.00  0.00     0.078 C 
HETATM   15  C24 UNL     1      -0.969  50.560 -15.860  1.00  0.00     0.128 C 
HETATM   16  C31 UNL     1      -0.096  51.231 -16.919  1.00  0.00     0.033 C 
HETATM   17  C32 UNL     1       0.011  50.414 -18.211  1.00  0.00     0.015 C 
HETATM   18  C33 UNL     1      -1.341  49.828 -18.731  1.00  0.00     0.001 C 
HETATM   19  C34 UNL     1      -1.221  48.281 -18.648  1.00  0.00     0.019 C 
HETATM   20  O7  UNL     1      -2.679  51.760 -18.085  1.00  0.00    -0.223 OA
HETATM   21  O8  UNL     1      -3.134  52.067 -19.475  1.00  0.00    -0.224 OA
ENDROOT
BRANCH  15  22
HETATM   22  O1  UNL     1      -0.257  49.400 -15.400  1.00  0.00    -0.353 OA
BRANCH  22  23
HETATM   23  C25 UNL     1       0.775  49.706 -14.453  1.00  0.00     0.292 C 
HETATM   24  O2  UNL     1       1.788  50.474 -15.110  1.00  0.00    -0.348 OA
HETATM   25  C26 UNL     1       2.866  50.837 -14.246  1.00  0.00     0.179 C 
HETATM   26  C28 UNL     1       3.597  49.573 -13.776  1.00  0.00     0.180 C 
HETATM   27  C29 UNL     1       2.614  48.634 -13.082  1.00  0.00     0.183 C 
HETATM   28  C30 UNL     1       1.364  48.376 -13.928  1.00  0.00     0.204 C 
BRANCH  25  29
HETATM   29  C27 UNL     1       3.825  51.763 -15.013  1.00  0.00     0.198 C 
BRANCH  29  30
HETATM   30  O3  UNL     1       3.126  52.791 -15.712  1.00  0.00    -0.398 OA
HETATM   31  H41 UNL     1       2.396  53.095 -15.128  1.00  0.00     0.209 HD
ENDBRANCH  29  30
ENDBRANCH  25  29
BRANCH  26  32
HETATM   32  O4  UNL     1       4.666  49.902 -12.880  1.00  0.00    -0.390 OA
HETATM   33  H43 UNL     1       4.935  49.058 -12.458  1.00  0.00     0.210 HD
ENDBRANCH  26  32
BRANCH  27  34
HETATM   34  O5  UNL     1       3.275  47.387 -12.784  1.00  0.00    -0.390 OA
HETATM   35  H45 UNL     1       3.456  46.926 -13.625  1.00  0.00     0.210 HD
ENDBRANCH  27  34
BRANCH  28  36
HETATM   36  O6  UNL     1       0.417  47.656 -13.125  1.00  0.00    -0.388 OA
HETATM   37  H47 UNL     1       0.909  46.939 -12.682  1.00  0.00     0.210 HD
ENDBRANCH  28  36
ENDBRANCH  22  23
ENDBRANCH  15  22
BRANCH   1  38
HETATM   38  C8  UNL     1      -3.447  50.510 -25.505  1.00  0.00     0.008 C 
HETATM   39  C9  UNL     1      -4.230  49.187 -25.482  1.00  0.00     0.014 C 
BRANCH  38  40
HETATM   40  C7  UNL     1      -2.102  50.352 -26.188  1.00  0.00    -0.026 C 
HETATM   41  C6  UNL     1      -1.248  51.334 -26.526  1.00  0.00    -0.026 C 
BRANCH  41  42
HETATM   42  C4  UNL     1       0.111  51.097 -27.159  1.00  0.00     0.007 C 
HETATM   43  C5  UNL     1       0.290  52.102 -28.303  1.00  0.00     0.014 C 
BRANCH  42  44
HETATM   44  C2  UNL     1       1.247  51.193 -26.103  1.00  0.00    -0.015 C 
HETATM   45  C1  UNL     1       2.602  51.500 -26.755  1.00  0.00     0.010 C 
HETATM   46  C3  UNL     1       0.964  52.262 -25.041  1.00  0.00     0.010 C 
ENDBRANCH  42  44
ENDBRANCH  41  42
ENDBRANCH  38  40
ENDBRANCH   1  38
TORSDOF 11
ENDMDL
