MODEL 1
REMARK minimizedAffinity -8.6442461
REMARK CNNscore 0.611799955
REMARK CNNaffinity 7.56462812
REMARK  14 active torsions:
REMARK  status: ('A' for Active; 'I' for Inactive)
REMARK    1  A    between atoms: O1_2  and  C2_3 
REMARK    2  A    between atoms: C2_3  and  C3_5 
REMARK    3  A    between atoms: C3_5  and  C4_6 
REMARK    4  A    between atoms: C3_5  and  N2_16 
REMARK    5  A    between atoms: C4_6  and  C5_7 
REMARK       I    between atoms: N2_16  and  C13_17 
REMARK    6  A    between atoms: C13_17  and  C14_19 
REMARK    7  A    between atoms: C14_19  and  C15_20 
REMARK    8  A    between atoms: C15_20  and  C16_21 
REMARK    9  A    between atoms: C16_21  and  O5_23 
REMARK   10  A    between atoms: O5_23  and  C17_24 
REMARK   11  A    between atoms: C17_24  and  C18_25 
REMARK   12  A    between atoms: C18_25  and  C19_27 
REMARK   13  A    between atoms: C19_27  and  O7_28 
REMARK   14  A    between atoms: C34_44  and  O9_45 
ROOT
HETATM    1  C17 UNL     1      -1.420  52.887 -12.045  1.00  0.00     0.260 C 
ENDROOT
BRANCH   1   2
HETATM    2  O5  UNL     1      -2.026  51.704 -12.558  1.00  0.00    -0.314 OA
BRANCH   2   3
HETATM    3  C16 UNL     1      -1.662  51.360 -13.826  1.00  0.00     0.259 C 
HETATM    4  O4  UNL     1      -0.555  51.534 -14.316  1.00  0.00    -0.265 OA
BRANCH   3   5
HETATM    5  C15 UNL     1      -2.798  50.680 -14.541  1.00  0.00     0.120 C 
BRANCH   5   6
HETATM    6  C14 UNL     1      -2.556  49.187 -14.693  1.00  0.00     0.112 C 
BRANCH   6   7
HETATM    7  C13 UNL     1      -2.438  48.795 -16.149  1.00  0.00     0.218 C 
HETATM    8  N2  UNL     1      -2.388  49.874 -16.998  1.00  0.00    -0.347 N 
HETATM    9  H13 UNL     1      -2.523  50.812 -16.640  1.00  0.00     0.163 HD
HETATM   10  O3  UNL     1      -2.395  47.634 -16.537  1.00  0.00    -0.274 OA
BRANCH   8  11
HETATM   11  C3  UNL     1      -2.335  49.722 -18.466  1.00  0.00     0.188 C 
BRANCH  11  12
HETATM   12  C2  UNL     1      -3.063  50.900 -19.147  1.00  0.00     0.281 C 
HETATM   13  O2  UNL     1      -3.101  52.050 -18.735  1.00  0.00    -0.263 OA
BRANCH  12  14
HETATM   14  O1  UNL     1      -3.686  50.490 -20.298  1.00  0.00    -0.325 OA
HETATM   15  C1  UNL     1      -3.958  49.087 -20.341  1.00  0.00     0.213 C 
ENDBRANCH  12  14
ENDBRANCH  11  12
BRANCH  11  16
HETATM   16  C4  UNL     1      -0.877  49.650 -18.944  1.00  0.00     0.076 C 
BRANCH  16  17
HETATM   17  C5  UNL     1      -0.170  50.972 -18.918  1.00  0.00    -0.028 A 
HETATM   18  C6  UNL     1       0.247  51.659 -17.795  1.00  0.00     0.096 A 
HETATM   19  N1  UNL     1       0.840  52.824 -18.198  1.00  0.00    -0.365 N 
HETATM   20  C7  UNL     1       0.831  52.914 -19.569  1.00  0.00     0.042 A 
HETATM   21  H8  UNL     1       1.224  53.525 -17.581  1.00  0.00     0.165 HD
HETATM   22  C8  UNL     1       1.325  53.919 -20.410  1.00  0.00     0.030 A 
HETATM   23  C12 UNL     1       0.203  51.765 -20.052  1.00  0.00    -0.002 A 
HETATM   24  C9  UNL     1       1.176  53.739 -21.788  1.00  0.00     0.002 A 
HETATM   25  C10 UNL     1       0.556  52.603 -22.301  1.00  0.00     0.001 A 
HETATM   26  C11 UNL     1       0.062  51.612 -21.447  1.00  0.00     0.014 A 
ENDBRANCH  16  17
ENDBRANCH  11  16
ENDBRANCH   8  11
ENDBRANCH   6   7
ENDBRANCH   5   6
ENDBRANCH   3   5
ENDBRANCH   2   3
ENDBRANCH   1   2
BRANCH   1  27
HETATM   27  C18 UNL     1      -1.623  53.113 -10.545  1.00  0.00     0.185 C 
HETATM   28  O6  UNL     1      -2.726  53.492 -10.137  1.00  0.00    -0.292 OA
BRANCH  27  29
HETATM   29  C19 UNL     1      -0.452  52.803  -9.562  1.00  0.00     0.128 C 
HETATM   30  C20 UNL     1       0.632  51.992 -10.294  1.00  0.00     0.047 C 
HETATM   31  C21 UNL     1       1.494  53.023 -10.998  1.00  0.00     0.009 C 
HETATM   32  C22 UNL     1       1.463  54.285 -10.116  1.00  0.00     0.002 C 
HETATM   33  C23 UNL     1       2.876  54.594  -9.549  1.00  0.00    -0.002 C 
HETATM   34  C36 UNL     1       0.357  54.047  -9.036  1.00  0.00     0.001 C 
HETATM   35  C24 UNL     1       3.774  55.197 -10.627  1.00  0.00     0.010 C 
HETATM   36  C33 UNL     1       2.795  55.522  -8.314  1.00  0.00     0.031 C 
HETATM   37  C25 UNL     1       5.215  55.288 -10.145  1.00  0.00     0.035 C 
HETATM   38  C26 UNL     1       5.374  55.662  -8.691  1.00  0.00    -0.068 C 
HETATM   39  C27 UNL     1       6.593  55.504  -8.136  1.00  0.00     0.053 C 
HETATM   40  C31 UNL     1       4.173  56.250  -7.939  1.00  0.00    -0.014 C 
HETATM   41  C28 UNL     1       6.907  55.975  -6.769  1.00  0.00     0.149 C 
HETATM   42  O8  UNL     1       8.031  55.787  -6.310  1.00  0.00    -0.293 OA
HETATM   43  C29 UNL     1       5.850  56.749  -6.028  1.00  0.00     0.084 C 
HETATM   44  C30 UNL     1       4.465  56.235  -6.405  1.00  0.00     0.022 C 
HETATM   45  C32 UNL     1       4.056  57.738  -8.375  1.00  0.00     0.020 C 
HETATM   46  C34 UNL     1       2.090  54.733  -7.184  1.00  0.00     0.124 C 
HETATM   47  C35 UNL     1       1.006  53.743  -7.657  1.00  0.00     0.045 C 
HETATM   48  C37 UNL     1      -0.536  55.294  -8.896  1.00  0.00     0.019 C 
BRANCH  29  49
HETATM   49  O7  UNL     1      -0.925  52.000  -8.484  1.00  0.00    -0.381 OA
HETATM   50  H20 UNL     1      -1.059  51.096  -8.828  1.00  0.00     0.211 HD
ENDBRANCH  29  49
BRANCH  46  51
HETATM   51  O9  UNL     1       1.541  55.638  -6.229  1.00  0.00    -0.395 OA
HETATM   52  H41 UNL     1       0.671  55.937  -6.540  1.00  0.00     0.210 HD
ENDBRANCH  46  51
ENDBRANCH  27  29
ENDBRANCH   1  27
TORSDOF 14
ENDMDL
