MODEL 1
REMARK minimizedAffinity -8.46200466
REMARK CNNscore 0.424076766
REMARK CNNaffinity 6.78583527
REMARK  6 active torsions:
REMARK  status: ('A' for Active; 'I' for Inactive)
REMARK    1  A    between atoms: C2_2  and  C30_32 
REMARK    2  A    between atoms: C3_3  and  C4_4 
REMARK    3  A    between atoms: C4_4  and  C5_5 
REMARK    4  A    between atoms: C5_5  and  C6_6 
REMARK    5  A    between atoms: C6_6  and  C8_8 
REMARK    6  A    between atoms: C30_32  and  O4_34 
ROOT
HETATM    1  C8  UNL     1      -8.654   5.976  14.156  1.00  0.00    -0.002 C 
HETATM    2  C9  UNL     1      -8.985   5.235  12.828  1.00  0.00     0.007 C 
HETATM    3  C10 UNL     1      -7.656   4.761  12.212  1.00  0.00     0.015 C 
HETATM    4  C11 UNL     1      -6.620   4.904  13.341  1.00  0.00    -0.005 C 
HETATM    5  C12 UNL     1      -6.735   3.630  14.234  1.00  0.00     0.021 C 
HETATM    6  C13 UNL     1      -5.137   5.014  13.009  1.00  0.00    -0.000 C 
HETATM    7  C14 UNL     1      -4.282   5.700  13.813  1.00  0.00    -0.060 C 
HETATM    8  C15 UNL     1      -4.809   6.430  15.057  1.00  0.00     0.036 C 
HETATM    9  C16 UNL     1      -6.331   6.425  15.310  1.00  0.00     0.015 C 
HETATM   10  C17 UNL     1      -7.124   6.245  14.011  1.00  0.00    -0.028 C 
HETATM   11  C18 UNL     1      -6.906   7.502  13.109  1.00  0.00     0.016 C 
HETATM   12  C19 UNL     1      -2.759   5.830  13.532  1.00  0.00    -0.014 C 
HETATM   13  C20 UNL     1      -2.521   7.234  12.936  1.00  0.00     0.020 C 
HETATM   14  C21 UNL     1      -1.945   5.656  14.835  1.00  0.00     0.021 C 
HETATM   15  C22 UNL     1      -0.433   5.644  14.669  1.00  0.00     0.080 C 
HETATM   16  C23 UNL     1       0.096   5.407  13.276  1.00  0.00     0.135 C 
HETATM   17  O1  UNL     1       1.256   5.746  13.021  1.00  0.00    -0.297 OA
HETATM   18  C24 UNL     1      -0.763   4.676  12.237  1.00  0.00     0.018 C 
HETATM   19  C25 UNL     1      -0.463   5.306  10.856  1.00  0.00     0.023 C 
HETATM   20  C26 UNL     1      -0.252   3.220  12.204  1.00  0.00     0.023 C 
HETATM   21  C27 UNL     1      -2.288   4.676  12.593  1.00  0.00     0.020 C 
HETATM   22  C28 UNL     1      -3.201   4.563  11.370  1.00  0.00     0.090 C 
HETATM   23  C29 UNL     1      -4.624   4.312  11.792  1.00  0.00     0.157 C 
HETATM   24  O2  UNL     1      -5.343   3.571  11.126  1.00  0.00    -0.293 OA
ENDROOT
BRANCH   1  25
HETATM   25  C6  UNL     1      -9.641   7.156  14.421  1.00  0.00    -0.014 C 
HETATM   26  C7  UNL     1      -9.592   7.638  15.874  1.00  0.00     0.010 C 
BRANCH  25  27
HETATM   27  C5  UNL     1     -11.090   6.731  14.048  1.00  0.00     0.008 C 
BRANCH  27  28
HETATM   28  C4  UNL     1     -12.060   7.905  13.859  1.00  0.00     0.028 C 
BRANCH  28  29
HETATM   29  C3  UNL     1     -13.319   7.461  13.167  1.00  0.00    -0.013 C 
HETATM   30  C2  UNL     1     -14.371   8.229  12.812  1.00  0.00     0.008 C 
HETATM   31  C1  UNL     1     -14.509   9.700  13.078  1.00  0.00     0.055 C 
BRANCH  30  32
HETATM   32  C30 UNL     1     -15.542   7.638  12.109  1.00  0.00     0.171 C 
HETATM   33  O3  UNL     1     -15.926   7.953  10.996  1.00  0.00    -0.646 OA
BRANCH  32  34
HETATM   34  O4  UNL     1     -16.181   6.687  12.811  1.00  0.00    -0.773 OA
HETATM   35  H44 UNL     1     -16.907   6.412  12.214  1.00  0.00     0.167 HD
ENDBRANCH  32  34
ENDBRANCH  30  32
ENDBRANCH  28  29
ENDBRANCH  27  28
ENDBRANCH  25  27
ENDBRANCH   1  25
TORSDOF 6
ENDMDL
