MODEL 1
REMARK minimizedAffinity -8.44846725
REMARK  10 active torsions:
REMARK  status: ('A' for Active; 'I' for Inactive)
REMARK    1  A    between atoms: N1_2  and  C2_3 
REMARK    2  A    between atoms: C2_3  and  C3_4 
REMARK    3  A    between atoms: C3_4  and  O1_5 
REMARK    4  A    between atoms: O1_5  and  C4_6 
REMARK    5  A    between atoms: C4_6  and  C5_8 
REMARK    6  A    between atoms: C17_21  and  O4_22 
REMARK    7  A    between atoms: O4_22  and  C18_23 
REMARK    8  A    between atoms: C18_23  and  C19_25 
REMARK    9  A    between atoms: C19_25  and  C20_26 
REMARK   10  A    between atoms: C20_26  and  O6_29 
ROOT
HETATM    1  C5  UNL     1      -5.638   5.811  13.097  1.00  0.00     0.085 C 
HETATM    2  C6  UNL     1      -4.368   5.468  13.391  1.00  0.00    -0.070 C 
HETATM    3  C7  UNL     1      -3.582   4.799  12.276  1.00  0.00     0.035 C 
HETATM    4  C8  UNL     1      -2.238   4.239  12.735  1.00  0.00     0.010 C 
HETATM    5  C9  UNL     1      -1.331   5.242  13.500  1.00  0.00     0.006 C 
HETATM    6  C10 UNL     1      -2.175   6.236  14.378  1.00  0.00     0.068 C 
HETATM    7  C11 UNL     1      -2.302   7.652  13.803  1.00  0.00     0.132 C 
HETATM    8  O3  UNL     1      -3.211   8.413  14.132  1.00  0.00    -0.298 OA
HETATM    9  C12 UNL     1      -1.183   8.209  12.965  1.00  0.00     0.085 C 
HETATM   10  C13 UNL     1      -0.658   7.192  11.952  1.00  0.00     0.011 C 
HETATM   11  C14 UNL     1       0.293   7.842  10.861  1.00  0.00    -0.016 C 
HETATM   12  C15 UNL     1      -0.555   8.784   9.955  1.00  0.00     0.018 C 
HETATM   13  C16 UNL     1       1.419   8.727  11.445  1.00  0.00     0.018 C 
HETATM   14  C17 UNL     1       0.888   6.721   9.950  1.00  0.00     0.140 C 
HETATM   15  C23 UNL     1       1.542   5.599  10.760  1.00  0.00     0.034 C 
HETATM   16  C24 UNL     1       0.504   4.946  11.660  1.00  0.00     0.012 C 
HETATM   17  C25 UNL     1      -0.128   5.919  12.697  1.00  0.00    -0.035 C 
HETATM   18  C26 UNL     1       0.958   6.238  13.765  1.00  0.00     0.016 C 
HETATM   19  C27 UNL     1      -3.579   5.627  14.691  1.00  0.00     0.022 C 
HETATM   20  C28 UNL     1      -4.262   6.261  15.912  1.00  0.00     0.015 C 
ENDROOT
BRANCH   1  21
HETATM   21  C4  UNL     1      -6.654   6.508  13.902  1.00  0.00     0.283 C 
HETATM   22  O2  UNL     1      -6.588   7.700  14.167  1.00  0.00    -0.260 OA
BRANCH  21  23
HETATM   23  O1  UNL     1      -7.487   5.593  14.442  1.00  0.00    -0.316 OA
BRANCH  23  24
HETATM   24  C3  UNL     1      -7.906   5.850  15.791  1.00  0.00     0.209 C 
BRANCH  24  25
HETATM   25  C2  UNL     1      -9.015   6.905  15.795  1.00  0.00     0.295 C 
BRANCH  25  26
HETATM   26  N1  UNL     1     -10.278   6.460  15.196  1.00  0.00     0.081 N 
HETATM   27  C1  UNL     1     -10.900   7.513  14.389  1.00  0.00     0.306 C 
HETATM   28  H4  UNL     1     -10.917   6.220  15.958  1.00  0.00     0.315 HD
ENDBRANCH  25  26
ENDBRANCH  24  25
ENDBRANCH  23  24
ENDBRANCH  21  23
ENDBRANCH   1  21
BRANCH  14  29
HETATM   29  O4  UNL     1       1.899   7.242   9.062  1.00  0.00    -0.315 OA
BRANCH  29  30
HETATM   30  C18 UNL     1       3.118   6.629   9.075  1.00  0.00     0.262 C 
HETATM   31  O5  UNL     1       3.351   5.507   8.639  1.00  0.00    -0.265 OA
BRANCH  30  32
HETATM   32  C19 UNL     1       4.146   7.565   9.660  1.00  0.00     0.148 C 
BRANCH  32  33
HETATM   33  C20 UNL     1       4.991   6.930  10.778  1.00  0.00     0.059 C 
HETATM   34  C21 UNL     1       4.401   7.136  12.178  1.00  0.00     0.045 C 
HETATM   35  C22 UNL     1       6.400   7.531  10.741  1.00  0.00     0.045 C 
BRANCH  33  36
HETATM   36  O6  UNL     1       5.140   5.534  10.530  1.00  0.00    -0.390 OA
HETATM   37  H34 UNL     1       4.278   5.103  10.710  1.00  0.00     0.210 HD
ENDBRANCH  33  36
ENDBRANCH  32  33
ENDBRANCH  30  32
ENDBRANCH  29  30
ENDBRANCH  14  29
TORSDOF 10
ENDMDL
