MODEL 1
REMARK minimizedAffinity -8.11926842
REMARK CNNscore 0.695174277
REMARK CNNaffinity 7.27900457
REMARK  13 active torsions:
REMARK  status: ('A' for Active; 'I' for Inactive)
REMARK    1  A    between atoms: C2_2  and  C3_3 
REMARK    2  A    between atoms: C2_2  and  C26_30 
REMARK    3  A    between atoms: C4_4  and  C5_5 
REMARK    4  A    between atoms: C5_5  and  C7_7 
REMARK    5  A    between atoms: C9_9  and  O1_10 
REMARK    6  A    between atoms: C20_21  and  O2_22 
REMARK    7  A    between atoms: C23_25  and  O3_26 
REMARK    8  A    between atoms: C25_28  and  O4_29 
REMARK    9  A    between atoms: C26_30  and  C28_32 
REMARK       I    between atoms: C28_32  and  N1_34 
REMARK   10  A    between atoms: N1_34  and  C29_35 
REMARK   11  A    between atoms: C29_35  and  C30_36 
REMARK   12  A    between atoms: C30_36  and  O6_37 
REMARK   13  A    between atoms: O6_37  and  S1_38 
ROOT
HETATM    1  C7  UNL     1      -2.735  52.123 -12.803  1.00  0.00     0.005 C 
HETATM    2  C8  UNL     1      -3.849  52.417 -11.756  1.00  0.00     0.038 C 
HETATM    3  C9  UNL     1      -3.174  53.201 -10.615  1.00  0.00     0.126 C 
HETATM    4  C10 UNL     1      -1.728  53.379 -11.073  1.00  0.00     0.059 C 
HETATM    5  C11 UNL     1      -1.434  52.108 -11.935  1.00  0.00    -0.015 C 
HETATM    6  C12 UNL     1      -1.301  50.777 -11.165  1.00  0.00     0.018 C 
HETATM    7  C13 UNL     1      -0.110  52.380 -12.679  1.00  0.00     0.123 A 
HETATM    8  C14 UNL     1       1.038  52.737 -11.711  1.00  0.00     0.122 A 
HETATM    9  C15 UNL     1       0.701  53.953 -10.809  1.00  0.00     0.046 C 
HETATM   10  C16 UNL     1       1.896  54.453  -9.905  1.00  0.00    -0.030 C 
HETATM   11  C17 UNL     1       2.387  53.336  -8.950  1.00  0.00     0.016 C 
HETATM   12  C18 UNL     1       3.107  54.870 -10.808  1.00  0.00     0.012 C 
HETATM   13  C19 UNL     1       3.760  56.212 -10.450  1.00  0.00     0.032 C 
HETATM   14  C20 UNL     1       3.863  56.467  -8.951  1.00  0.00     0.118 C 
HETATM   15  C21 UNL     1       2.523  56.311  -8.224  1.00  0.00     0.039 C 
HETATM   16  C22 UNL     1       1.413  55.710  -9.112  1.00  0.00     0.025 C 
HETATM   17  C23 UNL     1       0.114  55.460  -8.326  1.00  0.00     0.126 C 
HETATM   18  C24 UNL     1      -1.012  55.007  -9.258  1.00  0.00     0.071 C 
HETATM   19  C25 UNL     1      -0.643  53.737 -10.037  1.00  0.00     0.073 C 
HETATM   20 NA1  UNL     1      -0.748  51.894 -13.142  1.00  0.00    -0.420 Na
ATOM     21  HA1 UNL     1      -1.477  51.448 -13.699  1.00  0.00     0.153 HD
ENDROOT
BRANCH   1  22
HETATM   22  C5  UNL     1      -3.087  50.988 -13.806  1.00  0.00     0.009 C 
HETATM   23  C6  UNL     1      -2.930  49.544 -13.307  1.00  0.00     0.014 C 
BRANCH  22  24
HETATM   24  C4  UNL     1      -2.471  51.252 -15.164  1.00  0.00    -0.026 C 
HETATM   25  C3  UNL     1      -1.809  50.390 -15.952  1.00  0.00    -0.025 C 
BRANCH  25  26
HETATM   26  C2  UNL     1      -1.259  50.766 -17.318  1.00  0.00     0.016 C 
HETATM   27  C1  UNL     1       0.263  50.584 -17.284  1.00  0.00     0.015 C 
BRANCH  26  28
HETATM   28  C26 UNL     1      -1.949  49.922 -18.420  1.00  0.00     0.081 C 
HETATM   29  C27 UNL     1      -0.964  49.322 -19.429  1.00  0.00     0.020 C 
BRANCH  28  30
HETATM   30  C28 UNL     1      -2.962  50.761 -19.209  1.00  0.00     0.222 C 
HETATM   31  O5  UNL     1      -3.077  51.976 -19.085  1.00  0.00    -0.273 OA
HETATM   32  N1  UNL     1      -3.673  50.020 -20.133  1.00  0.00    -0.359 N 
HETATM   33  H46 UNL     1      -3.687  49.014 -20.022  1.00  0.00     0.162 HD
BRANCH  32  34
HETATM   34  C29 UNL     1      -4.768  50.605 -20.891  1.00  0.00     0.150 C 
BRANCH  34  35
HETATM   35  C30 UNL     1      -4.408  50.791 -22.358  1.00  0.00     0.212 C 
BRANCH  35  36
HETATM   36  O6  UNL     1      -3.747  52.031 -22.522  1.00  0.00    -0.255 OA
BRANCH  36  37
HETATM   37  S1  UNL     1      -2.291  51.992 -23.258  1.00  0.00     0.251 S 
HETATM   38  O7  UNL     1      -1.352  52.242 -22.167  1.00  0.00    -0.572 OA
HETATM   39  O8  UNL     1      -2.223  50.643 -23.817  1.00  0.00    -0.572 OA
HETATM   40  O9  UNL     1      -2.382  53.059 -24.250  1.00  0.00    -0.572 OA
ENDBRANCH  36  37
ENDBRANCH  35  36
ENDBRANCH  34  35
ENDBRANCH  32  34
ENDBRANCH  28  30
ENDBRANCH  26  28
ENDBRANCH  25  26
ENDBRANCH  22  24
ENDBRANCH   1  22
BRANCH   3  41
HETATM   41  O1  UNL     1      -3.238  52.481  -9.387  1.00  0.00    -0.395 OA
HETATM   42  H15 UNL     1      -4.183  52.368  -9.176  1.00  0.00     0.210 HD
ENDBRANCH   3  41
BRANCH  19  43
HETATM   43  O4  UNL     1      -0.525  52.688  -9.081  1.00  0.00    -0.389 OA
HETATM   44  H41 UNL     1      -1.444  52.425  -8.846  1.00  0.00     0.210 HD
ENDBRANCH  19  43
BRANCH  17  45
HETATM   45  O3  UNL     1      -0.313  56.676  -7.705  1.00  0.00    -0.395 OA
HETATM   46  H38 UNL     1       0.077  56.686  -6.812  1.00  0.00     0.210 HD
ENDBRANCH  17  45
BRANCH  14  47
HETATM   47  O2  UNL     1       4.817  55.582  -8.367  1.00  0.00    -0.396 OA
HETATM   48  H33 UNL     1       5.639  55.650  -8.879  1.00  0.00     0.210 HD
ENDBRANCH  14  47
TORSDOF 13
ENDMDL
