MODEL 1
REMARK minimizedAffinity -6.60210848
REMARK CNNscore 0.602487445
REMARK CNNaffinity 6.84047174
REMARK  10 active torsions:
REMARK  status: ('A' for Active; 'I' for Inactive)
REMARK    1  A    between atoms: C2_2  and  C3_4 
REMARK    2  A    between atoms: C10_12  and  O3_13 
REMARK    3  A    between atoms: C13_16  and  C14_17 
REMARK    4  A    between atoms: C14_17  and  C16_19 
REMARK    5  A    between atoms: C16_19  and  C17_20 
REMARK    6  A    between atoms: C17_20  and  C18_21 
REMARK    7  A    between atoms: C26_29  and  C27_30 
REMARK    8  A    between atoms: C27_30  and  C28_31 
REMARK    9  A    between atoms: C28_31  and  C29_32 
REMARK   10  A    between atoms: C29_32  and  O4_33 
ROOT
HETATM    1  C3  UNL     1      -3.774  50.102 -10.866  1.00  0.00     0.151 A 
HETATM    2  O2  UNL     1      -4.511  51.093 -10.119  1.00  0.00    -0.360 OA
HETATM    3  C4  UNL     1      -3.591  50.297  -9.381  1.00  0.00     0.166 A 
HETATM    4  C5  UNL     1      -2.320  50.911  -8.927  1.00  0.00     0.041 C 
HETATM    5  C6  UNL     1      -1.868  52.156  -9.726  1.00  0.00     0.006 C 
HETATM    6  C7  UNL     1      -2.132  52.093 -11.306  1.00  0.00    -0.030 C 
HETATM    7  C8  UNL     1      -3.198  53.158 -11.716  1.00  0.00     0.016 C 
HETATM    8  C9  UNL     1      -0.839  52.454 -12.121  1.00  0.00     0.042 C 
HETATM    9  C10 UNL     1       0.074  53.597 -11.616  1.00  0.00     0.128 C 
HETATM   10  C11 UNL     1       0.027  53.874 -10.094  1.00  0.00    -0.006 C 
HETATM   11  C12 UNL     1      -0.958  55.063  -9.835  1.00  0.00     0.019 C 
HETATM   12  C13 UNL     1       1.373  54.234  -9.358  1.00  0.00     0.001 C 
HETATM   13  C22 UNL     1       1.069  53.835  -7.881  1.00  0.00     0.007 C 
HETATM   14  C23 UNL     1      -0.200  52.967  -7.882  1.00  0.00     0.011 C 
HETATM   15  C24 UNL     1      -0.395  52.551  -9.353  1.00  0.00    -0.029 C 
HETATM   16  C25 UNL     1       0.568  51.339  -9.591  1.00  0.00     0.016 C 
HETATM   17  C26 UNL     1      -2.635  50.635 -11.747  1.00  0.00     0.039 C 
ENDROOT
BRANCH  12  18
HETATM   18  C14 UNL     1       1.959  55.679  -9.466  1.00  0.00    -0.013 C 
HETATM   19  C15 UNL     1       2.909  55.835 -10.659  1.00  0.00     0.010 C 
BRANCH  18  20
HETATM   20  C16 UNL     1       2.694  56.060  -8.149  1.00  0.00     0.008 C 
BRANCH  20  21
HETATM   21  C17 UNL     1       3.888  57.002  -8.352  1.00  0.00     0.028 C 
BRANCH  21  22
HETATM   22  C18 UNL     1       5.078  56.545  -7.552  1.00  0.00    -0.025 C 
HETATM   23  C19 UNL     1       6.094  55.759  -7.960  1.00  0.00    -0.091 C 
HETATM   24  C20 UNL     1       6.211  55.130  -9.321  1.00  0.00     0.042 C 
HETATM   25  C21 UNL     1       7.226  55.424  -7.025  1.00  0.00     0.042 C 
ENDBRANCH  21  22
ENDBRANCH  20  21
ENDBRANCH  18  20
ENDBRANCH  12  18
BRANCH   9  26
HETATM   26  O3  UNL     1       1.404  53.272 -12.027  1.00  0.00    -0.395 OA
HETATM   27  H14 UNL     1       1.412  53.237 -13.000  1.00  0.00     0.210 HD
ENDBRANCH   9  26
BRANCH  17  28
HETATM   28  C27 UNL     1      -2.994  50.540 -13.260  1.00  0.00     0.011 C 
BRANCH  28  29
HETATM   29  C28 UNL     1      -2.101  49.656 -14.141  1.00  0.00     0.027 C 
BRANCH  29  30
HETATM   30  C29 UNL     1      -2.565  49.526 -15.586  1.00  0.00     0.164 C 
BRANCH  30  31
HETATM   31  O4  UNL     1      -3.643  50.427 -15.799  1.00  0.00    -0.401 OA
HETATM   32  H48 UNL     1      -4.004  50.239 -16.682  1.00  0.00     0.209 HD
ENDBRANCH  30  31
ENDBRANCH  29  30
ENDBRANCH  28  29
ENDBRANCH  17  28
BRANCH   1  33
HETATM   33  C2  UNL     1      -4.550  48.881 -11.230  1.00  0.00     0.160 C 
HETATM   34  C1  UNL     1      -3.766  47.618 -11.438  1.00  0.00     0.094 C 
HETATM   35  O1  UNL     1      -5.764  48.955 -11.385  1.00  0.00    -0.295 OA
ENDBRANCH   1  33
TORSDOF 10
ENDMDL
