MODEL 1
REMARK minimizedAffinity -6.94042444
REMARK CNNscore 0.534918606
REMARK CNNaffinity 6.40495682
REMARK  7 active torsions:
REMARK  status: ('A' for Active; 'I' for Inactive)
REMARK    1  A    between atoms: C2_2  and  C3_3 
REMARK    2  A    between atoms: C2_2  and  C4_5 
REMARK    3  A    between atoms: C3_3  and  O1_4 
REMARK    4  A    between atoms: C4_5  and  C5_7 
REMARK    5  A    between atoms: C5_7  and  C6_8 
REMARK    6  A    between atoms: C6_8  and  C7_9 
REMARK    7  A    between atoms: C7_9  and  C9_11 
ROOT
HETATM    1  C9  UNL     1       7.993  10.032  15.368  1.00  0.00    -0.002 C 
HETATM    2  C10 UNL     1       9.054   9.108  14.705  1.00  0.00     0.007 C 
HETATM    3  C11 UNL     1       8.365   8.357  13.552  1.00  0.00     0.015 C 
HETATM    4  C12 UNL     1       7.027   9.088  13.339  1.00  0.00    -0.005 C 
HETATM    5  C13 UNL     1       7.320  10.319  12.426  1.00  0.00     0.021 C 
HETATM    6  C14 UNL     1       5.861   8.372  12.667  1.00  0.00    -0.000 C 
HETATM    7  C15 UNL     1       4.574   8.697  12.954  1.00  0.00    -0.060 C 
HETATM    8  C16 UNL     1       4.264   9.763  14.017  1.00  0.00     0.036 C 
HETATM    9  C17 UNL     1       5.448  10.377  14.794  1.00  0.00     0.015 C 
HETATM   10  C18 UNL     1       6.655   9.433  14.836  1.00  0.00    -0.028 C 
HETATM   11  C19 UNL     1       6.282   8.175  15.681  1.00  0.00     0.016 C 
HETATM   12  C20 UNL     1       3.346   8.021  12.281  1.00  0.00    -0.014 C 
HETATM   13  C21 UNL     1       2.758   7.020  13.300  1.00  0.00     0.020 C 
HETATM   14  C22 UNL     1       2.286   9.082  11.904  1.00  0.00     0.021 C 
HETATM   15  C23 UNL     1       1.127   8.595  11.043  1.00  0.00     0.080 C 
HETATM   16  C24 UNL     1       1.239   7.186  10.514  1.00  0.00     0.135 C 
HETATM   17  O3  UNL     1       0.206   6.551  10.288  1.00  0.00    -0.297 OA
HETATM   18  C25 UNL     1       2.620   6.618  10.163  1.00  0.00     0.018 C 
HETATM   19  C26 UNL     1       2.589   5.093  10.418  1.00  0.00     0.023 C 
HETATM   20  C27 UNL     1       2.807   6.833   8.646  1.00  0.00     0.023 C 
HETATM   21  C28 UNL     1       3.769   7.350  10.937  1.00  0.00     0.020 C 
HETATM   22  C29 UNL     1       5.018   6.488  11.128  1.00  0.00     0.090 C 
HETATM   23  C30 UNL     1       6.159   7.325  11.642  1.00  0.00     0.157 C 
HETATM   24  O4  UNL     1       7.304   7.121  11.244  1.00  0.00    -0.293 OA
ENDROOT
BRANCH   1  25
HETATM   25  C7  UNL     1       8.235  10.184  16.903  1.00  0.00    -0.013 C 
HETATM   26  C8  UNL     1       7.753  11.538  17.433  1.00  0.00     0.010 C 
BRANCH  25  27
HETATM   27  C6  UNL     1       9.741   9.980  17.229  1.00  0.00     0.012 C 
BRANCH  27  28
HETATM   28  C5  UNL     1      10.535  11.285  17.371  1.00  0.00     0.084 C 
BRANCH  28  29
HETATM   29  C4  UNL     1      11.484  11.265  18.562  1.00  0.00     0.157 C 
HETATM   30  O2  UNL     1      11.151  10.815  19.660  1.00  0.00    -0.293 OA
BRANCH  29  31
HETATM   31  C2  UNL     1      12.881  11.796  18.396  1.00  0.00     0.002 C 
HETATM   32  C1  UNL     1      13.690  11.393  17.401  1.00  0.00     0.025 C 
BRANCH  31  33
HETATM   33  C3  UNL     1      13.302  12.823  19.410  1.00  0.00     0.205 C 
BRANCH  33  34
HETATM   34  O1  UNL     1      13.709  12.186  20.612  1.00  0.00    -0.396 OA
HETATM   35  H5  UNL     1      12.904  11.757  20.968  1.00  0.00     0.209 HD
ENDBRANCH  33  34
ENDBRANCH  31  33
ENDBRANCH  29  31
ENDBRANCH  28  29
ENDBRANCH  27  28
ENDBRANCH  25  27
ENDBRANCH   1  25
TORSDOF 7
ENDMDL
