MODEL 1
REMARK minimizedAffinity -7.87606478
REMARK CNNscore 0.402033985
REMARK CNNaffinity 6.99913073
REMARK  9 active torsions:
REMARK  status: ('A' for Active; 'I' for Inactive)
REMARK       I    between atoms: N1_1  and  C1_2 
REMARK       I    between atoms: C1_2  and  N2_3 
REMARK    1  A    between atoms: N3_4  and  C2_6 
REMARK    2  A    between atoms: C11_16  and  S1_17 
REMARK    3  A    between atoms: S1_17  and  O4_20 
REMARK    4  A    between atoms: C18_27  and  C19_28 
REMARK    5  A    between atoms: C19_28  and  C20_29 
REMARK    6  A    between atoms: C20_29  and  C21_30 
REMARK    7  A    between atoms: C21_30  and  O5_31 
REMARK    8  A    between atoms: C22_33  and  C23_34 
REMARK    9  A    between atoms: C26_37  and  O7_38 
ROOT
HETATM    1  C2  UNL     1      -3.500  51.853 -11.298  1.00  0.00     0.263 C 
HETATM    2  O1  UNL     1      -2.892  50.776 -12.087  1.00  0.00    -0.322 OA
HETATM    3  C3  UNL     1      -1.583  50.992 -12.452  1.00  0.00     0.071 C 
HETATM    4  C4  UNL     1      -1.152  52.154 -13.089  1.00  0.00     0.037 C 
HETATM    5  C5  UNL     1       0.217  52.409 -13.205  1.00  0.00     0.010 C 
HETATM    6  C6  UNL     1       1.154  51.492 -12.708  1.00  0.00    -0.058 C 
HETATM    7  C7  UNL     1       0.705  50.268 -12.200  1.00  0.00     0.010 C 
HETATM    8  C8  UNL     1      -0.662  50.015 -12.083  1.00  0.00     0.037 C 
HETATM    9  C9  UNL     1       2.617  51.858 -12.630  1.00  0.00     0.040 C 
HETATM   10  C10 UNL     1       2.905  52.921 -11.548  1.00  0.00     0.027 C 
HETATM   11  C11 UNL     1       2.493  52.533 -10.101  1.00  0.00     0.130 C 
HETATM   12  C12 UNL     1       2.052  53.782  -9.281  1.00  0.00     0.037 C 
HETATM   13  C13 UNL     1       3.159  54.749  -8.888  1.00  0.00    -0.014 C 
HETATM   14  C14 UNL     1       3.330  55.124  -7.600  1.00  0.00    -0.050 C 
HETATM   15  C15 UNL     1       2.618  54.380  -6.502  1.00  0.00     0.042 C 
HETATM   16  C16 UNL     1       1.144  54.461  -6.903  1.00  0.00     0.001 C 
HETATM   17  C17 UNL     1       0.745  55.933  -7.246  1.00  0.00     0.037 C 
HETATM   18  C18 UNL     1       1.427  57.093  -6.453  1.00  0.00     0.123 C 
HETATM   19  O6  UNL     1       2.842  56.995  -6.195  1.00  0.00    -0.371 OA
HETATM   20  C22 UNL     1       3.729  56.535  -7.232  1.00  0.00     0.183 C 
HETATM   21  C29 UNL     1       1.036  53.451  -8.099  1.00  0.00     0.032 C 
HETATM   22  C30 UNL     1      -0.366  53.165  -8.630  1.00  0.00    -0.053 C 
HETATM   23  C31 UNL     1      -0.886  51.864  -8.515  1.00  0.00     0.008 C 
HETATM   24  C32 UNL     1      -1.987  51.463  -9.274  1.00  0.00     0.012 C 
HETATM   25  C33 UNL     1      -2.577  52.354 -10.178  1.00  0.00    -0.010 C 
HETATM   26  C34 UNL     1      -2.179  53.698 -10.156  1.00  0.00     0.012 C 
HETATM   27  C35 UNL     1      -1.079  54.096  -9.393  1.00  0.00     0.008 C 
ENDROOT
BRANCH   1  28
HETATM   28  N3  UNL     1      -4.858  51.615 -10.782  1.00  0.00    -0.341 N 
HETATM   29  C1  UNL     1      -5.221  50.436 -10.456  1.00  0.00     0.124 C 
HETATM   30  N1  UNL     1      -4.535  49.271 -10.482  1.00  0.00    -0.279 NA
HETATM   31  N2  UNL     1      -6.473  50.220  -9.999  1.00  0.00    -0.279 NA
HETATM   32  H1  UNL     1      -3.678  49.353 -11.028  1.00  0.00     0.126 HD
HETATM   33  H2  UNL     1      -5.103  48.509 -10.836  1.00  0.00     0.126 HD
HETATM   34  H3  UNL     1      -6.941  51.105  -9.825  1.00  0.00     0.126 HD
HETATM   35  H4  UNL     1      -6.495  49.647  -9.164  1.00  0.00     0.126 HD
ATOM     36  H3  UNL     1      -5.510  52.393 -10.685  1.00  0.00     0.164 HD
ENDBRANCH   1  28
BRANCH  11  37
HETATM   37  S1  UNL     1       3.800  51.604  -9.262  1.00  0.00     0.099 S 
HETATM   38  O2  UNL     1       3.638  51.665  -7.824  1.00  0.00    -0.601 OA
HETATM   39  O3  UNL     1       4.083  50.365  -9.955  1.00  0.00    -0.601 OA
BRANCH  37  40
HETATM   40  O4  UNL     1       5.043  52.588  -9.585  1.00  0.00    -0.295 OA
HETATM   41  H15 UNL     1       5.599  52.633  -8.777  1.00  0.00     0.232 HD
ENDBRANCH  37  40
ENDBRANCH  11  37
BRANCH  18  42
HETATM   42  C19 UNL     1       0.797  57.307  -5.061  1.00  0.00     0.034 C 
BRANCH  42  43
HETATM   43  C20 UNL     1      -0.397  56.401  -4.754  1.00  0.00     0.028 C 
BRANCH  43  44
HETATM   44  C21 UNL     1      -1.101  56.789  -3.455  1.00  0.00     0.164 C 
BRANCH  44  45
HETATM   45  O5  UNL     1      -2.358  56.144  -3.322  1.00  0.00    -0.401 OA
HETATM   46  H30 UNL     1      -2.754  56.057  -4.209  1.00  0.00     0.209 HD
ENDBRANCH  44  45
ENDBRANCH  43  44
ENDBRANCH  42  43
ENDBRANCH  18  42
BRANCH  20  47
HETATM   47  C23 UNL     1       5.175  56.606  -6.767  1.00  0.00    -0.025 A 
HETATM   48  C24 UNL     1       5.606  57.545  -5.815  1.00  0.00     0.013 A 
HETATM   49  C25 UNL     1       6.934  57.564  -5.381  1.00  0.00     0.037 A 
HETATM   50  C26 UNL     1       7.839  56.643  -5.892  1.00  0.00     0.065 A 
HETATM   51  C27 UNL     1       7.440  55.698  -6.832  1.00  0.00     0.037 A 
HETATM   52  C28 UNL     1       6.111  55.682  -7.267  1.00  0.00     0.013 A 
BRANCH  50  53
HETATM   53  O7  UNL     1       9.124  56.691  -5.438  1.00  0.00    -0.361 OA
HETATM   54  H34 UNL     1       9.628  55.979  -5.865  1.00  0.00     0.217 HD
ENDBRANCH  50  53
ENDBRANCH  20  47
TORSDOF 9
ENDMDL
