MODEL 1
REMARK minimizedAffinity -5.91778612
REMARK CNNscore 0.466144204
REMARK CNNaffinity 5.27346182
REMARK  6 active torsions:
REMARK  status: ('A' for Active; 'I' for Inactive)
REMARK    1  A    between atoms: C9_10  and  C10_11 
REMARK    2  A    between atoms: C11_13  and  O3_14 
REMARK    3  A    between atoms: C12_15  and  C13_16 
REMARK    4  A    between atoms: C14_18  and  O5_19 
REMARK    5  A    between atoms: C16_21  and  C17_22 
REMARK    6  A    between atoms: C17_22  and  C18_23 
ROOT
HETATM    1  C1  UNL     1     -10.169  40.682 -26.339  1.00  0.00     0.043 C 
HETATM    2  C2  UNL     1     -10.394  42.105 -26.788  1.00  0.00    -0.087 C 
HETATM    3  C3  UNL     1     -10.890  42.347 -28.017  1.00  0.00    -0.024 C 
HETATM    4  C4  UNL     1     -11.178  43.678 -28.637  1.00  0.00     0.030 C 
HETATM    5  C5  UNL     1     -12.667  43.981 -28.805  1.00  0.00     0.042 C 
HETATM    6  C6  UNL     1     -13.621  43.933 -27.567  1.00  0.00     0.069 C 
HETATM    7  C7  UNL     1     -13.928  42.459 -27.207  1.00  0.00     0.047 C 
HETATM    8  O1  UNL     1     -14.882  44.413 -28.149  1.00  0.00    -0.338 OA
HETATM    9  C8  UNL     1     -15.780  44.957 -27.278  1.00  0.00     0.095 A 
HETATM   10  C9  UNL     1     -17.137  44.643 -27.403  1.00  0.00     0.070 A 
HETATM   11  C11 UNL     1     -18.063  45.168 -26.488  1.00  0.00     0.097 A 
HETATM   12  C12 UNL     1     -17.625  46.029 -25.476  1.00  0.00     0.069 A 
HETATM   13  C14 UNL     1     -16.266  46.373 -25.392  1.00  0.00     0.091 A 
HETATM   14  C15 UNL     1     -15.338  45.849 -26.303  1.00  0.00     0.015 A 
HETATM   15  C16 UNL     1     -13.866  46.172 -26.265  1.00  0.00     0.032 C 
HETATM   16  C21 UNL     1     -13.090  44.815 -26.350  1.00  0.00     0.034 C 
HETATM   17  C22 UNL     1     -13.195  44.097 -25.003  1.00  0.00     0.006 A 
HETATM   18  C23 UNL     1     -12.114  43.280 -24.276  1.00  0.00    -0.001 A 
HETATM   19  C24 UNL     1     -10.624  43.110 -24.420  1.00  0.00     0.010 C 
HETATM   20  C25 UNL     1      -9.992  43.182 -25.804  1.00  0.00     0.034 C 
HETATM   21  C26 UNL     1     -12.612  44.611 -23.696  1.00  0.00    -0.039 A 
HETATM   22  C27 UNL     1     -13.492  44.538 -22.468  1.00  0.00     0.015 C 
HETATM   23  C28 UNL     1     -11.705  45.823 -23.682  1.00  0.00     0.015 C 
ENDROOT
BRANCH  15  24
HETATM   24  C17 UNL     1     -13.391  47.171 -27.349  1.00  0.00     0.014 C 
BRANCH  24  25
HETATM   25  C18 UNL     1     -11.863  47.209 -27.593  1.00  0.00    -0.022 C 
HETATM   26  C19 UNL     1     -11.151  48.125 -26.590  1.00  0.00     0.009 C 
HETATM   27  C20 UNL     1     -11.572  47.713 -29.012  1.00  0.00     0.009 C 
ENDBRANCH  24  25
ENDBRANCH  15  24
BRANCH  13  28
HETATM   28  O5  UNL     1     -15.796  47.223 -24.422  1.00  0.00    -0.359 OA
HETATM   29  H15 UNL     1     -16.538  47.440 -23.813  1.00  0.00     0.217 HD
ENDBRANCH  13  28
BRANCH  10  30
HETATM   30  C10 UNL     1     -17.576  43.742 -28.485  1.00  0.00     0.275 C 
HETATM   31  O2  UNL     1     -16.765  43.014 -29.048  1.00  0.00    -0.301 OA
ENDBRANCH  10  30
BRANCH  12  32
HETATM   32  C13 UNL     1     -18.600  46.562 -24.500  1.00  0.00     0.275 C 
HETATM   33  O4  UNL     1     -19.430  47.400 -24.843  1.00  0.00    -0.301 OA
ENDBRANCH  12  32
BRANCH  11  34
HETATM   34  O3  UNL     1     -19.399  44.857 -26.552  1.00  0.00    -0.359 OA
HETATM   35  H13 UNL     1     -19.549  44.247 -27.317  1.00  0.00     0.217 HD
ENDBRANCH  11  34
TORSDOF 6
ENDMDL
