MODEL 1
REMARK minimizedAffinity -9.72017765
REMARK  4 active torsions:
REMARK  status: ('A' for Active; 'I' for Inactive)
REMARK    1  A    between atoms: C14_16  and  C15_17 
REMARK    2  A    between atoms: C15_17  and  C17_19 
REMARK    3  A    between atoms: C17_19  and  C18_20 
REMARK    4  A    between atoms: C18_20  and  C19_21 
ROOT
HETATM    1  C1  UNL     1      -7.185   3.699  13.698  1.00  0.00     0.017 C 
HETATM    2  C2  UNL     1      -6.272   4.035  12.765  1.00  0.00    -0.060 C 
HETATM    3  C3  UNL     1      -6.612   3.911  11.293  1.00  0.00     0.212 C 
HETATM    4  O1  UNL     1      -5.676   3.066  10.627  1.00  0.00    -0.317 OA
HETATM    5  C4  UNL     1      -5.590   1.825  11.177  1.00  0.00     0.259 C 
HETATM    6  O2  UNL     1      -6.540   1.118  11.481  1.00  0.00    -0.265 OA
HETATM    7  C5  UNL     1      -4.149   1.507  11.462  1.00  0.00     0.112 C 
HETATM    8  C6  UNL     1      -3.629   2.313  12.660  1.00  0.00     0.020 C 
HETATM    9  C7  UNL     1      -3.660   3.849  12.480  1.00  0.00    -0.024 A 
HETATM   10  C8  UNL     1      -3.112   4.393  11.178  1.00  0.00     0.022 A 
HETATM   11  C9  UNL     1      -2.327   4.680  12.439  1.00  0.00    -0.027 A 
HETATM   12  C10 UNL     1      -1.009   3.915  12.624  1.00  0.00     0.011 C 
HETATM   13  C11 UNL     1       0.317   4.687  12.505  1.00  0.00     0.011 C 
HETATM   14  C12 UNL     1       0.169   6.207  12.378  1.00  0.00    -0.032 C 
HETATM   15  C13 UNL     1      -0.126   6.527  10.888  1.00  0.00     0.016 C 
HETATM   16  C14 UNL     1       1.385   7.055  12.876  1.00  0.00    -0.002 C 
HETATM   17  C23 UNL     1       0.748   8.406  13.302  1.00  0.00     0.006 C 
HETATM   18  C24 UNL     1      -0.774   8.194  13.347  1.00  0.00     0.011 C 
HETATM   19  C25 UNL     1      -0.962   6.665  13.369  1.00  0.00    -0.032 C 
HETATM   20  C26 UNL     1      -0.757   6.207  14.849  1.00  0.00     0.016 C 
HETATM   21  C27 UNL     1      -2.340   6.180  12.848  1.00  0.00     0.004 C 
HETATM   22  C28 UNL     1      -3.512   6.519  13.778  1.00  0.00     0.007 C 
HETATM   23  C29 UNL     1      -4.832   6.042  13.182  1.00  0.00     0.010 C 
HETATM   24  C30 UNL     1      -4.880   4.508  13.181  1.00  0.00     0.025 C 
ENDROOT
BRANCH  16  25
HETATM   25  C15 UNL     1       2.708   7.214  12.068  1.00  0.00    -0.014 C 
HETATM   26  C16 UNL     1       2.955   8.573  11.400  1.00  0.00     0.010 C 
BRANCH  25  27
HETATM   27  C17 UNL     1       2.889   6.061  11.053  1.00  0.00     0.008 C 
BRANCH  27  28
HETATM   28  C18 UNL     1       3.682   6.424   9.787  1.00  0.00     0.028 C 
BRANCH  28  29
HETATM   29  C19 UNL     1       2.843   6.354   8.539  1.00  0.00    -0.025 C 
HETATM   30  C20 UNL     1       2.534   7.346   7.680  1.00  0.00    -0.091 C 
HETATM   31  C21 UNL     1       1.671   7.069   6.475  1.00  0.00     0.042 C 
HETATM   32  C22 UNL     1       2.981   8.776   7.796  1.00  0.00     0.042 C 
ENDBRANCH  28  29
ENDBRANCH  27  28
ENDBRANCH  25  27
ENDBRANCH  16  25
TORSDOF 4
ENDMDL
