MODEL 1
REMARK minimizedAffinity -7.95312834
REMARK CNNscore 0.414829195
REMARK CNNaffinity 6.83601141
REMARK  19 active torsions:
REMARK  status: ('A' for Active; 'I' for Inactive)
REMARK    1  A    between atoms: C19_20  and  O2_21 
REMARK    2  A    between atoms: C19_20  and  C20_22 
REMARK    3  A    between atoms: C20_22  and  C21_24 
REMARK    4  A    between atoms: C21_24  and  O4_25 
REMARK    5  A    between atoms: O4_25  and  C22_26 
REMARK    6  A    between atoms: C22_26  and  C23_28 
REMARK    7  A    between atoms: C23_28  and  C24_29 
REMARK    8  A    between atoms: C24_29  and  C25_30 
REMARK       I    between atoms: C25_30  and  N1_32 
REMARK    9  A    between atoms: N1_32  and  C26_33 
REMARK   10  A    between atoms: C26_33  and  C27_34 
REMARK   11  A    between atoms: C27_34  and  C28_35 
REMARK   12  A    between atoms: C28_35  and  C29_36 
REMARK   13  A    between atoms: C29_36  and  C30_37 
REMARK   14  A    between atoms: C30_37  and  C31_38 
REMARK       I    between atoms: C31_38  and  N2_40 
REMARK   15  A    between atoms: N2_40  and  C32_41 
REMARK   16  A    between atoms: C32_41  and  C33_42 
REMARK   17  A    between atoms: C33_42  and  C34_43 
REMARK   18  A    between atoms: C37_46  and  O8_47 
REMARK   19  A    between atoms: C38_48  and  O9_49 
ROOT
HETATM    1  C22 UNL     1     -11.919  11.094  17.643  1.00  0.00     0.259 C 
HETATM    2  O5  UNL     1     -10.817  11.513  17.319  1.00  0.00    -0.265 OA
ENDROOT
BRANCH   1   3
HETATM    3  O4  UNL     1     -12.915  10.789  16.771  1.00  0.00    -0.314 OA
BRANCH   3   4
HETATM    4  C21 UNL     1     -12.941   9.457  16.282  1.00  0.00     0.260 C 
BRANCH   4   5
HETATM    5  C20 UNL     1     -13.327   9.027  14.850  1.00  0.00     0.185 C 
HETATM    6  O3  UNL     1     -14.526   8.980  14.545  1.00  0.00    -0.292 OA
BRANCH   5   7
HETATM    7  C19 UNL     1     -12.214   8.801  13.780  1.00  0.00     0.128 C 
HETATM    8  C14 UNL     1     -11.369   7.501  13.994  1.00  0.00    -0.002 C 
HETATM    9  C13 UNL     1     -10.567   7.134  12.712  1.00  0.00     0.013 C 
HETATM   10  C15 UNL     1     -12.227   6.290  14.400  1.00  0.00     0.019 C 
HETATM   11  C16 UNL     1     -10.406   7.917  15.130  1.00  0.00     0.002 C 
HETATM   12  C12 UNL     1      -9.423   6.147  12.954  1.00  0.00     0.007 C 
HETATM   13  C11 UNL     1      -8.442   6.642  14.035  1.00  0.00     0.002 C 
HETATM   14  C2  UNL     1      -7.209   5.677  14.255  1.00  0.00    -0.016 C 
HETATM   15  C10 UNL     1      -9.213   6.956  15.341  1.00  0.00    -0.004 C 
HETATM   16  C1  UNL     1      -7.651   4.220  14.527  1.00  0.00     0.020 C 
HETATM   17  C3  UNL     1      -6.336   5.708  12.964  1.00  0.00     0.022 C 
HETATM   18  C7  UNL     1      -6.378   6.150  15.454  1.00  0.00    -0.068 C 
HETATM   19  C4  UNL     1      -4.946   5.113  13.146  1.00  0.00     0.084 C 
HETATM   20  C5  UNL     1      -4.231   5.783  14.289  1.00  0.00     0.149 C 
HETATM   21  O1  UNL     1      -3.008   5.896  14.323  1.00  0.00    -0.293 OA
HETATM   22  C6  UNL     1      -5.035   6.234  15.447  1.00  0.00     0.053 C 
HETATM   23  C8  UNL     1      -7.141   6.501  16.709  1.00  0.00     0.035 C 
HETATM   24  C9  UNL     1      -8.262   7.489  16.423  1.00  0.00     0.010 C 
HETATM   25  C17 UNL     1     -10.033   9.371  14.798  1.00  0.00     0.009 C 
HETATM   26  C18 UNL     1     -11.160   9.925  13.919  1.00  0.00     0.047 C 
BRANCH   7  27
HETATM   27  O2  UNL     1     -12.735   8.845  12.459  1.00  0.00    -0.381 OA
HETATM   28  H27 UNL     1     -12.972   9.780  12.290  1.00  0.00     0.211 HD
ENDBRANCH   7  27
ENDBRANCH   5   7
ENDBRANCH   4   5
ENDBRANCH   3   4
ENDBRANCH   1   3
BRANCH   1  29
HETATM   29  C23 UNL     1     -12.386  10.895  19.061  1.00  0.00     0.120 C 
BRANCH  29  30
HETATM   30  C24 UNL     1     -11.211  10.644  19.995  1.00  0.00     0.112 C 
BRANCH  30  31
HETATM   31  C25 UNL     1     -11.537   9.627  21.072  1.00  0.00     0.217 C 
HETATM   32  O6  UNL     1     -12.292   8.678  20.901  1.00  0.00    -0.274 OA
HETATM   33  N1  UNL     1     -10.873   9.868  22.257  1.00  0.00    -0.361 N 
HETATM   34  H34 UNL     1     -10.451  10.778  22.391  1.00  0.00     0.162 HD
BRANCH  33  35
HETATM   35  C26 UNL     1     -11.140   9.068  23.436  1.00  0.00     0.122 C 
BRANCH  35  36
HETATM   36  C27 UNL     1     -11.889   9.853  24.509  1.00  0.00     0.020 C 
BRANCH  36  37
HETATM   37  C28 UNL     1     -12.787   9.002  25.415  1.00  0.00     0.002 C 
BRANCH  37  38
HETATM   38  C29 UNL     1     -14.273   8.951  25.034  1.00  0.00     0.009 C 
BRANCH  38  39
HETATM   39  C30 UNL     1     -15.216   8.550  26.170  1.00  0.00     0.103 C 
BRANCH  39  40
HETATM   40  C31 UNL     1     -15.270   7.053  26.415  1.00  0.00     0.217 C 
HETATM   41  O7  UNL     1     -15.384   6.219  25.523  1.00  0.00    -0.274 OA
HETATM   42  N2  UNL     1     -15.202   6.727  27.752  1.00  0.00    -0.361 N 
HETATM   43  H45 UNL     1     -14.910   7.438  28.409  1.00  0.00     0.162 HD
BRANCH  42  44
HETATM   44  C32 UNL     1     -15.142   5.344  28.194  1.00  0.00     0.127 C 
BRANCH  44  45
HETATM   45  C33 UNL     1     -13.711   4.811  28.328  1.00  0.00     0.058 C 
BRANCH  45  46
HETATM   46  C34 UNL     1     -13.462   4.109  29.643  1.00  0.00    -0.054 A 
HETATM   47  C35 UNL     1     -12.444   3.145  29.750  1.00  0.00     0.010 A 
HETATM   48  C36 UNL     1     -12.188   2.513  30.969  1.00  0.00     0.040 A 
HETATM   49  C37 UNL     1     -12.951   2.845  32.078  1.00  0.00     0.098 A 
HETATM   50  C38 UNL     1     -13.983   3.772  31.975  1.00  0.00     0.099 A 
HETATM   51  C39 UNL     1     -14.235   4.419  30.773  1.00  0.00     0.046 A 
BRANCH  49  52
HETATM   52  O8  UNL     1     -12.652   2.267  33.279  1.00  0.00    -0.358 OA
HETATM   53  H52 UNL     1     -12.849   2.938  33.958  1.00  0.00     0.217 HD
ENDBRANCH  49  52
BRANCH  50  54
HETATM   54  O9  UNL     1     -14.785   4.037  33.047  1.00  0.00    -0.358 OA
HETATM   55  H53 UNL     1     -14.962   3.175  33.466  1.00  0.00     0.217 HD
ENDBRANCH  50  54
ENDBRANCH  45  46
ENDBRANCH  44  45
ENDBRANCH  42  44
ENDBRANCH  39  40
ENDBRANCH  38  39
ENDBRANCH  37  38
ENDBRANCH  36  37
ENDBRANCH  35  36
ENDBRANCH  33  35
ENDBRANCH  30  31
ENDBRANCH  29  30
ENDBRANCH   1  29
TORSDOF 19
ENDMDL
