MODEL 1
REMARK minimizedAffinity -9.82593822
REMARK CNNscore 0.39585498
REMARK CNNaffinity 7.68242884
REMARK  13 active torsions:
REMARK  status: ('A' for Active; 'I' for Inactive)
REMARK    1  A    between atoms: C5_6  and  C6_7 
REMARK    2  A    between atoms: C5_6  and  C31_35 
REMARK    3  A    between atoms: C23_24  and  O2_25 
REMARK    4  A    between atoms: C30_33  and  O4_34 
REMARK    5  A    between atoms: C32_37  and  C33_38 
REMARK    6  A    between atoms: C33_38  and  O6_40 
REMARK    7  A    between atoms: C33_38  and  C35_41 
REMARK    8  A    between atoms: C35_41  and  C37_43 
REMARK    9  A    between atoms: C35_41  and  C38_45 
REMARK   10  A    between atoms: C37_43  and  O7_44 
REMARK   11  A    between atoms: C38_45  and  C39_46 
REMARK   12  A    between atoms: C39_46  and  C40_47 
REMARK   13  A    between atoms: C43_51  and  N2_52 
ROOT
HETATM    1  C1  UNL     1       0.665   8.105   9.251  1.00  0.00     0.010 C 
HETATM    2  C2  UNL     1       0.730   7.630  10.701  1.00  0.00    -0.014 C 
HETATM    3  C3  UNL     1      -0.291   6.533  10.959  1.00  0.00     0.030 C 
HETATM    4  C4  UNL     1      -0.317   6.120  12.422  1.00  0.00     0.169 C 
HETATM    5  O1  UNL     1       0.485   6.930  13.268  1.00  0.00    -0.377 OA
HETATM    6  C5  UNL     1       0.341   8.370  13.156  1.00  0.00     0.094 C 
HETATM    7  C45 UNL     1       0.504   8.798  11.673  1.00  0.00     0.045 C 
ENDROOT
BRANCH   6   8
HETATM    8  C6  UNL     1       1.503   8.880  14.085  1.00  0.00     0.035 C 
HETATM    9  C7  UNL     1       2.764   9.431  13.297  1.00  0.00     0.016 C 
HETATM   10  C8  UNL     1       3.336  10.554  14.174  1.00  0.00     0.026 C 
HETATM   11  C9  UNL     1       4.840  10.781  14.245  1.00  0.00     0.013 C 
HETATM   12  C30 UNL     1       2.791  10.204  15.551  1.00  0.00     0.094 C 
HETATM   13  C10 UNL     1       5.147  11.904  15.272  1.00  0.00     0.043 C 
HETATM   14  C11 UNL     1       4.214  11.968  16.470  1.00  0.00    -0.006 C 
HETATM   15  C12 UNL     1       3.108  11.208  16.583  1.00  0.00    -0.030 C 
HETATM   16  C26 UNL     1       4.626  12.806  17.643  1.00  0.00     0.161 C 
HETATM   17  C13 UNL     1       2.298  11.128  17.836  1.00  0.00     0.032 C 
HETATM   18  C14 UNL     1       1.006  10.226  17.860  1.00  0.00    -0.004 C 
HETATM   19  C20 UNL     1       2.190  12.528  18.508  1.00  0.00    -0.014 C 
HETATM   20  C15 UNL     1      -0.273  10.894  18.419  1.00  0.00     0.014 C 
HETATM   21  C27 UNL     1       0.712   9.339  16.595  1.00  0.00     0.018 C 
HETATM   22  C16 UNL     1      -0.068  12.024  19.466  1.00  0.00     0.013 C 
HETATM   23  C17 UNL     1      -0.653  13.271  18.872  1.00  0.00    -0.026 C 
HETATM   24  C25 UNL     1       1.417  12.228  19.821  1.00  0.00     0.006 C 
HETATM   25  C18 UNL     1       0.055  13.979  17.986  1.00  0.00    -0.029 C 
HETATM   26  C19 UNL     1       1.467  13.626  17.625  1.00  0.00     0.038 C 
HETATM   27  C24 UNL     1       1.746  13.273  20.888  1.00  0.00     0.037 C 
HETATM   28  C23 UNL     1       3.240  13.198  21.268  1.00  0.00     0.119 C 
HETATM   29  C22 UNL     1       4.150  12.643  20.153  1.00  0.00     0.045 C 
HETATM   30  C21 UNL     1       3.630  13.079  18.779  1.00  0.00     0.072 C 
HETATM   31  C28 UNL     1       1.300   9.898  15.279  1.00  0.00    -0.002 C 
HETATM   32  C29 UNL     1       0.449  11.116  14.870  1.00  0.00     0.019 C 
HETATM   33  O3  UNL     1       5.761  13.282  17.674  1.00  0.00    -0.292 OA
BRANCH  28  34
HETATM   34  O2  UNL     1       3.660  14.516  21.616  1.00  0.00    -0.396 OA
HETATM   35  H30 UNL     1       4.577  14.461  21.937  1.00  0.00     0.210 HD
ENDBRANCH  28  34
BRANCH  12  36
HETATM   36  O4  UNL     1       3.434   9.024  16.081  1.00  0.00    -0.384 OA
HETATM   37  H39 UNL     1       3.819   8.503  15.361  1.00  0.00     0.211 HD
ENDBRANCH  12  36
ENDBRANCH   6   8
BRANCH   6  38
HETATM   38  C31 UNL     1      -0.985   8.749  13.805  1.00  0.00     0.189 A 
HETATM   39  O5  UNL     1      -1.894   9.518  13.014  1.00  0.00    -0.369 OA
HETATM   40  C32 UNL     1      -2.349   8.204  13.386  1.00  0.00     0.189 A 
BRANCH  40  41
HETATM   41  C33 UNL     1      -3.511   8.147  14.386  1.00  0.00     0.092 C 
HETATM   42  C34 UNL     1      -4.175   9.538  14.512  1.00  0.00     0.049 C 
BRANCH  41  43
HETATM   43  O6  UNL     1      -2.973   7.886  15.699  1.00  0.00    -0.387 OA
HETATM   44  H45 UNL     1      -2.145   7.383  15.601  1.00  0.00     0.210 HD
ENDBRANCH  41  43
BRANCH  41  45
HETATM   45  C35 UNL     1      -4.588   6.996  14.072  1.00  0.00     0.011 C 
HETATM   46  C36 UNL     1      -5.952   7.658  13.734  1.00  0.00     0.020 C 
BRANCH  45  47
HETATM   47  C37 UNL     1      -4.856   6.127  15.339  1.00  0.00     0.176 C 
BRANCH  47  48
HETATM   48  O7  UNL     1      -5.775   6.745  16.224  1.00  0.00    -0.400 OA
HETATM   49  H51 UNL     1      -5.891   6.146  16.985  1.00  0.00     0.209 HD
ENDBRANCH  47  48
ENDBRANCH  45  47
BRANCH  45  50
HETATM   50  C38 UNL     1      -4.111   6.120  12.863  1.00  0.00     0.019 C 
BRANCH  50  51
HETATM   51  C39 UNL     1      -3.807   4.629  13.121  1.00  0.00     0.039 C 
BRANCH  51  52
HETATM   52  C40 UNL     1      -4.864   3.652  12.658  1.00  0.00    -0.054 A 
HETATM   53  C41 UNL     1      -4.538   2.610  11.783  1.00  0.00     0.024 A 
HETATM   54  C42 UNL     1      -5.531   1.735  11.361  1.00  0.00     0.090 A 
HETATM   55  N1  UNL     1      -6.790   1.909  11.784  1.00  0.00    -0.357 N 
HETATM   56  C43 UNL     1      -7.155   2.896  12.606  1.00  0.00     0.077 A 
HETATM   57  H58 UNL     1      -7.533   1.282  11.482  1.00  0.00     0.166 HD
HETATM   58  C44 UNL     1      -6.199   3.798  13.057  1.00  0.00     0.049 A 
BRANCH  56  59
HETATM   59  N2  UNL     1      -8.502   2.975  12.930  1.00  0.00    -0.289 NA
HETATM   60  H59 UNL     1      -8.902   3.859  12.597  1.00  0.00     0.125 HD
HETATM   61  H60 UNL     1      -8.634   3.000  13.946  1.00  0.00     0.125 HD
ENDBRANCH  56  59
ENDBRANCH  51  52
ENDBRANCH  50  51
ENDBRANCH  45  50
ENDBRANCH  41  45
ENDBRANCH  40  41
ENDBRANCH   6  38
TORSDOF 13
ENDMDL
