MODEL 1
REMARK minimizedAffinity -9.79928398
REMARK CNNscore 0.677394986
REMARK CNNaffinity 7.81841326
REMARK  10 active torsions:
REMARK  status: ('A' for Active; 'I' for Inactive)
REMARK    1  A    between atoms: O1_2  and  C2_3 
REMARK    2  A    between atoms: C4_5  and  O2_6 
REMARK    3  A    between atoms: O2_6  and  C5_7 
REMARK    4  A    between atoms: C19_21  and  C20_22 
REMARK    5  A    between atoms: C24_28  and  O5_29 
REMARK    6  A    between atoms: O5_29  and  C25_30 
REMARK    7  A    between atoms: C25_30  and  C26_32 
REMARK    8  A    between atoms: C26_32  and  C27_33 
REMARK    9  A    between atoms: C31_37  and  O7_38 
REMARK   10  A    between atoms: C35_43  and  O9_44 
ROOT
HETATM    1  C5  UNL     1      -6.999   6.985  14.924  1.00  0.00     0.125 C 
HETATM    2  C6  UNL     1      -6.608   7.331  13.502  1.00  0.00     0.033 C 
HETATM    3  C7  UNL     1      -5.341   8.178  13.470  1.00  0.00     0.012 C 
HETATM    4  C8  UNL     1      -4.215   7.765  14.480  1.00  0.00    -0.036 C 
HETATM    5  C9  UNL     1      -4.215   8.786  15.655  1.00  0.00     0.016 C 
HETATM    6  C10 UNL     1      -4.472   6.369  15.131  1.00  0.00    -0.004 C 
HETATM    7  C11 UNL     1      -3.963   5.254  14.220  1.00  0.00     0.006 C 
HETATM    8  C12 UNL     1      -2.441   5.300  14.101  1.00  0.00     0.008 C 
HETATM    9  C13 UNL     1      -1.827   6.722  14.179  1.00  0.00     0.026 C 
HETATM   10  C14 UNL     1      -2.836   7.779  13.683  1.00  0.00     0.001 C 
HETATM   11  C15 UNL     1      -2.196   9.175  13.646  1.00  0.00     0.007 C 
HETATM   12  C16 UNL     1      -0.951   9.193  12.779  1.00  0.00     0.013 C 
HETATM   13  C17 UNL     1       0.157   8.226  13.270  1.00  0.00    -0.003 C 
HETATM   14  C18 UNL     1       0.769   8.755  14.580  1.00  0.00     0.019 C 
HETATM   15  C19 UNL     1       1.180   8.069  12.060  1.00  0.00     0.058 C 
HETATM   16  C24 UNL     1       1.095   6.574  11.665  1.00  0.00     0.144 C 
HETATM   17  C30 UNL     1      -0.306   6.153  12.109  1.00  0.00     0.072 C 
HETATM   18  C31 UNL     1      -0.422   6.782  13.494  1.00  0.00     0.072 C 
HETATM   19  C32 UNL     1      -5.926   6.117  15.585  1.00  0.00     0.037 C 
ENDROOT
BRANCH   1  20
HETATM   20  O2  UNL     1      -8.220   6.238  14.888  1.00  0.00    -0.356 OA
BRANCH  20  21
HETATM   21  C4  UNL     1      -9.381   7.046  15.075  1.00  0.00     0.263 C 
HETATM   22  C3  UNL     1      -8.918   8.495  15.184  1.00  0.00     0.095 C 
HETATM   23  C2  UNL     1     -10.096   9.466  15.312  1.00  0.00     0.156 C 
HETATM   24  C35 UNL     1     -11.448   8.744  15.190  1.00  0.00     0.175 C 
HETATM   25  C33 UNL     1     -11.435   7.735  14.027  1.00  0.00     0.151 C 
HETATM   26  O8  UNL     1     -10.269   6.907  13.973  1.00  0.00    -0.354 OA
HETATM   27  C34 UNL     1     -11.558   8.393  12.652  1.00  0.00     0.042 C 
BRANCH  23  28
HETATM   28  O1  UNL     1     -10.051  10.099  16.605  1.00  0.00    -0.388 OA
HETATM   29  C1  UNL     1     -10.760   9.366  17.598  1.00  0.00     0.202 C 
ENDBRANCH  23  28
BRANCH  24  30
HETATM   30  O9  UNL     1     -12.507   9.695  15.041  1.00  0.00    -0.390 OA
HETATM   31  H54 UNL     1     -13.277   9.350  15.527  1.00  0.00     0.210 HD
ENDBRANCH  24  30
ENDBRANCH  20  21
ENDBRANCH   1  20
BRANCH  18  32
HETATM   32  O7  UNL     1       0.486   6.049  14.339  1.00  0.00    -0.389 OA
HETATM   33  H46 UNL     1       0.174   5.128  14.414  1.00  0.00     0.210 HD
ENDBRANCH  18  32
BRANCH  15  34
HETATM   34  C20 UNL     1       2.579   8.637  12.143  1.00  0.00    -0.043 A 
HETATM   35  C21 UNL     1       3.728   8.022  11.858  1.00  0.00     0.087 A 
HETATM   36  C22 UNL     1       4.816   8.938  12.205  1.00  0.00     0.283 A 
HETATM   37  O3  UNL     1       6.000   8.696  12.061  1.00  0.00    -0.260 OA
HETATM   38  O4  UNL     1       4.290  10.079  12.726  1.00  0.00    -0.314 OA
HETATM   39  C23 UNL     1       2.866   9.976  12.728  1.00  0.00     0.214 A 
ENDBRANCH  15  34
BRANCH  16  40
HETATM   40  O5  UNL     1       1.235   6.436  10.241  1.00  0.00    -0.315 OA
BRANCH  40  41
HETATM   41  C25 UNL     1       2.214   5.582   9.829  1.00  0.00     0.259 C 
HETATM   42  O6  UNL     1       2.461   4.494  10.332  1.00  0.00    -0.265 OA
BRANCH  41  43
HETATM   43  C26 UNL     1       2.959   6.156   8.649  1.00  0.00     0.115 C 
BRANCH  43  44
HETATM   44  C27 UNL     1       2.249   7.335   7.966  1.00  0.00    -0.013 C 
HETATM   45  C28 UNL     1       1.870   7.032   6.514  1.00  0.00     0.010 C 
HETATM   46  C29 UNL     1       3.065   8.629   8.051  1.00  0.00     0.010 C 
ENDBRANCH  43  44
ENDBRANCH  41  43
ENDBRANCH  40  41
ENDBRANCH  16  40
TORSDOF 10
ENDMDL
