MODEL 1
REMARK minimizedAffinity -9.81563377
REMARK CNNscore 0.619095027
REMARK CNNaffinity 7.38805389
REMARK  6 active torsions:
REMARK  status: ('A' for Active; 'I' for Inactive)
REMARK    1  A    between atoms: C2_2  and  C30_32 
REMARK    2  A    between atoms: C3_3  and  C4_4 
REMARK    3  A    between atoms: C4_4  and  C5_6 
REMARK    4  A    between atoms: C5_6  and  C6_7 
REMARK    5  A    between atoms: C6_7  and  C8_9 
REMARK    6  A    between atoms: C30_32  and  O4_34 
ROOT
HETATM    1  C8  UNL     1      -5.105   5.023  13.860  1.00  0.00    -0.001 C 
HETATM    2  C9  UNL     1      -5.763   4.361  12.610  1.00  0.00     0.007 C 
HETATM    3  C10 UNL     1      -7.230   4.821  12.556  1.00  0.00     0.015 C 
HETATM    4  C11 UNL     1      -7.501   5.414  13.953  1.00  0.00    -0.013 C 
HETATM    5  C12 UNL     1      -7.814   4.197  14.883  1.00  0.00     0.021 C 
HETATM    6  C13 UNL     1      -8.660   6.391  14.139  1.00  0.00    -0.070 C 
HETATM    7  C14 UNL     1      -9.618   6.564  13.215  1.00  0.00    -0.022 C 
HETATM    8  C15 UNL     1     -10.833   7.408  13.405  1.00  0.00     0.034 C 
HETATM    9  C16 UNL     1     -11.134   7.787  14.879  1.00  0.00     0.013 C 
HETATM   10  C17 UNL     1     -12.331   8.808  14.999  1.00  0.00     0.018 C 
HETATM   11  C18 UNL     1     -13.221   8.442  16.210  1.00  0.00     0.023 C 
HETATM   12  C19 UNL     1     -13.271   8.836  13.775  1.00  0.00     0.023 C 
HETATM   13  C20 UNL     1     -11.796  10.235  15.167  1.00  0.00     0.135 C 
HETATM   14  O2  UNL     1     -12.460  11.122  15.706  1.00  0.00    -0.297 OA
HETATM   15  C21 UNL     1     -10.455  10.553  14.547  1.00  0.00     0.080 C 
HETATM   16  C22 UNL     1      -9.342   9.586  14.948  1.00  0.00     0.017 C 
HETATM   17  C23 UNL     1      -9.813   8.255  15.597  1.00  0.00    -0.031 C 
HETATM   18  C24 UNL     1     -10.048   8.512  17.111  1.00  0.00     0.016 C 
HETATM   19  C25 UNL     1      -8.712   7.106  15.494  1.00  0.00     0.024 C 
HETATM   20  C26 UNL     1      -7.305   7.571  15.980  1.00  0.00     0.010 C 
HETATM   21  C27 UNL     1      -6.138   6.607  15.696  1.00  0.00     0.011 C 
HETATM   22  C28 UNL     1      -6.134   6.138  14.232  1.00  0.00    -0.029 C 
HETATM   23  C29 UNL     1      -5.911   7.376  13.308  1.00  0.00     0.016 C 
ENDROOT
BRANCH   1  24
HETATM   24  C6  UNL     1      -3.613   5.390  13.599  1.00  0.00    -0.007 C 
HETATM   25  C7  UNL     1      -2.932   5.986  14.838  1.00  0.00     0.011 C 
BRANCH  24  26
HETATM   26  C5  UNL     1      -2.823   4.138  13.145  1.00  0.00     0.087 C 
BRANCH  26  27
HETATM   27  C4  UNL     1      -1.746   4.436  12.110  1.00  0.00     0.150 C 
HETATM   28  O1  UNL     1      -1.439   5.577  11.781  1.00  0.00    -0.293 OA
BRANCH  27  29
HETATM   29  C3  UNL     1      -1.126   3.243  11.462  1.00  0.00     0.063 C 
HETATM   30  C2  UNL     1      -1.753   2.077  11.220  1.00  0.00     0.015 C 
HETATM   31  C1  UNL     1      -3.192   1.751  11.477  1.00  0.00     0.055 C 
BRANCH  30  32
HETATM   32  C30 UNL     1      -0.903   1.032  10.604  1.00  0.00     0.171 C 
HETATM   33  O3  UNL     1      -0.186   0.243  11.195  1.00  0.00    -0.646 OA
BRANCH  32  34
HETATM   34  O4  UNL     1      -1.002   1.010   9.266  1.00  0.00    -0.773 OA
HETATM   35  H44 UNL     1      -0.410   0.279   8.996  1.00  0.00     0.167 HD
ENDBRANCH  32  34
ENDBRANCH  30  32
ENDBRANCH  27  29
ENDBRANCH  26  27
ENDBRANCH  24  26
ENDBRANCH   1  24
TORSDOF 6
ENDMDL
