MODEL 1
REMARK minimizedAffinity -10.5076609
REMARK  4 active torsions:
REMARK  status: ('A' for Active; 'I' for Inactive)
REMARK    1  A    between atoms: C3_3  and  C4_4 
REMARK    2  A    between atoms: C4_4  and  O1_5 
REMARK    3  A    between atoms: C6_9  and  C7_10 
REMARK    4  A    between atoms: C7_10  and  C9_12 
ROOT
HETATM    1  C9  UNL     1      -5.640   5.725  13.328  1.00  0.00     0.000 C 
HETATM    2  C10 UNL     1      -6.415   4.468  12.868  1.00  0.00     0.006 C 
HETATM    3  C11 UNL     1      -7.911   4.819  13.027  1.00  0.00     0.006 C 
HETATM    4  C12 UNL     1      -7.915   6.290  13.457  1.00  0.00    -0.001 C 
HETATM    5  C13 UNL     1      -9.172   6.864  14.127  1.00  0.00    -0.002 C 
HETATM    6  C14 UNL     1     -10.370   6.744  13.177  1.00  0.00     0.040 C 
HETATM    7  C15 UNL     1     -11.600   7.353  13.736  1.00  0.00     0.159 A 
HETATM    8  O4  UNL     1     -11.824   7.115  15.119  1.00  0.00    -0.368 OA
HETATM    9  C16 UNL     1     -11.539   8.488  14.743  1.00  0.00     0.102 A 
HETATM   10  C17 UNL     1     -12.779   9.350  14.871  1.00  0.00     0.042 C 
HETATM   11  C18 UNL     1     -12.496  10.789  15.261  1.00  0.00     0.010 C 
HETATM   12  C19 UNL     1     -11.254  11.276  14.552  1.00  0.00     0.079 C 
HETATM   13  C20 UNL     1     -10.076  10.538  15.141  1.00  0.00     0.138 C 
HETATM   14  O5  UNL     1      -9.080  11.178  15.485  1.00  0.00    -0.297 OA
HETATM   15  C21 UNL     1     -10.179   8.996  15.290  1.00  0.00     0.054 C 
HETATM   16  C22 UNL     1     -10.127   8.693  16.806  1.00  0.00     0.027 C 
HETATM   17  C23 UNL     1      -8.947   8.365  14.508  1.00  0.00     0.009 C 
HETATM   18  C24 UNL     1      -7.573   8.577  15.224  1.00  0.00     0.007 C 
HETATM   19  C25 UNL     1      -6.378   7.907  14.529  1.00  0.00     0.010 C 
HETATM   20  C26 UNL     1      -6.631   6.414  14.310  1.00  0.00    -0.036 C 
HETATM   21  C27 UNL     1      -6.770   5.690  15.671  1.00  0.00     0.016 C 
ENDROOT
BRANCH   1  22
HETATM   22  C7  UNL     1      -4.126   5.588  13.636  1.00  0.00     0.016 C 
HETATM   23  C8  UNL     1      -3.411   6.922  13.339  1.00  0.00     0.013 C 
BRANCH  22  24
HETATM   24  C6  UNL     1      -3.325   4.387  13.081  1.00  0.00     0.140 C 
HETATM   25  O3  UNL     1      -2.331   4.917  12.170  1.00  0.00    -0.311 OA
HETATM   26  C5  UNL     1      -1.501   4.060  11.526  1.00  0.00     0.292 C 
HETATM   27  C3  UNL     1      -1.910   2.626  11.466  1.00  0.00     0.042 C 
HETATM   28  O2  UNL     1      -0.471   4.454  10.989  1.00  0.00    -0.260 OA
HETATM   29  C2  UNL     1      -3.178   2.283  11.787  1.00  0.00    -0.067 C 
HETATM   30  C1  UNL     1      -3.761   0.906  11.619  1.00  0.00     0.044 C 
HETATM   31  C28 UNL     1      -4.124   3.315  12.348  1.00  0.00     0.067 C 
BRANCH  27  32
HETATM   32  C4  UNL     1      -0.790   1.740  10.984  1.00  0.00     0.209 C 
BRANCH  32  33
HETATM   33  O1  UNL     1      -1.103   1.094   9.755  1.00  0.00    -0.396 OA
HETATM   34  H6  UNL     1      -0.410   0.428   9.605  1.00  0.00     0.209 HD
ENDBRANCH  32  33
ENDBRANCH  27  32
ENDBRANCH  22  24
ENDBRANCH   1  22
TORSDOF 4
ENDMDL
