MODEL 1
REMARK minimizedAffinity -7.30487919
REMARK CNNscore 0.572826028
REMARK CNNaffinity 6.48861074
REMARK  4 active torsions:
REMARK  status: ('A' for Active; 'I' for Inactive)
REMARK    1  A    between atoms: C4_4  and  C5_5 
REMARK    2  A    between atoms: C5_5  and  C6_6 
REMARK    3  A    between atoms: C6_6  and  C7_7 
REMARK    4  A    between atoms: C7_7  and  C9_9 
ROOT
HETATM    1  C9  UNL     1      -2.409  12.860  18.505  1.00  0.00    -0.002 C 
HETATM    2  C10 UNL     1      -1.104  12.406  19.202  1.00  0.00     0.007 C 
HETATM    3  C11 UNL     1      -0.679  11.082  18.525  1.00  0.00     0.015 C 
HETATM    4  C12 UNL     1      -1.920  10.630  17.720  1.00  0.00    -0.013 C 
HETATM    5  C13 UNL     1      -2.853   9.895  18.737  1.00  0.00     0.021 C 
HETATM    6  C14 UNL     1      -1.767   9.657  16.554  1.00  0.00    -0.070 C 
HETATM    7  C15 UNL     1      -0.672   8.896  16.396  1.00  0.00    -0.022 C 
HETATM    8  C16 UNL     1      -0.550   7.788  15.397  1.00  0.00     0.035 C 
HETATM    9  C17 UNL     1      -1.897   7.377  14.743  1.00  0.00     0.032 C 
HETATM   10  C18 UNL     1      -1.722   6.194  13.704  1.00  0.00     0.068 C 
HETATM   11  C19 UNL     1      -0.490   5.297  13.945  1.00  0.00     0.047 C 
HETATM   12  C20 UNL     1      -2.936   5.238  13.787  1.00  0.00     0.047 C 
HETATM   13  O1  UNL     1      -1.709   6.660  12.342  1.00  0.00    -0.310 OA
HETATM   14  C21 UNL     1      -0.818   7.643  12.066  1.00  0.00     0.259 C 
HETATM   15  O2  UNL     1       0.391   7.493  11.991  1.00  0.00    -0.265 OA
HETATM   16  C22 UNL     1      -1.540   8.943  11.918  1.00  0.00     0.112 C 
HETATM   17  C23 UNL     1      -1.861   9.560  13.278  1.00  0.00     0.020 C 
HETATM   18  C24 UNL     1      -2.687   8.687  14.290  1.00  0.00    -0.029 C 
HETATM   19  C25 UNL     1      -4.050   8.347  13.646  1.00  0.00     0.016 C 
HETATM   20  C26 UNL     1      -2.991   9.512  15.636  1.00  0.00     0.024 C 
HETATM   21  C27 UNL     1      -3.766  10.848  15.389  1.00  0.00     0.010 C 
HETATM   22  C28 UNL     1      -3.823  11.830  16.572  1.00  0.00     0.011 C 
HETATM   23  C29 UNL     1      -2.434  12.019  17.196  1.00  0.00    -0.029 C 
HETATM   24  C30 UNL     1      -1.482  12.613  16.117  1.00  0.00     0.016 C 
ENDROOT
BRANCH   1  25
HETATM   25  C7  UNL     1      -2.752  14.376  18.520  1.00  0.00    -0.014 C 
HETATM   26  C8  UNL     1      -2.249  15.029  17.220  1.00  0.00     0.010 C 
BRANCH  25  27
HETATM   27  C6  UNL     1      -4.166  14.883  18.885  1.00  0.00     0.008 C 
BRANCH  27  28
HETATM   28  C5  UNL     1      -5.314  13.900  19.146  1.00  0.00     0.028 C 
BRANCH  28  29
HETATM   29  C4  UNL     1      -5.568  13.610  20.599  1.00  0.00    -0.025 C 
HETATM   30  C2  UNL     1      -6.752  13.444  21.221  1.00  0.00    -0.091 C 
HETATM   31  C1  UNL     1      -8.099  13.485  20.555  1.00  0.00     0.042 C 
HETATM   32  C3  UNL     1      -6.807  13.182  22.704  1.00  0.00     0.042 C 
ENDBRANCH  28  29
ENDBRANCH  27  28
ENDBRANCH  25  27
ENDBRANCH   1  25
TORSDOF 4
ENDMDL
