MODEL 1
REMARK minimizedAffinity -9.39321709
REMARK  4 active torsions:
REMARK  status: ('A' for Active; 'I' for Inactive)
REMARK    1  A    between atoms: C4_4  and  C5_5 
REMARK    2  A    between atoms: C5_5  and  C6_6 
REMARK    3  A    between atoms: C6_6  and  C7_7 
REMARK    4  A    between atoms: C7_7  and  C9_9 
ROOT
HETATM    1  C9  UNL     1      -5.764   6.434  14.867  1.00  0.00    -0.001 C 
HETATM    2  C10 UNL     1      -6.380   7.319  13.754  1.00  0.00     0.007 C 
HETATM    3  C11 UNL     1      -5.203   7.877  12.922  1.00  0.00     0.024 C 
HETATM    4  C12 UNL     1      -3.971   7.204  13.492  1.00  0.00     0.092 C 
HETATM    5  C13 UNL     1      -3.671   5.850  12.791  1.00  0.00     0.272 C 
HETATM    6  O1  UNL     1      -4.453   5.124  12.201  1.00  0.00    -0.264 OA
HETATM    7  O2  UNL     1      -2.323   5.571  12.937  1.00  0.00    -0.305 OA
HETATM    8  C14 UNL     1      -1.698   6.657  13.660  1.00  0.00     0.113 C 
HETATM    9  C15 UNL     1      -1.835   6.313  15.182  1.00  0.00     0.043 C 
HETATM   10  C16 UNL     1      -3.291   5.972  15.608  1.00  0.00     0.014 C 
HETATM   11  C17 UNL     1      -4.309   6.971  15.006  1.00  0.00    -0.020 C 
HETATM   12  C18 UNL     1      -4.238   8.279  15.826  1.00  0.00     0.017 C 
HETATM   13  C19 UNL     1      -2.626   7.792  13.328  1.00  0.00     0.137 A 
HETATM   14  O3  UNL     1      -2.330   9.128  13.689  1.00  0.00    -0.364 OA
HETATM   15  C20 UNL     1      -2.290   8.832  12.279  1.00  0.00     0.162 A 
HETATM   16  C21 UNL     1      -0.922   8.855  11.664  1.00  0.00     0.042 C 
HETATM   17  C22 UNL     1      -0.319   7.435  11.661  1.00  0.00     0.014 C 
HETATM   18  C23 UNL     1       0.954   7.247  10.768  1.00  0.00     0.018 C 
HETATM   19  C24 UNL     1       0.633   7.611   9.301  1.00  0.00     0.023 C 
HETATM   20  C25 UNL     1       2.177   8.063  11.205  1.00  0.00     0.023 C 
HETATM   21  C26 UNL     1       1.355   5.763  10.785  1.00  0.00     0.135 C 
HETATM   22  O4  UNL     1       2.228   5.317  10.039  1.00  0.00    -0.297 OA
HETATM   23  C27 UNL     1       0.628   4.850  11.744  1.00  0.00     0.080 C 
HETATM   24  C28 UNL     1       0.560   5.509  13.113  1.00  0.00     0.020 C 
HETATM   25  C29 UNL     1      -0.223   6.860  13.135  1.00  0.00    -0.004 C 
HETATM   26  C30 UNL     1       0.531   7.802  14.111  1.00  0.00     0.019 C 
ENDROOT
BRANCH   1  27
HETATM   27  C7  UNL     1      -6.643   6.096  16.101  1.00  0.00    -0.014 C 
HETATM   28  C8  UNL     1      -7.420   4.789  15.834  1.00  0.00     0.010 C 
BRANCH  27  29
HETATM   29  C6  UNL     1      -7.602   7.132  16.728  1.00  0.00     0.008 C 
BRANCH  29  30
HETATM   30  C5  UNL     1      -8.453   7.977  15.779  1.00  0.00     0.028 C 
BRANCH  30  31
HETATM   31  C4  UNL     1      -9.707   7.239  15.387  1.00  0.00    -0.025 C 
HETATM   32  C2  UNL     1     -10.763   7.699  14.689  1.00  0.00    -0.091 C 
HETATM   33  C1  UNL     1     -11.925   6.793  14.377  1.00  0.00     0.042 C 
HETATM   34  C3  UNL     1     -10.914   9.096  14.154  1.00  0.00     0.042 C 
ENDBRANCH  30  31
ENDBRANCH  29  30
ENDBRANCH  27  29
ENDBRANCH   1  27
TORSDOF 4
ENDMDL
