MODEL 1
REMARK minimizedAffinity -9.91776848
REMARK  8 active torsions:
REMARK  status: ('A' for Active; 'I' for Inactive)
REMARK    1  A    between atoms: C2_2  and  C3_3 
REMARK    2  A    between atoms: C2_2  and  C9_12 
REMARK    3  A    between atoms: C3_3  and  C4_4 
REMARK    4  A    between atoms: C4_4  and  O1_5 
REMARK    5  A    between atoms: C4_4  and  C5_6 
REMARK    6  A    between atoms: C5_6  and  O2_7 
REMARK    7  A    between atoms: C5_6  and  C6_8 
REMARK    8  A    between atoms: C6_8  and  O3_11 
ROOT
HETATM    1  C9  UNL     1      -3.262   7.684  14.246  1.00  0.00     0.097 A 
HETATM    2  C10 UNL     1      -2.930   9.050  14.771  1.00  0.00     0.042 A 
HETATM    3  C11 UNL     1      -1.392   9.127  14.884  1.00  0.00     0.016 A 
HETATM    4  C12 UNL     1      -0.772   7.813  14.293  1.00  0.00    -0.002 A 
HETATM    5  C13 UNL     1       0.048   7.155  15.429  1.00  0.00     0.019 C 
HETATM    6  C14 UNL     1      -1.982   6.932  13.979  1.00  0.00     0.101 A 
HETATM    7  C15 UNL     1      -1.810   5.720  13.120  1.00  0.00     0.042 C 
HETATM    8  C16 UNL     1      -0.927   5.972  11.900  1.00  0.00     0.009 C 
HETATM    9  C17 UNL     1       0.403   6.665  12.279  1.00  0.00     0.003 C 
HETATM   10  C18 UNL     1       1.534   6.593  11.145  1.00  0.00    -0.035 C 
HETATM   11  C19 UNL     1       2.004   5.106  11.135  1.00  0.00     0.016 C 
HETATM   12  C20 UNL     1       0.979   6.916   9.735  1.00  0.00     0.017 C 
HETATM   13  C21 UNL     1       2.021   6.959   8.632  1.00  0.00     0.080 C 
HETATM   14  C22 UNL     1       3.136   7.910   8.981  1.00  0.00     0.135 C 
HETATM   15  O4  UNL     1       3.497   8.763   8.169  1.00  0.00    -0.297 OA
HETATM   16  C23 UNL     1       3.846   7.703  10.322  1.00  0.00     0.017 C 
HETATM   17  C24 UNL     1       4.782   8.913  10.576  1.00  0.00     0.023 C 
HETATM   18  C25 UNL     1       4.782   6.479  10.188  1.00  0.00     0.023 C 
HETATM   19  C26 UNL     1       2.774   7.525  11.477  1.00  0.00     0.009 C 
HETATM   20  C27 UNL     1       2.311   8.898  12.027  1.00  0.00     0.007 C 
HETATM   21  C28 UNL     1       1.408   8.763  13.250  1.00  0.00     0.011 C 
HETATM   22  C29 UNL     1       0.072   8.059  12.941  1.00  0.00    -0.029 C 
HETATM   23  C30 UNL     1      -0.753   8.983  11.996  1.00  0.00     0.016 C 
HETATM   24  O5  UNL     1      -2.824   6.643  15.120  1.00  0.00    -0.362 OA
ENDROOT
BRANCH   1  25
HETATM   25  C2  UNL     1      -4.595   7.403  13.577  1.00  0.00     0.022 C 
HETATM   26  C1  UNL     1      -5.611   8.493  13.939  1.00  0.00     0.013 C 
BRANCH  25  27
HETATM   27  C3  UNL     1      -5.097   5.982  13.929  1.00  0.00     0.041 C 
BRANCH  27  28
HETATM   28  C4  UNL     1      -6.345   5.907  14.833  1.00  0.00     0.150 C 
BRANCH  28  29
HETATM   29  O1  UNL     1      -5.877   5.964  16.199  1.00  0.00    -0.393 OA
HETATM   30  H8  UNL     1      -5.480   6.847  16.324  1.00  0.00     0.210 HD
ENDBRANCH  28  29
BRANCH  28  31
HETATM   31  C5  UNL     1      -7.142   4.586  14.680  1.00  0.00     0.180 C 
BRANCH  31  32
HETATM   32  O2  UNL     1      -8.125   4.530  15.728  1.00  0.00    -0.390 OA
HETATM   33  H10 UNL     1      -8.372   5.467  15.877  1.00  0.00     0.210 HD
ENDBRANCH  31  32
BRANCH  31  34
HETATM   34  C6  UNL     1      -7.814   4.418  13.285  1.00  0.00     0.079 C 
HETATM   35  C7  UNL     1      -6.829   4.041  12.171  1.00  0.00     0.048 C 
HETATM   36  C8  UNL     1      -8.545   5.714  12.901  1.00  0.00     0.048 C 
BRANCH  34  37
HETATM   37  O3  UNL     1      -8.794   3.375  13.386  1.00  0.00    -0.388 OA
HETATM   38  H17 UNL     1      -9.314   3.377  12.565  1.00  0.00     0.210 HD
ENDBRANCH  34  37
ENDBRANCH  31  34
ENDBRANCH  28  31
ENDBRANCH  27  28
ENDBRANCH  25  27
ENDBRANCH   1  25
TORSDOF 8
ENDMDL
