MODEL 1
REMARK minimizedAffinity -8.07706738
REMARK  9 active torsions:
REMARK  status: ('A' for Active; 'I' for Inactive)
REMARK    1  A    between atoms: O1_2  and  C2_3 
REMARK    2  A    between atoms: C2_3  and  C3_4 
REMARK    3  A    between atoms: C3_4  and  N1_5 
REMARK       I    between atoms: N1_5  and  C4_6 
REMARK    4  A    between atoms: C4_6  and  C5_8 
REMARK    5  A    between atoms: C5_8  and  C7_10 
REMARK    6  A    between atoms: C15_20  and  N3_21 
REMARK       I    between atoms: N3_21  and  C16_22 
REMARK    7  A    between atoms: C16_22  and  C17_24 
REMARK    8  A    between atoms: C17_24  and  N4_25 
REMARK    9  A    between atoms: C23_32  and  O4_33 
ROOT
HETATM    1  C7  UNL     1      -3.373  50.219 -24.765  1.00  0.00     0.027 C 
HETATM    2  C8  UNL     1      -3.325  48.705 -24.516  1.00  0.00     0.009 C 
HETATM    3  C9  UNL     1      -3.564  48.357 -23.043  1.00  0.00     0.010 C 
HETATM    4  C10 UNL     1      -2.979  49.367 -22.013  1.00  0.00    -0.033 C 
HETATM    5  C11 UNL     1      -4.121  50.281 -21.492  1.00  0.00     0.016 C 
HETATM    6  C12 UNL     1      -2.420  48.542 -20.802  1.00  0.00     0.058 C 
HETATM    7  C13 UNL     1      -1.575  49.400 -19.926  1.00  0.00     0.010 A 
HETATM    8  C14 UNL     1      -1.004  50.600 -20.292  1.00  0.00     0.029 A 
HETATM    9  N2  UNL     1      -0.317  51.245 -19.283  1.00  0.00    -0.339 N 
ATOM     10  H2  UNL     1       0.132  52.157 -19.365  1.00  0.00     0.168 HD
HETATM   11  C15 UNL     1      -0.331  50.505 -18.205  1.00  0.00     0.151 A 
HETATM   12  S1  UNL     1      -1.170  49.017 -18.316  1.00  0.00    -0.056 SA
HETATM   13  C20 UNL     1      -1.165  51.227 -21.652  1.00  0.00     0.040 C 
HETATM   14  C21 UNL     1       0.173  51.775 -22.161  1.00  0.00     0.017 C 
HETATM   15  C22 UNL     1      -1.814  50.200 -22.659  1.00  0.00     0.033 C 
HETATM   16  C23 UNL     1      -2.214  50.894 -23.991  1.00  0.00     0.128 C 
ENDROOT
BRANCH   1  17
HETATM   17  C5  UNL     1      -3.404  50.548 -26.285  1.00  0.00     0.080 C 
HETATM   18  C6  UNL     1      -2.697  49.501 -27.153  1.00  0.00     0.020 C 
BRANCH  17  19
HETATM   19  C4  UNL     1      -2.797  51.926 -26.561  1.00  0.00     0.222 C 
HETATM   20  N1  UNL     1      -1.746  51.938 -27.455  1.00  0.00    -0.359 N 
HETATM   21  H8  UNL     1      -1.551  51.100 -27.984  1.00  0.00     0.162 HD
HETATM   22  O2  UNL     1      -3.195  52.925 -25.968  1.00  0.00    -0.273 OA
BRANCH  20  23
HETATM   23  C3  UNL     1      -1.169  53.184 -27.936  1.00  0.00     0.148 C 
BRANCH  23  24
HETATM   24  C2  UNL     1       0.149  53.528 -27.231  1.00  0.00     0.186 C 
BRANCH  24  25
HETATM   25  O1  UNL     1      -0.028  54.627 -26.338  1.00  0.00    -0.394 OA
HETATM   26  C1  UNL     1       0.257  54.270 -24.991  1.00  0.00     0.201 C 
ENDBRANCH  24  25
ENDBRANCH  23  24
ENDBRANCH  20  23
ENDBRANCH  17  19
ENDBRANCH   1  17
BRANCH  16  27
HETATM   27  O4  UNL     1      -1.049  50.947 -24.816  1.00  0.00    -0.395 OA
HETATM   28  H38 UNL     1      -0.791  50.039 -25.059  1.00  0.00     0.210 HD
ENDBRANCH  16  27
BRANCH  11  29
HETATM   29  N3  UNL     1       0.238  50.726 -16.985  1.00  0.00    -0.306 N 
HETATM   30  C16 UNL     1       0.982  51.857 -16.702  1.00  0.00     0.252 C 
HETATM   31  O3  UNL     1       1.149  52.817 -17.450  1.00  0.00    -0.271 OA
HETATM   32  H23 UNL     1       0.083  50.014 -16.288  1.00  0.00     0.171 HD
BRANCH  30  33
HETATM   33  C17 UNL     1       1.587  51.806 -15.287  1.00  0.00     0.373 C 
BRANCH  33  34
HETATM   34  N4  UNL     1       3.014  51.430 -15.230  1.00  0.00     0.088 N 
HETATM   35  C18 UNL     1       3.901  52.525 -15.611  1.00  0.00     0.310 C 
HETATM   36  C19 UNL     1       3.395  50.877 -13.931  1.00  0.00     0.310 C 
ENDBRANCH  33  34
ENDBRANCH  30  33
ENDBRANCH  11  29
TORSDOF 9
ENDMDL
