MODEL 1
REMARK minimizedAffinity -8.15299129
REMARK CNNscore 0.805982292
REMARK CNNaffinity 7.23902655
REMARK  11 active torsions:
REMARK  status: ('A' for Active; 'I' for Inactive)
REMARK    1  A    between atoms: O1_2  and  C2_3 
REMARK    2  A    between atoms: C2_3  and  C3_4 
REMARK    3  A    between atoms: C3_4  and  C4_5 
REMARK    4  A    between atoms: C4_5  and  O2_6 
REMARK    5  A    between atoms: O2_6  and  C5_7 
REMARK    6  A    between atoms: C20_23  and  C21_24 
REMARK    7  A    between atoms: C21_24  and  O4_26 
REMARK    8  A    between atoms: C21_24  and  C23_27 
REMARK    9  A    between atoms: C23_27  and  O5_28 
REMARK   10  A    between atoms: C23_27  and  C24_29 
REMARK   11  A    between atoms: C34_40  and  O7_41 
ROOT
HETATM    1  C5  UNL     1      -3.491  50.099 -23.971  1.00  0.00     0.122 C 
HETATM    2  C6  UNL     1      -4.405  50.021 -22.741  1.00  0.00     0.033 C 
HETATM    3  C7  UNL     1      -4.130  48.757 -21.926  1.00  0.00     0.013 C 
HETATM    4  C8  UNL     1      -2.703  48.778 -21.296  1.00  0.00    -0.026 C 
HETATM    5  C9  UNL     1      -2.273  47.295 -21.125  1.00  0.00     0.016 C 
HETATM    6  C10 UNL     1      -1.672  49.414 -22.293  1.00  0.00     0.071 C 
HETATM    7  C11 UNL     1      -2.161  49.363 -23.750  1.00  0.00     0.045 C 
HETATM    8  C12 UNL     1      -1.172  50.807 -21.935  1.00  0.00     0.161 C 
HETATM    9  O3  UNL     1      -0.963  51.680 -22.776  1.00  0.00    -0.292 OA
HETATM   10  C13 UNL     1      -0.847  51.065 -20.512  1.00  0.00    -0.006 C 
HETATM   11  C14 UNL     1      -1.599  50.429 -19.595  1.00  0.00    -0.030 C 
HETATM   12  C15 UNL     1      -2.786  49.530 -19.899  1.00  0.00     0.027 C 
HETATM   13  C16 UNL     1      -3.220  48.610 -18.700  1.00  0.00     0.011 C 
HETATM   14  C17 UNL     1      -3.047  49.200 -17.279  1.00  0.00     0.014 C 
HETATM   15  C18 UNL     1      -1.624  49.766 -17.099  1.00  0.00    -0.002 C 
HETATM   16  C19 UNL     1      -0.604  48.614 -17.247  1.00  0.00     0.019 C 
HETATM   17  C20 UNL     1      -1.365  50.656 -15.821  1.00  0.00     0.034 C 
HETATM   18  C30 UNL     1      -0.282  51.706 -16.286  1.00  0.00     0.016 C 
HETATM   19  C31 UNL     1      -0.121  51.477 -17.801  1.00  0.00     0.026 C 
HETATM   20  C32 UNL     1       0.194  52.643 -18.723  1.00  0.00     0.013 C 
HETATM   21  C33 UNL     1       0.176  52.144 -20.193  1.00  0.00     0.043 C 
HETATM   22  C34 UNL     1      -1.462  50.856 -18.178  1.00  0.00     0.094 C 
ENDROOT
BRANCH  17  23
HETATM   23  C21 UNL     1      -1.156  50.030 -14.408  1.00  0.00     0.087 C 
HETATM   24  C22 UNL     1       0.113  50.518 -13.680  1.00  0.00     0.049 C 
BRANCH  23  25
HETATM   25  O4  UNL     1      -0.994  48.617 -14.587  1.00  0.00    -0.387 OA
HETATM   26  H33 UNL     1      -1.050  48.211 -13.704  1.00  0.00     0.210 HD
ENDBRANCH  23  25
BRANCH  23  27
HETATM   27  C23 UNL     1      -2.402  50.295 -13.472  1.00  0.00     0.181 C 
BRANCH  27  28
HETATM   28  O5  UNL     1      -3.593  50.324 -14.293  1.00  0.00    -0.390 OA
HETATM   29  H35 UNL     1      -3.760  51.276 -14.464  1.00  0.00     0.210 HD
ENDBRANCH  27  28
BRANCH  27  30
HETATM   30  C24 UNL     1      -2.380  51.616 -12.664  1.00  0.00     0.157 C 
HETATM   31  O6  UNL     1      -3.493  52.448 -13.072  1.00  0.00    -0.382 OA
HETATM   32  C25 UNL     1      -3.823  53.325 -11.982  1.00  0.00     0.172 C 
HETATM   33  C26 UNL     1      -2.996  52.904 -10.768  1.00  0.00     0.012 C 
HETATM   34  C27 UNL     1      -1.818  53.854 -10.533  1.00  0.00     0.012 C 
HETATM   35  C28 UNL     1      -2.531  51.495 -11.138  1.00  0.00     0.019 C 
HETATM   36  C29 UNL     1      -3.557  50.462 -10.663  1.00  0.00     0.013 C 
ENDBRANCH  27  30
ENDBRANCH  23  27
ENDBRANCH  17  23
BRANCH  22  37
HETATM   37  O7  UNL     1      -2.491  51.858 -18.003  1.00  0.00    -0.384 OA
HETATM   38  H54 UNL     1      -2.521  52.417 -18.798  1.00  0.00     0.211 HD
ENDBRANCH  22  37
BRANCH   1  39
HETATM   39  O2  UNL     1      -4.210  49.502 -25.059  1.00  0.00    -0.386 OA
BRANCH  39  40
HETATM   40  C4  UNL     1      -3.493  48.519 -25.809  1.00  0.00     0.170 C 
BRANCH  40  41
HETATM   41  C3  UNL     1      -3.447  48.870 -27.294  1.00  0.00     0.052 C 
BRANCH  41  42
HETATM   42  C2  UNL     1      -2.937  50.288 -27.529  1.00  0.00     0.169 C 
BRANCH  42  43
HETATM   43  O1  UNL     1      -1.649  50.513 -26.960  1.00  0.00    -0.396 OA
HETATM   44  C1  UNL     1      -0.878  51.474 -27.671  1.00  0.00     0.201 C 
ENDBRANCH  42  43
ENDBRANCH  41  42
ENDBRANCH  40  41
ENDBRANCH  39  40
ENDBRANCH   1  39
TORSDOF 11
ENDMDL
