MODEL 1
REMARK minimizedAffinity -6.57112837
REMARK CNNscore 0.550330877
REMARK CNNaffinity 5.70295382
REMARK  4 active torsions:
REMARK  status: ('A' for Active; 'I' for Inactive)
REMARK    1  A    between atoms: C2_2  and  C3_3 
REMARK    2  A    between atoms: C6_6  and  C7_7 
REMARK    3  A    between atoms: C7_7  and  O1_9 
REMARK    4  A    between atoms: C23_29  and  O6_30 
ROOT
HETATM    1  C3  UNL     1     -21.448   0.888  12.034  1.00  0.00     0.008 C 
HETATM    2  C4  UNL     1     -21.050   0.539  10.623  1.00  0.00    -0.023 C 
HETATM    3  C5  UNL     1     -20.417  -0.554  10.166  1.00  0.00     0.004 C 
HETATM    4  C6  UNL     1     -19.881  -1.803  10.840  1.00  0.00     0.182 C 
HETATM    5  O2  UNL     1     -19.651  -1.656  12.252  1.00  0.00    -0.308 OA
HETATM    6  C9  UNL     1     -18.443  -1.140  12.610  1.00  0.00     0.276 C 
HETATM    7  O3  UNL     1     -17.653  -0.616  11.828  1.00  0.00    -0.264 OA
HETATM    8  C10 UNL     1     -18.101  -1.432  14.099  1.00  0.00     0.095 C 
HETATM    9  C11 UNL     1     -19.346  -1.621  14.996  1.00  0.00     0.036 C 
HETATM   10  C12 UNL     1     -17.451  -2.802  14.017  1.00  0.00     0.003 C 
HETATM   11  C13 UNL     1     -16.267  -3.275  14.406  1.00  0.00     0.072 C 
HETATM   12  C14 UNL     1     -15.144  -2.604  15.060  1.00  0.00     0.245 C 
HETATM   13  O4  UNL     1     -14.187  -3.287  15.421  1.00  0.00    -0.268 OA
HETATM   14  N1  UNL     1     -15.118  -1.271  15.241  1.00  0.00    -0.320 N 
HETATM   15  C15 UNL     1     -15.970  -0.224  14.999  1.00  0.00     0.098 C 
HETATM   16  C16 UNL     1     -17.237  -0.251  14.553  1.00  0.00     0.045 C 
HETATM   17  C17 UNL     1     -17.947   1.078  14.473  1.00  0.00     0.194 C 
HETATM   18  O5  UNL     1     -19.163   1.149  14.571  1.00  0.00    -0.287 OA
HETATM   19  C18 UNL     1     -17.180   2.319  14.307  1.00  0.00     0.046 A 
HETATM   20  C19 UNL     1     -15.877   2.321  14.792  1.00  0.00     0.032 A 
HETATM   21  C20 UNL     1     -15.113   3.496  14.810  1.00  0.00     0.026 A 
HETATM   22  C21 UNL     1     -15.654   4.699  14.349  1.00  0.00    -0.027 A 
HETATM   23  C22 UNL     1     -14.850   5.970  14.415  1.00  0.00     0.051 C 
HETATM   24  C23 UNL     1     -16.971   4.701  13.873  1.00  0.00     0.086 A 
HETATM   25  C24 UNL     1     -17.737   3.515  13.817  1.00  0.00     0.059 A 
HETATM   26  C25 UNL     1     -19.104   3.639  13.242  1.00  0.00     0.163 C 
HETATM   27  O7  UNL     1     -19.753   4.645  13.544  1.00  0.00    -0.292 OA
HETATM   28  C26 UNL     1     -19.588   2.666  12.188  1.00  0.00     0.084 C 
HETATM   29  C27 UNL     1     -21.078   2.345  12.382  1.00  0.00     0.016 C 
HETATM   30  C28 UNL     1     -15.298   1.084  15.321  1.00  0.00     0.210 C 
HETATM   31  O8  UNL     1     -14.247   1.101  15.956  1.00  0.00    -0.285 OA
HETATM   32  H20 UNL     1     -14.227  -0.987  15.658  1.00  0.00     0.169 HD
ENDROOT
BRANCH   4  33
HETATM   33  C7  UNL     1     -20.876  -2.976  10.625  1.00  0.00     0.147 C 
HETATM   34  C8  UNL     1     -20.211  -4.340  10.786  1.00  0.00     0.042 C 
BRANCH  33  35
HETATM   35  O1  UNL     1     -21.438  -2.922   9.307  1.00  0.00    -0.393 OA
HETATM   36  H14 UNL     1     -22.303  -3.367   9.345  1.00  0.00     0.210 HD
ENDBRANCH  33  35
ENDBRANCH   4  33
BRANCH   1  37
HETATM   37  C2  UNL     1     -22.943   0.593  12.286  1.00  0.00     0.004 C 
HETATM   38  C1  UNL     1     -23.851   0.645  11.062  1.00  0.00     0.006 C 
ENDBRANCH   1  37
BRANCH  24  39
HETATM   39  O6  UNL     1     -17.483   5.914  13.476  1.00  0.00    -0.359 OA
HETATM   40  H25 UNL     1     -18.465   5.855  13.486  1.00  0.00     0.217 HD
ENDBRANCH  24  39
TORSDOF 4
ENDMDL
