MODEL 1
REMARK minimizedAffinity -7.81462574
REMARK CNNscore 0.665428877
REMARK CNNaffinity 6.56510115
REMARK  13 active torsions:
REMARK  status: ('A' for Active; 'I' for Inactive)
REMARK    1  A    between atoms: C4_4  and  C5_5 
REMARK    2  A    between atoms: C5_5  and  C6_6 
REMARK    3  A    between atoms: C6_6  and  C7_7 
REMARK    4  A    between atoms: C7_7  and  C9_9 
REMARK    5  A    between atoms: C18_18  and  C20_20 
REMARK    6  A    between atoms: C20_20  and  O2_22 
REMARK    7  A    between atoms: C21_23  and  O3_24 
REMARK    8  A    between atoms: O3_24  and  C22_25 
REMARK    9  A    between atoms: C23_27  and  C24_28 
REMARK   10  A    between atoms: C24_28  and  O5_29 
REMARK   11  A    between atoms: C25_30  and  O6_31 
REMARK   12  A    between atoms: C26_32  and  O7_33 
REMARK   13  A    between atoms: C28_35  and  O8_36 
ROOT
HETATM    1  C9  UNL     1       3.986  56.813  -6.120  1.00  0.00    -0.002 C 
HETATM    2  C10 UNL     1       2.998  57.995  -5.904  1.00  0.00     0.006 C 
HETATM    3  C11 UNL     1       1.738  57.704  -6.737  1.00  0.00     0.011 C 
HETATM    4  C12 UNL     1       1.892  56.244  -7.208  1.00  0.00    -0.032 C 
HETATM    5  C13 UNL     1       1.346  55.351  -6.049  1.00  0.00     0.016 C 
HETATM    6  C14 UNL     1       1.160  55.919  -8.542  1.00  0.00     0.004 C 
HETATM    7  C15 UNL     1      -0.360  55.831  -8.402  1.00  0.00     0.007 C 
HETATM    8  C16 UNL     1      -1.034  55.628  -9.754  1.00  0.00     0.007 C 
HETATM    9  C17 UNL     1      -0.644  54.336 -10.509  1.00  0.00     0.018 C 
HETATM   10  C18 UNL     1      -1.704  53.168 -10.492  1.00  0.00     0.072 C 
HETATM   11  C19 UNL     1      -3.109  53.686 -10.903  1.00  0.00     0.030 C 
HETATM   12  C21 UNL     1      -1.256  52.051 -11.505  1.00  0.00     0.146 C 
HETATM   13  C27 UNL     1       0.261  51.932 -11.700  1.00  0.00     0.066 C 
HETATM   14  C28 UNL     1       1.052  52.390 -10.491  1.00  0.00     0.130 C 
HETATM   15  C29 UNL     1       0.806  53.869 -10.223  1.00  0.00    -0.001 A 
HETATM   16  C30 UNL     1       1.897  54.785 -10.741  1.00  0.00     0.024 A 
HETATM   17  C31 UNL     1       1.726  54.663  -9.241  1.00  0.00    -0.025 A 
HETATM   18  C32 UNL     1       2.793  53.874  -8.477  1.00  0.00     0.011 C 
HETATM   19  C33 UNL     1       3.817  54.680  -7.654  1.00  0.00     0.011 C 
HETATM   20  C34 UNL     1       3.445  56.152  -7.430  1.00  0.00    -0.032 C 
HETATM   21  C35 UNL     1       3.953  56.967  -8.659  1.00  0.00     0.016 C 
ENDROOT
BRANCH  12  22
HETATM   22  O3  UNL     1      -1.807  52.321 -12.816  1.00  0.00    -0.352 OA
BRANCH  22  23
HETATM   23  C22 UNL     1      -1.689  51.205 -13.701  1.00  0.00     0.292 C 
HETATM   24  O4  UNL     1      -0.782  51.469 -14.781  1.00  0.00    -0.348 OA
HETATM   25  C23 UNL     1      -1.413  51.000 -16.002  1.00  0.00     0.179 C 
HETATM   26  C25 UNL     1      -2.670  50.221 -15.607  1.00  0.00     0.182 C 
HETATM   27  C26 UNL     1      -3.065  50.930 -14.328  1.00  0.00     0.204 C 
BRANCH  25  28
HETATM   28  C24 UNL     1      -0.387  50.195 -16.792  1.00  0.00     0.198 C 
BRANCH  28  29
HETATM   29  O5  UNL     1       0.399  49.411 -15.890  1.00  0.00    -0.398 OA
HETATM   30  H39 UNL     1      -0.246  48.981 -15.299  1.00  0.00     0.209 HD
ENDBRANCH  28  29
ENDBRANCH  25  28
BRANCH  26  31
HETATM   31  O6  UNL     1      -2.386  48.848 -15.330  1.00  0.00    -0.390 OA
HETATM   32  H41 UNL     1      -3.236  48.371 -15.339  1.00  0.00     0.210 HD
ENDBRANCH  26  31
BRANCH  27  33
HETATM   33  O7  UNL     1      -3.750  52.150 -14.646  1.00  0.00    -0.388 OA
HETATM   34  H43 UNL     1      -3.447  52.795 -13.974  1.00  0.00     0.210 HD
ENDBRANCH  27  33
ENDBRANCH  22  23
ENDBRANCH  12  22
BRANCH  10  35
HETATM   35  C20 UNL     1      -1.930  52.590  -9.089  1.00  0.00     0.151 C 
HETATM   36  O1  UNL     1      -1.607  53.087  -8.023  1.00  0.00    -0.649 OA
BRANCH  35  37
HETATM   37  O2  UNL     1      -2.705  51.485  -9.055  1.00  0.00    -0.776 OA
HETATM   38  H33 UNL     1      -2.729  51.276  -8.097  1.00  0.00     0.167 HD
ENDBRANCH  35  37
ENDBRANCH  10  35
BRANCH  14  39
HETATM   39  O8  UNL     1       0.690  51.632  -9.346  1.00  0.00    -0.395 OA
HETATM   40  H47 UNL     1       1.128  50.769  -9.431  1.00  0.00     0.210 HD
ENDBRANCH  14  39
BRANCH   1  41
HETATM   41  C7  UNL     1       5.473  57.257  -6.037  1.00  0.00    -0.014 C 
HETATM   42  C8  UNL     1       6.415  56.087  -5.739  1.00  0.00     0.010 C 
BRANCH  41  43
HETATM   43  C6  UNL     1       5.705  58.429  -5.045  1.00  0.00     0.008 C 
BRANCH  43  44
HETATM   44  C5  UNL     1       7.028  58.472  -4.265  1.00  0.00     0.028 C 
BRANCH  44  45
HETATM   45  C4  UNL     1       8.162  59.153  -4.982  1.00  0.00    -0.025 C 
HETATM   46  C2  UNL     1       8.513  60.451  -4.895  1.00  0.00    -0.091 C 
HETATM   47  C1  UNL     1       9.709  60.979  -5.643  1.00  0.00     0.042 C 
HETATM   48  C3  UNL     1       7.781  61.485  -4.086  1.00  0.00     0.042 C 
ENDBRANCH  44  45
ENDBRANCH  43  44
ENDBRANCH  41  43
ENDBRANCH   1  41
TORSDOF 13
ENDMDL
