MODEL 1
REMARK minimizedAffinity -8.51226044
REMARK CNNscore 0.689826488
REMARK CNNaffinity 7.22592592
REMARK  10 active torsions:
REMARK  status: ('A' for Active; 'I' for Inactive)
REMARK    1  A    between atoms: C2_2  and  C3_3 
REMARK    2  A    between atoms: C4_4  and  O1_5 
REMARK    3  A    between atoms: C12_13  and  C13_14 
REMARK    4  A    between atoms: C13_14  and  C15_16 
REMARK    5  A    between atoms: C15_16  and  C16_17 
REMARK    6  A    between atoms: C16_17  and  C17_18 
REMARK    7  A    between atoms: C26_27  and  C27_28 
REMARK    8  A    between atoms: C27_28  and  C28_29 
REMARK    9  A    between atoms: C28_29  and  C29_30 
REMARK   10  A    between atoms: C29_30  and  O3_32 
ROOT
HETATM    1  C3  UNL     1       0.410   7.228  11.986  1.00  0.00     0.045 C 
HETATM    2  C4  UNL     1      -0.510   6.164  11.342  1.00  0.00     0.127 C 
HETATM    3  C5  UNL     1      -1.457   5.560  12.371  1.00  0.00     0.038 C 
HETATM    4  C6  UNL     1      -2.473   6.611  12.827  1.00  0.00     0.006 C 
HETATM    5  C7  UNL     1      -1.769   7.844  13.439  1.00  0.00    -0.027 A 
HETATM    6  C8  UNL     1      -2.198   8.242  14.856  1.00  0.00     0.011 C 
HETATM    7  C9  UNL     1      -3.684   8.071  15.226  1.00  0.00     0.011 C 
HETATM    8  C10 UNL     1      -4.504   7.222  14.246  1.00  0.00    -0.032 C 
HETATM    9  C11 UNL     1      -5.012   8.159  13.107  1.00  0.00     0.016 C 
HETATM   10  C12 UNL     1      -5.725   6.444  14.844  1.00  0.00    -0.002 C 
HETATM   11  C21 UNL     1      -5.923   5.304  13.809  1.00  0.00     0.006 C 
HETATM   12  C22 UNL     1      -4.619   5.160  13.008  1.00  0.00     0.011 C 
HETATM   13  C23 UNL     1      -3.593   6.043  13.742  1.00  0.00    -0.032 C 
HETATM   14  C24 UNL     1      -2.985   5.156  14.873  1.00  0.00     0.016 C 
HETATM   15  C25 UNL     1      -1.488   8.986  12.482  1.00  0.00     0.022 A 
HETATM   16  C26 UNL     1      -0.310   8.175  12.977  1.00  0.00    -0.022 A 
ENDROOT
BRANCH  10  17
HETATM   17  C13 UNL     1      -7.049   7.198  15.182  1.00  0.00    -0.014 C 
HETATM   18  C14 UNL     1      -7.407   7.069  16.671  1.00  0.00     0.010 C 
BRANCH  17  19
HETATM   19  C15 UNL     1      -8.261   6.662  14.366  1.00  0.00     0.008 C 
BRANCH  19  20
HETATM   20  C16 UNL     1      -9.629   6.928  15.005  1.00  0.00     0.028 C 
BRANCH  20  21
HETATM   21  C17 UNL     1     -10.500   7.761  14.102  1.00  0.00    -0.025 C 
HETATM   22  C18 UNL     1     -11.782   7.528  13.758  1.00  0.00    -0.091 C 
HETATM   23  C19 UNL     1     -12.501   8.446  12.805  1.00  0.00     0.042 C 
HETATM   24  C20 UNL     1     -12.616   6.386  14.269  1.00  0.00     0.042 C 
ENDBRANCH  20  21
ENDBRANCH  19  20
ENDBRANCH  17  19
ENDBRANCH  10  17
BRANCH  16  25
HETATM   25  C27 UNL     1       0.666   8.841  13.965  1.00  0.00     0.021 C 
BRANCH  25  26
HETATM   26  C28 UNL     1       1.722   7.887  14.527  1.00  0.00     0.111 C 
BRANCH  26  27
HETATM   27  C29 UNL     1       1.602   7.762  16.022  1.00  0.00     0.139 C 
HETATM   28  O2  UNL     1       2.240   8.356  16.873  1.00  0.00    -0.650 OA
BRANCH  27  29
HETATM   29  O3  UNL     1       0.656   6.869  16.377  1.00  0.00    -0.776 OA
HETATM   30  H46 UNL     1       0.672   6.883  17.355  1.00  0.00     0.167 HD
ENDBRANCH  27  29
ENDBRANCH  26  27
ENDBRANCH  25  26
ENDBRANCH  16  25
BRANCH   2  31
HETATM   31  O1  UNL     1       0.270   5.086  10.808  1.00  0.00    -0.395 OA
HETATM   32  H6  UNL     1       0.909   5.477  10.186  1.00  0.00     0.210 HD
ENDBRANCH   2  31
BRANCH   1  33
HETATM   33  C2  UNL     1       1.149   7.974  10.885  1.00  0.00    -0.029 C 
HETATM   34  C1  UNL     1       0.635   8.258   9.681  1.00  0.00     0.007 C 
ENDBRANCH   1  33
TORSDOF 10
ENDMDL
