MODEL 1
REMARK minimizedAffinity -7.13412189
REMARK CNNscore 0.46318984
REMARK CNNaffinity 6.85692739
REMARK  20 active torsions:
REMARK  status: ('A' for Active; 'I' for Inactive)
REMARK    1  A    between atoms: C2_2  and  C3_3 
REMARK    2  A    between atoms: C2_2  and  C28_35 
REMARK    3  A    between atoms: C4_4  and  C5_5 
REMARK    4  A    between atoms: C6_6  and  C7_7 
REMARK    5  A    between atoms: C6_6  and  C11_14 
REMARK    6  A    between atoms: C7_7  and  O1_8 
REMARK    7  A    between atoms: O1_8  and  C8_9 
REMARK    8  A    between atoms: C8_9  and  C9_10 
REMARK    9  A    between atoms: C9_10  and  O2_11 
REMARK   10  A    between atoms: C9_10  and  C10_12 
REMARK   11  A    between atoms: C10_12  and  O3_13 
REMARK   12  A    between atoms: C15_18  and  O4_19 
REMARK   13  A    between atoms: C16_20  and  C17_21 
REMARK   14  A    between atoms: C17_21  and  C18_22 
REMARK   15  A    between atoms: C18_22  and  C19_23 
REMARK   16  A    between atoms: C19_23  and  O5_24 
REMARK   17  A    between atoms: C21_26  and  C23_28 
REMARK   18  A    between atoms: C26_32  and  O7_34 
REMARK   19  A    between atoms: C28_35  and  C29_36 
REMARK   20  A    between atoms: C29_36  and  C30_37 
ROOT
HETATM    1  C11 UNL     1      -0.845   9.312  13.072  1.00  0.00     0.046 C 
HETATM    2  C12 UNL     1      -1.727   8.433  12.173  1.00  0.00     0.013 C 
HETATM    3  C13 UNL     1      -0.710   7.613  11.392  1.00  0.00     0.017 C 
HETATM    4  C14 UNL     1       0.422   7.251  12.407  1.00  0.00     0.024 C 
HETATM    5  C15 UNL     1       0.155   8.252  13.599  1.00  0.00     0.138 C 
HETATM    6  C16 UNL     1       1.827   7.609  11.740  1.00  0.00     0.029 C 
HETATM    7  C20 UNL     1       2.072   6.696  10.530  1.00  0.00    -0.066 C 
HETATM    8  C21 UNL     1       2.250   7.098   9.245  1.00  0.00    -0.021 C 
HETATM    9  C22 UNL     1       2.459   6.165   8.078  1.00  0.00     0.052 C 
HETATM   10  C24 UNL     1       2.112   5.235  10.943  1.00  0.00     0.038 C 
HETATM   11  C25 UNL     1       0.802   4.816  11.596  1.00  0.00     0.042 C 
HETATM   12  C26 UNL     1       0.351   5.715  12.776  1.00  0.00     0.065 C 
HETATM   13  C27 UNL     1      -1.041   5.192  13.205  1.00  0.00     0.047 C 
ENDROOT
BRANCH   1  14
HETATM   14  C6  UNL     1      -1.610  10.253  14.015  1.00  0.00    -0.050 C 
HETATM   15  C5  UNL     1      -2.716  10.005  14.755  1.00  0.00     0.005 C 
BRANCH  15  16
HETATM   16  C4  UNL     1      -3.444   8.769  14.935  1.00  0.00     0.001 C 
HETATM   17  C3  UNL     1      -4.709   8.587  14.521  1.00  0.00     0.006 C 
BRANCH  17  18
HETATM   18  C2  UNL     1      -5.511   7.378  14.705  1.00  0.00    -0.067 C 
HETATM   19  C1  UNL     1      -4.999   6.188  14.345  1.00  0.00     0.019 C 
BRANCH  18  20
HETATM   20  C28 UNL     1      -6.898   7.453  15.325  1.00  0.00     0.041 C 
BRANCH  20  21
HETATM   21  C29 UNL     1      -7.822   6.272  14.976  1.00  0.00     0.032 C 
BRANCH  21  22
HETATM   22  C30 UNL     1      -8.506   6.433  13.642  1.00  0.00    -0.024 C 
HETATM   23  C31 UNL     1      -8.388   5.654  12.549  1.00  0.00    -0.091 C 
HETATM   24  C32 UNL     1      -9.181   5.958  11.304  1.00  0.00     0.042 C 
HETATM   25  C33 UNL     1      -7.493   4.451  12.430  1.00  0.00     0.042 C 
ENDBRANCH  21  22
ENDBRANCH  20  21
ENDBRANCH  18  20
ENDBRANCH  17  18
ENDBRANCH  15  16
BRANCH  14  26
HETATM   26  C7  UNL     1      -0.961  11.618  14.204  1.00  0.00     0.202 C 
BRANCH  26  27
HETATM   27  O1  UNL     1      -1.902  12.662  13.932  1.00  0.00    -0.384 OA
BRANCH  27  28
HETATM   28  C8  UNL     1      -1.702  13.820  14.754  1.00  0.00     0.201 C 
BRANCH  28  29
HETATM   29  C9  UNL     1      -1.600  15.061  13.854  1.00  0.00     0.165 C 
BRANCH  29  30
HETATM   30  O2  UNL     1      -2.232  14.785  12.595  1.00  0.00    -0.391 OA
HETATM   31  H11 UNL     1      -2.131  13.817  12.474  1.00  0.00     0.210 HD
ENDBRANCH  29  30
BRANCH  29  32
HETATM   32  C10 UNL     1      -0.157  15.516  13.591  1.00  0.00     0.198 C 
BRANCH  32  33
HETATM   33  O3  UNL     1       0.377  14.960  12.392  1.00  0.00    -0.398 OA
HETATM   34  H14 UNL     1      -0.277  15.176  11.700  1.00  0.00     0.209 HD
ENDBRANCH  32  33
ENDBRANCH  29  32
ENDBRANCH  28  29
ENDBRANCH  27  28
ENDBRANCH  26  27
ENDBRANCH  14  26
ENDBRANCH   1  14
BRANCH   5  35
HETATM   35  O4  UNL     1      -0.349   7.598  14.754  1.00  0.00    -0.394 OA
HETATM   36  H21 UNL     1       0.322   6.926  14.993  1.00  0.00     0.210 HD
ENDBRANCH   5  35
BRANCH   6  37
HETATM   37  C17 UNL     1       3.066   7.595  12.689  1.00  0.00     0.012 C 
BRANCH  37  38
HETATM   38  C18 UNL     1       4.391   7.424  11.934  1.00  0.00     0.027 C 
BRANCH  38  39
HETATM   39  C19 UNL     1       5.583   7.481  12.883  1.00  0.00     0.164 C 
BRANCH  39  40
HETATM   40  O5  UNL     1       6.342   6.284  12.778  1.00  0.00    -0.401 OA
HETATM   41  H29 UNL     1       5.747   5.538  12.965  1.00  0.00     0.209 HD
ENDBRANCH  39  40
ENDBRANCH  38  39
ENDBRANCH  37  38
ENDBRANCH   6  37
BRANCH  12  42
HETATM   42  O7  UNL     1       1.233   5.489  13.890  1.00  0.00    -0.389 OA
HETATM   43  H41 UNL     1       1.201   4.540  14.105  1.00  0.00     0.210 HD
ENDBRANCH  12  42
BRANCH   8  44
HETATM   44  C23 UNL     1       2.262   8.545   8.840  1.00  0.00     0.265 C 
HETATM   45  O6  UNL     1       2.765   8.929   7.789  1.00  0.00    -0.302 OA
ENDBRANCH   8  44
TORSDOF 20
ENDMDL
