MODEL 1
REMARK minimizedAffinity -9.72594833
REMARK CNNscore 0.746612728
REMARK CNNaffinity 6.99106216
REMARK  12 active torsions:
REMARK  status: ('A' for Active; 'I' for Inactive)
REMARK    1  A    between atoms: C2_2  and  C3_3 
REMARK    2  A    between atoms: C2_2  and  C26_31 
REMARK    3  A    between atoms: C3_3  and  C4_4 
REMARK    4  A    between atoms: C4_4  and  C5_5 
REMARK    5  A    between atoms: C5_5  and  C7_7 
REMARK    6  A    between atoms: C8_8  and  O1_9 
REMARK    7  A    between atoms: C9_10  and  O2_11 
REMARK    8  A    between atoms: C20_22  and  O3_23 
REMARK    9  A    between atoms: C23_26  and  O4_27 
REMARK   10  A    between atoms: C25_29  and  O5_30 
REMARK   11  A    between atoms: C26_31  and  C28_33 
REMARK   12  A    between atoms: C28_33  and  O6_34 
ROOT
HETATM    1  C7  UNL     1      -2.239   7.585  12.851  1.00  0.00     0.029 C 
HETATM    2  C8  UNL     1      -2.250   6.084  12.387  1.00  0.00     0.152 C 
HETATM    3  C9  UNL     1      -3.623   5.496  12.803  1.00  0.00     0.155 C 
HETATM    4  C10 UNL     1      -4.406   6.704  13.304  1.00  0.00     0.060 C 
HETATM    5  C11 UNL     1      -3.326   7.610  13.983  1.00  0.00    -0.029 C 
HETATM    6  C12 UNL     1      -2.727   7.096  15.315  1.00  0.00     0.016 C 
HETATM    7  C13 UNL     1      -4.009   8.971  14.238  1.00  0.00     0.011 C 
HETATM    8  C14 UNL     1      -5.304   8.836  15.065  1.00  0.00     0.009 C 
HETATM    9  C15 UNL     1      -6.326   7.862  14.430  1.00  0.00     0.029 C 
HETATM   10  C16 UNL     1      -7.714   7.781  15.178  1.00  0.00    -0.031 C 
HETATM   11  C17 UNL     1      -7.562   7.275  16.633  1.00  0.00     0.016 C 
HETATM   12  C18 UNL     1      -8.381   9.190  15.229  1.00  0.00     0.012 C 
HETATM   13  C19 UNL     1      -9.832   9.173  15.717  1.00  0.00     0.032 C 
HETATM   14  C20 UNL     1     -10.700   8.178  14.956  1.00  0.00     0.118 C 
HETATM   15  C21 UNL     1     -10.073   6.785  14.893  1.00  0.00     0.039 C 
HETATM   16  C22 UNL     1      -8.646   6.856  14.329  1.00  0.00     0.025 C 
HETATM   17  C23 UNL     1      -8.036   5.464  14.087  1.00  0.00     0.126 C 
HETATM   18  C24 UNL     1      -6.679   5.571  13.382  1.00  0.00     0.071 C 
HETATM   19  C25 UNL     1      -5.682   6.466  14.137  1.00  0.00     0.071 C 
ENDROOT
BRANCH   1  20
HETATM   20  C5  UNL     1      -0.815   8.154  13.124  1.00  0.00    -0.011 C 
HETATM   21  C6  UNL     1      -0.812   9.277  14.168  1.00  0.00     0.010 C 
BRANCH  20  22
HETATM   22  C4  UNL     1      -0.192   8.696  11.806  1.00  0.00     0.009 C 
BRANCH  22  23
HETATM   23  C3  UNL     1       0.505   7.600  10.978  1.00  0.00     0.034 C 
BRANCH  23  24
HETATM   24  C2  UNL     1       0.866   7.945   9.536  1.00  0.00    -0.083 C 
HETATM   25  C1  UNL     1      -0.033   8.401   8.643  1.00  0.00     0.015 C 
BRANCH  24  26
HETATM   26  C26 UNL     1       2.354   7.750   9.202  1.00  0.00     0.033 C 
HETATM   27  C27 UNL     1       2.816   8.411   7.893  1.00  0.00     0.017 C 
BRANCH  26  28
HETATM   28  C28 UNL     1       2.772   6.261   9.221  1.00  0.00     0.172 C 
BRANCH  28  29
HETATM   29  O6  UNL     1       2.700   5.645   7.939  1.00  0.00    -0.400 OA
HETATM   30  H48 UNL     1       3.172   6.210   7.306  1.00  0.00     0.209 HD
ENDBRANCH  28  29
ENDBRANCH  26  28
ENDBRANCH  24  26
ENDBRANCH  23  24
ENDBRANCH  22  23
ENDBRANCH  20  22
ENDBRANCH   1  20
BRANCH   2  31
HETATM   31  O1  UNL     1      -1.226   5.285  12.982  1.00  0.00    -0.393 OA
HETATM   32  H13 UNL     1      -0.385   5.494  12.538  1.00  0.00     0.210 HD
ENDBRANCH   2  31
BRANCH   3  33
HETATM   33  O2  UNL     1      -3.494   4.507  13.824  1.00  0.00    -0.392 OA
HETATM   34  H15 UNL     1      -2.535   4.281  13.821  1.00  0.00     0.210 HD
ENDBRANCH   3  33
BRANCH  19  35
HETATM   35  O5  UNL     1      -5.349   5.795  15.343  1.00  0.00    -0.389 OA
HETATM   36  H41 UNL     1      -4.745   5.058  15.097  1.00  0.00     0.210 HD
ENDBRANCH  19  35
BRANCH  17  37
HETATM   37  O4  UNL     1      -8.908   4.691  13.256  1.00  0.00    -0.395 OA
HETATM   38  H38 UNL     1      -8.990   5.142  12.398  1.00  0.00     0.210 HD
ENDBRANCH  17  37
BRANCH  14  39
HETATM   39  O3  UNL     1     -11.973   8.109  15.588  1.00  0.00    -0.396 OA
HETATM   40  H33 UNL     1     -12.493   7.427  15.129  1.00  0.00     0.210 HD
ENDBRANCH  14  39
TORSDOF 12
ENDMDL
