MODEL 1
REMARK minimizedAffinity -10.0331249
REMARK CNNscore 0.495827168
REMARK CNNaffinity 7.50325823
REMARK  18 active torsions:
REMARK  status: ('A' for Active; 'I' for Inactive)
REMARK    1  A    between atoms: C2_2  and  C4_4 
REMARK    2  A    between atoms: C4_4  and  N1_5 
REMARK    3  A    between atoms: C4_4  and  C30_38 
REMARK       I    between atoms: N1_5  and  C5_6 
REMARK    4  A    between atoms: C5_6  and  C6_8 
REMARK    5  A    between atoms: C6_8  and  C7_9 
REMARK    6  A    between atoms: C7_9  and  C8_10 
REMARK    7  A    between atoms: C8_10  and  O3_12 
REMARK    8  A    between atoms: O3_12  and  C9_13 
REMARK    9  A    between atoms: C9_13  and  C10_14 
REMARK   10  A    between atoms: C10_14  and  C11_16 
REMARK   11  A    between atoms: C11_16  and  O5_17 
REMARK   12  A    between atoms: C26_33  and  O7_34 
REMARK       I    between atoms: C30_38  and  N2_40 
REMARK   13  A    between atoms: N2_40  and  C31_41 
REMARK   14  A    between atoms: C31_41  and  C32_42 
REMARK   15  A    between atoms: C32_42  and  C33_43 
REMARK   16  A    between atoms: C32_42  and  C35_47 
REMARK   17  A    between atoms: C33_43  and  C34_44 
REMARK   18  A    between atoms: C34_44  and  O10_46 
ROOT
HETATM    1  C8  UNL     1      -4.869  48.180 -26.801  1.00  0.00     0.259 C 
HETATM    2  O2  UNL     1      -5.120  48.339 -25.614  1.00  0.00    -0.265 OA
ENDROOT
BRANCH   1   3
HETATM    3  C7  UNL     1      -3.518  48.459 -27.414  1.00  0.00     0.120 C 
BRANCH   3   4
HETATM    4  C6  UNL     1      -3.173  49.940 -27.429  1.00  0.00     0.112 C 
BRANCH   4   5
HETATM    5  C5  UNL     1      -2.085  50.241 -26.421  1.00  0.00     0.218 C 
HETATM    6  N1  UNL     1      -1.095  51.073 -26.889  1.00  0.00    -0.347 N 
HETATM    7  H9  UNL     1      -1.172  51.478 -27.813  1.00  0.00     0.163 HD
HETATM    8  O1  UNL     1      -2.084  49.749 -25.298  1.00  0.00    -0.274 OA
BRANCH   6   9
HETATM    9  C4  UNL     1       0.067  51.429 -26.054  1.00  0.00     0.179 C 
BRANCH   9  10
HETATM   10  C2  UNL     1       1.187  52.030 -26.942  1.00  0.00     0.009 C 
HETATM   11  C1  UNL     1       2.570  51.441 -26.641  1.00  0.00     0.012 C 
HETATM   12  C3  UNL     1       0.881  51.817 -28.432  1.00  0.00     0.012 C 
ENDBRANCH   9  10
BRANCH   9  13
HETATM   13  C30 UNL     1      -0.366  52.423 -24.944  1.00  0.00     0.240 C 
HETATM   14  O8  UNL     1      -0.677  53.587 -25.183  1.00  0.00    -0.271 OA
HETATM   15  N2  UNL     1      -0.513  51.865 -23.690  1.00  0.00    -0.359 N 
HETATM   16  H43 UNL     1      -0.407  50.864 -23.610  1.00  0.00     0.162 HD
BRANCH  15  17
HETATM   17  C31 UNL     1      -1.132  52.584 -22.595  1.00  0.00     0.132 C 
BRANCH  17  18
HETATM   18  C32 UNL     1      -0.824  51.931 -21.229  1.00  0.00     0.046 C 
BRANCH  18  19
HETATM   19  C33 UNL     1       0.661  52.119 -20.884  1.00  0.00     0.120 C 
BRANCH  19  20
HETATM   20  C34 UNL     1       0.942  53.477 -20.300  1.00  0.00     0.140 C 
HETATM   21  O9  UNL     1       1.440  54.444 -20.853  1.00  0.00    -0.650 OA
BRANCH  20  22
HETATM   22  O10 UNL     1       0.541  53.561 -19.014  1.00  0.00    -0.776 OA
HETATM   23  H49 UNL     1       0.762  54.480 -18.757  1.00  0.00     0.167 HD
ENDBRANCH  20  22
ENDBRANCH  19  20
ENDBRANCH  18  19
BRANCH  18  24
HETATM   24  C35 UNL     1      -1.255  50.467 -21.224  1.00  0.00    -0.052 A 
HETATM   25  C36 UNL     1      -0.423  49.447 -20.733  1.00  0.00     0.007 A 
HETATM   26  C37 UNL     1      -0.829  48.112 -20.788  1.00  0.00     0.001 A 
HETATM   27  C38 UNL     1      -2.069  47.780 -21.324  1.00  0.00     0.000 A 
HETATM   28  C39 UNL     1      -2.911  48.781 -21.802  1.00  0.00     0.001 A 
HETATM   29  C40 UNL     1      -2.507  50.115 -21.755  1.00  0.00     0.007 A 
ENDBRANCH  18  24
ENDBRANCH  17  18
ENDBRANCH  15  17
ENDBRANCH   9  13
ENDBRANCH   6   9
ENDBRANCH   4   5
ENDBRANCH   3   4
ENDBRANCH   1   3
BRANCH   1  30
HETATM   30  O3  UNL     1      -5.738  47.700 -27.728  1.00  0.00    -0.314 OA
BRANCH  30  31
HETATM   31  C9  UNL     1      -5.428  48.061 -29.075  1.00  0.00     0.260 C 
BRANCH  31  32
HETATM   32  C10 UNL     1      -6.419  47.465 -30.065  1.00  0.00     0.185 C 
HETATM   33  O4  UNL     1      -6.058  46.710 -30.980  1.00  0.00    -0.292 OA
BRANCH  32  34
HETATM   34  C11 UNL     1      -7.915  47.811 -29.938  1.00  0.00     0.128 C 
HETATM   35  C12 UNL     1      -8.694  48.107 -31.241  1.00  0.00     0.047 C 
HETATM   36  C13 UNL     1     -10.141  47.622 -31.001  1.00  0.00     0.009 C 
HETATM   37  C14 UNL     1     -10.180  47.252 -29.521  1.00  0.00     0.002 C 
HETATM   38  C15 UNL     1     -11.301  46.332 -29.020  1.00  0.00    -0.002 C 
HETATM   39  C28 UNL     1      -8.763  46.701 -29.243  1.00  0.00     0.001 C 
HETATM   40  C16 UNL     1     -12.686  46.894 -29.410  1.00  0.00     0.010 C 
HETATM   41  C25 UNL     1     -11.151  46.171 -27.464  1.00  0.00     0.031 C 
HETATM   42  C17 UNL     1     -13.849  46.137 -28.769  1.00  0.00     0.035 C 
HETATM   43  C18 UNL     1     -13.614  46.049 -27.282  1.00  0.00    -0.068 C 
HETATM   44  C19 UNL     1     -14.419  46.706 -26.428  1.00  0.00     0.053 C 
HETATM   45  C23 UNL     1     -12.330  45.315 -26.864  1.00  0.00    -0.014 C 
HETATM   46  C20 UNL     1     -14.050  46.872 -25.001  1.00  0.00     0.149 C 
HETATM   47  O6  UNL     1     -14.839  47.412 -24.230  1.00  0.00    -0.293 OA
HETATM   48  C21 UNL     1     -12.663  46.458 -24.582  1.00  0.00     0.084 C 
HETATM   49  C22 UNL     1     -12.272  45.188 -25.315  1.00  0.00     0.022 C 
HETATM   50  C24 UNL     1     -12.371  43.858 -27.397  1.00  0.00     0.020 C 
HETATM   51  C26 UNL     1      -9.714  45.748 -27.040  1.00  0.00     0.124 C 
HETATM   52  C27 UNL     1      -8.604  46.585 -27.712  1.00  0.00     0.045 C 
HETATM   53  C29 UNL     1      -8.495  45.332 -29.921  1.00  0.00     0.019 C 
BRANCH  34  54
HETATM   54  O5  UNL     1      -7.958  49.018 -29.150  1.00  0.00    -0.381 OA
HETATM   55  H16 UNL     1      -7.227  48.953 -28.500  1.00  0.00     0.211 HD
ENDBRANCH  34  54
BRANCH  51  56
HETATM   56  O7  UNL     1      -9.487  44.369 -27.288  1.00  0.00    -0.395 OA
HETATM   57  H37 UNL     1      -8.612  44.141 -26.929  1.00  0.00     0.210 HD
ENDBRANCH  51  56
ENDBRANCH  32  34
ENDBRANCH  31  32
ENDBRANCH  30  31
ENDBRANCH   1  30
TORSDOF 18
ENDMDL
