MODEL 1
REMARK minimizedAffinity -8.69953632
REMARK CNNscore 0.475639999
REMARK CNNaffinity 7.57741594
REMARK  8 active torsions:
REMARK  status: ('A' for Active; 'I' for Inactive)
REMARK    1  A    between atoms: O1_2  and  C2_3 
REMARK    2  A    between atoms: C5_6  and  N1_7 
REMARK    3  A    between atoms: N1_7  and  C6_8 
REMARK    4  A    between atoms: C16_25  and  O4_26 
REMARK    5  A    between atoms: O4_26  and  C17_27 
REMARK    6  A    between atoms: C17_27  and  C18_28 
REMARK    7  A    between atoms: C18_28  and  C19_29 
REMARK    8  A    between atoms: C19_29  and  N4_30 
ROOT
HETATM    1  C2  UNL     1      -0.928  50.555 -21.851  1.00  0.00     0.102 A 
HETATM    2  C3  UNL     1      -0.592  51.508 -22.813  1.00  0.00     0.057 A 
HETATM    3  C4  UNL     1       0.252  52.604 -22.494  1.00  0.00     0.038 A 
HETATM    4  C5  UNL     1       0.659  53.612 -23.391  1.00  0.00     0.119 A 
HETATM    5  N2  UNL     1       1.441  54.641 -23.019  1.00  0.00    -0.338 N 
ATOM      6  H2  UNL     1       1.706  55.378 -23.672  1.00  0.00     0.168 HD
HETATM    7  C13 UNL     1       1.852  54.645 -21.751  1.00  0.00     0.182 A 
HETATM    8  N3  UNL     1       1.542  53.739 -20.815  1.00  0.00    -0.351 N 
ATOM      9  H3  UNL     1       1.896  53.814 -19.861  1.00  0.00     0.166 HD
HETATM   10  C14 UNL     1       0.748  52.733 -21.191  1.00  0.00     0.050 A 
HETATM   11  C15 UNL     1       0.401  51.780 -20.242  1.00  0.00     0.070 A 
HETATM   12  C16 UNL     1      -0.430  50.696 -20.547  1.00  0.00     0.104 A 
ENDROOT
BRANCH   4  13
HETATM   13  N1  UNL     1       0.230  53.616 -24.735  1.00  0.00    -0.338 N 
HETATM   14  H5  UNL     1      -0.291  54.467 -24.932  1.00  0.00     0.167 HD
BRANCH  13  15
HETATM   15  C6  UNL     1      -0.346  52.515 -25.420  1.00  0.00     0.092 A 
HETATM   16  C7  UNL     1       0.476  51.550 -26.042  1.00  0.00     0.063 A 
HETATM   17 CL1  UNL     1       2.194  51.769 -26.095  1.00  0.00    -0.082 Cl
HETATM   18  C8  UNL     1      -0.059  50.406 -26.666  1.00  0.00     0.029 A 
HETATM   19  C9  UNL     1      -1.435  50.187 -26.671  1.00  0.00     0.041 A 
HETATM   20  C10 UNL     1      -2.231  51.121 -26.044  1.00  0.00     0.107 A 
HETATM   21  C11 UNL     1      -1.712  52.243 -25.431  1.00  0.00     0.133 A 
HETATM   22  O3  UNL     1      -3.587  51.049 -25.951  1.00  0.00    -0.323 OA
HETATM   23  O2  UNL     1      -2.698  53.009 -24.882  1.00  0.00    -0.321 OA
HETATM   24  C12 UNL     1      -3.872  52.238 -25.188  1.00  0.00     0.352 A 
ENDBRANCH  13  15
ENDBRANCH   4  13
BRANCH   1  25
HETATM   25  O1  UNL     1      -1.738  49.473 -22.079  1.00  0.00    -0.353 OA
HETATM   26  C1  UNL     1      -3.090  49.722 -22.440  1.00  0.00     0.210 C 
ENDBRANCH   1  25
BRANCH  12  27
HETATM   27  O4  UNL     1      -0.798  49.724 -19.652  1.00  0.00    -0.348 OA
BRANCH  27  28
HETATM   28  C17 UNL     1      -1.250  50.136 -18.365  1.00  0.00     0.177 C 
BRANCH  28  29
HETATM   29  C18 UNL     1      -0.276  49.626 -17.302  1.00  0.00     0.057 C 
BRANCH  29  30
HETATM   30  C19 UNL     1      -0.053  50.662 -16.191  1.00  0.00     0.274 C 
BRANCH  30  31
HETATM   31  N4  UNL     1       1.347  51.115 -16.121  1.00  0.00     0.088 N 
HETATM   32  C20 UNL     1       1.903  50.850 -14.780  1.00  0.00     0.272 C 
HETATM   33  C21 UNL     1       3.115  51.721 -14.418  1.00  0.00     0.030 C 
HETATM   34  C22 UNL     1       3.906  52.117 -15.654  1.00  0.00     0.003 C 
HETATM   35  C23 UNL     1       3.012  52.837 -16.667  1.00  0.00     0.030 C 
HETATM   36  C24 UNL     1       1.521  52.519 -16.494  1.00  0.00     0.272 C 
ENDBRANCH  30  31
ENDBRANCH  29  30
ENDBRANCH  28  29
ENDBRANCH  27  28
ENDBRANCH  12  27
TORSDOF 8
ENDMDL
