MODEL 1
REMARK minimizedAffinity -8.04050636
REMARK CNNscore 0.696215928
REMARK CNNaffinity 6.03937292
REMARK  11 active torsions:
REMARK  status: ('A' for Active; 'I' for Inactive)
REMARK    1  A    between atoms: C12_13  and  O2_14 
REMARK    2  A    between atoms: C19_21  and  O3_22 
REMARK    3  A    between atoms: C19_21  and  C20_23 
REMARK    4  A    between atoms: C20_23  and  C21_25 
REMARK    5  A    between atoms: C21_25  and  O5_26 
REMARK    6  A    between atoms: O5_26  and  C22_27 
REMARK    7  A    between atoms: C22_27  and  C23_29 
REMARK    8  A    between atoms: C23_29  and  C24_30 
REMARK    9  A    between atoms: C24_30  and  C25_31 
REMARK       I    between atoms: C25_31  and  N1_33 
REMARK   10  A    between atoms: N1_33  and  C26_34 
REMARK   11  A    between atoms: C26_34  and  C27_35 
ROOT
HETATM    1  C1  UNL     1     -15.809  44.406 -24.602  1.00  0.00     0.020 C 
HETATM    2  C2  UNL     1     -16.159  45.623 -25.485  1.00  0.00    -0.014 C 
HETATM    3  C3  UNL     1     -16.729  46.758 -24.583  1.00  0.00     0.022 C 
HETATM    4  C4  UNL     1     -18.126  46.475 -24.050  1.00  0.00     0.084 C 
HETATM    5  C5  UNL     1     -19.070  46.180 -25.185  1.00  0.00     0.149 C 
HETATM    6  O1  UNL     1     -20.269  46.446 -25.128  1.00  0.00    -0.293 OA
HETATM    7  C6  UNL     1     -18.539  45.455 -26.363  1.00  0.00     0.053 C 
HETATM    8  C7  UNL     1     -17.233  45.159 -26.480  1.00  0.00    -0.068 C 
HETATM    9  C8  UNL     1     -16.762  44.280 -27.614  1.00  0.00     0.035 C 
HETATM   10  C9  UNL     1     -15.597  44.902 -28.367  1.00  0.00     0.010 C 
HETATM   11  C10 UNL     1     -14.432  45.266 -27.432  1.00  0.00    -0.002 C 
HETATM   12  C11 UNL     1     -14.928  46.207 -26.290  1.00  0.00     0.031 C 
HETATM   13  C12 UNL     1     -13.754  46.758 -25.425  1.00  0.00     0.124 C 
HETATM   14  C13 UNL     1     -12.576  47.316 -26.253  1.00  0.00     0.045 C 
HETATM   15  C14 UNL     1     -12.085  46.367 -27.369  1.00  0.00     0.001 C 
HETATM   16  C15 UNL     1     -11.353  45.135 -26.775  1.00  0.00     0.019 C 
HETATM   17  C16 UNL     1     -13.324  45.987 -28.218  1.00  0.00     0.002 C 
HETATM   18  C17 UNL     1     -12.721  45.295 -29.433  1.00  0.00     0.009 C 
HETATM   19  C18 UNL     1     -11.420  46.077 -29.703  1.00  0.00     0.047 C 
HETATM   20  C19 UNL     1     -11.193  47.019 -28.479  1.00  0.00     0.128 C 
ENDROOT
BRANCH  20  21
HETATM   21  O3  UNL     1     -11.727  48.294 -28.847  1.00  0.00    -0.381 OA
HETATM   22  H27 UNL     1     -11.155  48.647 -29.561  1.00  0.00     0.211 HD
ENDBRANCH  20  21
BRANCH  20  23
HETATM   23  C20 UNL     1      -9.691  47.143 -28.109  1.00  0.00     0.185 C 
HETATM   24  O4  UNL     1      -8.868  46.290 -28.461  1.00  0.00    -0.292 OA
BRANCH  23  25
HETATM   25  C21 UNL     1      -9.241  48.300 -27.208  1.00  0.00     0.260 C 
BRANCH  25  26
HETATM   26  O5  UNL     1      -9.279  48.169 -25.795  1.00  0.00    -0.314 OA
BRANCH  26  27
HETATM   27  C22 UNL     1      -8.437  47.233 -25.287  1.00  0.00     0.259 C 
HETATM   28  O6  UNL     1      -8.803  46.218 -24.704  1.00  0.00    -0.265 OA
BRANCH  27  29
HETATM   29  C23 UNL     1      -6.993  47.518 -25.630  1.00  0.00     0.120 C 
BRANCH  29  30
HETATM   30  C24 UNL     1      -6.319  48.565 -24.753  1.00  0.00     0.112 C 
BRANCH  30  31
HETATM   31  C25 UNL     1      -4.807  48.514 -24.851  1.00  0.00     0.218 C 
HETATM   32  O7  UNL     1      -4.080  48.291 -23.890  1.00  0.00    -0.274 OA
HETATM   33  N1  UNL     1      -4.340  48.767 -26.121  1.00  0.00    -0.357 N 
HETATM   34  H34 UNL     1      -4.993  48.761 -26.891  1.00  0.00     0.162 HD
BRANCH  33  35
HETATM   35  C26 UNL     1      -2.932  48.674 -26.440  1.00  0.00     0.161 C 
BRANCH  35  36
HETATM   36  C27 UNL     1      -2.330  50.040 -26.631  1.00  0.00    -0.038 A 
HETATM   37  C28 UNL     1      -3.077  51.090 -27.172  1.00  0.00     0.025 A 
HETATM   38  C29 UNL     1      -2.463  52.322 -27.346  1.00  0.00     0.088 A 
HETATM   39  N2  UNL     1      -1.174  52.570 -27.032  1.00  0.00    -0.375 N 
HETATM   40  C30 UNL     1      -0.465  51.541 -26.518  1.00  0.00     0.088 A 
ATOM     41  H2  UNL     1      -0.755  53.489 -27.175  1.00  0.00     0.164 HD
HETATM   42  C31 UNL     1      -0.990  50.277 -26.304  1.00  0.00     0.025 A 
ENDBRANCH  35  36
ENDBRANCH  33  35
ENDBRANCH  30  31
ENDBRANCH  29  30
ENDBRANCH  27  29
ENDBRANCH  26  27
ENDBRANCH  25  26
ENDBRANCH  23  25
ENDBRANCH  20  23
BRANCH  13  43
HETATM   43  O2  UNL     1     -13.252  45.819 -24.484  1.00  0.00    -0.395 OA
HETATM   44  H16 UNL     1     -13.258  44.934 -24.880  1.00  0.00     0.210 HD
ENDBRANCH  13  43
TORSDOF 11
ENDMDL
