MODEL 1
REMARK minimizedAffinity -10.3788986
REMARK  5 active torsions:
REMARK  status: ('A' for Active; 'I' for Inactive)
REMARK    1  A    between atoms: N1_2  and  C2_3 
REMARK    2  A    between atoms: C4_5  and  N3_29 
REMARK    3  A    between atoms: C5_7  and  N2_12 
REMARK    4  A    between atoms: C7_9  and  O2_10 
REMARK    5  A    between atoms: C28_35  and  O4_36 
ROOT
HETATM    1  C2  UNL     1      10.086  -7.970  26.373  1.00  0.00     0.257 C 
HETATM    2  C3  UNL     1       9.157  -8.003  27.593  1.00  0.00     0.092 C 
HETATM    3  C4  UNL     1       9.921  -7.896  28.918  1.00  0.00     0.234 C 
HETATM    4  O1  UNL     1      11.332  -8.046  28.796  1.00  0.00    -0.333 OA
HETATM    5  C5  UNL     1      12.011  -7.219  27.818  1.00  0.00     0.168 C 
HETATM    6  C6  UNL     1      13.123  -8.196  27.368  1.00  0.00     0.074 C 
HETATM    7  C7  UNL     1      11.126  -6.846  26.578  1.00  0.00     0.209 C 
ENDROOT
BRANCH   1   8
HETATM    8  N1  UNL     1       9.350  -7.734  25.112  1.00  0.00     0.086 N 
HETATM    9  C1  UNL     1       7.938  -8.080  25.184  1.00  0.00     0.307 C 
HETATM   10  H4  UNL     1       9.455  -6.746  24.861  1.00  0.00     0.316 HD
ENDBRANCH   1   8
BRANCH   7  11
HETATM   11  O2  UNL     1      10.363  -5.634  26.772  1.00  0.00    -0.384 OA
HETATM   12  C8  UNL     1      11.161  -4.527  27.166  1.00  0.00     0.202 C 
ENDBRANCH   7  11
BRANCH   3  13
HETATM   13  N3  UNL     1       9.583  -6.744  29.749  1.00  0.00    -0.316 N 
HETATM   14  C24 UNL     1      10.499  -6.022  30.502  1.00  0.00     0.048 A 
HETATM   15  C19 UNL     1       9.819  -4.918  31.043  1.00  0.00     0.004 A 
HETATM   16  C23 UNL     1      11.867  -6.244  30.743  1.00  0.00     0.030 A 
HETATM   17  C18 UNL     1       8.465  -4.986  30.595  1.00  0.00     0.022 A 
HETATM   18  C20 UNL     1      10.545  -4.025  31.859  1.00  0.00     0.014 A 
HETATM   19  C17 UNL     1       7.272  -4.257  30.710  1.00  0.00     0.057 A 
HETATM   20  C25 UNL     1       8.370  -6.134  29.827  1.00  0.00     0.077 A 
HETATM   21  C16 UNL     1       6.022  -4.632  30.129  1.00  0.00     0.020 A 
HETATM   22  C27 UNL     1       7.051  -2.981  31.403  1.00  0.00     0.255 A 
HETATM   23  C15 UNL     1       5.880  -5.807  29.372  1.00  0.00     0.017 A 
HETATM   24  C28 UNL     1       5.005  -3.586  30.470  1.00  0.00     0.257 A 
HETATM   25  C14 UNL     1       4.827  -6.498  28.715  1.00  0.00     0.004 A 
HETATM   26  C26 UNL     1       7.014  -6.568  29.191  1.00  0.00     0.077 A 
HETATM   27  C9  UNL     1       5.359  -7.687  28.176  1.00  0.00     0.049 A 
HETATM   28  C13 UNL     1       3.447  -6.230  28.569  1.00  0.00     0.014 A 
HETATM   29  N2  UNL     1       6.726  -7.690  28.454  1.00  0.00    -0.308 N 
HETATM   30  C10 UNL     1       4.511  -8.607  27.528  1.00  0.00     0.030 A 
HETATM   31  C11 UNL     1       3.150  -8.312  27.395  1.00  0.00     0.002 A 
HETATM   32  C12 UNL     1       2.622  -7.136  27.905  1.00  0.00     0.001 A 
HETATM   33  N4  UNL     1       5.709  -2.675  31.306  1.00  0.00    -0.326 N 
HETATM   34  H24 UNL     1       5.405  -1.733  31.507  1.00  0.00     0.165 HD
HETATM   35  O3  UNL     1       7.873  -2.273  31.948  1.00  0.00    -0.268 OA
HETATM   36  C21 UNL     1      11.903  -4.245  32.109  1.00  0.00     0.001 A 
HETATM   37  C22 UNL     1      12.554  -5.341  31.556  1.00  0.00     0.002 A 
BRANCH  24  38
HETATM   38  O4  UNL     1       3.960  -4.105  31.246  1.00  0.00    -0.372 OA
HETATM   39  H26 UNL     1       4.051  -3.654  32.100  1.00  0.00     0.212 HD
ENDBRANCH  24  38
ENDBRANCH   3  13
TORSDOF 5
ENDMDL
