MODEL 1
REMARK minimizedAffinity -8.07336998
REMARK CNNscore 0.817199945
REMARK CNNaffinity 7.37168455
REMARK  12 active torsions:
REMARK  status: ('A' for Active; 'I' for Inactive)
REMARK    1  A    between atoms: C4_5  and  C5_6 
REMARK    2  A    between atoms: C5_6  and  O2_7 
REMARK    3  A    between atoms: C5_6  and  C6_8 
REMARK    4  A    between atoms: C6_8  and  O3_10 
REMARK    5  A    between atoms: C6_8  and  C8_11 
REMARK    6  A    between atoms: C11_14  and  O4_15 
REMARK    7  A    between atoms: C17_22  and  O6_23 
REMARK    8  A    between atoms: O6_23  and  C18_24 
REMARK    9  A    between atoms: C18_24  and  C19_25 
REMARK   10  A    between atoms: C19_25  and  C20_26 
REMARK   11  A    between atoms: C35_41  and  C36_42 
REMARK   12  A    between atoms: C36_42  and  O7_43 
ROOT
HETATM    1  C8  UNL     1      -1.828  52.438 -10.264  1.00  0.00     0.034 C 
HETATM    2  C9  UNL     1      -3.170  53.090 -10.719  1.00  0.00     0.012 C 
HETATM    3  C10 UNL     1      -3.454  52.621 -12.162  1.00  0.00     0.044 C 
HETATM    4  C11 UNL     1      -2.580  51.378 -12.306  1.00  0.00     0.089 C 
HETATM    5  C12 UNL     1      -2.270  50.770 -13.649  1.00  0.00    -0.037 C 
HETATM    6  C13 UNL     1      -2.659  51.312 -14.810  1.00  0.00     0.057 C 
HETATM    7  C14 UNL     1      -2.213  50.765 -16.106  1.00  0.00     0.154 C 
HETATM    8  O5  UNL     1      -2.679  51.265 -17.129  1.00  0.00    -0.293 OA
HETATM    9  C15 UNL     1      -1.156  49.659 -16.114  1.00  0.00     0.071 C 
HETATM   10  C16 UNL     1      -1.230  48.894 -17.450  1.00  0.00     0.045 C 
HETATM   11  C17 UNL     1      -2.522  48.088 -17.586  1.00  0.00     0.122 C 
HETATM   12  C26 UNL     1      -2.692  47.131 -16.403  1.00  0.00     0.033 C 
HETATM   13  C27 UNL     1      -2.582  47.844 -15.054  1.00  0.00     0.013 C 
HETATM   14  C28 UNL     1      -1.291  48.710 -14.890  1.00  0.00    -0.026 C 
HETATM   15  C29 UNL     1      -0.074  47.750 -14.828  1.00  0.00     0.016 C 
HETATM   16  C30 UNL     1      -1.406  49.515 -13.541  1.00  0.00     0.026 C 
HETATM   17  C31 UNL     1      -0.078  49.902 -12.839  1.00  0.00     0.011 C 
HETATM   18  C32 UNL     1      -0.300  50.627 -11.483  1.00  0.00     0.014 C 
HETATM   19  C33 UNL     1      -1.255  51.841 -11.608  1.00  0.00    -0.002 C 
HETATM   20  C34 UNL     1      -0.511  52.933 -12.430  1.00  0.00     0.019 C 
ENDROOT
BRANCH   1  21
HETATM   21  C6  UNL     1      -0.910  53.287  -9.310  1.00  0.00     0.087 C 
HETATM   22  C7  UNL     1      -1.361  53.353  -7.844  1.00  0.00     0.049 C 
BRANCH  21  23
HETATM   23  C5  UNL     1       0.626  52.923  -9.376  1.00  0.00     0.181 C 
BRANCH  23  24
HETATM   24  C4  UNL     1       1.633  54.060  -9.648  1.00  0.00     0.159 C 
HETATM   25  O1  UNL     1       2.466  54.338  -8.515  1.00  0.00    -0.382 OA
HETATM   26  C3  UNL     1       3.751  54.780  -8.962  1.00  0.00     0.173 C 
HETATM   27  C2  UNL     1       3.691  54.917 -10.475  1.00  0.00     0.014 C 
HETATM   28  C1  UNL     1       3.311  56.342 -10.894  1.00  0.00     0.012 C 
HETATM   29  C35 UNL     1       2.604  53.893 -10.830  1.00  0.00     0.046 C 
BRANCH  29  30
HETATM   30  C36 UNL     1       3.199  52.487 -10.985  1.00  0.00     0.172 C 
BRANCH  30  31
HETATM   31  O7  UNL     1       2.940  51.995 -12.296  1.00  0.00    -0.400 OA
HETATM   32  H52 UNL     1       3.319  51.104 -12.345  1.00  0.00     0.209 HD
ENDBRANCH  30  31
ENDBRANCH  29  30
ENDBRANCH  23  24
BRANCH  23  33
HETATM   33  O2  UNL     1       0.972  52.173  -8.197  1.00  0.00    -0.390 OA
HETATM   34  H9  UNL     1       0.187  51.617  -8.021  1.00  0.00     0.210 HD
ENDBRANCH  23  33
ENDBRANCH  21  23
BRANCH  21  35
HETATM   35  O3  UNL     1      -0.957  54.649  -9.830  1.00  0.00    -0.387 OA
HETATM   36  H13 UNL     1      -0.682  55.259  -9.118  1.00  0.00     0.210 HD
ENDBRANCH  21  35
ENDBRANCH   1  21
BRANCH   4  37
HETATM   37  O4  UNL     1      -3.296  50.345 -11.599  1.00  0.00    -0.384 OA
HETATM   38  H19 UNL     1      -2.762  50.024 -10.854  1.00  0.00     0.211 HD
ENDBRANCH   4  37
BRANCH  11  39
HETATM   39  O6  UNL     1      -2.449  47.354 -18.814  1.00  0.00    -0.386 OA
BRANCH  39  40
HETATM   40  C18 UNL     1      -2.718  48.167 -19.963  1.00  0.00     0.172 C 
BRANCH  40  41
HETATM   41  C19 UNL     1      -1.521  48.096 -20.913  1.00  0.00     0.064 C 
BRANCH  41  42
HETATM   42  C20 UNL     1      -1.112  49.463 -21.400  1.00  0.00    -0.056 A 
HETATM   43  C21 UNL     1      -1.607  49.966 -22.613  1.00  0.00     0.007 A 
HETATM   44  C22 UNL     1      -1.182  51.209 -23.089  1.00  0.00     0.001 A 
HETATM   45  C23 UNL     1      -0.264  51.965 -22.357  1.00  0.00     0.000 A 
HETATM   46  C24 UNL     1       0.235  51.469 -21.154  1.00  0.00     0.001 A 
HETATM   47  C25 UNL     1      -0.187  50.228 -20.675  1.00  0.00     0.007 A 
ENDBRANCH  41  42
ENDBRANCH  40  41
ENDBRANCH  39  40
ENDBRANCH  11  39
TORSDOF 12
ENDMDL
