MODEL 1
REMARK minimizedAffinity -7.59894562
REMARK CNNscore 0.707667172
REMARK CNNaffinity 5.91734314
REMARK  10 active torsions:
REMARK  status: ('A' for Active; 'I' for Inactive)
REMARK    1  A    between atoms: N1_6  and  O1_8 
REMARK    2  A    between atoms: O1_8  and  C6_9 
REMARK    3  A    between atoms: C6_9  and  C7_10 
REMARK       I    between atoms: C7_10  and  N2_12 
REMARK    4  A    between atoms: N2_12  and  C8_13 
REMARK    5  A    between atoms: C8_13  and  C9_14 
REMARK    6  A    between atoms: C20_27  and  O3_28 
REMARK    7  A    between atoms: C27_35  and  O4_36 
REMARK    8  A    between atoms: C27_35  and  C28_37 
REMARK    9  A    between atoms: C28_37  and  C29_39 
REMARK   10  A    between atoms: C29_39  and  O6_40 
ROOT
HETATM    1  C1  UNL     1       2.895  58.212  -7.490  1.00  0.00     0.020 C 
HETATM    2  C2  UNL     1       3.218  56.744  -7.122  1.00  0.00    -0.014 C 
HETATM    3  C3  UNL     1       3.268  56.609  -5.577  1.00  0.00     0.020 C 
HETATM    4  C4  UNL     1       4.386  57.429  -4.942  1.00  0.00     0.060 C 
HETATM    5  C5  UNL     1       5.731  57.199  -5.607  1.00  0.00     0.032 C 
HETATM    6  N1  UNL     1       6.781  57.547  -4.922  1.00  0.00    -0.271 N 
ATOM      7  H1  UNL     1       6.746  57.942  -3.982  1.00  0.00     0.194 HD
HETATM    8  C14 UNL     1       5.742  56.611  -6.978  1.00  0.00     0.030 C 
HETATM    9  C15 UNL     1       4.607  56.392  -7.668  1.00  0.00    -0.069 C 
HETATM   10  C16 UNL     1       4.687  55.680  -9.001  1.00  0.00     0.035 C 
HETATM   11  C17 UNL     1       3.520  55.987  -9.933  1.00  0.00     0.010 C 
HETATM   12  C18 UNL     1       2.132  55.819  -9.279  1.00  0.00    -0.002 C 
HETATM   13  C19 UNL     1       2.197  55.717  -7.729  1.00  0.00     0.031 C 
HETATM   14  C20 UNL     1       0.775  55.706  -7.129  1.00  0.00     0.124 C 
HETATM   15  C21 UNL     1      -0.091  54.594  -7.746  1.00  0.00     0.045 C 
HETATM   16  C22 UNL     1      -0.107  54.503  -9.306  1.00  0.00     0.001 C 
HETATM   17  C23 UNL     1      -1.081  55.560  -9.860  1.00  0.00     0.019 C 
HETATM   18  C24 UNL     1       1.313  54.671  -9.905  1.00  0.00     0.002 C 
HETATM   19  C25 UNL     1       1.960  53.276  -9.811  1.00  0.00     0.009 C 
HETATM   20  C26 UNL     1       0.824  52.271  -9.603  1.00  0.00     0.047 C 
HETATM   21  C27 UNL     1      -0.487  53.058  -9.775  1.00  0.00     0.128 C 
ENDROOT
BRANCH   6  22
HETATM   22  O1  UNL     1       7.969  57.313  -5.634  1.00  0.00    -0.271 OA
BRANCH  22  23
HETATM   23  C6  UNL     1       8.678  56.260  -5.002  1.00  0.00     0.303 C 
BRANCH  23  24
HETATM   24  C7  UNL     1      10.182  56.525  -4.998  1.00  0.00     0.244 C 
HETATM   25  O2  UNL     1      10.687  57.624  -5.210  1.00  0.00    -0.271 OA
HETATM   26  N2  UNL     1      10.932  55.395  -4.721  1.00  0.00    -0.355 N 
HETATM   27  H10 UNL     1      10.477  54.493  -4.722  1.00  0.00     0.162 HD
BRANCH  26  28
HETATM   28  C8  UNL     1      12.377  55.420  -4.739  1.00  0.00     0.161 C 
BRANCH  28  29
HETATM   29  C9  UNL     1      12.929  54.138  -5.301  1.00  0.00    -0.038 A 
HETATM   30  C10 UNL     1      13.955  54.165  -6.249  1.00  0.00     0.025 A 
HETATM   31  C11 UNL     1      14.425  52.965  -6.757  1.00  0.00     0.088 A 
HETATM   32  N3  UNL     1      13.944  51.756  -6.392  1.00  0.00    -0.375 N 
HETATM   33  C12 UNL     1      12.947  51.751  -5.482  1.00  0.00     0.088 A 
ATOM     34  H3  UNL     1      14.316  50.891  -6.784  1.00  0.00     0.164 HD
HETATM   35  C13 UNL     1      12.410  52.899  -4.918  1.00  0.00     0.025 A 
ENDBRANCH  28  29
ENDBRANCH  26  28
ENDBRANCH  23  24
ENDBRANCH  22  23
ENDBRANCH   6  22
BRANCH  14  36
HETATM   36  O3  UNL     1       0.114  56.958  -7.208  1.00  0.00    -0.395 OA
HETATM   37  H25 UNL     1       0.283  57.365  -8.071  1.00  0.00     0.210 HD
ENDBRANCH  14  36
BRANCH  21  38
HETATM   38  O4  UNL     1      -1.491  52.494  -8.937  1.00  0.00    -0.381 OA
HETATM   39  H36 UNL     1      -1.408  51.524  -8.963  1.00  0.00     0.211 HD
ENDBRANCH  21  38
BRANCH  21  40
HETATM   40  C28 UNL     1      -0.941  52.974 -11.258  1.00  0.00     0.184 C 
HETATM   41  O5  UNL     1      -0.174  53.184 -12.205  1.00  0.00    -0.292 OA
BRANCH  40  42
HETATM   42  C29 UNL     1      -2.399  52.618 -11.530  1.00  0.00     0.245 C 
BRANCH  42  43
HETATM   43  O6  UNL     1      -3.176  53.780 -11.798  1.00  0.00    -0.393 OA
HETATM   44  H39 UNL     1      -2.540  54.496 -12.000  1.00  0.00     0.209 HD
ENDBRANCH  42  43
ENDBRANCH  40  42
ENDBRANCH  21  40
TORSDOF 10
ENDMDL
