MODEL 1
REMARK minimizedAffinity -9.8950386
REMARK CNNscore 0.725325286
REMARK CNNaffinity 7.92124319
REMARK  12 active torsions:
REMARK  status: ('A' for Active; 'I' for Inactive)
REMARK    1  A    between atoms: C19_21  and  O3_22 
REMARK    2  A    between atoms: C19_21  and  C20_23 
REMARK    3  A    between atoms: C20_23  and  C21_25 
REMARK    4  A    between atoms: C21_25  and  O5_26 
REMARK    5  A    between atoms: O5_26  and  C22_27 
REMARK    6  A    between atoms: C22_27  and  C23_29 
REMARK    7  A    between atoms: C23_29  and  C24_30 
REMARK    8  A    between atoms: C24_30  and  C25_31 
REMARK       I    between atoms: C25_31  and  N1_33 
REMARK    9  A    between atoms: N1_33  and  C26_34 
REMARK   10  A    between atoms: C26_34  and  C27_35 
REMARK   11  A    between atoms: C30_38  and  C31_39 
REMARK   12  A    between atoms: C31_39  and  O9_41 
ROOT
HETATM    1  C1  UNL     1       0.036   8.305  10.384  1.00  0.00     0.021 C 
HETATM    2  C2  UNL     1       0.633   7.688  11.668  1.00  0.00    -0.009 C 
HETATM    3  C3  UNL     1       1.818   8.567  12.173  1.00  0.00     0.022 C 
HETATM    4  C4  UNL     1       3.086   8.442  11.340  1.00  0.00     0.084 C 
HETATM    5  C5  UNL     1       3.509   7.001  11.232  1.00  0.00     0.149 C 
HETATM    6  O1  UNL     1       4.685   6.663  11.134  1.00  0.00    -0.293 OA
HETATM    7  C6  UNL     1       2.449   5.972  11.158  1.00  0.00     0.053 C 
HETATM    8  C7  UNL     1       1.147   6.280  11.310  1.00  0.00    -0.067 C 
HETATM    9  C8  UNL     1       0.105   5.206  11.099  1.00  0.00     0.035 C 
HETATM   10  C9  UNL     1      -0.890   5.138  12.252  1.00  0.00     0.010 C 
HETATM   11  C10 UNL     1      -1.534   6.505  12.519  1.00  0.00     0.003 C 
HETATM   12  C11 UNL     1      -0.427   7.558  12.822  1.00  0.00     0.072 C 
HETATM   13  C12 UNL     1      -1.071   8.878  13.293  1.00  0.00     0.133 C 
HETATM   14  O2  UNL     1      -0.765   9.980  12.843  1.00  0.00    -0.297 OA
HETATM   15  C13 UNL     1      -2.084   8.774  14.427  1.00  0.00     0.091 C 
HETATM   16  C14 UNL     1      -3.190   7.784  14.039  1.00  0.00     0.005 C 
HETATM   17  C15 UNL     1      -3.994   8.361  12.837  1.00  0.00     0.019 C 
HETATM   18  C16 UNL     1      -2.504   6.432  13.710  1.00  0.00     0.002 C 
HETATM   19  C17 UNL     1      -3.668   5.450  13.625  1.00  0.00     0.009 C 
HETATM   20  C18 UNL     1      -4.698   5.978  14.642  1.00  0.00     0.047 C 
HETATM   21  C19 UNL     1      -4.146   7.320  15.185  1.00  0.00     0.128 C 
ENDROOT
BRANCH  21  22
HETATM   22  O3  UNL     1      -3.403   7.021  16.377  1.00  0.00    -0.381 OA
HETATM   23  H25 UNL     1      -3.064   7.863  16.737  1.00  0.00     0.211 HD
ENDBRANCH  21  22
BRANCH  21  24
HETATM   24  C20 UNL     1      -5.240   8.314  15.613  1.00  0.00     0.185 C 
HETATM   25  O4  UNL     1      -4.960   9.478  15.922  1.00  0.00    -0.292 OA
BRANCH  24  26
HETATM   26  C21 UNL     1      -6.655   7.763  15.813  1.00  0.00     0.260 C 
BRANCH  26  27
HETATM   27  O5  UNL     1      -7.290   7.409  14.585  1.00  0.00    -0.314 OA
BRANCH  27  28
HETATM   28  C22 UNL     1      -8.496   6.801  14.760  1.00  0.00     0.259 C 
HETATM   29  O6  UNL     1      -8.988   6.550  15.855  1.00  0.00    -0.265 OA
BRANCH  28  30
HETATM   30  C23 UNL     1      -9.127   6.391  13.453  1.00  0.00     0.120 C 
BRANCH  30  31
HETATM   31  C24 UNL     1      -8.163   5.837  12.412  1.00  0.00     0.112 C 
BRANCH  31  32
HETATM   32  C25 UNL     1      -8.035   4.327  12.484  1.00  0.00     0.218 C 
HETATM   33  O7  UNL     1      -8.943   3.592  12.852  1.00  0.00    -0.274 OA
HETATM   34  N1  UNL     1      -6.809   3.870  12.054  1.00  0.00    -0.357 N 
HETATM   35  H32 UNL     1      -6.051   4.531  11.965  1.00  0.00     0.162 HD
BRANCH  34  36
HETATM   36  C26 UNL     1      -6.461   2.467  12.111  1.00  0.00     0.161 C 
BRANCH  36  37
HETATM   37  C27 UNL     1      -5.033   2.237  11.678  1.00  0.00    -0.040 A 
HETATM   38  C28 UNL     1      -4.314   3.238  11.010  1.00  0.00     0.010 A 
HETATM   39  C29 UNL     1      -2.990   3.017  10.615  1.00  0.00     0.019 A 
HETATM   40  C30 UNL     1      -2.368   1.793  10.894  1.00  0.00     0.037 A 
HETATM   41  C32 UNL     1      -3.075   0.799  11.579  1.00  0.00     0.019 A 
HETATM   42  C33 UNL     1      -4.400   1.019  11.969  1.00  0.00     0.010 A 
BRANCH  40  43
HETATM   43  C31 UNL     1      -0.969   1.508  10.491  1.00  0.00     0.176 C 
HETATM   44  O8  UNL     1      -0.620   0.823   9.547  1.00  0.00    -0.646 OA
BRANCH  43  45
HETATM   45  O9  UNL     1      -0.069   2.108  11.289  1.00  0.00    -0.773 OA
HETATM   46  H37 UNL     1       0.794   1.845  10.902  1.00  0.00     0.167 HD
ENDBRANCH  43  45
ENDBRANCH  40  43
ENDBRANCH  36  37
ENDBRANCH  34  36
ENDBRANCH  31  32
ENDBRANCH  30  31
ENDBRANCH  28  30
ENDBRANCH  27  28
ENDBRANCH  26  27
ENDBRANCH  24  26
ENDBRANCH  21  24
TORSDOF 12
ENDMDL
