MODEL 1
REMARK minimizedAffinity -7.69421625
REMARK CNNscore 0.717759967
REMARK CNNaffinity 6.93557358
REMARK  4 active torsions:
REMARK  status: ('A' for Active; 'I' for Inactive)
REMARK    1  A    between atoms: C2_2  and  C3_3 
REMARK    2  A    between atoms: C2_2  and  C9_9 
REMARK    3  A    between atoms: C4_4  and  C5_5 
REMARK    4  A    between atoms: C23_23  and  O1_24 
ROOT
HETATM    1  C9  UNL     1       4.106  55.112  -8.275  1.00  0.00     0.001 C 
HETATM    2  C10 UNL     1       3.413  56.228  -7.433  1.00  0.00     0.006 C 
HETATM    3  C11 UNL     1       1.898  56.062  -7.614  1.00  0.00     0.009 C 
HETATM    4  C12 UNL     1       1.767  54.763  -8.398  1.00  0.00     0.036 C 
HETATM    5  C13 UNL     1       3.009  54.737  -9.326  1.00  0.00    -0.033 C 
HETATM    6  C14 UNL     1       2.979  55.773 -10.471  1.00  0.00     0.016 C 
HETATM    7  C15 UNL     1       3.099  53.310  -9.905  1.00  0.00     0.010 C 
HETATM    8  C16 UNL     1       1.807  52.895 -10.634  1.00  0.00     0.010 C 
HETATM    9  C17 UNL     1       0.544  53.028  -9.761  1.00  0.00     0.039 C 
HETATM   10  C18 UNL     1       0.422  54.417  -9.048  1.00  0.00     0.123 C 
HETATM   11  C19 UNL     1      -0.214  55.468  -9.920  1.00  0.00     0.014 C 
HETATM   12  C20 UNL     1      -1.435  55.130 -10.359  1.00  0.00     0.014 C 
HETATM   13  C21 UNL     1      -1.867  53.734  -9.951  1.00  0.00     0.124 C 
HETATM   14  C22 UNL     1      -3.312  53.440 -10.373  1.00  0.00     0.078 C 
HETATM   15  C23 UNL     1      -3.705  51.965 -10.233  1.00  0.00     0.121 C 
HETATM   16  C24 UNL     1      -2.679  51.104  -9.504  1.00  0.00     0.033 C 
HETATM   17  C25 UNL     1      -1.273  51.220 -10.101  1.00  0.00     0.015 C 
HETATM   18  C26 UNL     1      -0.834  52.676 -10.472  1.00  0.00     0.001 C 
HETATM   19  C27 UNL     1      -0.731  52.739 -12.022  1.00  0.00     0.019 C 
HETATM   20  O2  UNL     1      -1.825  53.692  -8.496  1.00  0.00    -0.223 OA
HETATM   21  O3  UNL     1      -0.535  54.229  -7.970  1.00  0.00    -0.224 OA
ENDROOT
BRANCH   1  22
HETATM   22  C2  UNL     1       5.523  55.531  -8.756  1.00  0.00     0.008 C 
HETATM   23  C1  UNL     1       6.270  54.403  -9.476  1.00  0.00     0.014 C 
BRANCH  22  24
HETATM   24  C3  UNL     1       6.322  56.102  -7.594  1.00  0.00    -0.026 C 
HETATM   25  C4  UNL     1       7.425  55.585  -7.025  1.00  0.00    -0.025 C 
BRANCH  25  26
HETATM   26  C5  UNL     1       8.157  56.177  -5.902  1.00  0.00     0.012 A 
HETATM   27  C6  UNL     1       7.610  56.027  -4.502  1.00  0.00     0.013 A 
HETATM   28  C7  UNL     1       7.599  57.376  -5.167  1.00  0.00    -0.010 A 
HETATM   29  C8  UNL     1       6.300  58.016  -5.522  1.00  0.00     0.010 C 
ENDBRANCH  25  26
ENDBRANCH  22  24
ENDBRANCH   1  22
BRANCH  15  30
HETATM   30  O1  UNL     1      -3.911  51.430 -11.544  1.00  0.00    -0.395 OA
HETATM   31  H33 UNL     1      -4.252  50.525 -11.440  1.00  0.00     0.210 HD
ENDBRANCH  15  30
TORSDOF 4
ENDMDL
