MODEL 1
REMARK minimizedAffinity -7.42115402
REMARK CNNscore 0.536679566
REMARK CNNaffinity 6.42201853
REMARK  13 active torsions:
REMARK  status: ('A' for Active; 'I' for Inactive)
REMARK    1  A    between atoms: O1_2  and  C2_3 
REMARK    2  A    between atoms: C2_3  and  C5_6 
REMARK    3  A    between atoms: C6_7  and  C7_8 
REMARK    4  A    between atoms: C7_8  and  C8_9 
REMARK    5  A    between atoms: C8_9  and  C10_11 
REMARK    6  A    between atoms: C16_17  and  O2_18 
REMARK    7  A    between atoms: O2_18  and  C17_19 
REMARK    8  A    between atoms: C18_21  and  C19_22 
REMARK    9  A    between atoms: C19_22  and  O4_23 
REMARK   10  A    between atoms: C20_24  and  O5_25 
REMARK   11  A    between atoms: C21_26  and  O6_27 
REMARK   12  A    between atoms: C22_28  and  O7_29 
REMARK   13  A    between atoms: C32_39  and  C33_40 
ROOT
HETATM    1  C10 UNL     1      -1.956  12.547  18.474  1.00  0.00    -0.002 C 
HETATM    2  C11 UNL     1      -1.768  11.283  17.582  1.00  0.00     0.006 C 
HETATM    3  C12 UNL     1      -0.271  10.914  17.609  1.00  0.00     0.011 C 
HETATM    4  C13 UNL     1       0.325  11.748  18.761  1.00  0.00    -0.029 C 
HETATM    5  C14 UNL     1       0.008  10.938  20.061  1.00  0.00     0.016 C 
HETATM    6  C15 UNL     1       1.862  12.034  18.630  1.00  0.00     0.043 C 
HETATM    7  C16 UNL     1       2.740  10.761  18.766  1.00  0.00     0.153 C 
HETATM    8  C23 UNL     1       3.108  10.483  20.195  1.00  0.00     0.009 C 
HETATM    9  C24 UNL     1       3.479  11.460  21.045  1.00  0.00    -0.068 C 
HETATM   10  C25 UNL     1       3.598  12.859  20.450  1.00  0.00     0.031 C 
HETATM   11  C26 UNL     1       4.033  13.941  21.460  1.00  0.00     0.010 C 
HETATM   12  C27 UNL     1       3.501  13.801  22.882  1.00  0.00     0.002 C 
HETATM   13  C28 UNL     1       3.146  12.384  23.327  1.00  0.00     0.013 C 
HETATM   14  C29 UNL     1       3.808  11.246  22.523  1.00  0.00    -0.024 C 
HETATM   15  C30 UNL     1       5.333  11.214  22.738  1.00  0.00     0.019 C 
HETATM   16  C31 UNL     1       3.242   9.918  23.089  1.00  0.00     0.019 C 
HETATM   17  C32 UNL     1       2.349  13.241  19.552  1.00  0.00     0.027 C 
HETATM   18  C34 UNL     1       1.206  13.851  20.423  1.00  0.00     0.018 C 
HETATM   19  C35 UNL     1      -0.204  13.982  19.815  1.00  0.00     0.011 C 
HETATM   20  C36 UNL     1      -0.489  13.084  18.605  1.00  0.00    -0.032 C 
HETATM   21  C37 UNL     1      -0.159  13.887  17.308  1.00  0.00     0.016 C 
ENDROOT
BRANCH   7  22
HETATM   22  O2  UNL     1       3.977  10.947  18.084  1.00  0.00    -0.349 OA
BRANCH  22  23
HETATM   23  C17 UNL     1       3.969  10.615  16.698  1.00  0.00     0.292 C 
HETATM   24  O3  UNL     1       3.323   9.338  16.597  1.00  0.00    -0.348 OA
HETATM   25  C18 UNL     1       3.299   8.833  15.253  1.00  0.00     0.179 C 
HETATM   26  C20 UNL     1       4.736   8.539  14.826  1.00  0.00     0.180 C 
HETATM   27  C21 UNL     1       5.542   9.840  14.852  1.00  0.00     0.183 C 
HETATM   28  C22 UNL     1       5.431  10.564  16.199  1.00  0.00     0.204 C 
BRANCH  25  29
HETATM   29  C19 UNL     1       2.426   7.577  15.258  1.00  0.00     0.198 C 
BRANCH  29  30
HETATM   30  O4  UNL     1       2.013   7.303  16.599  1.00  0.00    -0.398 OA
HETATM   31  H32 UNL     1       2.841   7.250  17.119  1.00  0.00     0.209 HD
ENDBRANCH  29  30
ENDBRANCH  25  29
BRANCH  26  32
HETATM   32  O5  UNL     1       5.361   7.605  15.726  1.00  0.00    -0.390 OA
HETATM   33  H34 UNL     1       5.021   7.790  16.624  1.00  0.00     0.210 HD
ENDBRANCH  26  32
BRANCH  27  34
HETATM   34  O6  UNL     1       6.928   9.563  14.583  1.00  0.00    -0.390 OA
HETATM   35  H36 UNL     1       7.113   8.699  15.006  1.00  0.00     0.210 HD
ENDBRANCH  27  34
BRANCH  28  36
HETATM   36  O7  UNL     1       5.957  11.895  16.035  1.00  0.00    -0.388 OA
HETATM   37  H38 UNL     1       6.900  11.765  15.802  1.00  0.00     0.210 HD
ENDBRANCH  28  36
ENDBRANCH  22  23
ENDBRANCH   7  22
BRANCH  17  38
HETATM   38  C33 UNL     1       2.880  14.369  18.648  1.00  0.00     0.241 C 
HETATM   39  O8  UNL     1       2.617  15.560  18.778  1.00  0.00    -0.306 OA
ENDBRANCH  17  38
BRANCH   1  40
HETATM   40  C8  UNL     1      -3.092  13.477  17.951  1.00  0.00    -0.010 C 
HETATM   41  C9  UNL     1      -2.996  14.891  18.543  1.00  0.00     0.010 C 
BRANCH  40  42
HETATM   42  C7  UNL     1      -4.483  12.874  18.286  1.00  0.00     0.031 C 
BRANCH  42  43
HETATM   43  C6  UNL     1      -4.965  13.223  19.669  1.00  0.00    -0.027 C 
HETATM   44  C5  UNL     1      -6.257  13.406  19.987  1.00  0.00     0.006 C 
BRANCH  44  45
HETATM   45  C2  UNL     1      -6.836  13.761  21.344  1.00  0.00     0.070 C 
HETATM   46  C3  UNL     1      -6.987  15.264  21.632  1.00  0.00     0.050 C 
HETATM   47  C4  UNL     1      -5.911  13.159  22.416  1.00  0.00     0.050 C 
BRANCH  45  48
HETATM   48  O1  UNL     1      -8.088  13.072  21.492  1.00  0.00    -0.382 OA
HETATM   49  C1  UNL     1      -8.496  12.792  22.825  1.00  0.00     0.202 C 
ENDBRANCH  45  48
ENDBRANCH  44  45
ENDBRANCH  42  43
ENDBRANCH  40  42
ENDBRANCH   1  40
TORSDOF 13
ENDMDL
