MODEL 1
REMARK minimizedAffinity -7.23193121
REMARK CNNscore 0.335336864
REMARK CNNaffinity 6.53212929
REMARK  8 active torsions:
REMARK  status: ('A' for Active; 'I' for Inactive)
REMARK    1  A    between atoms: C2_2  and  C3_3 
REMARK    2  A    between atoms: C2_2  and  C9_12 
REMARK    3  A    between atoms: C3_3  and  C4_4 
REMARK    4  A    between atoms: C4_4  and  C5_5 
REMARK    5  A    between atoms: C6_6  and  C7_7 
REMARK    6  A    between atoms: C6_6  and  C8_9 
REMARK    7  A    between atoms: C7_7  and  O1_8 
REMARK    8  A    between atoms: C8_9  and  O3_11 
ROOT
HETATM    1  C9  UNL     1       1.712  54.249  -8.546  1.00  0.00    -0.002 C 
HETATM    2  C10 UNL     1       1.629  53.435  -7.234  1.00  0.00     0.006 C 
HETATM    3  C11 UNL     1       0.272  52.708  -7.270  1.00  0.00     0.006 C 
HETATM    4  C12 UNL     1      -0.306  53.029  -8.650  1.00  0.00    -0.001 C 
HETATM    5  C13 UNL     1      -1.820  52.859  -8.851  1.00  0.00    -0.000 C 
HETATM    6  C14 UNL     1      -2.173  51.381  -8.580  1.00  0.00     0.006 C 
HETATM    7  C15 UNL     1      -3.419  50.844  -9.265  1.00  0.00     0.007 C 
HETATM    8  C16 UNL     1      -3.464  51.076 -10.785  1.00  0.00     0.010 C 
HETATM    9  C17 UNL     1      -2.621  50.078 -11.659  1.00  0.00     0.018 C 
HETATM   10  C18 UNL     1      -3.173  48.643 -11.509  1.00  0.00     0.023 C 
HETATM   11  C19 UNL     1      -1.116  50.043 -11.357  1.00  0.00     0.023 C 
HETATM   12  C20 UNL     1      -2.755  50.495 -13.138  1.00  0.00     0.135 C 
HETATM   13  O4  UNL     1      -3.039  49.700 -14.036  1.00  0.00    -0.297 OA
HETATM   14  C21 UNL     1      -2.453  51.938 -13.466  1.00  0.00     0.080 C 
HETATM   15  C22 UNL     1      -3.374  52.807 -12.640  1.00  0.00     0.018 C 
HETATM   16  C23 UNL     1      -3.192  52.542 -11.151  1.00  0.00    -0.026 A 
HETATM   17  C24 UNL     1      -3.784  53.626 -10.291  1.00  0.00     0.021 A 
HETATM   18  C25 UNL     1      -2.278  53.395 -10.234  1.00  0.00    -0.028 A 
HETATM   19  C26 UNL     1      -1.481  54.577 -10.821  1.00  0.00     0.011 C 
HETATM   20  C27 UNL     1       0.000  54.656 -10.448  1.00  0.00     0.011 C 
HETATM   21  C28 UNL     1       0.220  54.443  -8.949  1.00  0.00    -0.036 C 
HETATM   22  C29 UNL     1      -0.482  55.548  -8.135  1.00  0.00     0.016 C 
ENDROOT
BRANCH   1  23
HETATM   23  C2  UNL     1       2.648  55.489  -8.538  1.00  0.00    -0.014 C 
HETATM   24  C1  UNL     1       2.072  56.540  -7.571  1.00  0.00     0.010 C 
BRANCH  23  25
HETATM   25  C3  UNL     1       2.897  56.143  -9.916  1.00  0.00     0.008 C 
BRANCH  25  26
HETATM   26  C4  UNL     1       4.238  55.739 -10.544  1.00  0.00     0.028 C 
BRANCH  26  27
HETATM   27  C5  UNL     1       4.520  54.275 -10.322  1.00  0.00    -0.011 C 
HETATM   28  C6  UNL     1       5.418  53.729  -9.474  1.00  0.00     0.035 C 
BRANCH  28  29
HETATM   29  C7  UNL     1       5.586  52.249  -9.316  1.00  0.00     0.209 C 
BRANCH  29  30
HETATM   30  O1  UNL     1       6.968  51.927  -9.201  1.00  0.00    -0.396 OA
HETATM   31  H12 UNL     1       7.434  52.388  -9.920  1.00  0.00     0.209 HD
ENDBRANCH  29  30
ENDBRANCH  28  29
BRANCH  28  32
HETATM   32  C8  UNL     1       6.302  54.585  -8.658  1.00  0.00     0.173 C 
HETATM   33  O2  UNL     1       6.046  55.065  -7.568  1.00  0.00    -0.646 OA
BRANCH  32  34
HETATM   34  O3  UNL     1       7.492  54.779  -9.249  1.00  0.00    -0.773 OA
HETATM   35  H13 UNL     1       7.969  55.361  -8.621  1.00  0.00     0.167 HD
ENDBRANCH  32  34
ENDBRANCH  28  32
ENDBRANCH  26  27
ENDBRANCH  25  26
ENDBRANCH  23  25
ENDBRANCH   1  23
TORSDOF 8
ENDMDL
