MODEL 1
REMARK minimizedAffinity -8.6439333
REMARK CNNscore 0.491837859
REMARK CNNaffinity 7.05514956
REMARK  9 active torsions:
REMARK  status: ('A' for Active; 'I' for Inactive)
REMARK    1  A    between atoms: C12_14  and  C13_15 
REMARK    2  A    between atoms: C13_15  and  C15_17 
REMARK    3  A    between atoms: C15_17  and  C16_18 
REMARK    4  A    between atoms: C16_18  and  C17_19 
REMARK    5  A    between atoms: C18_20  and  C20_22 
REMARK    6  A    between atoms: C26_29  and  C27_30 
REMARK    7  A    between atoms: C27_30  and  C28_31 
REMARK    8  A    between atoms: C28_31  and  C29_32 
REMARK    9  A    between atoms: C29_32  and  O5_34 
ROOT
HETATM    1  C1  UNL     1       3.842   8.061   9.909  1.00  0.00     0.025 C 
HETATM    2  C2  UNL     1       2.733   7.400  10.262  1.00  0.00     0.015 C 
HETATM    3  C3  UNL     1       1.743   6.911   9.273  1.00  0.00     0.289 C 
HETATM    4  O1  UNL     1       1.656   7.248   8.108  1.00  0.00    -0.260 OA
HETATM    5  O2  UNL     1       0.942   6.011   9.909  1.00  0.00    -0.311 OA
HETATM    6  C4  UNL     1       1.515   5.706  11.185  1.00  0.00     0.142 C 
HETATM    7  C5  UNL     1       0.461   5.266  12.187  1.00  0.00     0.039 C 
HETATM    8  C6  UNL     1      -0.581   6.361  12.437  1.00  0.00     0.006 C 
HETATM    9  C7  UNL     1       0.102   7.657  12.947  1.00  0.00    -0.027 A 
HETATM   10  C8  UNL     1      -0.347   8.164  14.322  1.00  0.00     0.011 C 
HETATM   11  C9  UNL     1      -1.847   8.057  14.657  1.00  0.00     0.011 C 
HETATM   12  C10 UNL     1      -2.653   7.149  13.716  1.00  0.00    -0.032 C 
HETATM   13  C11 UNL     1      -3.084   7.999  12.489  1.00  0.00     0.016 C 
HETATM   14  C12 UNL     1      -3.910   6.455  14.337  1.00  0.00    -0.002 C 
HETATM   15  C21 UNL     1      -4.081   5.169  13.479  1.00  0.00     0.006 C 
HETATM   16  C22 UNL     1      -2.788   4.995  12.661  1.00  0.00     0.011 C 
HETATM   17  C23 UNL     1      -1.756   5.909  13.351  1.00  0.00    -0.032 C 
HETATM   18  C24 UNL     1      -1.217   5.107  14.581  1.00  0.00     0.016 C 
HETATM   19  C25 UNL     1       0.370   8.706  11.891  1.00  0.00     0.022 A 
HETATM   20  C26 UNL     1       1.563   7.972  12.474  1.00  0.00    -0.021 A 
HETATM   21  C30 UNL     1       2.311   6.930  11.612  1.00  0.00     0.063 C 
ENDROOT
BRANCH  14  22
HETATM   22  C13 UNL     1      -5.247   7.203  14.624  1.00  0.00    -0.014 C 
HETATM   23  C14 UNL     1      -5.182   8.733  14.714  1.00  0.00     0.010 C 
BRANCH  22  24
HETATM   24  C15 UNL     1      -5.973   6.604  15.850  1.00  0.00     0.008 C 
BRANCH  24  25
HETATM   25  C16 UNL     1      -7.111   5.647  15.478  1.00  0.00     0.028 C 
BRANCH  25  26
HETATM   26  C17 UNL     1      -7.687   5.984  14.128  1.00  0.00    -0.017 C 
HETATM   27  C18 UNL     1      -7.969   5.144  13.114  1.00  0.00    -0.028 C 
HETATM   28  C19 UNL     1      -8.585   5.610  11.829  1.00  0.00     0.051 C 
BRANCH  27  29
HETATM   29  C20 UNL     1      -7.678   3.679  13.160  1.00  0.00     0.265 C 
HETATM   30  O3  UNL     1      -8.489   2.802  12.898  1.00  0.00    -0.302 OA
ENDBRANCH  27  29
ENDBRANCH  25  26
ENDBRANCH  24  25
ENDBRANCH  22  24
ENDBRANCH  14  22
BRANCH  20  31
HETATM   31  C27 UNL     1       2.522   8.712  13.429  1.00  0.00     0.021 C 
BRANCH  31  32
HETATM   32  C28 UNL     1       3.851   8.042  13.755  1.00  0.00     0.111 C 
BRANCH  32  33
HETATM   33  C29 UNL     1       4.178   8.048  15.220  1.00  0.00     0.139 C 
HETATM   34  O4  UNL     1       3.805   8.869  16.040  1.00  0.00    -0.650 OA
BRANCH  33  35
HETATM   35  O5  UNL     1       4.919   6.990  15.602  1.00  0.00    -0.776 OA
HETATM   36  H41 UNL     1       5.013   7.122  16.570  1.00  0.00     0.167 HD
ENDBRANCH  33  35
ENDBRANCH  32  33
ENDBRANCH  31  32
ENDBRANCH  20  31
TORSDOF 9
ENDMDL
