MODEL 1
REMARK minimizedAffinity -7.36185122
REMARK CNNscore 0.862440348
REMARK CNNaffinity 7.36313629
REMARK  7 active torsions:
REMARK  status: ('A' for Active; 'I' for Inactive)
REMARK    1  A    between atoms: C2_2  and  C30_33 
REMARK    2  A    between atoms: C3_3  and  C4_4 
REMARK    3  A    between atoms: C4_4  and  C5_5 
REMARK    4  A    between atoms: C5_5  and  C6_6 
REMARK    5  A    between atoms: C6_6  and  C8_8 
REMARK    6  A    between atoms: C19_20  and  O2_21 
REMARK    7  A    between atoms: C30_33  and  O5_35 
ROOT
HETATM    1  C8  UNL     1       4.771  55.448  -8.640  1.00  0.00    -0.002 C 
HETATM    2  C9  UNL     1       4.031  56.687  -8.064  1.00  0.00     0.007 C 
HETATM    3  C10 UNL     1       2.532  56.498  -8.406  1.00  0.00     0.018 C 
HETATM    4  C11 UNL     1       2.503  55.315  -9.389  1.00  0.00     0.025 C 
HETATM    5  C12 UNL     1       2.760  55.923 -10.796  1.00  0.00     0.024 C 
HETATM    6  C13 UNL     1       1.203  54.502  -9.466  1.00  0.00     0.147 C 
HETATM    7  O1  UNL     1       0.152  54.992  -9.052  1.00  0.00    -0.296 OA
HETATM    8  C14 UNL     1       1.248  53.099 -10.191  1.00  0.00     0.055 C 
HETATM    9  C15 UNL     1       2.614  52.384  -9.917  1.00  0.00     0.021 C 
HETATM   10  C16 UNL     1       3.875  53.255  -9.769  1.00  0.00     0.012 C 
HETATM   11  C17 UNL     1       3.624  54.411  -8.796  1.00  0.00    -0.026 C 
HETATM   12  C18 UNL     1       3.249  53.815  -7.405  1.00  0.00     0.016 C 
HETATM   13  C19 UNL     1       0.957  53.401 -11.709  1.00  0.00     0.135 C 
HETATM   14  C20 UNL     1      -0.447  52.872 -12.055  1.00  0.00     0.039 C 
HETATM   15  C21 UNL     1      -1.126  52.721 -10.700  1.00  0.00     0.012 C 
HETATM   16  C22 UNL     1      -2.492  51.986 -10.641  1.00  0.00     0.018 C 
HETATM   17  C23 UNL     1      -3.631  53.002 -10.877  1.00  0.00     0.023 C 
HETATM   18  C24 UNL     1      -2.662  50.869 -11.683  1.00  0.00     0.023 C 
HETATM   19  C25 UNL     1      -2.670  51.433  -9.218  1.00  0.00     0.135 C 
HETATM   20  O3  UNL     1      -3.411  50.482  -8.969  1.00  0.00    -0.297 OA
HETATM   21  C26 UNL     1      -1.933  52.159  -8.108  1.00  0.00     0.080 C 
HETATM   22  C27 UNL     1      -0.417  52.147  -8.312  1.00  0.00     0.018 C 
HETATM   23  C28 UNL     1       0.012  52.147  -9.805  1.00  0.00    -0.022 C 
HETATM   24  C29 UNL     1       0.321  50.660 -10.164  1.00  0.00     0.017 C 
ENDROOT
BRANCH  13  25
HETATM   25  O2  UNL     1       1.929  52.872 -12.598  1.00  0.00    -0.394 OA
HETATM   26  H29 UNL     1       1.796  51.912 -12.675  1.00  0.00     0.210 HD
ENDBRANCH  13  25
BRANCH   1  27
HETATM   27  C6  UNL     1       6.101  55.036  -7.942  1.00  0.00    -0.014 C 
HETATM   28  C7  UNL     1       7.005  54.344  -8.981  1.00  0.00     0.010 C 
BRANCH  27  29
HETATM   29  C5  UNL     1       6.886  56.172  -7.246  1.00  0.00     0.008 C 
BRANCH  29  30
HETATM   30  C4  UNL     1       7.176  55.897  -5.763  1.00  0.00     0.028 C 
BRANCH  30  31
HETATM   31  C3  UNL     1       8.624  55.545  -5.542  1.00  0.00    -0.013 C 
HETATM   32  C2  UNL     1       9.637  56.356  -5.175  1.00  0.00     0.008 C 
HETATM   33  C1  UNL     1      11.038  55.835  -5.023  1.00  0.00     0.055 C 
BRANCH  32  34
HETATM   34  C30 UNL     1       9.415  57.786  -4.845  1.00  0.00     0.171 C 
HETATM   35  O4  UNL     1       9.892  58.759  -5.403  1.00  0.00    -0.646 OA
BRANCH  34  36
HETATM   36  O5  UNL     1       8.564  57.933  -3.815  1.00  0.00    -0.773 OA
HETATM   37  H46 UNL     1       8.499  58.905  -3.719  1.00  0.00     0.167 HD
ENDBRANCH  34  36
ENDBRANCH  32  34
ENDBRANCH  30  31
ENDBRANCH  29  30
ENDBRANCH  27  29
ENDBRANCH   1  27
TORSDOF 7
ENDMDL
