MODEL 1
REMARK minimizedAffinity -7.5717926
REMARK CNNscore 0.815777719
REMARK CNNaffinity 6.75805616
REMARK  12 active torsions:
REMARK  status: ('A' for Active; 'I' for Inactive)
REMARK    1  A    between atoms: N1_2  and  C2_3 
REMARK    2  A    between atoms: C2_3  and  C3_4 
REMARK    3  A    between atoms: C3_4  and  C4_5 
REMARK    4  A    between atoms: C13_15  and  O2_16 
REMARK    5  A    between atoms: C18_21  and  O3_22 
REMARK    6  A    between atoms: C20_24  and  C21_25 
REMARK    7  A    between atoms: C21_25  and  C23_27 
REMARK    8  A    between atoms: C23_27  and  C24_28 
REMARK    9  A    between atoms: C24_28  and  O4_29 
REMARK   10  A    between atoms: C24_28  and  C25_30 
REMARK   11  A    between atoms: C26_31  and  C28_33 
REMARK   12  A    between atoms: C28_33  and  O6_35 
ROOT
HETATM    1  C4  UNL     1      -1.216  52.001 -10.350  1.00  0.00     0.023 C 
HETATM    2  C5  UNL     1      -1.392  50.825  -9.326  1.00  0.00     0.024 C 
HETATM    3  C6  UNL     1      -2.572  52.737 -10.343  1.00  0.00     0.135 C 
HETATM    4  O1  UNL     1      -3.633  52.103 -10.410  1.00  0.00    -0.297 OA
HETATM    5  C7  UNL     1      -2.642  54.241 -10.233  1.00  0.00     0.080 C 
HETATM    6  C8  UNL     1      -1.321  54.958 -10.039  1.00  0.00     0.022 C 
HETATM    7  C9  UNL     1      -0.339  54.210  -9.118  1.00  0.00    -0.008 C 
HETATM    8  C10 UNL     1      -0.982  53.897  -7.740  1.00  0.00     0.021 C 
HETATM    9  C11 UNL     1       0.920  55.080  -8.868  1.00  0.00     0.002 C 
HETATM   10  C12 UNL     1       2.158  54.800  -9.354  1.00  0.00    -0.029 C 
HETATM   11  C13 UNL     1       2.395  53.640 -10.289  1.00  0.00     0.149 C 
HETATM   12  C14 UNL     1       1.112  53.064 -10.877  1.00  0.00     0.043 C 
HETATM   13  C15 UNL     1       0.022  52.844  -9.825  1.00  0.00     0.017 C 
HETATM   14  C16 UNL     1       3.363  55.657  -8.955  1.00  0.00     0.017 C 
HETATM   15  C17 UNL     1       3.385  56.859  -9.951  1.00  0.00     0.023 C 
HETATM   16  C18 UNL     1       4.765  54.995  -8.910  1.00  0.00     0.132 C 
HETATM   17  C19 UNL     1       5.598  55.893  -7.977  1.00  0.00     0.038 C 
HETATM   18  C20 UNL     1       4.595  56.782  -7.178  1.00  0.00     0.001 C 
HETATM   19  C29 UNL     1       3.227  56.069  -7.438  1.00  0.00    -0.019 C 
HETATM   20  C30 UNL     1       3.088  54.853  -6.466  1.00  0.00     0.017 C 
HETATM   21  C31 UNL     1       1.974  56.935  -7.304  1.00  0.00     0.094 C 
HETATM   22  C32 UNL     1       0.766  56.322  -8.001  1.00  0.00     0.157 C 
HETATM   23  O7  UNL     1      -0.335  56.859  -7.863  1.00  0.00    -0.293 OA
ENDROOT
BRANCH  18  24
HETATM   24  C21 UNL     1       5.069  57.046  -5.715  1.00  0.00    -0.011 C 
HETATM   25  C22 UNL     1       4.074  57.937  -4.960  1.00  0.00     0.010 C 
BRANCH  24  26
HETATM   26  C23 UNL     1       6.477  57.718  -5.695  1.00  0.00     0.040 C 
BRANCH  26  27
HETATM   27  C24 UNL     1       7.577  56.939  -4.949  1.00  0.00     0.142 C 
BRANCH  27  28
HETATM   28  O4  UNL     1       7.174  56.724  -3.598  1.00  0.00    -0.392 OA
HETATM   29  H39 UNL     1       6.443  56.086  -3.614  1.00  0.00     0.210 HD
ENDBRANCH  27  28
BRANCH  27  30
HETATM   30  C25 UNL     1       8.909  57.615  -4.902  1.00  0.00     0.018 C 
HETATM   31  C26 UNL     1      10.121  57.023  -4.849  1.00  0.00     0.010 C 
HETATM   32  C27 UNL     1      10.379  55.547  -4.865  1.00  0.00     0.055 C 
BRANCH  31  33
HETATM   33  C28 UNL     1      11.297  57.929  -4.798  1.00  0.00     0.171 C 
HETATM   34  O5  UNL     1      11.285  59.146  -4.724  1.00  0.00    -0.646 OA
BRANCH  33  35
HETATM   35  O6  UNL     1      12.458  57.254  -4.846  1.00  0.00    -0.773 OA
HETATM   36  H44 UNL     1      13.134  57.964  -4.803  1.00  0.00     0.167 HD
ENDBRANCH  33  35
ENDBRANCH  31  33
ENDBRANCH  27  30
ENDBRANCH  26  27
ENDBRANCH  24  26
ENDBRANCH  18  24
BRANCH  16  37
HETATM   37  O3  UNL     1       5.379  54.846 -10.185  1.00  0.00    -0.394 OA
HETATM   38  H28 UNL     1       5.720  55.714 -10.469  1.00  0.00     0.210 HD
ENDBRANCH  16  37
BRANCH  11  39
HETATM   39  O2  UNL     1       3.167  54.046 -11.413  1.00  0.00    -0.391 OA
HETATM   40  H20 UNL     1       4.099  54.125 -11.115  1.00  0.00     0.210 HD
ENDBRANCH  11  39
BRANCH   1  41
HETATM   41  C3  UNL     1      -1.079  51.269 -11.731  1.00  0.00     0.047 C 
BRANCH  41  42
HETATM   42  C2  UNL     1      -1.505  51.910 -13.064  1.00  0.00     0.270 C 
BRANCH  42  43
HETATM   43  N1  UNL     1      -1.747  50.962 -14.143  1.00  0.00     0.079 N 
HETATM   44  C1  UNL     1      -3.041  51.210 -14.775  1.00  0.00     0.306 C 
HETATM   45  H4  UNL     1      -1.775  50.021 -13.759  1.00  0.00     0.315 HD
ENDBRANCH  42  43
ENDBRANCH  41  42
ENDBRANCH   1  41
TORSDOF 12
ENDMDL
