MODEL 1
REMARK minimizedAffinity -8.27970219
REMARK  13 active torsions:
REMARK  status: ('A' for Active; 'I' for Inactive)
REMARK    1  A    between atoms: C4_4  and  C5_5 
REMARK    2  A    between atoms: C5_5  and  C6_6 
REMARK    3  A    between atoms: C6_6  and  C7_7 
REMARK    4  A    between atoms: C9_9  and  C10_10 
REMARK    5  A    between atoms: C11_11  and  C12_12 
REMARK    6  A    between atoms: C14_14  and  C15_15 
REMARK    7  A    between atoms: C18_18  and  O1_19 
REMARK    8  A    between atoms: C19_21  and  C20_22 
REMARK    9  A    between atoms: C20_22  and  C21_23 
REMARK   10  A    between atoms: C21_23  and  C22_24 
REMARK   11  A    between atoms: C22_24  and  O3_25 
REMARK   12  A    between atoms: C24_27  and  C26_29 
REMARK   13  A    between atoms: C29_33  and  O5_35 
ROOT
HETATM    1  C15 UNL     1      -1.688   9.564  16.563  1.00  0.00     0.149 C 
HETATM    2  C16 UNL     1      -1.378   8.399  15.618  1.00  0.00     0.054 C 
HETATM    3  C17 UNL     1      -1.840   8.878  14.214  1.00  0.00     0.050 C 
HETATM    4  C18 UNL     1      -1.612  10.389  14.396  1.00  0.00     0.270 C 
HETATM    5  O2  UNL     1      -1.968  10.705  15.741  1.00  0.00    -0.351 OA
HETATM    6  C19 UNL     1      -0.911   8.223  13.107  1.00  0.00     0.032 C 
HETATM    7  C23 UNL     1      -1.186   6.705  13.049  1.00  0.00    -0.066 C 
HETATM    8  C24 UNL     1      -0.241   5.744  13.199  1.00  0.00    -0.021 C 
HETATM    9  C25 UNL     1      -0.513   4.267  13.196  1.00  0.00     0.052 C 
HETATM   10  C27 UNL     1      -2.638   6.378  12.769  1.00  0.00     0.038 C 
HETATM   11  C28 UNL     1      -3.574   7.013  13.790  1.00  0.00     0.042 C 
HETATM   12  C29 UNL     1      -3.364   8.536  13.957  1.00  0.00     0.067 C 
HETATM   13  C30 UNL     1      -4.370   9.024  15.015  1.00  0.00     0.047 C 
ENDROOT
BRANCH   4  14
HETATM   14  O1  UNL     1      -0.242  10.739  14.288  1.00  0.00    -0.370 OA
HETATM   15  H26 UNL     1      -0.229  11.697  14.463  1.00  0.00     0.212 HD
ENDBRANCH   4  14
BRANCH   6  16
HETATM   16  C20 UNL     1      -0.968   8.757  11.648  1.00  0.00     0.012 C 
BRANCH  16  17
HETATM   17  C21 UNL     1       0.287   8.621  10.780  1.00  0.00     0.027 C 
BRANCH  17  18
HETATM   18  C22 UNL     1       0.042   8.148   9.350  1.00  0.00     0.164 C 
BRANCH  18  19
HETATM   19  O3  UNL     1      -0.473   9.201   8.548  1.00  0.00    -0.401 OA
HETATM   20  H34 UNL     1      -1.449   9.190   8.672  1.00  0.00     0.209 HD
ENDBRANCH  18  19
ENDBRANCH  17  18
ENDBRANCH  16  17
ENDBRANCH   6  16
BRANCH  12  21
HETATM   21  O5  UNL     1      -3.769   9.178  12.739  1.00  0.00    -0.389 OA
HETATM   22  H46 UNL     1      -4.704   8.966  12.568  1.00  0.00     0.210 HD
ENDBRANCH  12  21
BRANCH   1  23
HETATM   23  C14 UNL     1      -0.548   9.905  17.483  1.00  0.00     0.011 C 
HETATM   24  C12 UNL     1      -0.499  10.834  18.463  1.00  0.00    -0.063 C 
HETATM   25  C13 UNL     1      -1.642  11.751  18.820  1.00  0.00     0.048 C 
BRANCH  24  26
HETATM   26  C11 UNL     1       0.736  10.957  19.243  1.00  0.00     0.006 C 
HETATM   27  C10 UNL     1       0.927  10.537  20.505  1.00  0.00     0.001 C 
BRANCH  27  28
HETATM   28  C9  UNL     1       2.201  10.652  21.183  1.00  0.00     0.002 C 
HETATM   29  C7  UNL     1       2.772   9.727  21.981  1.00  0.00    -0.084 C 
HETATM   30  C8  UNL     1       2.125   8.433  22.403  1.00  0.00     0.043 C 
BRANCH  29  31
HETATM   31  C6  UNL     1       4.163   9.969  22.550  1.00  0.00     0.037 C 
BRANCH  31  32
HETATM   32  C5  UNL     1       4.470  11.439  22.888  1.00  0.00     0.031 C 
BRANCH  32  33
HETATM   33  C4  UNL     1       5.945  11.730  22.992  1.00  0.00    -0.024 C 
HETATM   34  C2  UNL     1       6.566  12.927  23.021  1.00  0.00    -0.091 C 
HETATM   35  C1  UNL     1       5.890  14.268  22.954  1.00  0.00     0.042 C 
HETATM   36  C3  UNL     1       8.067  13.002  23.139  1.00  0.00     0.042 C 
ENDBRANCH  32  33
ENDBRANCH  31  32
ENDBRANCH  29  31
ENDBRANCH  27  28
ENDBRANCH  24  26
ENDBRANCH   1  23
BRANCH   8  37
HETATM   37  C26 UNL     1       1.208   6.078  13.340  1.00  0.00     0.265 C 
HETATM   38  O4  UNL     1       1.975   6.170  12.389  1.00  0.00    -0.302 OA
ENDBRANCH   8  37
TORSDOF 13
ENDMDL
