MODEL 1
REMARK minimizedAffinity -7.71224976
REMARK CNNscore 0.847617626
REMARK CNNaffinity 7.48165083
REMARK  14 active torsions:
REMARK  status: ('A' for Active; 'I' for Inactive)
REMARK    1  A    between atoms: O1_2  and  C2_3 
REMARK    2  A    between atoms: C2_3  and  C3_4 
REMARK    3  A    between atoms: C3_4  and  C4_5 
REMARK    4  A    between atoms: C4_5  and  O2_6 
REMARK    5  A    between atoms: O2_6  and  C5_7 
REMARK    6  A    between atoms: C20_23  and  C21_24 
REMARK    7  A    between atoms: C21_24  and  O4_26 
REMARK    8  A    between atoms: C21_24  and  C23_27 
REMARK    9  A    between atoms: C23_27  and  O5_28 
REMARK   10  A    between atoms: C23_27  and  C24_29 
REMARK   11  A    between atoms: C25_31  and  C26_32 
REMARK   12  A    between atoms: C26_32  and  O7_33 
REMARK   13  A    between atoms: C27_34  and  C28_35 
REMARK   14  A    between atoms: C37_44  and  O8_45 
ROOT
HETATM    1  C5  UNL     1      -1.776  51.605 -23.028  1.00  0.00     0.122 C 
HETATM    2  C6  UNL     1      -3.136  50.923 -22.864  1.00  0.00     0.033 C 
HETATM    3  C7  UNL     1      -3.369  50.402 -21.445  1.00  0.00     0.013 C 
HETATM    4  C8  UNL     1      -2.219  49.495 -20.903  1.00  0.00    -0.026 C 
HETATM    5  C9  UNL     1      -2.206  48.187 -21.733  1.00  0.00     0.016 C 
HETATM    6  C10 UNL     1      -0.872  50.245 -21.063  1.00  0.00     0.071 C 
HETATM    7  C11 UNL     1      -0.640  50.716 -22.510  1.00  0.00     0.045 C 
HETATM    8  C12 UNL     1      -0.771  51.442 -20.116  1.00  0.00     0.154 C 
HETATM    9  O3  UNL     1      -0.134  52.459 -20.383  1.00  0.00    -0.293 OA
HETATM   10  C13 UNL     1      -1.400  51.354 -18.781  1.00  0.00     0.057 C 
HETATM   11  C14 UNL     1      -2.151  50.300 -18.434  1.00  0.00    -0.037 C 
HETATM   12  C15 UNL     1      -2.507  49.164 -19.391  1.00  0.00     0.026 C 
HETATM   13  C16 UNL     1      -1.878  47.860 -18.841  1.00  0.00     0.011 C 
HETATM   14  C17 UNL     1      -2.254  47.586 -17.362  1.00  0.00     0.014 C 
HETATM   15  C18 UNL     1      -1.937  48.784 -16.432  1.00  0.00    -0.002 C 
HETATM   16  C19 UNL     1      -0.396  48.941 -16.335  1.00  0.00     0.019 C 
HETATM   17  C20 UNL     1      -2.595  48.743 -15.008  1.00  0.00     0.034 C 
HETATM   18  C35 UNL     1      -2.685  50.262 -14.630  1.00  0.00     0.012 C 
HETATM   19  C36 UNL     1      -2.467  51.081 -15.914  1.00  0.00     0.044 C 
HETATM   20  C37 UNL     1      -2.639  50.052 -17.028  1.00  0.00     0.089 C 
ENDROOT
BRANCH  17  21
HETATM   21  C21 UNL     1      -2.000  47.854 -13.856  1.00  0.00     0.087 C 
HETATM   22  C22 UNL     1      -1.005  46.844 -14.475  1.00  0.00     0.049 C 
BRANCH  21  23
HETATM   23  O4  UNL     1      -3.041  47.088 -13.240  1.00  0.00    -0.387 OA
HETATM   24  H34 UNL     1      -3.292  46.362 -13.837  1.00  0.00     0.210 HD
ENDBRANCH  21  23
BRANCH  21  25
HETATM   25  C23 UNL     1      -1.286  48.701 -12.754  1.00  0.00     0.181 C 
BRANCH  25  26
HETATM   26  O5  UNL     1      -2.266  49.422 -11.985  1.00  0.00    -0.390 OA
HETATM   27  H36 UNL     1      -1.746  50.055 -11.449  1.00  0.00     0.210 HD
ENDBRANCH  25  26
BRANCH  25  28
HETATM   28  C24 UNL     1      -0.260  49.738 -13.258  1.00  0.00     0.158 C 
HETATM   29  O6  UNL     1      -0.405  50.958 -12.487  1.00  0.00    -0.375 OA
HETATM   30  C25 UNL     1       0.752  51.771 -12.787  1.00  0.00     0.150 C 
HETATM   31  C27 UNL     1       1.844  50.826 -13.348  1.00  0.00     0.027 C 
HETATM   32  C33 UNL     1       1.230  49.427 -13.153  1.00  0.00     0.020 C 
HETATM   33  C34 UNL     1       1.651  48.861 -11.789  1.00  0.00     0.013 C 
BRANCH  30  34
HETATM   34  C26 UNL     1       1.174  52.523 -11.523  1.00  0.00     0.196 C 
BRANCH  34  35
HETATM   35  O7  UNL     1       2.585  52.476 -11.352  1.00  0.00    -0.398 OA
HETATM   36  H41 UNL     1       2.790  53.006 -10.562  1.00  0.00     0.209 HD
ENDBRANCH  34  35
ENDBRANCH  30  34
BRANCH  31  37
HETATM   37  C28 UNL     1       2.158  51.132 -14.832  1.00  0.00    -0.007 C 
HETATM   38  C29 UNL     1       1.199  52.143 -15.465  1.00  0.00     0.005 C 
HETATM   39  C30 UNL     1       1.918  52.573 -16.736  1.00  0.00     0.000 C 
HETATM   40  C31 UNL     1       3.407  52.505 -16.405  1.00  0.00     0.000 C 
HETATM   41  C32 UNL     1       3.515  51.811 -15.049  1.00  0.00     0.005 C 
ENDBRANCH  31  37
ENDBRANCH  25  28
ENDBRANCH  21  25
ENDBRANCH  17  21
BRANCH  20  42
HETATM   42  O8  UNL     1      -4.057  49.841 -17.136  1.00  0.00    -0.384 OA
HETATM   43  H60 UNL     1      -4.446  50.666 -17.472  1.00  0.00     0.211 HD
ENDBRANCH  20  42
BRANCH   1  44
HETATM   44  O2  UNL     1      -1.529  51.847 -24.417  1.00  0.00    -0.386 OA
BRANCH  44  45
HETATM   45  C4  UNL     1      -1.450  53.237 -24.735  1.00  0.00     0.170 C 
BRANCH  45  46
HETATM   46  C3  UNL     1      -0.085  53.530 -25.340  1.00  0.00     0.052 C 
BRANCH  46  47
HETATM   47  C2  UNL     1       0.700  52.249 -25.613  1.00  0.00     0.169 C 
BRANCH  47  48
HETATM   48  O1  UNL     1       1.978  52.536 -26.185  1.00  0.00    -0.396 OA
HETATM   49  C1  UNL     1       2.609  51.388 -26.737  1.00  0.00     0.201 C 
ENDBRANCH  47  48
ENDBRANCH  46  47
ENDBRANCH  45  46
ENDBRANCH  44  45
ENDBRANCH   1  44
TORSDOF 14
ENDMDL
