MODEL 1
REMARK minimizedAffinity -9.25880241
REMARK CNNscore 0.457719564
REMARK CNNaffinity 7.36657
REMARK  12 active torsions:
REMARK  status: ('A' for Active; 'I' for Inactive)
REMARK    1  A    between atoms: C3_3  and  O1_4 
REMARK    2  A    between atoms: N1_14  and  O2_16 
REMARK    3  A    between atoms: O2_16  and  C13_17 
REMARK    4  A    between atoms: C13_17  and  C14_18 
REMARK       I    between atoms: C14_18  and  N2_20 
REMARK    5  A    between atoms: N2_20  and  C15_21 
REMARK    6  A    between atoms: C15_21  and  C16_22 
REMARK    7  A    between atoms: C15_21  and  C23_33 
REMARK       I    between atoms: C16_22  and  N3_24 
REMARK    8  A    between atoms: N3_24  and  C17_25 
REMARK    9  A    between atoms: C17_25  and  C18_26 
REMARK   10  A    between atoms: C17_25  and  C19_29 
REMARK   11  A    between atoms: C18_26  and  O6_28 
REMARK   12  A    between atoms: C19_29  and  C21_31 
ROOT
HETATM    1  C1  UNL     1      -3.335  53.180  -9.757  1.00  0.00     0.015 C 
HETATM    2  C2  UNL     1      -2.641  52.626 -10.567  1.00  0.00    -0.078 C 
HETATM    3  C3  UNL     1      -1.775  51.966 -11.566  1.00  0.00     0.128 C 
HETATM    4  C4  UNL     1      -0.623  51.198 -10.882  1.00  0.00     0.052 C 
HETATM    5  C5  UNL     1      -0.674  49.761 -11.401  1.00  0.00     0.010 C 
HETATM    6  C6  UNL     1      -1.430  49.823 -12.735  1.00  0.00     0.002 C 
HETATM    7  C7  UNL     1      -0.526  49.980 -13.995  1.00  0.00    -0.004 C 
HETATM    8  C8  UNL     1       0.706  50.895 -13.847  1.00  0.00     0.010 C 
HETATM    9  C9  UNL     1       1.571  50.919 -15.102  1.00  0.00     0.035 C 
HETATM   10  C10 UNL     1       0.770  51.256 -16.332  1.00  0.00    -0.069 C 
HETATM   11  C11 UNL     1       1.179  52.246 -17.144  1.00  0.00     0.030 C 
HETATM   12  C12 UNL     1       0.472  52.531 -18.417  1.00  0.00     0.032 C 
HETATM   13  N1  UNL     1       0.681  53.683 -18.982  1.00  0.00    -0.271 N 
ATOM     14  H1  UNL     1       1.274  54.412 -18.584  1.00  0.00     0.194 HD
HETATM   15  C26 UNL     1      -0.435  51.440 -18.942  1.00  0.00     0.060 C 
HETATM   16  C27 UNL     1      -1.307  50.965 -17.784  1.00  0.00     0.020 C 
HETATM   17  C28 UNL     1      -0.486  50.416 -16.574  1.00  0.00    -0.016 C 
HETATM   18  C29 UNL     1      -0.045  48.974 -16.952  1.00  0.00     0.020 C 
HETATM   19  C30 UNL     1      -1.366  50.356 -15.254  1.00  0.00     0.002 C 
HETATM   20  C31 UNL     1      -2.161  51.645 -14.944  1.00  0.00     0.007 C 
HETATM   21  C32 UNL     1      -3.115  51.471 -13.764  1.00  0.00     0.014 C 
HETATM   22  C33 UNL     1      -2.510  50.909 -12.465  1.00  0.00     0.003 C 
HETATM   23  C34 UNL     1      -3.683  50.238 -11.680  1.00  0.00     0.020 C 
ENDROOT
BRANCH   3  24
HETATM   24  O1  UNL     1      -1.210  53.003 -12.362  1.00  0.00    -0.377 OA
HETATM   25  H2  UNL     1      -0.849  53.671 -11.755  1.00  0.00     0.211 HD
ENDBRANCH   3  24
BRANCH  13  26
HETATM   26  O2  UNL     1       0.001  53.812 -20.202  1.00  0.00    -0.271 OA
BRANCH  26  27
HETATM   27  C13 UNL     1       0.958  53.866 -21.252  1.00  0.00     0.303 C 
BRANCH  27  28
HETATM   28  C14 UNL     1       0.943  52.616 -22.131  1.00  0.00     0.244 C 
HETATM   29  O3  UNL     1       1.462  51.547 -21.818  1.00  0.00    -0.271 OA
HETATM   30  N2  UNL     1       0.327  52.815 -23.359  1.00  0.00    -0.346 N 
HETATM   31  H16 UNL     1      -0.446  53.473 -23.351  1.00  0.00     0.163 HD
BRANCH  30  32
HETATM   32  C15 UNL     1       0.173  51.700 -24.297  1.00  0.00     0.180 C 
BRANCH  32  33
HETATM   33  C16 UNL     1      -1.218  51.066 -24.047  1.00  0.00     0.241 C 
HETATM   34  O4  UNL     1      -1.406  50.229 -23.166  1.00  0.00    -0.271 OA
HETATM   35  N3  UNL     1      -2.230  51.551 -24.851  1.00  0.00    -0.344 N 
HETATM   36  H18 UNL     1      -1.926  51.991 -25.715  1.00  0.00     0.163 HD
BRANCH  35  37
HETATM   37  C17 UNL     1      -3.507  50.827 -24.972  1.00  0.00     0.186 C 
BRANCH  37  38
HETATM   38  C18 UNL     1      -4.432  51.550 -23.989  1.00  0.00     0.163 C 
HETATM   39  O5  UNL     1      -4.092  52.028 -22.916  1.00  0.00    -0.648 OA
BRANCH  38  40
HETATM   40  O6  UNL     1      -5.722  51.595 -24.383  1.00  0.00    -0.775 OA
HETATM   41  H20 UNL     1      -6.168  52.119 -23.684  1.00  0.00     0.167 HD
ENDBRANCH  38  40
ENDBRANCH  37  38
BRANCH  37  42
HETATM   42  C19 UNL     1      -3.334  49.326 -24.627  1.00  0.00     0.014 C 
HETATM   43  C20 UNL     1      -4.502  48.773 -23.790  1.00  0.00     0.012 C 
BRANCH  42  44
HETATM   44  C21 UNL     1      -3.207  48.440 -25.888  1.00  0.00     0.002 C 
HETATM   45  C22 UNL     1      -3.486  49.156 -27.200  1.00  0.00     0.005 C 
ENDBRANCH  42  44
ENDBRANCH  37  42
ENDBRANCH  35  37
ENDBRANCH  32  33
BRANCH  32  46
HETATM   46  C23 UNL     1       0.395  52.191 -25.745  1.00  0.00     0.009 C 
HETATM   47  C24 UNL     1       0.191  53.701 -25.885  1.00  0.00     0.012 C 
HETATM   48  C25 UNL     1       1.748  51.781 -26.332  1.00  0.00     0.012 C 
ENDBRANCH  32  46
ENDBRANCH  30  32
ENDBRANCH  27  28
ENDBRANCH  26  27
ENDBRANCH  13  26
TORSDOF 12
ENDMDL
