MODEL 1
REMARK minimizedAffinity -10.8798122
REMARK  7 active torsions:
REMARK  status: ('A' for Active; 'I' for Inactive)
REMARK    1  A    between atoms: C4_4  and  C5_5 
REMARK    2  A    between atoms: C5_5  and  C6_6 
REMARK    3  A    between atoms: C6_6  and  C7_7 
REMARK    4  A    between atoms: C7_7  and  C9_9 
REMARK    5  A    between atoms: C18_18  and  O1_19 
REMARK    6  A    between atoms: O1_19  and  C19_20 
REMARK    7  A    between atoms: C19_20  and  C20_22 
ROOT
HETATM    1  C9  UNL     1      -0.769  51.075 -25.759  1.00  0.00    -0.002 C 
HETATM    2  C10 UNL     1       0.384  52.113 -25.763  1.00  0.00     0.006 C 
HETATM    3  C11 UNL     1       0.691  52.468 -24.302  1.00  0.00     0.010 C 
HETATM    4  C12 UNL     1      -0.164  51.502 -23.492  1.00  0.00     0.023 C 
HETATM    5  C13 UNL     1      -0.468  51.787 -22.043  1.00  0.00    -0.070 C 
HETATM    6  C14 UNL     1       0.235  52.630 -21.270  1.00  0.00     0.004 C 
HETATM    7  C15 UNL     1      -0.017  52.755 -19.857  1.00  0.00     0.004 C 
HETATM    8  C16 UNL     1      -0.783  51.872 -19.192  1.00  0.00    -0.069 C 
HETATM    9  C17 UNL     1      -0.723  51.774 -17.689  1.00  0.00     0.067 C 
HETATM   10  C18 UNL     1      -0.072  50.439 -17.287  1.00  0.00     0.136 C 
HETATM   11  C26 UNL     1      -0.707  49.241 -18.012  1.00  0.00     0.034 C 
HETATM   12  C27 UNL     1      -0.851  49.444 -19.530  1.00  0.00     0.017 C 
HETATM   13  C28 UNL     1      -1.572  50.765 -19.904  1.00  0.00    -0.013 C 
HETATM   14  C29 UNL     1      -3.037  50.722 -19.393  1.00  0.00     0.021 C 
HETATM   15  C30 UNL     1      -1.652  51.023 -21.462  1.00  0.00     0.027 C 
HETATM   16  C31 UNL     1      -1.945  49.769 -22.314  1.00  0.00     0.011 C 
HETATM   17  C32 UNL     1      -2.222  50.087 -23.802  1.00  0.00     0.011 C 
HETATM   18  C33 UNL     1      -1.437  51.303 -24.359  1.00  0.00    -0.033 C 
HETATM   19  C34 UNL     1      -2.347  52.559 -24.386  1.00  0.00     0.016 C 
ENDROOT
BRANCH  10  20
HETATM   20  O1  UNL     1      -0.252  50.293 -15.863  1.00  0.00    -0.312 OA
BRANCH  20  21
HETATM   21  C19 UNL     1       0.157  51.329 -15.089  1.00  0.00     0.293 C 
HETATM   22  O2  UNL     1      -0.535  51.957 -14.304  1.00  0.00    -0.259 OA
BRANCH  21  23
HETATM   23  C20 UNL     1       1.594  51.622 -15.336  1.00  0.00     0.039 A 
HETATM   24  C21 UNL     1       2.552  50.933 -14.579  1.00  0.00     0.017 A 
HETATM   25  C22 UNL     1       3.913  51.176 -14.774  1.00  0.00     0.001 A 
HETATM   26  C23 UNL     1       4.326  52.108 -15.727  1.00  0.00     0.000 A 
HETATM   27  C24 UNL     1       3.379  52.797 -16.487  1.00  0.00     0.001 A 
HETATM   28  C25 UNL     1       2.017  52.557 -16.293  1.00  0.00     0.017 A 
ENDBRANCH  21  23
ENDBRANCH  20  21
ENDBRANCH  10  20
BRANCH   1  29
HETATM   29  C7  UNL     1      -1.661  51.146 -27.035  1.00  0.00    -0.014 C 
HETATM   30  C8  UNL     1      -1.948  52.597 -27.449  1.00  0.00     0.010 C 
BRANCH  29  31
HETATM   31  C6  UNL     1      -3.035  50.436 -26.856  1.00  0.00     0.008 C 
BRANCH  31  32
HETATM   32  C5  UNL     1      -2.973  48.902 -26.834  1.00  0.00     0.028 C 
BRANCH  32  33
HETATM   33  C4  UNL     1      -4.348  48.315 -26.652  1.00  0.00    -0.025 C 
HETATM   34  C2  UNL     1      -5.261  48.023 -27.599  1.00  0.00    -0.091 C 
HETATM   35  C1  UNL     1      -6.607  47.459 -27.217  1.00  0.00     0.042 C 
HETATM   36  C3  UNL     1      -5.079  48.213 -29.080  1.00  0.00     0.042 C 
ENDBRANCH  32  33
ENDBRANCH  31  32
ENDBRANCH  29  31
ENDBRANCH   1  29
TORSDOF 7
ENDMDL
