MODEL 1
REMARK minimizedAffinity -8.86797237
REMARK CNNscore 0.854721129
REMARK CNNaffinity 7.87973547
REMARK  13 active torsions:
REMARK  status: ('A' for Active; 'I' for Inactive)
REMARK    1  A    between atoms: O1_2  and  C2_3 
REMARK    2  A    between atoms: C2_3  and  C3_4 
REMARK    3  A    between atoms: C3_4  and  C4_5 
REMARK    4  A    between atoms: C4_5  and  N1_6 
REMARK    5  A    between atoms: N1_6  and  C5_7 
REMARK    6  A    between atoms: C5_7  and  C6_8 
REMARK    7  A    between atoms: C10_12  and  O2_13 
REMARK    8  A    between atoms: C23_28  and  O5_29 
REMARK    9  A    between atoms: C27_33  and  C28_34 
REMARK   10  A    between atoms: C28_34  and  C30_36 
REMARK   11  A    between atoms: C38_44  and  O6_45 
REMARK   12  A    between atoms: C41_48  and  C42_49 
REMARK   13  A    between atoms: C43_51  and  O8_52 
ROOT
HETATM    1  C6  UNL     1       5.146  55.930  -6.617  1.00  0.00    -0.016 C 
HETATM    2  C7  UNL     1       4.852  55.731  -7.929  1.00  0.00    -0.013 C 
HETATM    3  C8  UNL     1       3.512  56.090  -8.536  1.00  0.00     0.021 C 
HETATM    4  C9  UNL     1       2.918  55.103  -9.538  1.00  0.00     0.051 C 
HETATM    5  C10 UNL     1       2.210  54.020  -8.704  1.00  0.00     0.098 C 
HETATM    6  C11 UNL     1       1.881  54.706  -7.308  1.00  0.00     0.002 C 
HETATM    7  C12 UNL     1       2.557  53.910  -6.142  1.00  0.00     0.013 C 
HETATM    8  C13 UNL     1       2.529  54.562  -4.766  1.00  0.00     0.004 C 
HETATM    9  C14 UNL     1       3.728  55.473  -4.492  1.00  0.00     0.048 C 
HETATM   10  C15 UNL     1       4.114  56.460  -5.619  1.00  0.00     0.120 C 
HETATM   11  O3  UNL     1       4.609  57.646  -4.976  1.00  0.00    -0.297 OA
HETATM   12  C16 UNL     1       3.652  58.614  -5.029  1.00  0.00     0.284 C 
HETATM   13  O4  UNL     1       3.686  59.683  -4.448  1.00  0.00    -0.260 OA
HETATM   14  C17 UNL     1       2.592  58.195  -5.946  1.00  0.00     0.089 C 
HETATM   15  C18 UNL     1       2.907  56.961  -6.328  1.00  0.00    -0.029 C 
HETATM   16  C19 UNL     1       2.391  56.187  -7.493  1.00  0.00     0.037 C 
HETATM   17  C20 UNL     1       0.356  54.744  -7.035  1.00  0.00     0.014 C 
HETATM   18  C21 UNL     1      -0.501  55.097  -8.249  1.00  0.00     0.010 C 
HETATM   19  C22 UNL     1      -0.293  54.180  -9.477  1.00  0.00     0.041 C 
HETATM   20  C23 UNL     1       0.983  53.327  -9.401  1.00  0.00     0.095 C 
HETATM   21  C24 UNL     1       1.308  52.916 -10.835  1.00  0.00     0.049 C 
HETATM   22  C25 UNL     1       0.177  52.184 -11.598  1.00  0.00     0.025 C 
HETATM   23  C26 UNL     1       0.230  52.626 -13.084  1.00  0.00     0.012 C 
HETATM   24  C27 UNL     1      -0.369  51.654 -14.141  1.00  0.00    -0.010 C 
HETATM   25  C35 UNL     1      -1.067  50.414 -13.550  1.00  0.00     0.005 C 
HETATM   26  C36 UNL     1      -2.360  50.721 -12.793  1.00  0.00     0.010 C 
HETATM   27  C37 UNL     1      -2.384  52.043 -12.001  1.00  0.00     0.050 C 
HETATM   28  C38 UNL     1      -3.816  52.304 -11.495  1.00  0.00     0.125 C 
HETATM   29  C39 UNL     1      -3.957  53.683 -10.855  1.00  0.00     0.033 C 
HETATM   30  C40 UNL     1      -2.626  54.312 -10.432  1.00  0.00     0.023 C 
HETATM   31  C41 UNL     1      -1.565  53.327  -9.867  1.00  0.00     0.051 C 
HETATM   32  C43 UNL     1      -1.255  52.169 -10.915  1.00  0.00     0.082 C 
ENDROOT
BRANCH   1  33
HETATM   33  C5  UNL     1       6.543  55.685  -6.100  1.00  0.00     0.306 C 
BRANCH  33  34
HETATM   34  N1  UNL     1       7.166  56.958  -5.774  1.00  0.00     0.087 N 
HETATM   35  H10 UNL     1       6.458  57.626  -5.462  1.00  0.00     0.316 HD
BRANCH  34  36
HETATM   36  C4  UNL     1       8.205  56.832  -4.759  1.00  0.00     0.272 C 
BRANCH  36  37
HETATM   37  C3  UNL     1       9.577  56.492  -5.359  1.00  0.00     0.056 C 
BRANCH  37  38
HETATM   38  C2  UNL     1      10.712  57.388  -4.872  1.00  0.00     0.168 C 
BRANCH  38  39
HETATM   39  O1  UNL     1      11.909  56.616  -4.792  1.00  0.00    -0.396 OA
HETATM   40  C1  UNL     1      11.650  55.267  -4.436  1.00  0.00     0.201 C 
ENDBRANCH  38  39
ENDBRANCH  37  38
ENDBRANCH  36  37
ENDBRANCH  34  36
ENDBRANCH  33  34
ENDBRANCH   1  33
BRANCH   5  41
HETATM   41  O2  UNL     1       3.151  52.936  -8.497  1.00  0.00    -0.386 OA
HETATM   42  H17 UNL     1       3.745  52.869  -9.265  1.00  0.00     0.210 HD
ENDBRANCH   5  41
BRANCH  20  43
HETATM   43  O5  UNL     1       0.720  52.112  -8.673  1.00  0.00    -0.386 OA
HETATM   44  H31 UNL     1       1.585  51.869  -8.277  1.00  0.00     0.210 HD
ENDBRANCH  20  43
BRANCH  31  45
HETATM   45  C42 UNL     1      -2.131  52.708  -8.567  1.00  0.00     0.244 C 
HETATM   46  O7  UNL     1      -2.294  51.506  -8.364  1.00  0.00    -0.306 OA
ENDBRANCH  31  45
BRANCH  32  47
HETATM   47  O8  UNL     1      -1.239  50.926 -10.173  1.00  0.00    -0.388 OA
HETATM   48  H63 UNL     1      -0.476  50.956  -9.558  1.00  0.00     0.210 HD
ENDBRANCH  32  47
BRANCH  24  49
HETATM   49  C28 UNL     1       0.631  51.252 -15.285  1.00  0.00    -0.011 C 
HETATM   50  C29 UNL     1      -0.105  51.103 -16.626  1.00  0.00     0.011 C 
BRANCH  49  51
HETATM   51  C30 UNL     1       1.925  52.105 -15.360  1.00  0.00    -0.010 C 
HETATM   52  C31 UNL     1       3.183  51.380 -14.834  1.00  0.00     0.005 C 
HETATM   53  C32 UNL     1       4.360  51.899 -15.658  1.00  0.00     0.000 C 
HETATM   54  C33 UNL     1       3.805  53.023 -16.517  1.00  0.00     0.000 C 
HETATM   55  C34 UNL     1       2.354  52.621 -16.734  1.00  0.00     0.005 C 
ENDBRANCH  49  51
ENDBRANCH  24  49
BRANCH  28  56
HETATM   56  O6  UNL     1      -4.293  51.277 -10.638  1.00  0.00    -0.395 OA
HETATM   57  H57 UNL     1      -3.859  51.379  -9.764  1.00  0.00     0.210 HD
ENDBRANCH  28  56
TORSDOF 13
ENDMDL
