MODEL 1
REMARK minimizedAffinity -8.84629822
REMARK CNNscore 0.647139609
REMARK CNNaffinity 7.05669785
REMARK  11 active torsions:
REMARK  status: ('A' for Active; 'I' for Inactive)
REMARK    1  A    between atoms: C3_3  and  O1_4 
REMARK    2  A    between atoms: N1_14  and  O2_16 
REMARK    3  A    between atoms: O2_16  and  C13_17 
REMARK    4  A    between atoms: C13_17  and  C14_18 
REMARK       I    between atoms: C14_18  and  N2_20 
REMARK    5  A    between atoms: N2_20  and  C15_21 
REMARK    6  A    between atoms: C15_21  and  C16_22 
REMARK    7  A    between atoms: C15_21  and  C19_27 
REMARK    8  A    between atoms: C16_22  and  O5_24 
REMARK    9  A    between atoms: O5_24  and  C17_25 
REMARK   10  A    between atoms: C19_27  and  O6_28 
REMARK   11  A    between atoms: C19_27  and  C20_29 
ROOT
HETATM    1  C1  UNL     1     -10.411  40.367 -35.998  1.00  0.00     0.015 C 
HETATM    2  C2  UNL     1     -10.708  41.289 -35.288  1.00  0.00    -0.078 C 
HETATM    3  C3  UNL     1     -11.087  42.417 -34.408  1.00  0.00     0.128 C 
HETATM    4  C4  UNL     1     -10.910  42.009 -32.937  1.00  0.00     0.052 C 
HETATM    5  C5  UNL     1      -9.507  42.474 -32.529  1.00  0.00     0.010 C 
HETATM    6  C6  UNL     1      -8.925  43.245 -33.732  1.00  0.00     0.002 C 
HETATM    7  C7  UNL     1      -7.962  44.401 -33.381  1.00  0.00    -0.004 C 
HETATM    8  C8  UNL     1      -6.815  43.914 -32.481  1.00  0.00     0.010 C 
HETATM    9  C9  UNL     1      -5.815  45.028 -32.197  1.00  0.00     0.035 C 
HETATM   10  C10 UNL     1      -6.496  46.235 -31.597  1.00  0.00    -0.069 C 
HETATM   11  C11 UNL     1      -6.047  46.745 -30.436  1.00  0.00     0.030 C 
HETATM   12  C12 UNL     1      -6.643  47.977 -29.848  1.00  0.00     0.032 C 
HETATM   13  N1  UNL     1      -6.430  48.439 -28.655  1.00  0.00    -0.271 N 
ATOM     14  H1  UNL     1      -6.854  49.292 -28.290  1.00  0.00     0.194 HD
HETATM   15  C26 UNL     1      -7.557  48.779 -30.746  1.00  0.00     0.060 C 
HETATM   16  C27 UNL     1      -8.465  47.838 -31.520  1.00  0.00     0.020 C 
HETATM   17  C28 UNL     1      -7.689  46.799 -32.382  1.00  0.00    -0.016 C 
HETATM   18  C29 UNL     1      -7.140  47.516 -33.639  1.00  0.00     0.020 C 
HETATM   19  C30 UNL     1      -8.677  45.624 -32.752  1.00  0.00     0.002 C 
HETATM   20  C31 UNL     1      -9.849  46.068 -33.648  1.00  0.00     0.007 C 
HETATM   21  C32 UNL     1     -10.830  44.927 -33.922  1.00  0.00     0.014 C 
HETATM   22  C33 UNL     1     -10.166  43.671 -34.549  1.00  0.00     0.003 C 
HETATM   23  C34 UNL     1      -9.805  43.986 -36.016  1.00  0.00     0.020 C 
ENDROOT
BRANCH   3  24
HETATM   24  O1  UNL     1     -12.449  42.736 -34.655  1.00  0.00    -0.377 OA
HETATM   25  H2  UNL     1     -12.535  42.871 -35.614  1.00  0.00     0.211 HD
ENDBRANCH   3  24
BRANCH  13  26
HETATM   26  O2  UNL     1      -5.550  47.629 -27.924  1.00  0.00    -0.271 OA
BRANCH  26  27
HETATM   27  C13 UNL     1      -5.307  48.233 -26.657  1.00  0.00     0.303 C 
BRANCH  27  28
HETATM   28  C14 UNL     1      -3.932  48.884 -26.609  1.00  0.00     0.244 C 
HETATM   29  O3  UNL     1      -2.935  48.356 -27.097  1.00  0.00    -0.271 OA
HETATM   30  N2  UNL     1      -3.881  50.078 -25.921  1.00  0.00    -0.343 N 
HETATM   31  H16 UNL     1      -4.676  50.287 -25.322  1.00  0.00     0.163 HD
BRANCH  30  32
HETATM   32  C15 UNL     1      -2.591  50.666 -25.514  1.00  0.00     0.217 C 
BRANCH  32  33
HETATM   33  C16 UNL     1      -2.742  51.455 -24.202  1.00  0.00     0.284 C 
HETATM   34  O4  UNL     1      -2.998  52.653 -24.140  1.00  0.00    -0.263 OA
BRANCH  33  35
HETATM   35  O5  UNL     1      -2.599  50.649 -23.105  1.00  0.00    -0.320 OA
BRANCH  35  36
HETATM   36  C17 UNL     1      -3.623  49.662 -22.913  1.00  0.00     0.174 C 
HETATM   37  C18 UNL     1      -4.314  49.878 -21.580  1.00  0.00     0.034 C 
ENDBRANCH  35  36
ENDBRANCH  33  35
ENDBRANCH  32  33
BRANCH  32  38
HETATM   38  C19 UNL     1      -2.064  51.570 -26.649  1.00  0.00     0.183 C 
BRANCH  38  39
HETATM   39  O6  UNL     1      -2.653  52.878 -26.580  1.00  0.00    -0.388 OA
HETATM   40  H24 UNL     1      -2.116  53.456 -27.152  1.00  0.00     0.210 HD
ENDBRANCH  38  39
BRANCH  38  41
HETATM   41  C20 UNL     1      -0.556  51.648 -26.780  1.00  0.00    -0.027 A 
HETATM   42  C21 UNL     1       0.283  51.641 -25.654  1.00  0.00     0.010 A 
HETATM   43  C22 UNL     1       1.670  51.701 -25.799  1.00  0.00     0.001 A 
HETATM   44  C23 UNL     1       2.238  51.770 -27.069  1.00  0.00     0.000 A 
HETATM   45  C24 UNL     1       1.420  51.779 -28.196  1.00  0.00     0.001 A 
HETATM   46  C25 UNL     1       0.031  51.717 -28.053  1.00  0.00     0.010 A 
ENDBRANCH  38  41
ENDBRANCH  32  38
ENDBRANCH  30  32
ENDBRANCH  27  28
ENDBRANCH  26  27
ENDBRANCH  13  26
TORSDOF 11
ENDMDL
