MODEL 1
REMARK minimizedAffinity -9.15954399
REMARK  12 active torsions:
REMARK  status: ('A' for Active; 'I' for Inactive)
REMARK    1  A    between atoms: C4_4  and  C5_5 
REMARK    2  A    between atoms: C5_5  and  C6_6 
REMARK    3  A    between atoms: C6_6  and  C7_7 
REMARK    4  A    between atoms: C7_7  and  C9_9 
REMARK    5  A    between atoms: C17_17  and  C18_18 
REMARK    6  A    between atoms: C18_18  and  O1_20 
REMARK    7  A    between atoms: C18_18  and  C20_21 
REMARK    8  A    between atoms: C20_21  and  O2_22 
REMARK    9  A    between atoms: C21_23  and  C22_24 
REMARK   10  A    between atoms: C22_24  and  C23_25 
REMARK   11  A    between atoms: C23_25  and  C24_26 
REMARK   12  A    between atoms: C24_26  and  O4_28 
ROOT
HETATM    1  C9  UNL     1      -3.028  49.650 -19.894  1.00  0.00    -0.002 C 
HETATM    2  C10 UNL     1      -2.846  51.171 -19.703  1.00  0.00     0.006 C 
HETATM    3  C11 UNL     1      -2.232  51.691 -20.998  1.00  0.00     0.011 C 
HETATM    4  C12 UNL     1      -1.288  50.561 -21.466  1.00  0.00    -0.032 C 
HETATM    5  C13 UNL     1      -0.014  50.582 -20.574  1.00  0.00     0.016 C 
HETATM    6  C14 UNL     1      -0.816  50.715 -22.969  1.00  0.00     0.004 C 
HETATM    7  C15 UNL     1      -0.066  52.040 -23.199  1.00  0.00     0.007 C 
HETATM    8  C16 UNL     1       0.029  52.571 -24.623  1.00  0.00     0.009 C 
HETATM    9  C17 UNL     1      -0.283  51.567 -25.745  1.00  0.00     0.031 C 
HETATM   10  C21 UNL     1      -1.627  50.811 -25.473  1.00  0.00    -0.025 A 
HETATM   11  C25 UNL     1      -2.719  51.498 -24.652  1.00  0.00     0.021 A 
HETATM   12  C26 UNL     1      -1.904  50.411 -23.997  1.00  0.00    -0.027 A 
HETATM   13  C27 UNL     1      -2.600  49.092 -23.717  1.00  0.00     0.011 C 
HETATM   14  C28 UNL     1      -3.212  49.088 -22.331  1.00  0.00     0.011 C 
HETATM   15  C29 UNL     1      -2.174  49.281 -21.181  1.00  0.00    -0.032 C 
HETATM   16  C30 UNL     1      -1.332  47.998 -21.104  1.00  0.00     0.016 C 
ENDROOT
BRANCH   1  17
HETATM   17  C7  UNL     1      -2.991  48.844 -18.558  1.00  0.00    -0.014 C 
HETATM   18  C8  UNL     1      -2.783  47.342 -18.795  1.00  0.00     0.010 C 
BRANCH  17  19
HETATM   19  C6  UNL     1      -2.071  49.381 -17.441  1.00  0.00     0.008 C 
BRANCH  19  20
HETATM   20  C5  UNL     1      -0.599  48.996 -17.636  1.00  0.00     0.028 C 
BRANCH  20  21
HETATM   21  C4  UNL     1       0.221  49.349 -16.423  1.00  0.00    -0.025 C 
HETATM   22  C2  UNL     1       0.793  50.536 -16.144  1.00  0.00    -0.091 C 
HETATM   23  C1  UNL     1       0.755  51.742 -17.044  1.00  0.00     0.042 C 
HETATM   24  C3  UNL     1       1.557  50.741 -14.862  1.00  0.00     0.042 C 
ENDBRANCH  20  21
ENDBRANCH  19  20
ENDBRANCH  17  19
ENDBRANCH   1  17
BRANCH  10  25
HETATM   25  C22 UNL     1      -1.999  49.769 -26.546  1.00  0.00     0.021 C 
BRANCH  25  26
HETATM   26  C23 UNL     1      -3.500  49.560 -26.756  1.00  0.00     0.111 C 
BRANCH  26  27
HETATM   27  C24 UNL     1      -3.810  49.325 -28.208  1.00  0.00     0.139 C 
HETATM   28  O3  UNL     1      -4.225  48.301 -28.725  1.00  0.00    -0.650 OA
BRANCH  27  29
HETATM   29  O4  UNL     1      -3.560  50.415 -28.963  1.00  0.00    -0.776 OA
HETATM   30  H41 UNL     1      -3.789  50.128 -29.871  1.00  0.00     0.167 HD
ENDBRANCH  27  29
ENDBRANCH  26  27
ENDBRANCH  25  26
ENDBRANCH  10  25
BRANCH   9  31
HETATM   31  C18 UNL     1      -0.151  52.233 -27.185  1.00  0.00     0.080 C 
HETATM   32  C19 UNL     1      -0.203  53.775 -27.212  1.00  0.00     0.048 C 
BRANCH  31  33
HETATM   33  O1  UNL     1      -1.229  51.821 -28.043  1.00  0.00    -0.388 OA
HETATM   34  H33 UNL     1      -0.908  52.000 -28.951  1.00  0.00     0.210 HD
ENDBRANCH  31  33
BRANCH  31  35
HETATM   35  C20 UNL     1       1.184  51.799 -27.858  1.00  0.00     0.201 C 
BRANCH  35  36
HETATM   36  O2  UNL     1       2.271  52.042 -26.957  1.00  0.00    -0.398 OA
HETATM   37  H36 UNL     1       3.091  51.917 -27.467  1.00  0.00     0.209 HD
ENDBRANCH  35  36
ENDBRANCH  31  35
ENDBRANCH   9  31
TORSDOF 12
ENDMDL
