MODEL 1
REMARK minimizedAffinity -8.70194244
REMARK CNNscore 0.518007636
REMARK CNNaffinity 6.76255274
REMARK  5 active torsions:
REMARK  status: ('A' for Active; 'I' for Inactive)
REMARK    1  A    between atoms: C2_2  and  C3_3 
REMARK    2  A    between atoms: C2_2  and  C9_12 
REMARK    3  A    between atoms: C3_3  and  C4_4 
REMARK    4  A    between atoms: C6_6  and  C7_7 
REMARK    5  A    between atoms: C7_7  and  O1_8 
ROOT
HETATM    1  C9  UNL     1      -3.006   8.568  15.024  1.00  0.00    -0.002 C 
HETATM    2  C10 UNL     1      -3.959   8.866  13.828  1.00  0.00     0.007 C 
HETATM    3  C11 UNL     1      -3.146   8.683  12.533  1.00  0.00     0.015 C 
HETATM    4  C12 UNL     1      -1.848   7.980  12.977  1.00  0.00    -0.013 C 
HETATM    5  C13 UNL     1      -2.185   6.456  13.048  1.00  0.00     0.021 C 
HETATM    6  C14 UNL     1      -0.620   8.095  12.081  1.00  0.00    -0.070 C 
HETATM    7  C15 UNL     1      -0.720   8.222  10.751  1.00  0.00    -0.022 C 
HETATM    8  C16 UNL     1       0.437   8.217   9.813  1.00  0.00     0.034 C 
HETATM    9  C17 UNL     1       1.871   8.178  10.429  1.00  0.00     0.013 C 
HETATM   10  C18 UNL     1       2.890   7.648   9.341  1.00  0.00     0.018 C 
HETATM   11  C19 UNL     1       4.364   7.966   9.662  1.00  0.00     0.023 C 
HETATM   12  C20 UNL     1       2.617   8.299   7.959  1.00  0.00     0.023 C 
HETATM   13  C21 UNL     1       2.728   6.124   9.227  1.00  0.00     0.135 C 
HETATM   14  O4  UNL     1       2.766   5.547   8.139  1.00  0.00    -0.297 OA
HETATM   15  C22 UNL     1       2.638   5.317  10.510  1.00  0.00     0.080 C 
HETATM   16  C23 UNL     1       1.655   5.900  11.523  1.00  0.00     0.017 C 
HETATM   17  C24 UNL     1       1.881   7.405  11.808  1.00  0.00    -0.031 C 
HETATM   18  C25 UNL     1       3.226   7.585  12.556  1.00  0.00     0.016 C 
HETATM   19  C26 UNL     1       0.750   8.022  12.746  1.00  0.00     0.024 C 
HETATM   20  C27 UNL     1       0.678   7.410  14.173  1.00  0.00     0.010 C 
HETATM   21  C28 UNL     1      -0.461   7.919  15.089  1.00  0.00     0.011 C 
HETATM   22  C29 UNL     1      -1.591   8.669  14.362  1.00  0.00    -0.029 C 
HETATM   23  C30 UNL     1      -1.207  10.177  14.242  1.00  0.00     0.016 C 
ENDROOT
BRANCH   1  24
HETATM   24  C2  UNL     1      -3.341   9.431  16.274  1.00  0.00    -0.011 C 
HETATM   25  C1  UNL     1      -4.276  10.601  15.957  1.00  0.00     0.010 C 
BRANCH  24  26
HETATM   26  C3  UNL     1      -2.066   9.929  17.018  1.00  0.00     0.041 C 
BRANCH  26  27
HETATM   27  C4  UNL     1      -2.276  10.423  18.457  1.00  0.00     0.156 A 
HETATM   28  C5  UNL     1      -3.640  10.957  18.674  1.00  0.00     0.021 A 
HETATM   29  C6  UNL     1      -3.610  12.250  18.994  1.00  0.00     0.039 A 
HETATM   30  C8  UNL     1      -2.199  12.639  19.010  1.00  0.00     0.291 A 
HETATM   31  O2  UNL     1      -1.780  13.756  19.253  1.00  0.00    -0.260 OA
HETATM   32  O3  UNL     1      -1.435  11.551  18.719  1.00  0.00    -0.308 OA
BRANCH  29  33
HETATM   33  C7  UNL     1      -4.669  13.224  19.322  1.00  0.00     0.208 C 
BRANCH  33  34
HETATM   34  O1  UNL     1      -5.483  13.462  18.177  1.00  0.00    -0.396 OA
HETATM   35  H11 UNL     1      -6.193  14.061  18.462  1.00  0.00     0.209 HD
ENDBRANCH  33  34
ENDBRANCH  29  33
ENDBRANCH  26  27
ENDBRANCH  24  26
ENDBRANCH   1  24
TORSDOF 5
ENDMDL
