MODEL 1
REMARK minimizedAffinity -8.91708183
REMARK CNNscore 0.430857837
REMARK CNNaffinity 6.62700033
REMARK  13 active torsions:
REMARK  status: ('A' for Active; 'I' for Inactive)
REMARK    1  A    between atoms: C3_3  and  O1_4 
REMARK    2  A    between atoms: N1_14  and  O2_16 
REMARK    3  A    between atoms: O2_16  and  C13_17 
REMARK    4  A    between atoms: C13_17  and  C14_18 
REMARK       I    between atoms: C14_18  and  N2_20 
REMARK    5  A    between atoms: N2_20  and  C15_21 
REMARK    6  A    between atoms: C15_21  and  C16_22 
REMARK    7  A    between atoms: C15_21  and  C21_33 
REMARK       I    between atoms: C16_22  and  N3_24 
REMARK    8  A    between atoms: N3_24  and  C17_25 
REMARK    9  A    between atoms: C17_25  and  C18_26 
REMARK   10  A    between atoms: C17_25  and  C20_30 
REMARK   11  A    between atoms: C18_26  and  C19_27 
REMARK   12  A    between atoms: C19_27  and  O6_29 
REMARK   13  A    between atoms: C20_30  and  O8_32 
ROOT
HETATM    1  C1  UNL     1      -8.977   6.744  14.417  1.00  0.00     0.015 C 
HETATM    2  C2  UNL     1      -7.846   6.346  14.402  1.00  0.00    -0.078 C 
HETATM    3  C3  UNL     1      -6.462   5.839  14.390  1.00  0.00     0.128 C 
HETATM    4  C4  UNL     1      -6.259   4.777  13.304  1.00  0.00     0.052 C 
HETATM    5  C5  UNL     1      -4.742   4.679  13.213  1.00  0.00     0.010 C 
HETATM    6  C6  UNL     1      -4.295   6.147  13.218  1.00  0.00     0.002 C 
HETATM    7  C7  UNL     1      -2.800   6.402  13.539  1.00  0.00    -0.004 C 
HETATM    8  C8  UNL     1      -2.151   5.479  14.585  1.00  0.00     0.010 C 
HETATM    9  C9  UNL     1      -0.662   5.775  14.760  1.00  0.00     0.035 C 
HETATM   10  C10 UNL     1      -0.349   7.239  14.984  1.00  0.00    -0.069 C 
HETATM   11  C11 UNL     1       0.530   7.593  15.936  1.00  0.00     0.030 C 
HETATM   12  C12 UNL     1       0.988   8.997  16.107  1.00  0.00     0.032 C 
HETATM   13  N1  UNL     1       1.776   9.241  17.114  1.00  0.00    -0.271 N 
ATOM     14  H1  UNL     1       2.072   8.530  17.783  1.00  0.00     0.194 HD
HETATM   15  C24 UNL     1       0.550  10.018  15.077  1.00  0.00     0.060 C 
HETATM   16  C25 UNL     1      -0.862   9.699  14.587  1.00  0.00     0.020 C 
HETATM   17  C26 UNL     1      -1.033   8.243  14.058  1.00  0.00    -0.016 C 
HETATM   18  C27 UNL     1      -0.347   8.168  12.671  1.00  0.00     0.020 C 
HETATM   19  C28 UNL     1      -2.566   7.890  13.904  1.00  0.00     0.002 C 
HETATM   20  C29 UNL     1      -3.429   8.301  15.127  1.00  0.00     0.007 C 
HETATM   21  C30 UNL     1      -4.701   7.478  15.363  1.00  0.00     0.014 C 
HETATM   22  C31 UNL     1      -5.349   6.916  14.086  1.00  0.00     0.003 C 
HETATM   23  C32 UNL     1      -5.912   8.092  13.243  1.00  0.00     0.020 C 
ENDROOT
BRANCH   3  24
HETATM   24  O1  UNL     1      -6.220   5.200  15.646  1.00  0.00    -0.377 OA
HETATM   25  H2  UNL     1      -7.013   4.684  15.865  1.00  0.00     0.211 HD
ENDBRANCH   3  24
BRANCH  13  26
HETATM   26  O2  UNL     1       2.176  10.583  17.181  1.00  0.00    -0.271 OA
BRANCH  26  27
HETATM   27  C13 UNL     1       1.793  11.077  18.460  1.00  0.00     0.303 C 
BRANCH  27  28
HETATM   28  C14 UNL     1       2.674  10.578  19.596  1.00  0.00     0.244 C 
HETATM   29  O3  UNL     1       2.633   9.408  19.983  1.00  0.00    -0.271 OA
HETATM   30  N2  UNL     1       3.560  11.488  20.128  1.00  0.00    -0.346 N 
HETATM   31  H16 UNL     1       3.741  12.329  19.587  1.00  0.00     0.163 HD
BRANCH  30  32
HETATM   32  C15 UNL     1       4.515  11.106  21.174  1.00  0.00     0.180 C 
BRANCH  32  33
HETATM   33  C16 UNL     1       5.879  11.735  20.788  1.00  0.00     0.241 C 
HETATM   34  O4  UNL     1       6.381  11.646  19.669  1.00  0.00    -0.271 OA
HETATM   35  N3  UNL     1       6.507  12.393  21.833  1.00  0.00    -0.344 N 
HETATM   36  H18 UNL     1       6.142  12.189  22.765  1.00  0.00     0.163 HD
BRANCH  35  37
HETATM   37  C17 UNL     1       7.929  12.746  21.734  1.00  0.00     0.192 C 
BRANCH  37  38
HETATM   38  C18 UNL     1       8.074  14.233  21.430  1.00  0.00     0.146 C 
BRANCH  38  39
HETATM   39  C19 UNL     1       8.411  15.016  22.667  1.00  0.00     0.141 C 
HETATM   40  O5  UNL     1       7.637  15.318  23.561  1.00  0.00    -0.650 OA
BRANCH  39  41
HETATM   41  O6  UNL     1       9.693  15.409  22.706  1.00  0.00    -0.776 OA
HETATM   42  H22 UNL     1       9.769  15.879  23.566  1.00  0.00     0.167 HD
ENDBRANCH  39  41
ENDBRANCH  38  39
ENDBRANCH  37  38
BRANCH  37  43
HETATM   43  C20 UNL     1       8.667  12.424  23.045  1.00  0.00     0.164 C 
HETATM   44  O7  UNL     1       9.026  11.316  23.411  1.00  0.00    -0.648 OA
BRANCH  43  45
HETATM   45  O8  UNL     1       8.995  13.504  23.783  1.00  0.00    -0.775 OA
HETATM   46  H23 UNL     1       9.494  13.126  24.538  1.00  0.00     0.167 HD
ENDBRANCH  43  45
ENDBRANCH  37  43
ENDBRANCH  35  37
ENDBRANCH  32  33
BRANCH  32  47
HETATM   47  C21 UNL     1       4.030  11.551  22.574  1.00  0.00     0.009 C 
HETATM   48  C22 UNL     1       3.410  10.376  23.343  1.00  0.00     0.012 C 
HETATM   49  C23 UNL     1       2.992  12.677  22.467  1.00  0.00     0.012 C 
ENDBRANCH  32  47
ENDBRANCH  30  32
ENDBRANCH  27  28
ENDBRANCH  26  27
ENDBRANCH  13  26
TORSDOF 13
ENDMDL
