MODEL 1
REMARK minimizedAffinity -7.81325006
REMARK  14 active torsions:
REMARK  status: ('A' for Active; 'I' for Inactive)
REMARK    1  A    between atoms: C2_2  and  C3_3 
REMARK    2  A    between atoms: C2_2  and  C27_31 
REMARK    3  A    between atoms: C4_4  and  C5_5 
REMARK    4  A    between atoms: C6_6  and  C7_7 
REMARK    5  A    between atoms: C6_6  and  C9_9 
REMARK    6  A    between atoms: C13_13  and  O1_14 
REMARK    7  A    between atoms: C15_16  and  C16_17 
REMARK    8  A    between atoms: C16_17  and  C17_18 
REMARK    9  A    between atoms: C17_18  and  C18_19 
REMARK   10  A    between atoms: C18_19  and  O2_20 
REMARK   11  A    between atoms: C20_22  and  C22_24 
REMARK   12  A    between atoms: C25_28  and  O4_30 
REMARK   13  A    between atoms: C27_31  and  C28_32 
REMARK   14  A    between atoms: C28_32  and  C29_33 
ROOT
HETATM    1  C9  UNL     1      -2.106   6.499  13.953  1.00  0.00     0.044 C 
HETATM    2  C10 UNL     1      -1.256   5.274  14.321  1.00  0.00     0.013 C 
HETATM    3  C11 UNL     1       0.176   5.699  14.082  1.00  0.00     0.017 C 
HETATM    4  C12 UNL     1       0.171   6.630  12.837  1.00  0.00     0.025 C 
HETATM    5  C13 UNL     1      -1.191   7.421  13.060  1.00  0.00     0.141 C 
HETATM    6  C15 UNL     1       1.575   7.418  12.835  1.00  0.00     0.029 C 
HETATM    7  C19 UNL     1       2.040   7.800  11.413  1.00  0.00    -0.066 C 
HETATM    8  C20 UNL     1       3.325   7.721  10.976  1.00  0.00    -0.021 C 
HETATM    9  C21 UNL     1       4.515   7.246  11.774  1.00  0.00     0.052 C 
HETATM   10  C23 UNL     1       0.855   8.115  10.539  1.00  0.00     0.038 C 
HETATM   11  C24 UNL     1       0.099   6.817  10.255  1.00  0.00     0.042 C 
HETATM   12  C25 UNL     1       0.047   5.832  11.462  1.00  0.00     0.065 C 
HETATM   13  C26 UNL     1       1.096   4.714  11.302  1.00  0.00     0.047 C 
ENDROOT
BRANCH   5  14
HETATM   14  O1  UNL     1      -1.016   8.714  13.627  1.00  0.00    -0.389 OA
HETATM   15  C14 UNL     1      -1.727   9.735  12.934  1.00  0.00     0.202 C 
ENDBRANCH   5  14
BRANCH   6  16
HETATM   16  C16 UNL     1       1.655   8.634  13.795  1.00  0.00     0.012 C 
BRANCH  16  17
HETATM   17  C17 UNL     1       2.857   8.647  14.748  1.00  0.00     0.027 C 
BRANCH  17  18
HETATM   18  C18 UNL     1       2.628   7.769  15.979  1.00  0.00     0.164 C 
BRANCH  18  19
HETATM   19  O2  UNL     1       3.177   6.472  15.792  1.00  0.00    -0.401 OA
HETATM   20  H27 UNL     1       4.145   6.561  15.802  1.00  0.00     0.209 HD
ENDBRANCH  18  19
ENDBRANCH  17  18
ENDBRANCH  16  17
ENDBRANCH   6  16
BRANCH  12  21
HETATM   21  O4  UNL     1      -1.224   5.167  11.368  1.00  0.00    -0.389 OA
HETATM   22  H39 UNL     1      -1.257   4.691  10.522  1.00  0.00     0.210 HD
ENDBRANCH  12  21
BRANCH   1  23
HETATM   23  C6  UNL     1      -2.792   7.135  15.177  1.00  0.00    -0.074 C 
HETATM   24  C5  UNL     1      -4.125   7.079  15.404  1.00  0.00     0.003 C 
BRANCH  24  25
HETATM   25  C4  UNL     1      -5.150   6.496  14.558  1.00  0.00     0.001 C 
HETATM   26  C3  UNL     1      -6.379   6.202  15.017  1.00  0.00     0.006 C 
BRANCH  26  27
HETATM   27  C2  UNL     1      -7.485   5.626  14.249  1.00  0.00    -0.067 C 
HETATM   28  C1  UNL     1      -8.531   6.418  13.952  1.00  0.00     0.019 C 
BRANCH  27  29
HETATM   29  C27 UNL     1      -7.384   4.166  13.829  1.00  0.00     0.041 C 
BRANCH  29  30
HETATM   30  C28 UNL     1      -7.028   3.880  12.362  1.00  0.00     0.032 C 
BRANCH  30  31
HETATM   31  C29 UNL     1      -5.564   3.567  12.203  1.00  0.00    -0.024 C 
HETATM   32  C30 UNL     1      -5.010   2.431  11.737  1.00  0.00    -0.091 C 
HETATM   33  C31 UNL     1      -3.513   2.269  11.690  1.00  0.00     0.042 C 
HETATM   34  C32 UNL     1      -5.779   1.243  11.224  1.00  0.00     0.042 C 
ENDBRANCH  30  31
ENDBRANCH  29  30
ENDBRANCH  27  29
ENDBRANCH  26  27
ENDBRANCH  24  25
BRANCH  23  35
HETATM   35  C7  UNL     1      -1.854   7.830  16.166  1.00  0.00     0.030 C 
HETATM   36  C8  UNL     1      -2.389   9.054  16.905  1.00  0.00     0.010 C 
ENDBRANCH  23  35
ENDBRANCH   1  23
BRANCH   8  37
HETATM   37  C22 UNL     1       3.716   8.077   9.571  1.00  0.00     0.265 C 
HETATM   38  O3  UNL     1       3.578   7.304   8.628  1.00  0.00    -0.302 OA
ENDBRANCH   8  37
TORSDOF 14
ENDMDL
