MODEL 1
REMARK minimizedAffinity -7.71827459
REMARK CNNscore 0.539293349
REMARK CNNaffinity 6.89477968
REMARK  6 active torsions:
REMARK  status: ('A' for Active; 'I' for Inactive)
REMARK    1  A    between atoms: C2_2  and  C3_3 
REMARK    2  A    between atoms: C2_2  and  C9_11 
REMARK    3  A    between atoms: C3_3  and  C4_4 
REMARK    4  A    between atoms: C5_5  and  C6_6 
REMARK    5  A    between atoms: C6_6  and  O1_9 
REMARK    6  A    between atoms: O1_9  and  O2_10 
ROOT
HETATM    1  C9  UNL     1      -1.747  51.851 -10.271  1.00  0.00    -0.001 C 
HETATM    2  C10 UNL     1      -0.956  50.524 -10.086  1.00  0.00     0.007 C 
HETATM    3  C11 UNL     1       0.537  50.886  -9.991  1.00  0.00     0.024 C 
HETATM    4  C12 UNL     1       0.557  52.396  -9.916  1.00  0.00     0.092 C 
HETATM    5  C13 UNL     1       0.421  52.898  -8.454  1.00  0.00     0.272 C 
HETATM    6  O3  UNL     1      -0.120  52.336  -7.518  1.00  0.00    -0.264 OA
HETATM    7  O4  UNL     1       1.019  54.141  -8.365  1.00  0.00    -0.305 OA
HETATM    8  C14 UNL     1       1.539  54.507  -9.667  1.00  0.00     0.113 C 
HETATM    9  C15 UNL     1       0.367  55.199 -10.433  1.00  0.00     0.043 C 
HETATM   10  C16 UNL     1      -0.942  54.359 -10.457  1.00  0.00     0.014 C 
HETATM   11  C17 UNL     1      -0.669  52.864 -10.768  1.00  0.00    -0.020 C 
HETATM   12  C18 UNL     1      -0.433  52.730 -12.289  1.00  0.00     0.017 C 
HETATM   13  C19 UNL     1       1.778  53.156 -10.257  1.00  0.00     0.137 A 
HETATM   14  O5  UNL     1       2.466  52.985 -11.480  1.00  0.00    -0.364 OA
HETATM   15  C20 UNL     1       3.150  52.537 -10.289  1.00  0.00     0.162 A 
HETATM   16  C21 UNL     1       4.352  53.343  -9.923  1.00  0.00     0.041 C 
HETATM   17  C22 UNL     1       4.013  54.489  -8.944  1.00  0.00     0.010 C 
HETATM   18  C23 UNL     1       5.283  55.303  -8.570  1.00  0.00     0.056 C 
HETATM   19  C24 UNL     1       6.373  54.444  -7.921  1.00  0.00     0.018 C 
HETATM   20  C25 UNL     1       4.904  56.452  -7.639  1.00  0.00     0.131 C 
HETATM   21  O6  UNL     1       5.508  56.698  -6.597  1.00  0.00    -0.298 OA
HETATM   22  C26 UNL     1       3.788  57.351  -8.110  1.00  0.00     0.079 C 
HETATM   23  C27 UNL     1       2.564  56.515  -8.452  1.00  0.00     0.020 C 
HETATM   24  C28 UNL     1       2.836  55.388  -9.496  1.00  0.00    -0.004 C 
HETATM   25  C29 UNL     1       3.220  56.053 -10.844  1.00  0.00     0.019 C 
ENDROOT
BRANCH   1  26
HETATM   26  C2  UNL     1      -3.126  51.666 -10.969  1.00  0.00    -0.010 C 
HETATM   27  C1  UNL     1      -4.204  52.720 -10.673  1.00  0.00     0.010 C 
BRANCH  26  28
HETATM   28  C3  UNL     1      -3.683  50.240 -10.755  1.00  0.00     0.031 C 
BRANCH  28  29
HETATM   29  C4  UNL     1      -5.152  50.224 -10.420  1.00  0.00    -0.027 C 
HETATM   30  C5  UNL     1      -5.854  49.101 -10.195  1.00  0.00     0.009 C 
BRANCH  30  31
HETATM   31  C6  UNL     1      -7.330  48.986  -9.850  1.00  0.00     0.106 C 
HETATM   32  C7  UNL     1      -7.723  47.806  -8.948  1.00  0.00     0.053 C 
HETATM   33  C8  UNL     1      -8.120  48.875 -11.164  1.00  0.00     0.053 C 
BRANCH  31  34
HETATM   34  O1  UNL     1      -7.750  50.230  -9.249  1.00  0.00    -0.229 OA
BRANCH  34  35
HETATM   35  O2  UNL     1      -8.371  49.922  -7.961  1.00  0.00    -0.249 OA
HETATM   36  H15 UNL     1      -7.584  50.095  -7.414  1.00  0.00     0.253 HD
ENDBRANCH  34  35
ENDBRANCH  31  34
ENDBRANCH  30  31
ENDBRANCH  28  29
ENDBRANCH  26  28
ENDBRANCH   1  26
TORSDOF 6
ENDMDL
