MODEL 1
REMARK minimizedAffinity -6.53369522
REMARK CNNscore 0.615043283
REMARK CNNaffinity 6.84485388
REMARK  13 active torsions:
REMARK  status: ('A' for Active; 'I' for Inactive)
REMARK    1  A    between atoms: C2_2  and  C3_3 
REMARK    2  A    between atoms: C4_5  and  C5_6 
REMARK    3  A    between atoms: C5_6  and  C6_7 
REMARK    4  A    between atoms: C6_7  and  C7_8 
REMARK    5  A    between atoms: C7_8  and  C9_10 
REMARK    6  A    between atoms: C17_18  and  C18_19 
REMARK    7  A    between atoms: C18_19  and  O2_21 
REMARK    8  A    between atoms: C18_19  and  C20_22 
REMARK    9  A    between atoms: C20_22  and  O3_23 
REMARK   10  A    between atoms: C21_24  and  C22_25 
REMARK   11  A    between atoms: C22_25  and  C23_26 
REMARK   12  A    between atoms: C23_26  and  C24_27 
REMARK   13  A    between atoms: C24_27  and  O5_29 
ROOT
HETATM    1  C9  UNL     1      -1.217  53.719  -8.438  1.00  0.00    -0.002 C 
HETATM    2  C10 UNL     1      -1.773  52.335  -8.067  1.00  0.00     0.006 C 
HETATM    3  C11 UNL     1      -2.338  51.735  -9.374  1.00  0.00     0.011 C 
HETATM    4  C12 UNL     1      -2.048  52.763 -10.504  1.00  0.00    -0.032 C 
HETATM    5  C13 UNL     1      -3.318  53.672 -10.628  1.00  0.00     0.016 C 
HETATM    6  C14 UNL     1      -1.808  52.170 -11.933  1.00  0.00     0.004 C 
HETATM    7  C15 UNL     1      -2.755  51.033 -12.310  1.00  0.00     0.007 C 
HETATM    8  C16 UNL     1      -2.681  50.843 -13.818  1.00  0.00     0.009 C 
HETATM    9  C17 UNL     1      -1.320  50.307 -14.312  1.00  0.00     0.031 C 
HETATM   10  C21 UNL     1      -0.071  50.890 -13.547  1.00  0.00    -0.025 A 
HETATM   11  C25 UNL     1       0.232  52.375 -13.463  1.00  0.00     0.021 A 
HETATM   12  C26 UNL     1      -0.380  51.729 -12.247  1.00  0.00    -0.027 A 
HETATM   13  C27 UNL     1       0.433  51.473 -11.014  1.00  0.00     0.011 C 
HETATM   14  C28 UNL     1       0.501  52.677 -10.086  1.00  0.00     0.011 C 
HETATM   15  C29 UNL     1      -0.793  53.531  -9.935  1.00  0.00    -0.032 C 
HETATM   16  C30 UNL     1      -0.560  54.898 -10.601  1.00  0.00     0.016 C 
ENDROOT
BRANCH   1  17
HETATM   17  C7  UNL     1      -0.288  54.413  -7.400  1.00  0.00    -0.014 C 
HETATM   18  C8  UNL     1      -0.608  54.177  -5.923  1.00  0.00     0.010 C 
BRANCH  17  19
HETATM   19  C6  UNL     1      -0.198  55.948  -7.621  1.00  0.00     0.008 C 
BRANCH  19  20
HETATM   20  C5  UNL     1       1.204  56.537  -7.424  1.00  0.00     0.028 C 
BRANCH  20  21
HETATM   21  C4  UNL     1       2.145  56.064  -8.499  1.00  0.00    -0.017 C 
HETATM   22  C2  UNL     1       3.404  56.487  -8.717  1.00  0.00    -0.028 C 
HETATM   23  C1  UNL     1       4.156  57.541  -7.964  1.00  0.00     0.051 C 
BRANCH  22  24
HETATM   24  C3  UNL     1       4.147  55.850  -9.843  1.00  0.00     0.265 C 
HETATM   25  O1  UNL     1       4.040  54.660 -10.117  1.00  0.00    -0.302 OA
ENDBRANCH  22  24
ENDBRANCH  20  21
ENDBRANCH  19  20
ENDBRANCH  17  19
ENDBRANCH   1  17
BRANCH  10  26
HETATM   26  C22 UNL     1       1.110  49.885 -13.522  1.00  0.00     0.021 C 
BRANCH  26  27
HETATM   27  C23 UNL     1       2.433  50.267 -14.191  1.00  0.00     0.111 C 
BRANCH  27  28
HETATM   28  C24 UNL     1       3.681  50.047 -13.386  1.00  0.00     0.139 C 
HETATM   29  O4  UNL     1       4.737  49.623 -13.827  1.00  0.00    -0.650 OA
BRANCH  28  30
HETATM   30  O5  UNL     1       3.600  50.463 -12.111  1.00  0.00    -0.776 OA
HETATM   31  H39 UNL     1       4.498  50.269 -11.764  1.00  0.00     0.167 HD
ENDBRANCH  28  30
ENDBRANCH  27  28
ENDBRANCH  26  27
ENDBRANCH  10  26
BRANCH   9  32
HETATM   32  C18 UNL     1      -1.252  50.312 -15.889  1.00  0.00     0.080 C 
HETATM   33  C19 UNL     1      -0.746  48.963 -16.438  1.00  0.00     0.048 C 
BRANCH  32  34
HETATM   34  O2  UNL     1      -0.289  51.288 -16.339  1.00  0.00    -0.388 OA
HETATM   35  H31 UNL     1       0.581  51.036 -15.982  1.00  0.00     0.210 HD
ENDBRANCH  32  34
BRANCH  32  36
HETATM   36  C20 UNL     1      -2.576  50.657 -16.603  1.00  0.00     0.201 C 
BRANCH  36  37
HETATM   37  O3  UNL     1      -2.330  51.497 -17.728  1.00  0.00    -0.398 OA
HETATM   38  H34 UNL     1      -1.420  51.248 -18.003  1.00  0.00     0.209 HD
ENDBRANCH  36  37
ENDBRANCH  32  36
ENDBRANCH   9  32
TORSDOF 13
ENDMDL
