MODEL 1
REMARK minimizedAffinity -9.07039165
REMARK  5 active torsions:
REMARK  status: ('A' for Active; 'I' for Inactive)
REMARK    1  A    between atoms: C2_2  and  C3_3 
REMARK    2  A    between atoms: C20_20  and  O1_21 
REMARK    3  A    between atoms: O1_21  and  C21_22 
REMARK    4  A    between atoms: C21_22  and  C22_24 
REMARK    5  A    between atoms: C22_24  and  C23_25 
ROOT
HETATM    1  C3  UNL     1      -6.473  47.421 -27.243  1.00  0.00     0.012 C 
HETATM    2  C4  UNL     1      -7.878  47.299 -27.891  1.00  0.00     0.009 C 
HETATM    3  C5  UNL     1      -8.904  47.604 -26.787  1.00  0.00     0.010 C 
HETATM    4  C6  UNL     1      -8.132  47.386 -25.479  1.00  0.00    -0.039 C 
HETATM    5  C7  UNL     1      -8.085  45.864 -25.185  1.00  0.00     0.015 C 
HETATM    6  C8  UNL     1      -8.715  48.125 -24.269  1.00  0.00     0.010 C 
HETATM    7  C9  UNL     1      -7.750  48.092 -23.067  1.00  0.00     0.011 C 
HETATM    8  C10 UNL     1      -6.289  48.581 -23.380  1.00  0.00    -0.032 C 
HETATM    9  C11 UNL     1      -6.417  50.127 -23.606  1.00  0.00     0.016 C 
HETATM   10  C12 UNL     1      -5.755  47.881 -24.698  1.00  0.00    -0.000 C 
HETATM   11  C13 UNL     1      -4.344  48.363 -25.053  1.00  0.00     0.006 C 
HETATM   12  C14 UNL     1      -3.344  48.181 -23.909  1.00  0.00     0.006 C 
HETATM   13  C15 UNL     1      -3.815  48.789 -22.568  1.00  0.00     0.003 C 
HETATM   14  C16 UNL     1      -2.711  48.796 -21.415  1.00  0.00    -0.035 C 
HETATM   15  C17 UNL     1      -2.219  47.369 -21.073  1.00  0.00     0.016 C 
HETATM   16  C18 UNL     1      -1.475  49.611 -21.909  1.00  0.00     0.012 C 
HETATM   17  C19 UNL     1      -0.469  49.957 -20.814  1.00  0.00     0.034 C 
HETATM   18  C20 UNL     1      -1.108  50.686 -19.635  1.00  0.00     0.140 C 
HETATM   19  C26 UNL     1      -2.325  49.924 -19.022  1.00  0.00    -0.017 C 
HETATM   20  C27 UNL     1      -3.013  50.892 -18.019  1.00  0.00     0.018 C 
HETATM   21  C28 UNL     1      -1.871  48.708 -18.189  1.00  0.00     0.018 C 
HETATM   22  C29 UNL     1      -3.325  49.566 -20.184  1.00  0.00     0.004 C 
HETATM   23  C30 UNL     1      -4.647  48.919 -19.726  1.00  0.00     0.007 C 
HETATM   24  C31 UNL     1      -5.694  48.940 -20.844  1.00  0.00     0.011 C 
HETATM   25  C32 UNL     1      -5.251  48.255 -22.167  1.00  0.00    -0.032 C 
HETATM   26  C33 UNL     1      -5.228  46.722 -21.887  1.00  0.00     0.016 C 
HETATM   27  C34 UNL     1      -6.772  48.023 -25.853  1.00  0.00     0.006 C 
ENDROOT
BRANCH  18  28
HETATM   28  O1  UNL     1      -0.067  50.857 -18.647  1.00  0.00    -0.315 OA
BRANCH  28  29
HETATM   29  C21 UNL     1       0.505  52.086 -18.539  1.00  0.00     0.259 C 
HETATM   30  O2  UNL     1       1.153  52.494 -17.584  1.00  0.00    -0.265 OA
BRANCH  29  31
HETATM   31  C22 UNL     1       0.204  52.915 -19.764  1.00  0.00     0.115 C 
BRANCH  31  32
HETATM   32  C23 UNL     1       1.421  53.108 -20.677  1.00  0.00    -0.013 C 
HETATM   33  C24 UNL     1       1.306  52.201 -21.902  1.00  0.00     0.010 C 
HETATM   34  C25 UNL     1       1.560  54.565 -21.124  1.00  0.00     0.010 C 
ENDBRANCH  31  32
ENDBRANCH  29  31
ENDBRANCH  28  29
ENDBRANCH  18  28
BRANCH   1  35
HETATM   35  C2  UNL     1      -5.565  48.259 -28.103  1.00  0.00    -0.032 C 
HETATM   36  C1  UNL     1      -4.234  48.107 -28.162  1.00  0.00     0.007 C 
ENDBRANCH   1  35
TORSDOF 5
ENDMDL
