MODEL 1
REMARK minimizedAffinity -5.80394316
REMARK CNNscore 0.598176479
REMARK CNNaffinity 6.19536829
REMARK  13 active torsions:
REMARK  status: ('A' for Active; 'I' for Inactive)
REMARK    1  A    between atoms: C4_4  and  C5_5 
REMARK    2  A    between atoms: C5_5  and  C6_6 
REMARK    3  A    between atoms: C6_6  and  C7_7 
REMARK    4  A    between atoms: C9_9  and  C10_10 
REMARK    5  A    between atoms: C11_11  and  C12_12 
REMARK    6  A    between atoms: C14_14  and  C15_15 
REMARK    7  A    between atoms: C18_18  and  O1_19 
REMARK    8  A    between atoms: C19_21  and  C20_22 
REMARK    9  A    between atoms: C20_22  and  C21_23 
REMARK   10  A    between atoms: C21_23  and  C22_24 
REMARK   11  A    between atoms: C22_24  and  O3_25 
REMARK   12  A    between atoms: C24_27  and  C26_29 
REMARK   13  A    between atoms: C29_33  and  O5_35 
ROOT
HETATM    1  C15 UNL     1     -13.948   3.614  24.495  1.00  0.00     0.149 C 
HETATM    2  C16 UNL     1     -13.412   5.014  24.180  1.00  0.00     0.054 C 
HETATM    3  C17 UNL     1     -14.610   5.781  23.558  1.00  0.00     0.050 C 
HETATM    4  C18 UNL     1     -15.756   5.053  24.284  1.00  0.00     0.270 C 
HETATM    5  O2  UNL     1     -15.377   3.682  24.390  1.00  0.00    -0.351 OA
HETATM    6  C19 UNL     1     -14.497   7.320  23.931  1.00  0.00     0.032 C 
HETATM    7  C23 UNL     1     -13.288   7.932  23.190  1.00  0.00    -0.066 C 
HETATM    8  C24 UNL     1     -12.263   8.581  23.794  1.00  0.00    -0.021 C 
HETATM    9  C25 UNL     1     -11.060   9.131  23.082  1.00  0.00     0.052 C 
HETATM   10  C27 UNL     1     -13.370   7.765  21.687  1.00  0.00     0.038 C 
HETATM   11  C28 UNL     1     -13.513   6.304  21.280  1.00  0.00     0.042 C 
HETATM   12  C29 UNL     1     -14.679   5.576  21.990  1.00  0.00     0.067 C 
HETATM   13  C30 UNL     1     -14.688   4.123  21.482  1.00  0.00     0.047 C 
ENDROOT
BRANCH   4  14
HETATM   14  O1  UNL     1     -15.906   5.496  25.622  1.00  0.00    -0.370 OA
HETATM   15  H26 UNL     1     -16.621   4.937  25.976  1.00  0.00     0.212 HD
ENDBRANCH   4  14
BRANCH   6  16
HETATM   16  C20 UNL     1     -15.712   8.257  23.682  1.00  0.00     0.012 C 
BRANCH  16  17
HETATM   17  C21 UNL     1     -15.990   9.364  24.705  1.00  0.00     0.027 C 
BRANCH  17  18
HETATM   18  C22 UNL     1     -16.415   8.880  26.089  1.00  0.00     0.164 C 
BRANCH  18  19
HETATM   19  O3  UNL     1     -15.311   8.869  26.984  1.00  0.00    -0.401 OA
HETATM   20  H34 UNL     1     -14.869   7.999  26.864  1.00  0.00     0.209 HD
ENDBRANCH  18  19
ENDBRANCH  17  18
ENDBRANCH  16  17
ENDBRANCH   6  16
BRANCH  12  21
HETATM   21  O5  UNL     1     -15.910   6.140  21.516  1.00  0.00    -0.389 OA
HETATM   22  H46 UNL     1     -15.957   6.026  20.550  1.00  0.00     0.210 HD
ENDBRANCH  12  21
BRANCH   1  23
HETATM   23  C14 UNL     1     -13.592   3.135  25.875  1.00  0.00     0.011 C 
HETATM   24  C12 UNL     1     -12.683   2.204  26.240  1.00  0.00    -0.063 C 
HETATM   25  C13 UNL     1     -11.824   1.431  25.271  1.00  0.00     0.048 C 
BRANCH  24  26
HETATM   26  C11 UNL     1     -12.505   1.930  27.670  1.00  0.00     0.006 C 
HETATM   27  C10 UNL     1     -12.309   2.841  28.638  1.00  0.00     0.001 C 
BRANCH  27  28
HETATM   28  C9  UNL     1     -12.197   2.484  30.036  1.00  0.00     0.002 C 
HETATM   29  C7  UNL     1     -12.896   3.015  31.059  1.00  0.00    -0.084 C 
HETATM   30  C8  UNL     1     -13.858   4.169  30.940  1.00  0.00     0.043 C 
BRANCH  29  31
HETATM   31  C6  UNL     1     -12.720   2.464  32.467  1.00  0.00     0.037 C 
BRANCH  31  32
HETATM   32  C5  UNL     1     -13.827   2.872  33.457  1.00  0.00     0.031 C 
BRANCH  32  33
HETATM   33  C4  UNL     1     -14.242   1.754  34.379  1.00  0.00    -0.024 C 
HETATM   34  C2  UNL     1     -15.273   0.894  34.249  1.00  0.00    -0.091 C 
HETATM   35  C1  UNL     1     -16.258   0.872  33.113  1.00  0.00     0.042 C 
HETATM   36  C3  UNL     1     -15.512  -0.170  35.290  1.00  0.00     0.042 C 
ENDBRANCH  32  33
ENDBRANCH  31  32
ENDBRANCH  29  31
ENDBRANCH  27  28
ENDBRANCH  24  26
ENDBRANCH   1  23
BRANCH   8  37
HETATM   37  C26 UNL     1     -12.259   8.857  25.262  1.00  0.00     0.265 C 
HETATM   38  O4  UNL     1     -12.720   9.878  25.758  1.00  0.00    -0.302 OA
ENDBRANCH   8  37
TORSDOF 13
ENDMDL
