MODEL 1
REMARK minimizedAffinity -8.2447691
REMARK CNNscore 0.657262266
REMARK CNNaffinity 4.48064137
REMARK  12 active torsions:
REMARK  status: ('A' for Active; 'I' for Inactive)
REMARK    1  A    between atoms: C2_2  and  O1_3 
REMARK    2  A    between atoms: C2_2  and  C3_4 
REMARK    3  A    between atoms: C4_5  and  C5_6 
REMARK    4  A    between atoms: C5_6  and  O2_7 
REMARK    5  A    between atoms: C8_10  and  O3_11 
REMARK    6  A    between atoms: O3_11  and  C9_12 
REMARK    7  A    between atoms: C10_14  and  C11_15 
REMARK    8  A    between atoms: C11_15  and  O5_16 
REMARK    9  A    between atoms: C12_17  and  O6_18 
REMARK   10  A    between atoms: C13_19  and  O7_20 
REMARK   11  A    between atoms: C14_21  and  O8_22 
REMARK   12  A    between atoms: C15_23  and  O9_24 
ROOT
HETATM    1  C5  UNL     1       2.222   6.549   9.690  1.00  0.00     0.088 C 
HETATM    2  C6  UNL     1       2.174   7.309  11.054  1.00  0.00     0.052 C 
HETATM    3  C7  UNL     1       3.527   7.819  11.583  1.00  0.00     0.016 C 
HETATM    4  C8  UNL     1       1.154   8.482  11.078  1.00  0.00     0.160 C 
HETATM    5  C15 UNL     1       0.031   8.304  10.037  1.00  0.00     0.148 C 
HETATM    6  C16 UNL     1       0.561   8.156   8.600  1.00  0.00     0.046 C 
HETATM    7  C17 UNL     1       1.960   7.485   8.456  1.00  0.00    -0.010 C 
HETATM    8  C18 UNL     1       1.955   6.688   7.125  1.00  0.00     0.018 C 
HETATM    9  C19 UNL     1       3.027   8.592   8.294  1.00  0.00     0.018 C 
ENDROOT
BRANCH   4  10
HETATM   10  O3  UNL     1       0.648   8.520  12.429  1.00  0.00    -0.350 OA
BRANCH  10  11
HETATM   11  C9  UNL     1      -0.119   7.383  12.819  1.00  0.00     0.292 C 
HETATM   12  O4  UNL     1      -1.473   7.784  13.026  1.00  0.00    -0.348 OA
HETATM   13  C10 UNL     1      -1.692   8.667  14.131  1.00  0.00     0.179 C 
HETATM   14  C12 UNL     1      -0.740   8.468  15.328  1.00  0.00     0.180 C 
HETATM   15  C13 UNL     1      -0.272   7.014  15.350  1.00  0.00     0.183 C 
HETATM   16  C14 UNL     1       0.515   6.726  14.069  1.00  0.00     0.204 C 
BRANCH  13  17
HETATM   17  C11 UNL     1      -1.714  10.134  13.677  1.00  0.00     0.198 C 
BRANCH  17  18
HETATM   18  O5  UNL     1      -0.522  10.804  14.096  1.00  0.00    -0.398 OA
HETATM   19  H18 UNL     1      -0.774  11.399  14.826  1.00  0.00     0.209 HD
ENDBRANCH  17  18
ENDBRANCH  13  17
BRANCH  14  20
HETATM   20  O6  UNL     1      -1.427   8.819  16.538  1.00  0.00    -0.390 OA
HETATM   21  H20 UNL     1      -1.643   9.769  16.449  1.00  0.00     0.210 HD
ENDBRANCH  14  20
BRANCH  15  22
HETATM   22  O7  UNL     1       0.595   6.762  16.469  1.00  0.00    -0.390 OA
HETATM   23  H22 UNL     1       0.794   5.806  16.429  1.00  0.00     0.210 HD
ENDBRANCH  15  22
BRANCH  16  24
HETATM   24  O8  UNL     1       0.632   5.297  13.917  1.00  0.00    -0.388 OA
HETATM   25  H24 UNL     1       1.159   5.180  13.098  1.00  0.00     0.210 HD
ENDBRANCH  16  24
ENDBRANCH  10  11
ENDBRANCH   4  10
BRANCH   5  26
HETATM   26  O9  UNL     1      -0.872   9.428  10.040  1.00  0.00    -0.393 OA
HETATM   27  H26 UNL     1      -1.532   9.243   9.343  1.00  0.00     0.210 HD
ENDBRANCH   5  26
BRANCH   1  28
HETATM   28  C4  UNL     1       3.460   5.673   9.575  1.00  0.00     0.010 C 
HETATM   29  C3  UNL     1       3.445   4.347   9.340  1.00  0.00     0.003 C 
BRANCH  29  30
HETATM   30  C2  UNL     1       4.665   3.483   9.233  1.00  0.00     0.136 C 
HETATM   31  C1  UNL     1       4.941   3.079   7.793  1.00  0.00     0.043 C 
BRANCH  30  32
HETATM   32  O1  UNL     1       5.766   4.235   9.732  1.00  0.00    -0.392 OA
HETATM   33  H5  UNL     1       5.935   4.963   9.110  1.00  0.00     0.210 HD
ENDBRANCH  30  32
ENDBRANCH  29  30
ENDBRANCH   1  28
BRANCH   1  34
HETATM   34  O2  UNL     1       1.094   5.641   9.730  1.00  0.00    -0.385 OA
HETATM   35  H8  UNL     1       1.262   4.937   9.080  1.00  0.00     0.211 HD
ENDBRANCH   1  34
TORSDOF 12
ENDMDL
