MODEL 1
REMARK minimizedAffinity -8.85499287
REMARK CNNscore 0.463352829
REMARK CNNaffinity 6.66847229
REMARK  11 active torsions:
REMARK  status: ('A' for Active; 'I' for Inactive)
REMARK    1  A    between atoms: C3_3  and  O1_4 
REMARK    2  A    between atoms: N1_14  and  O2_16 
REMARK    3  A    between atoms: O2_16  and  C13_17 
REMARK    4  A    between atoms: C13_17  and  C14_18 
REMARK       I    between atoms: C14_18  and  N2_20 
REMARK    5  A    between atoms: N2_20  and  C15_21 
REMARK    6  A    between atoms: C15_21  and  C16_22 
REMARK    7  A    between atoms: C15_21  and  C17_25 
REMARK    8  A    between atoms: C16_22  and  O5_24 
REMARK    9  A    between atoms: C17_25  and  O6_26 
REMARK   10  A    between atoms: C17_25  and  C18_27 
REMARK   11  A    between atoms: C22_31  and  N3_32 
ROOT
HETATM    1  C1  UNL     1      -0.057  49.946 -17.946  1.00  0.00     0.015 C 
HETATM    2  C2  UNL     1      -1.103  49.509 -18.341  1.00  0.00    -0.078 C 
HETATM    3  C3  UNL     1      -2.409  49.019 -18.812  1.00  0.00     0.128 C 
HETATM    4  C4  UNL     1      -2.374  47.542 -19.227  1.00  0.00     0.052 C 
HETATM    5  C5  UNL     1      -3.478  47.380 -20.281  1.00  0.00     0.010 C 
HETATM    6  C6  UNL     1      -4.072  48.782 -20.525  1.00  0.00     0.002 C 
HETATM    7  C7  UNL     1      -4.620  49.043 -21.947  1.00  0.00    -0.004 C 
HETATM    8  C8  UNL     1      -5.630  47.964 -22.364  1.00  0.00     0.010 C 
HETATM    9  C9  UNL     1      -6.272  48.297 -23.705  1.00  0.00     0.035 C 
HETATM   10  C10 UNL     1      -5.254  48.537 -24.794  1.00  0.00    -0.069 C 
HETATM   11  C11 UNL     1      -5.443  47.985 -26.006  1.00  0.00     0.030 C 
HETATM   12  C12 UNL     1      -4.591  48.345 -27.175  1.00  0.00     0.032 C 
HETATM   13  N1  UNL     1      -4.809  48.005 -28.412  1.00  0.00    -0.271 N 
ATOM     14  H1  UNL     1      -4.218  48.295 -29.190  1.00  0.00     0.194 HD
HETATM   15  C24 UNL     1      -3.418  49.272 -26.938  1.00  0.00     0.060 C 
HETATM   16  C25 UNL     1      -2.951  49.254 -25.494  1.00  0.00     0.020 C 
HETATM   17  C26 UNL     1      -4.094  49.482 -24.464  1.00  0.00    -0.016 C 
HETATM   18  C27 UNL     1      -4.617  50.933 -24.591  1.00  0.00     0.020 C 
HETATM   19  C28 UNL     1      -3.516  49.186 -23.023  1.00  0.00     0.002 C 
HETATM   20  C29 UNL     1      -2.462  50.214 -22.566  1.00  0.00     0.007 C 
HETATM   21  C30 UNL     1      -1.879  49.880 -21.194  1.00  0.00     0.014 C 
HETATM   22  C31 UNL     1      -2.949  49.751 -20.078  1.00  0.00     0.003 C 
HETATM   23  C32 UNL     1      -3.522  51.143 -19.739  1.00  0.00     0.020 C 
ENDROOT
BRANCH   3  24
HETATM   24  O1  UNL     1      -3.351  49.140 -17.743  1.00  0.00    -0.377 OA
HETATM   25  H2  UNL     1      -2.910  48.818 -16.934  1.00  0.00     0.211 HD
ENDBRANCH   3  24
BRANCH  13  26
HETATM   26  O2  UNL     1      -5.946  47.199 -28.557  1.00  0.00    -0.271 OA
BRANCH  26  27
HETATM   27  C13 UNL     1      -7.031  48.017 -28.989  1.00  0.00     0.303 C 
BRANCH  27  28
HETATM   28  C14 UNL     1      -8.275  47.685 -28.181  1.00  0.00     0.244 C 
HETATM   29  O3  UNL     1      -8.400  47.980 -26.997  1.00  0.00    -0.271 OA
HETATM   30  N2  UNL     1      -9.291  47.109 -28.921  1.00  0.00    -0.342 N 
HETATM   31  H16 UNL     1      -9.001  46.629 -29.774  1.00  0.00     0.163 HD
BRANCH  30  32
HETATM   32  C15 UNL     1     -10.506  46.570 -28.268  1.00  0.00     0.216 C 
BRANCH  32  33
HETATM   33  C16 UNL     1     -10.469  45.042 -28.307  1.00  0.00     0.166 C 
HETATM   34  O4  UNL     1     -10.635  44.283 -27.367  1.00  0.00    -0.648 OA
BRANCH  33  35
HETATM   35  O5  UNL     1     -10.254  44.536 -29.547  1.00  0.00    -0.775 OA
HETATM   36  H18 UNL     1     -10.251  43.563 -29.411  1.00  0.00     0.167 HD
ENDBRANCH  33  35
ENDBRANCH  32  33
BRANCH  32  37
HETATM   37  C17 UNL     1     -11.791  47.049 -28.987  1.00  0.00     0.184 C 
BRANCH  37  38
HETATM   38  O6  UNL     1     -11.878  48.482 -29.029  1.00  0.00    -0.388 OA
HETATM   39  H20 UNL     1     -10.963  48.813 -29.020  1.00  0.00     0.210 HD
ENDBRANCH  37  38
BRANCH  37  40
HETATM   40  C18 UNL     1     -13.067  46.559 -28.334  1.00  0.00    -0.025 A 
HETATM   41  C19 UNL     1     -13.927  45.677 -29.013  1.00  0.00     0.010 A 
HETATM   42  C20 UNL     1     -15.100  45.208 -28.412  1.00  0.00     0.003 A 
HETATM   43  C21 UNL     1     -15.433  45.611 -27.120  1.00  0.00     0.036 A 
HETATM   44  C22 UNL     1     -14.588  46.494 -26.438  1.00  0.00     0.103 A 
HETATM   45  C23 UNL     1     -13.410  46.969 -27.037  1.00  0.00     0.045 A 
BRANCH  44  46
HETATM   46  N3  UNL     1     -14.936  46.922 -25.075  1.00  0.00    -0.116 N 
HETATM   47  O7  UNL     1     -14.013  47.281 -24.330  1.00  0.00    -0.532 OA
HETATM   48  O8  UNL     1     -16.131  46.903 -24.749  1.00  0.00    -0.532 OA
ENDBRANCH  44  46
ENDBRANCH  37  40
ENDBRANCH  32  37
ENDBRANCH  30  32
ENDBRANCH  27  28
ENDBRANCH  26  27
ENDBRANCH  13  26
TORSDOF 11
ENDMDL
