MODEL 1
REMARK minimizedAffinity -6.98662615
REMARK CNNscore 0.31256339
REMARK CNNaffinity 6.64408493
REMARK  9 active torsions:
REMARK  status: ('A' for Active; 'I' for Inactive)
REMARK    1  A    between atoms: O1_2  and  C2_3 
REMARK    2  A    between atoms: C2_3  and  C3_4 
REMARK    3  A    between atoms: C3_4  and  C4_5 
REMARK    4  A    between atoms: C4_5  and  O2_6 
REMARK    5  A    between atoms: O2_6  and  C5_7 
REMARK    6  A    between atoms: C23_29  and  O5_30 
REMARK    7  A    between atoms: C34_42  and  O7_43 
REMARK    8  A    between atoms: C35_44  and  O8_46 
REMARK    9  A    between atoms: C42_52  and  O9_53 
ROOT
HETATM    1  C5  UNL     1      -4.916 -11.787  -3.454  1.00  0.00     0.122 C 
HETATM    2  C6  UNL     1      -6.015 -12.875  -3.381  1.00  0.00     0.033 C 
HETATM    3  C7  UNL     1      -7.102 -12.571  -2.343  1.00  0.00     0.014 C 
HETATM    4  C8  UNL     1      -6.538 -12.406  -0.885  1.00  0.00    -0.010 C 
HETATM    5  C9  UNL     1      -6.607 -13.824  -0.223  1.00  0.00     0.018 C 
HETATM    6  C10 UNL     1      -5.018 -12.087  -0.964  1.00  0.00     0.073 C 
HETATM    7  C11 UNL     1      -4.677 -11.116  -2.088  1.00  0.00     0.045 C 
HETATM    8  C12 UNL     1      -4.389 -11.685   0.352  1.00  0.00     0.161 C 
HETATM    9  O3  UNL     1      -3.182 -11.852   0.543  1.00  0.00    -0.292 OA
HETATM   10  C13 UNL     1      -5.223 -11.055   1.412  1.00  0.00    -0.005 C 
HETATM   11  C14 UNL     1      -6.519 -10.767   1.187  1.00  0.00    -0.014 C 
HETATM   12  C15 UNL     1      -7.341 -11.287  -0.021  1.00  0.00     0.058 C 
HETATM   13  C16 UNL     1      -7.677 -10.117  -0.905  1.00  0.00    -0.091 C 
HETATM   14  C17 UNL     1      -7.974  -9.197  -1.626  1.00  0.00    -0.104 C 
HETATM   15  C18 UNL     1      -8.231  -8.046  -2.500  1.00  0.00     0.115 C 
HETATM   16  C19 UNL     1      -9.690  -7.956  -2.847  1.00  0.00     0.090 A 
HETATM   17  C20 UNL     1     -10.418  -9.041  -3.589  1.00  0.00     0.120 A 
HETATM   18  N1  UNL     1     -10.695  -8.750  -2.220  1.00  0.00    -0.243 NA
HETATM   19  C21 UNL     1     -11.891  -8.164  -1.780  1.00  0.00     0.234 C 
HETATM   20  O4  UNL     1     -12.741  -7.662  -2.505  1.00  0.00    -0.277 OA
HETATM   21  C22 UNL     1     -11.920  -8.173  -0.238  1.00  0.00     0.318 C 
HETATM   22  N2  UNL     1     -11.832  -6.786   0.285  1.00  0.00     0.128 N 
HETATM   23  C23 UNL     1     -11.803  -6.734   1.738  1.00  0.00     0.384 C 
HETATM   24  C24 UNL     1     -11.511  -8.112   2.379  1.00  0.00     0.186 C 
HETATM   25  O6  UNL     1     -11.480  -8.099   3.815  1.00  0.00    -0.373 OA
HETATM   26  C25 UNL     1     -12.296  -9.186   4.289  1.00  0.00     0.158 C 
HETATM   27  C26 UNL     1     -13.367  -9.335   3.180  1.00  0.00     0.021 C 
HETATM   28  C27 UNL     1     -14.259 -10.560   3.274  1.00  0.00     0.013 C 
HETATM   29  C28 UNL     1     -12.502  -9.201   1.927  1.00  0.00     0.036 C 
HETATM   30  C29 UNL     1     -13.060  -8.966   0.482  1.00  0.00     0.005 C 
HETATM   31  C30 UNL     1     -14.420  -8.217   0.399  1.00  0.00     0.012 C 
HETATM   32  C31 UNL     1     -15.429  -9.197  -0.195  1.00  0.00     0.001 C 
HETATM   33  C32 UNL     1     -14.589 -10.133  -1.039  1.00  0.00     0.001 C 
HETATM   34  C33 UNL     1     -13.343 -10.332  -0.194  1.00  0.00     0.012 C 
HETATM   35  C34 UNL     1     -11.447 -10.440   4.714  1.00  0.00     0.181 C 
HETATM   36  C35 UNL     1      -9.947 -10.252   5.150  1.00  0.00     0.087 C 
HETATM   37  C36 UNL     1      -9.904  -9.241   6.313  1.00  0.00     0.049 C 
HETATM   38  C37 UNL     1      -8.903  -9.881   4.027  1.00  0.00     0.034 C 
HETATM   39  C38 UNL     1      -7.505  -9.479   4.612  1.00  0.00     0.016 C 
HETATM   40  C39 UNL     1      -6.546  -9.337   3.408  1.00  0.00     0.026 C 
HETATM   41  C40 UNL     1      -5.105  -9.759   3.656  1.00  0.00     0.013 C 
HETATM   42  C41 UNL     1      -4.544 -10.846   2.738  1.00  0.00     0.043 C 
HETATM   43  C42 UNL     1      -7.288  -9.987   2.230  1.00  0.00     0.095 C 
HETATM   44  C43 UNL     1      -8.433 -10.852   2.860  1.00  0.00    -0.002 C 
HETATM   45  C44 UNL     1      -7.918 -12.203   3.432  1.00  0.00     0.019 C 
HETATM   46  C45 UNL     1      -9.393 -11.152   1.682  1.00  0.00     0.015 C 
HETATM   47  C46 UNL     1      -8.708 -11.878   0.498  1.00  0.00     0.029 C 
HETATM   48  H27 UNL     1     -11.026  -6.305  -0.102  1.00  0.00     0.320 HD
ENDROOT
BRANCH   1  49
HETATM   49  O2  UNL     1      -3.762 -12.457  -3.977  1.00  0.00    -0.386 OA
BRANCH  49  50
HETATM   50  C4  UNL     1      -3.802 -12.921  -5.329  1.00  0.00     0.170 C 
BRANCH  50  51
HETATM   51  C3  UNL     1      -2.876 -12.161  -6.277  1.00  0.00     0.052 C 
BRANCH  51  52
HETATM   52  C2  UNL     1      -3.651 -11.429  -7.363  1.00  0.00     0.169 C 
BRANCH  52  53
HETATM   53  O1  UNL     1      -2.806 -11.276  -8.502  1.00  0.00    -0.396 OA
HETATM   54  C1  UNL     1      -2.561  -9.911  -8.802  1.00  0.00     0.201 C 
ENDBRANCH  52  53
ENDBRANCH  51  52
ENDBRANCH  50  51
ENDBRANCH  49  50
ENDBRANCH   1  49
BRANCH  43  55
HETATM   55  O9  UNL     1      -7.868  -8.864   1.519  1.00  0.00    -0.384 OA
HETATM   56  H59 UNL     1      -8.118  -8.173   2.146  1.00  0.00     0.211 HD
ENDBRANCH  43  55
BRANCH  36  57
HETATM   57  O8  UNL     1      -9.541 -11.527   5.695  1.00  0.00    -0.387 OA
HETATM   58  H50 UNL     1      -9.914 -11.611   6.593  1.00  0.00     0.210 HD
ENDBRANCH  36  57
BRANCH  35  59
HETATM   59  O7  UNL     1     -11.518 -11.522   3.789  1.00  0.00    -0.390 OA
HETATM   60  H46 UNL     1     -10.904 -12.202   4.137  1.00  0.00     0.210 HD
ENDBRANCH  35  59
BRANCH  23  61
HETATM   61  O5  UNL     1     -10.810  -5.790   2.109  1.00  0.00    -0.366 OA
HETATM   62  H29 UNL     1      -9.960  -6.140   1.800  1.00  0.00     0.212 HD
ENDBRANCH  23  61
TORSDOF 9
ENDMDL
