MODEL 1
REMARK minimizedAffinity -9.54448414
REMARK  6 active torsions:
REMARK  status: ('A' for Active; 'I' for Inactive)
REMARK    1  A    between atoms: C2_2  and  C30_31 
REMARK    2  A    between atoms: C3_3  and  C4_4 
REMARK    3  A    between atoms: C4_4  and  C5_5 
REMARK    4  A    between atoms: C5_5  and  C6_6 
REMARK    5  A    between atoms: C6_6  and  C8_8 
REMARK    6  A    between atoms: C30_31  and  O3_33 
ROOT
HETATM    1  C8  UNL     1      -1.841  50.992 -25.276  1.00  0.00    -0.002 C 
HETATM    2  C9  UNL     1      -2.840  52.084 -25.729  1.00  0.00     0.007 C 
HETATM    3  C10 UNL     1      -4.223  51.682 -25.151  1.00  0.00     0.015 C 
HETATM    4  C11 UNL     1      -4.033  50.235 -24.636  1.00  0.00    -0.013 C 
HETATM    5  C12 UNL     1      -4.222  49.309 -25.881  1.00  0.00     0.021 C 
HETATM    6  C13 UNL     1      -4.909  49.665 -23.521  1.00  0.00    -0.070 C 
HETATM    7  C14 UNL     1      -5.920  50.340 -22.944  1.00  0.00    -0.022 C 
HETATM    8  C15 UNL     1      -6.670  49.863 -21.734  1.00  0.00     0.034 C 
HETATM    9  C16 UNL     1      -5.938  48.718 -20.994  1.00  0.00     0.013 C 
HETATM   10  C17 UNL     1      -6.647  48.191 -19.688  1.00  0.00     0.018 C 
HETATM   11  C18 UNL     1      -5.737  48.454 -18.465  1.00  0.00     0.023 C 
HETATM   12  C19 UNL     1      -7.995  48.889 -19.400  1.00  0.00     0.023 C 
HETATM   13  C20 UNL     1      -6.892  46.672 -19.717  1.00  0.00     0.135 C 
HETATM   14  O1  UNL     1      -7.905  46.161 -19.234  1.00  0.00    -0.297 OA
HETATM   15  C21 UNL     1      -5.808  45.768 -20.267  1.00  0.00     0.080 C 
HETATM   16  C22 UNL     1      -4.848  46.466 -21.216  1.00  0.00     0.017 C 
HETATM   17  C23 UNL     1      -5.494  47.618 -22.014  1.00  0.00    -0.031 C 
HETATM   18  C24 UNL     1      -6.700  47.060 -22.832  1.00  0.00     0.016 C 
HETATM   19  C25 UNL     1      -4.486  48.254 -23.060  1.00  0.00     0.024 C 
HETATM   20  C26 UNL     1      -2.991  48.253 -22.636  1.00  0.00     0.010 C 
HETATM   21  C27 UNL     1      -2.050  48.939 -23.657  1.00  0.00     0.011 C 
HETATM   22  C28 UNL     1      -2.561  50.335 -24.064  1.00  0.00    -0.029 C 
HETATM   23  C29 UNL     1      -2.473  51.241 -22.794  1.00  0.00     0.016 C 
ENDROOT
BRANCH   1  24
HETATM   24  C6  UNL     1      -0.352  51.413 -25.142  1.00  0.00    -0.014 C 
HETATM   25  C7  UNL     1       0.440  50.797 -26.316  1.00  0.00     0.010 C 
BRANCH  24  26
HETATM   26  C5  UNL     1      -0.070  52.932 -25.097  1.00  0.00     0.008 C 
BRANCH  26  27
HETATM   27  C4  UNL     1       0.685  53.372 -23.833  1.00  0.00     0.028 C 
BRANCH  27  28
HETATM   28  C3  UNL     1       0.392  52.518 -22.628  1.00  0.00    -0.013 C 
HETATM   29  C2  UNL     1       0.662  52.794 -21.336  1.00  0.00     0.008 C 
HETATM   30  C1  UNL     1       0.282  51.857 -20.225  1.00  0.00     0.055 C 
BRANCH  29  31
HETATM   31  C30 UNL     1       1.401  54.015 -20.948  1.00  0.00     0.171 C 
HETATM   32  O2  UNL     1       1.940  54.814 -21.690  1.00  0.00    -0.646 OA
BRANCH  31  33
HETATM   33  O3  UNL     1       1.431  54.175 -19.614  1.00  0.00    -0.773 OA
HETATM   34  H46 UNL     1       1.932  55.008 -19.498  1.00  0.00     0.167 HD
ENDBRANCH  31  33
ENDBRANCH  29  31
ENDBRANCH  27  28
ENDBRANCH  26  27
ENDBRANCH  24  26
ENDBRANCH   1  24
TORSDOF 6
ENDMDL
