MODEL 1
REMARK minimizedAffinity -8.34181881
REMARK CNNscore 0.463845998
REMARK CNNaffinity 7.50386
REMARK  9 active torsions:
REMARK  status: ('A' for Active; 'I' for Inactive)
REMARK    1  A    between atoms: C3_3  and  O1_4 
REMARK    2  A    between atoms: N1_14  and  O2_16 
REMARK    3  A    between atoms: O2_16  and  C13_17 
REMARK    4  A    between atoms: C13_17  and  C14_18 
REMARK       I    between atoms: C14_18  and  N2_20 
REMARK    5  A    between atoms: N2_20  and  C15_21 
REMARK    6  A    between atoms: C15_21  and  C16_22 
REMARK    7  A    between atoms: C15_21  and  C18_26 
REMARK    8  A    between atoms: C16_22  and  C17_23 
REMARK    9  A    between atoms: C17_23  and  O5_25 
ROOT
HETATM    1  C1  UNL     1      -9.045   6.203  11.293  1.00  0.00     0.015 C 
HETATM    2  C2  UNL     1      -8.785   6.204  12.468  1.00  0.00    -0.078 C 
HETATM    3  C3  UNL     1      -8.514   6.215  13.916  1.00  0.00     0.128 C 
HETATM    4  C4  UNL     1      -8.402   7.631  14.455  1.00  0.00     0.052 C 
HETATM    5  C5  UNL     1      -7.759   7.430  15.822  1.00  0.00     0.010 C 
HETATM    6  C6  UNL     1      -6.740   6.279  15.661  1.00  0.00     0.002 C 
HETATM    7  C7  UNL     1      -5.286   6.826  15.637  1.00  0.00    -0.004 C 
HETATM    8  C8  UNL     1      -4.226   5.727  15.898  1.00  0.00     0.010 C 
HETATM    9  C9  UNL     1      -2.898   5.947  15.161  1.00  0.00     0.035 C 
HETATM   10  C10 UNL     1      -2.553   7.411  15.132  1.00  0.00    -0.069 C 
HETATM   11  C11 UNL     1      -1.460   7.886  15.757  1.00  0.00     0.030 C 
HETATM   12  C12 UNL     1      -1.186   9.349  15.833  1.00  0.00     0.032 C 
HETATM   13  N1  UNL     1       0.012   9.741  16.167  1.00  0.00    -0.271 N 
ATOM     14  H1  UNL     1       0.782   9.112  16.393  1.00  0.00     0.194 HD
HETATM   15  C25 UNL     1      -2.314  10.314  15.499  1.00  0.00     0.060 C 
HETATM   16  C26 UNL     1      -3.656   9.622  15.266  1.00  0.00     0.020 C 
HETATM   17  C27 UNL     1      -3.553   8.317  14.420  1.00  0.00    -0.016 C 
HETATM   18  C28 UNL     1      -3.037   8.683  13.008  1.00  0.00     0.020 C 
HETATM   19  C29 UNL     1      -4.986   7.642  14.358  1.00  0.00     0.002 C 
HETATM   20  C30 UNL     1      -5.320   6.834  13.081  1.00  0.00     0.007 C 
HETATM   21  C31 UNL     1      -6.055   5.514  13.303  1.00  0.00     0.014 C 
HETATM   22  C32 UNL     1      -7.185   5.507  14.365  1.00  0.00     0.003 C 
HETATM   23  C33 UNL     1      -7.466   4.022  14.713  1.00  0.00     0.020 C 
ENDROOT
BRANCH   3  24
HETATM   24  O1  UNL     1      -9.638   5.619  14.582  1.00  0.00    -0.377 OA
HETATM   25  H2  UNL     1     -10.434   5.874  14.085  1.00  0.00     0.211 HD
ENDBRANCH   3  24
BRANCH  13  26
HETATM   26  O2  UNL     1       0.101  11.142  16.176  1.00  0.00    -0.271 OA
BRANCH  26  27
HETATM   27  C13 UNL     1       0.610  11.597  14.924  1.00  0.00     0.303 C 
BRANCH  27  28
HETATM   28  C14 UNL     1       1.816  10.805  14.426  1.00  0.00     0.244 C 
HETATM   29  O3  UNL     1       2.965  11.108  14.740  1.00  0.00    -0.271 OA
HETATM   30  N2  UNL     1       1.518   9.744  13.593  1.00  0.00    -0.354 N 
HETATM   31  H16 UNL     1       0.528   9.566  13.426  1.00  0.00     0.162 HD
BRANCH  30  32
HETATM   32  C15 UNL     1       2.537   8.801  13.113  1.00  0.00     0.098 C 
BRANCH  32  33
HETATM   33  C16 UNL     1       2.982   7.861  14.244  1.00  0.00     0.135 C 
BRANCH  33  34
HETATM   34  C17 UNL     1       4.443   7.997  14.559  1.00  0.00     0.141 C 
HETATM   35  O4  UNL     1       4.980   7.709  15.617  1.00  0.00    -0.650 OA
BRANCH  34  36
HETATM   36  O5  UNL     1       5.163   8.442  13.509  1.00  0.00    -0.776 OA
HETATM   37  H20 UNL     1       6.062   8.568  13.877  1.00  0.00     0.167 HD
ENDBRANCH  34  36
ENDBRANCH  33  34
ENDBRANCH  32  33
BRANCH  32  38
HETATM   38  C18 UNL     1       2.008   8.042  11.865  1.00  0.00     0.014 C 
HETATM   39  C19 UNL     1       0.532   8.398  11.573  1.00  0.00     0.033 C 
HETATM   40  C20 UNL     1       0.222   8.450  10.080  1.00  0.00     0.169 C 
HETATM   41  O6  UNL     1       0.859   7.366   9.413  1.00  0.00    -0.381 OA
HETATM   42  C21 UNL     1       2.294   7.436   9.406  1.00  0.00     0.054 C 
HETATM   43  C22 UNL     1       2.790   5.981   9.444  1.00  0.00     0.045 C 
HETATM   44  C23 UNL     1       2.735   8.072   8.082  1.00  0.00     0.045 C 
HETATM   45  C24 UNL     1       2.860   8.241  10.600  1.00  0.00     0.044 C 
ENDBRANCH  32  38
ENDBRANCH  30  32
ENDBRANCH  27  28
ENDBRANCH  26  27
ENDBRANCH  13  26
TORSDOF 9
ENDMDL
