MODEL 1
REMARK minimizedAffinity -8.18066025
REMARK CNNscore 0.57676363
REMARK CNNaffinity 6.92683458
REMARK  8 active torsions:
REMARK  status: ('A' for Active; 'I' for Inactive)
REMARK    1  A    between atoms: O1_2  and  C2_3 
REMARK    2  A    between atoms: C2_3  and  C3_4 
REMARK    3  A    between atoms: C7_8  and  C8_9 
REMARK    4  A    between atoms: C8_9  and  C9_10 
REMARK    5  A    between atoms: C8_9  and  C10_12 
REMARK    6  A    between atoms: C9_10  and  O2_11 
REMARK    7  A    between atoms: C19_21  and  S1_22 
REMARK    8  A    between atoms: S1_22  and  O5_25 
ROOT
HETATM    1  C10 UNL     1      -7.623   6.801  15.480  1.00  0.00     0.003 C 
HETATM    2  C11 UNL     1      -7.063   5.567  16.207  1.00  0.00     0.006 C 
HETATM    3  C12 UNL     1      -5.555   5.760  16.187  1.00  0.00     0.006 C 
HETATM    4  C13 UNL     1      -5.328   6.153  14.729  1.00  0.00    -0.001 C 
HETATM    5  C14 UNL     1      -3.896   6.575  14.319  1.00  0.00    -0.001 C 
HETATM    6  C15 UNL     1      -2.850   5.577  14.843  1.00  0.00     0.033 C 
HETATM    7  C16 UNL     1      -1.437   6.022  14.651  1.00  0.00    -0.022 C 
HETATM    8  C17 UNL     1      -1.072   7.275  14.333  1.00  0.00    -0.066 C 
HETATM    9  C18 UNL     1       0.399   7.634  14.238  1.00  0.00     0.057 C 
HETATM   10  C19 UNL     1       0.763   8.854  15.100  1.00  0.00     0.132 C 
HETATM   11  C20 UNL     1      -0.414   9.378  15.909  1.00  0.00     0.101 C 
HETATM   12  C21 UNL     1      -1.566   9.619  14.962  1.00  0.00     0.141 C 
HETATM   13  O6  UNL     1      -2.056  10.745  14.864  1.00  0.00    -0.297 OA
HETATM   14  C22 UNL     1      -2.085   8.413  14.141  1.00  0.00     0.044 C 
HETATM   15  C23 UNL     1      -2.091   8.811  12.653  1.00  0.00     0.029 C 
HETATM   16  C24 UNL     1      -3.515   8.027  14.684  1.00  0.00     0.010 C 
HETATM   17  C25 UNL     1      -4.624   8.983  14.202  1.00  0.00     0.007 C 
HETATM   18  C26 UNL     1      -5.976   8.625  14.805  1.00  0.00     0.010 C 
HETATM   19  C27 UNL     1      -6.461   7.195  14.460  1.00  0.00    -0.036 C 
HETATM   20  C28 UNL     1      -6.844   7.104  12.971  1.00  0.00     0.016 C 
ENDROOT
BRANCH   1  21
HETATM   21  C8  UNL     1      -9.082   6.674  14.923  1.00  0.00     0.044 C 
BRANCH  21  22
HETATM   22  C7  UNL     1      -9.913   7.999  15.036  1.00  0.00     0.142 C 
HETATM   23  C6  UNL     1      -9.077   9.254  15.289  1.00  0.00     0.067 C 
HETATM   24  C4  UNL     1      -9.927  10.494  15.175  1.00  0.00    -0.067 C 
HETATM   25  C3  UNL     1     -11.053  10.489  14.429  1.00  0.00     0.043 C 
HETATM   26  C5  UNL     1      -9.394  11.687  15.920  1.00  0.00     0.044 C 
HETATM   27  C29 UNL     1     -11.368   9.297  13.592  1.00  0.00     0.292 C 
HETATM   28  O7  UNL     1     -10.626   8.184  13.795  1.00  0.00    -0.311 OA
HETATM   29  O8  UNL     1     -12.231   9.334  12.723  1.00  0.00    -0.260 OA
BRANCH  25  30
HETATM   30  C2  UNL     1     -12.074  11.588  14.250  1.00  0.00     0.212 C 
BRANCH  30  31
HETATM   31  O1  UNL     1     -13.322  11.096  13.753  1.00  0.00    -0.391 OA
HETATM   32  C1  UNL     1     -14.420  11.689  14.429  1.00  0.00     0.201 C 
ENDBRANCH  30  31
ENDBRANCH  25  30
ENDBRANCH  21  22
BRANCH  21  33
HETATM   33  C9  UNL     1      -9.019   6.203  13.456  1.00  0.00     0.171 C 
BRANCH  33  34
HETATM   34  O2  UNL     1      -9.241   4.802  13.364  1.00  0.00    -0.400 OA
HETATM   35  H15 UNL     1      -8.480   4.361  13.781  1.00  0.00     0.209 HD
ENDBRANCH  33  34
ENDBRANCH  21  33
ENDBRANCH   1  21
BRANCH  10  36
HETATM   36  S1  UNL     1       2.147   8.457  16.168  1.00  0.00     0.099 S 
HETATM   37  O3  UNL     1       3.371   8.420  15.403  1.00  0.00    -0.601 OA
HETATM   38  O4  UNL     1       2.028   9.192  17.408  1.00  0.00    -0.601 OA
BRANCH  36  39
HETATM   39  O5  UNL     1       1.744   6.937  16.535  1.00  0.00    -0.295 OA
HETATM   40  H29 UNL     1       1.822   6.830  17.508  1.00  0.00     0.232 HD
ENDBRANCH  36  39
ENDBRANCH  10  36
TORSDOF 8
ENDMDL
