MODEL 1
REMARK minimizedAffinity -7.37611866
REMARK CNNscore 0.66170305
REMARK CNNaffinity 4.27887726
REMARK  11 active torsions:
REMARK  status: ('A' for Active; 'I' for Inactive)
REMARK    1  A    between atoms: C1_2  and  C2_3 
REMARK    2  A    between atoms: C1_2  and  O4_13 
REMARK    3  A    between atoms: C3_4  and  C4_5 
REMARK    4  A    between atoms: C7_8  and  O2_9 
REMARK    5  A    between atoms: C8_10  and  O3_11 
REMARK    6  A    between atoms: O4_13  and  C10_14 
REMARK    7  A    between atoms: C12_16  and  O5_17 
REMARK    8  A    between atoms: C12_16  and  C13_18 
REMARK    9  A    between atoms: C13_18  and  O7_20 
REMARK   10  A    between atoms: C15_22  and  O8_23 
REMARK   11  A    between atoms: C16_24  and  O9_25 
ROOT
HETATM    1  C10 UNL     1     -12.139   7.889  14.398  1.00  0.00     0.166 C 
HETATM    2  C11 UNL     1     -12.999   7.920  13.130  1.00  0.00     0.084 C 
HETATM    3  C12 UNL     1     -14.472   7.633  13.423  1.00  0.00     0.147 C 
HETATM    4  C14 UNL     1     -15.028   8.595  14.479  1.00  0.00     0.083 C 
HETATM    5  C15 UNL     1     -14.190   8.577  15.757  1.00  0.00     0.152 C 
HETATM    6  C16 UNL     1     -12.702   8.835  15.474  1.00  0.00     0.176 C 
ENDROOT
BRANCH   1   7
HETATM    7  O4  UNL     1     -10.804   8.341  14.068  1.00  0.00    -0.310 OA
BRANCH   7   8
HETATM    8  C1  UNL     1      -9.800   7.806  14.803  1.00  0.00     0.283 C 
HETATM    9  O1  UNL     1      -9.430   8.171  15.907  1.00  0.00    -0.260 OA
BRANCH   8  10
HETATM   10  C2  UNL     1      -9.229   6.677  14.042  1.00  0.00     0.083 C 
HETATM   11  C3  UNL     1      -7.999   6.229  14.332  1.00  0.00     0.017 C 
BRANCH  11  12
HETATM   12  C4  UNL     1      -7.340   5.125  13.623  1.00  0.00    -0.033 A 
HETATM   13  C5  UNL     1      -6.038   5.241  13.104  1.00  0.00     0.014 A 
HETATM   14  C6  UNL     1      -5.449   4.182  12.409  1.00  0.00     0.040 A 
HETATM   15  C7  UNL     1      -6.167   3.011  12.227  1.00  0.00     0.098 A 
HETATM   16  C8  UNL     1      -7.461   2.885  12.721  1.00  0.00     0.099 A 
HETATM   17  C9  UNL     1      -8.056   3.936  13.413  1.00  0.00     0.050 A 
BRANCH  15  18
HETATM   18  O2  UNL     1      -5.591   1.976  11.547  1.00  0.00    -0.358 OA
HETATM   19  H5  UNL     1      -6.275   1.275  11.545  1.00  0.00     0.217 HD
ENDBRANCH  15  18
BRANCH  16  20
HETATM   20  O3  UNL     1      -8.113   1.702  12.500  1.00  0.00    -0.358 OA
HETATM   21  H6  UNL     1      -8.993   1.759  12.911  1.00  0.00     0.217 HD
ENDBRANCH  16  20
ENDBRANCH  11  12
ENDBRANCH   8  10
ENDBRANCH   7   8
ENDBRANCH   1   7
BRANCH   6  22
HETATM   22  O9  UNL     1     -11.968   8.664  16.696  1.00  0.00    -0.390 OA
HETATM   23  H18 UNL     1     -12.416   7.933  17.169  1.00  0.00     0.210 HD
ENDBRANCH   6  22
BRANCH   3  24
HETATM   24  O5  UNL     1     -14.580   6.303  13.956  1.00  0.00    -0.379 OA
HETATM   25  H11 UNL     1     -14.621   5.708  13.178  1.00  0.00     0.211 HD
ENDBRANCH   3  24
BRANCH   3  26
HETATM   26  C13 UNL     1     -15.274   7.768  12.120  1.00  0.00     0.176 C 
HETATM   27  O6  UNL     1     -15.516   8.792  11.505  1.00  0.00    -0.648 OA
BRANCH  26  28
HETATM   28  O7  UNL     1     -15.685   6.566  11.655  1.00  0.00    -0.774 OA
HETATM   29  H12 UNL     1     -16.173   6.780  10.830  1.00  0.00     0.167 HD
ENDBRANCH  26  28
ENDBRANCH   3  26
BRANCH   5  30
HETATM   30  O8  UNL     1     -14.317   7.321  16.441  1.00  0.00    -0.393 OA
HETATM   31  H16 UNL     1     -14.464   6.625  15.762  1.00  0.00     0.210 HD
ENDBRANCH   5  30
TORSDOF 11
ENDMDL
