MODEL 1
REMARK minimizedAffinity -10.1411743
REMARK CNNscore 0.473570734
REMARK CNNaffinity 7.03820038
REMARK  11 active torsions:
REMARK  status: ('A' for Active; 'I' for Inactive)
REMARK    1  A    between atoms: O1_2  and  C2_3 
REMARK    2  A    between atoms: C16_18  and  C17_19 
REMARK    3  A    between atoms: C17_19  and  C19_21 
REMARK    4  A    between atoms: C23_25  and  C24_26 
REMARK    5  A    between atoms: C24_26  and  O3_27 
REMARK    6  A    between atoms: O3_27  and  C25_28 
REMARK    7  A    between atoms: C26_30  and  C27_31 
REMARK    8  A    between atoms: C27_31  and  O5_32 
REMARK    9  A    between atoms: C28_33  and  O6_34 
REMARK   10  A    between atoms: C29_35  and  O7_36 
REMARK   11  A    between atoms: C30_37  and  O8_38 
ROOT
HETATM    1  C19 UNL     1      -4.650  48.405 -25.860  1.00  0.00     0.140 C 
HETATM    2  C20 UNL     1      -4.725  48.545 -27.385  1.00  0.00     0.067 C 
HETATM    3  C21 UNL     1      -5.792  47.668 -27.981  1.00  0.00    -0.067 C 
HETATM    4  C22 UNL     1      -5.629  47.398 -29.453  1.00  0.00     0.044 C 
HETATM    5  C23 UNL     1      -6.828  47.242 -27.227  1.00  0.00     0.043 C 
HETATM    6  C31 UNL     1      -6.950  47.666 -25.808  1.00  0.00     0.292 C 
HETATM    7  O9  UNL     1      -7.906  47.336 -25.119  1.00  0.00    -0.260 OA
HETATM    8  O10 UNL     1      -5.986  48.489 -25.331  1.00  0.00    -0.311 OA
ENDROOT
BRANCH   1   9
HETATM    9  C17 UNL     1      -3.803  49.524 -25.183  1.00  0.00     0.016 C 
HETATM   10  C18 UNL     1      -2.288  49.275 -25.362  1.00  0.00     0.013 C 
BRANCH   9  11
HETATM   11  C16 UNL     1      -4.055  49.817 -23.671  1.00  0.00     0.000 C 
HETATM   12  C14 UNL     1      -4.158  51.250 -23.073  1.00  0.00    -0.036 C 
HETATM   13  C13 UNL     1      -2.899  52.113 -23.219  1.00  0.00     0.010 C 
HETATM   14  C15 UNL     1      -5.344  52.083 -23.627  1.00  0.00     0.016 C 
HETATM   15  C34 UNL     1      -4.459  50.889 -21.585  1.00  0.00     0.001 C 
HETATM   16  C12 UNL     1      -1.709  51.638 -22.406  1.00  0.00     0.007 C 
HETATM   17  C11 UNL     1      -2.032  51.514 -20.905  1.00  0.00     0.008 C 
HETATM   18  C9  UNL     1      -0.740  51.185 -20.040  1.00  0.00     0.025 C 
HETATM   19  C35 UNL     1      -3.233  50.531 -20.665  1.00  0.00     0.024 C 
HETATM   20  C4  UNL     1      -1.178  50.327 -18.828  1.00  0.00     0.004 C 
HETATM   21  C8  UNL     1      -0.117  52.493 -19.500  1.00  0.00     0.136 C 
HETATM   22  C10 UNL     1       0.386  50.491 -20.849  1.00  0.00     0.024 C 
HETATM   23  C3  UNL     1      -1.761  48.981 -19.291  1.00  0.00     0.038 C 
HETATM   24  C5  UNL     1      -0.083  50.130 -17.769  1.00  0.00     0.006 C 
HETATM   25  C2  UNL     1      -2.678  49.086 -20.538  1.00  0.00     0.126 C 
HETATM   26  C6  UNL     1       0.412  51.482 -17.259  1.00  0.00     0.008 C 
HETATM   27  C7  UNL     1       0.909  52.369 -18.388  1.00  0.00     0.079 C 
HETATM   28  O2  UNL     1      -0.345  53.595 -20.005  1.00  0.00    -0.297 OA
HETATM   29  C33 UNL     1      -5.553  49.818 -21.726  1.00  0.00     0.006 C 
HETATM   30  C32 UNL     1      -5.244  49.067 -23.030  1.00  0.00     0.006 C 
BRANCH  25  31
HETATM   31  O1  UNL     1      -3.713  48.114 -20.398  1.00  0.00    -0.390 OA
HETATM   32  C1  UNL     1      -3.268  46.774 -20.584  1.00  0.00     0.202 C 
ENDBRANCH  25  31
ENDBRANCH   9  11
ENDBRANCH   1   9
BRANCH   5  33
HETATM   33  C24 UNL     1      -7.982  46.423 -27.735  1.00  0.00     0.216 C 
BRANCH  33  34
HETATM   34  O3  UNL     1      -9.134  47.264 -27.768  1.00  0.00    -0.354 OA
BRANCH  34  35
HETATM   35  C25 UNL     1     -10.254  46.706 -27.079  1.00  0.00     0.291 C 
HETATM   36  O4  UNL     1     -10.912  45.725 -27.877  1.00  0.00    -0.348 OA
HETATM   37  C26 UNL     1     -11.557  46.213 -29.070  1.00  0.00     0.179 C 
HETATM   38  C28 UNL     1     -11.826  47.738 -29.090  1.00  0.00     0.180 C 
HETATM   39  C29 UNL     1     -12.273  48.185 -27.696  1.00  0.00     0.183 C 
HETATM   40  C30 UNL     1     -11.212  47.839 -26.630  1.00  0.00     0.204 C 
BRANCH  37  41
HETATM   41  C27 UNL     1     -10.825  45.705 -30.324  1.00  0.00     0.198 C 
BRANCH  41  42
HETATM   42  O5  UNL     1     -11.673  45.692 -31.470  1.00  0.00    -0.398 OA
HETATM   43  H42 UNL     1     -11.206  45.198 -32.165  1.00  0.00     0.209 HD
ENDBRANCH  41  42
ENDBRANCH  37  41
BRANCH  38  44
HETATM   44  O6  UNL     1     -10.706  48.526 -29.505  1.00  0.00    -0.390 OA
HETATM   45  H44 UNL     1      -9.939  47.912 -29.622  1.00  0.00     0.210 HD
ENDBRANCH  38  44
BRANCH  39  46
HETATM   46  O7  UNL     1     -13.539  47.576 -27.383  1.00  0.00    -0.390 OA
HETATM   47  H46 UNL     1     -13.376  46.688 -27.016  1.00  0.00     0.210 HD
ENDBRANCH  39  46
BRANCH  40  48
HETATM   48  O8  UNL     1     -10.452  49.005 -26.275  1.00  0.00    -0.388 OA
HETATM   49  H48 UNL     1      -9.813  49.119 -27.011  1.00  0.00     0.210 HD
ENDBRANCH  40  48
ENDBRANCH  34  35
ENDBRANCH  33  34
ENDBRANCH   5  33
TORSDOF 11
ENDMDL
