MODEL 1
REMARK minimizedAffinity -7.99617147
REMARK CNNscore 0.453139544
REMARK CNNaffinity 6.70049143
REMARK  15 active torsions:
REMARK  status: ('A' for Active; 'I' for Inactive)
REMARK    1  A    between atoms: C2_2  and  C3_3 
REMARK    2  A    between atoms: C2_2  and  C35_44 
REMARK    3  A    between atoms: C3_3  and  C4_4 
REMARK    4  A    between atoms: C4_4  and  C5_5 
REMARK    5  A    between atoms: C5_5  and  C7_7 
REMARK    6  A    between atoms: C9_9  and  O1_10 
REMARK    7  A    between atoms: C10_11  and  C11_12 
REMARK    8  A    between atoms: C11_12  and  O3_14 
REMARK    9  A    between atoms: C22_25  and  O4_26 
REMARK   10  A    between atoms: O4_26  and  C23_27 
REMARK   11  A    between atoms: C24_29  and  C25_30 
REMARK   12  A    between atoms: C25_30  and  O6_31 
REMARK   13  A    between atoms: C26_32  and  O7_33 
REMARK   14  A    between atoms: C28_35  and  O8_36 
REMARK   15  A    between atoms: C29_37  and  O9_38 
ROOT
HETATM    1  C7  UNL     1       4.645   7.817  12.391  1.00  0.00     0.001 C 
HETATM    2  C8  UNL     1       3.777   9.099  12.599  1.00  0.00     0.039 C 
HETATM    3  C9  UNL     1       4.612  10.145  13.354  1.00  0.00     0.142 C 
HETATM    4  C10 UNL     1       6.074   9.735  13.042  1.00  0.00     0.102 C 
HETATM    5  C12 UNL     1       7.245  10.267  13.875  1.00  0.00    -0.054 C 
HETATM    6  C13 UNL     1       8.400   9.556  13.973  1.00  0.00    -0.067 C 
HETATM    7  C14 UNL     1       8.549   8.174  13.346  1.00  0.00     0.036 C 
HETATM    8  C15 UNL     1       7.326   7.573  12.616  1.00  0.00     0.015 C 
HETATM    9  C16 UNL     1       5.998   8.159  13.121  1.00  0.00    -0.016 C 
HETATM   10  C17 UNL     1       5.849   7.605  14.585  1.00  0.00     0.017 C 
HETATM   11  C18 UNL     1       9.606  10.085  14.796  1.00  0.00    -0.013 C 
HETATM   12  C19 UNL     1       9.442   9.440  16.198  1.00  0.00     0.021 C 
HETATM   13  C20 UNL     1      10.978   9.699  14.180  1.00  0.00     0.017 C 
HETATM   14  C21 UNL     1      12.206  10.370  14.822  1.00  0.00     0.037 C 
HETATM   15  C22 UNL     1      11.915  11.479  15.840  1.00  0.00     0.153 C 
HETATM   16  C30 UNL     1      10.787  12.370  15.358  1.00  0.00    -0.055 C 
HETATM   17  C31 UNL     1      10.879  13.713  15.287  1.00  0.00     0.017 C 
HETATM   18  C32 UNL     1       9.555  11.654  14.799  1.00  0.00     0.029 C 
HETATM   19  C33 UNL     1       8.219  12.113  15.396  1.00  0.00     0.014 C 
HETATM   20  C34 UNL     1       7.062  11.636  14.510  1.00  0.00     0.036 C 
ENDROOT
BRANCH  15  21
HETATM   21  O4  UNL     1      13.135  12.204  16.031  1.00  0.00    -0.349 OA
BRANCH  21  22
HETATM   22  C23 UNL     1      14.130  11.488  16.773  1.00  0.00     0.292 C 
HETATM   23  O5  UNL     1      13.620  11.142  18.061  1.00  0.00    -0.348 OA
HETATM   24  C24 UNL     1      13.296  12.284  18.883  1.00  0.00     0.179 C 
HETATM   25  C26 UNL     1      14.536  13.183  19.111  1.00  0.00     0.183 C 
HETATM   26  C28 UNL     1      15.107  13.578  17.736  1.00  0.00     0.183 C 
HETATM   27  C29 UNL     1      15.420  12.324  16.915  1.00  0.00     0.204 C 
BRANCH  24  28
HETATM   28  C25 UNL     1      12.748  11.750  20.217  1.00  0.00     0.198 C 
BRANCH  28  29
HETATM   29  O6  UNL     1      11.972  10.564  20.015  1.00  0.00    -0.398 OA
HETATM   30  H36 UNL     1      11.066  10.840  19.781  1.00  0.00     0.209 HD
ENDBRANCH  28  29
ENDBRANCH  24  28
BRANCH  25  31
HETATM   31  O7  UNL     1      15.496  12.429  19.880  1.00  0.00    -0.385 OA
HETATM   32  C27 UNL     1      15.875  13.066  21.093  1.00  0.00     0.202 C 
ENDBRANCH  25  31
BRANCH  26  33
HETATM   33  O8  UNL     1      16.282  14.392  17.860  1.00  0.00    -0.390 OA
HETATM   34  H42 UNL     1      16.716  14.337  16.986  1.00  0.00     0.210 HD
ENDBRANCH  26  33
BRANCH  27  35
HETATM   35  O9  UNL     1      15.982  12.730  15.652  1.00  0.00    -0.388 OA
HETATM   36  H44 UNL     1      16.141  11.921  15.138  1.00  0.00     0.210 HD
ENDBRANCH  27  35
ENDBRANCH  21  22
ENDBRANCH  15  21
BRANCH   4  37
HETATM   37  C11 UNL     1       6.395  10.288  11.614  1.00  0.00     0.156 C 
HETATM   38  O2  UNL     1       5.889  11.237  11.036  1.00  0.00    -0.649 OA
BRANCH  37  39
HETATM   39  O3  UNL     1       7.288   9.543  10.917  1.00  0.00    -0.775 OA
HETATM   40  H16 UNL     1       7.296   9.965  10.031  1.00  0.00     0.167 HD
ENDBRANCH  37  39
ENDBRANCH   4  37
BRANCH   3  41
HETATM   41  O1  UNL     1       4.248  10.203  14.730  1.00  0.00    -0.394 OA
HETATM   42  H15 UNL     1       4.307   9.331  15.138  1.00  0.00     0.210 HD
ENDBRANCH   3  41
BRANCH   1  43
HETATM   43  C5  UNL     1       4.711   7.286  10.922  1.00  0.00    -0.013 C 
HETATM   44  C6  UNL     1       4.368   8.387   9.904  1.00  0.00     0.010 C 
BRANCH  43  45
HETATM   45  C4  UNL     1       3.705   6.115  10.720  1.00  0.00     0.009 C 
BRANCH  45  46
HETATM   46  C3  UNL     1       3.205   5.936   9.276  1.00  0.00     0.034 C 
BRANCH  46  47
HETATM   47  C2  UNL     1       1.957   6.702   8.876  1.00  0.00    -0.086 C 
HETATM   48  C1  UNL     1       1.838   7.172   7.622  1.00  0.00     0.014 C 
BRANCH  47  49
HETATM   49  C35 UNL     1       0.804   6.853   9.864  1.00  0.00     0.005 C 
HETATM   50  C36 UNL     1       0.796   8.209  10.565  1.00  0.00     0.014 C 
HETATM   51  C37 UNL     1       0.722   5.717  10.887  1.00  0.00     0.014 C 
ENDBRANCH  47  49
ENDBRANCH  46  47
ENDBRANCH  45  46
ENDBRANCH  43  45
ENDBRANCH   1  43
TORSDOF 15
ENDMDL
