MODEL 1
REMARK minimizedAffinity -7.71200323
REMARK CNNscore 0.426316172
REMARK CNNaffinity 7.46226358
REMARK  6 active torsions:
REMARK  status: ('A' for Active; 'I' for Inactive)
REMARK    1  A    between atoms: C2_2  and  C30_31 
REMARK    2  A    between atoms: C3_3  and  C4_4 
REMARK    3  A    between atoms: C4_4  and  C5_5 
REMARK    4  A    between atoms: C5_5  and  C6_6 
REMARK    5  A    between atoms: C6_6  and  C8_8 
REMARK    6  A    between atoms: C30_31  and  O3_33 
ROOT
HETATM    1  C8  UNL     1      -5.819   5.532  14.656  1.00  0.00    -0.002 C 
HETATM    2  C9  UNL     1      -5.366   6.548  15.736  1.00  0.00     0.007 C 
HETATM    3  C10 UNL     1      -6.636   7.257  16.242  1.00  0.00     0.015 C 
HETATM    4  C11 UNL     1      -7.577   7.249  15.021  1.00  0.00    -0.013 C 
HETATM    5  C12 UNL     1      -7.090   8.398  14.089  1.00  0.00     0.021 C 
HETATM    6  C13 UNL     1      -9.063   7.523  15.231  1.00  0.00    -0.070 C 
HETATM    7  C14 UNL     1      -9.512   8.355  16.189  1.00  0.00    -0.022 C 
HETATM    8  C15 UNL     1     -10.941   8.794  16.334  1.00  0.00     0.034 C 
HETATM    9  C16 UNL     1     -11.937   8.028  15.435  1.00  0.00     0.013 C 
HETATM   10  C17 UNL     1     -13.419   8.562  15.461  1.00  0.00     0.018 C 
HETATM   11  C18 UNL     1     -14.321   7.533  16.179  1.00  0.00     0.023 C 
HETATM   12  C19 UNL     1     -13.576   9.903  16.210  1.00  0.00     0.023 C 
HETATM   13  C20 UNL     1     -14.016   8.735  14.056  1.00  0.00     0.135 C 
HETATM   14  O1  UNL     1     -14.829   9.628  13.802  1.00  0.00    -0.297 OA
HETATM   15  C21 UNL     1     -13.683   7.728  12.982  1.00  0.00     0.080 C 
HETATM   16  C22 UNL     1     -12.381   6.978  13.204  1.00  0.00     0.017 C 
HETATM   17  C23 UNL     1     -11.329   7.772  14.009  1.00  0.00    -0.031 C 
HETATM   18  C24 UNL     1     -10.977   9.087  13.271  1.00  0.00     0.016 C 
HETATM   19  C25 UNL     1     -10.034   6.889  14.224  1.00  0.00     0.024 C 
HETATM   20  C26 UNL     1      -9.345   6.405  12.921  1.00  0.00     0.010 C 
HETATM   21  C27 UNL     1      -8.004   5.643  13.093  1.00  0.00     0.011 C 
HETATM   22  C28 UNL     1      -7.363   5.795  14.484  1.00  0.00    -0.029 C 
HETATM   23  C29 UNL     1      -8.023   4.699  15.406  1.00  0.00     0.016 C 
ENDROOT
BRANCH   1  24
HETATM   24  C6  UNL     1      -4.897   5.378  13.411  1.00  0.00    -0.014 C 
HETATM   25  C7  UNL     1      -3.683   6.311  13.355  1.00  0.00     0.010 C 
BRANCH  24  26
HETATM   26  C5  UNL     1      -4.370   3.923  13.260  1.00  0.00     0.008 C 
BRANCH  26  27
HETATM   27  C4  UNL     1      -3.332   3.753  12.145  1.00  0.00     0.028 C 
BRANCH  27  28
HETATM   28  C3  UNL     1      -3.978   3.809  10.787  1.00  0.00    -0.013 C 
HETATM   29  C2  UNL     1      -5.039   3.103  10.347  1.00  0.00     0.008 C 
HETATM   30  C1  UNL     1      -5.604   3.289   8.970  1.00  0.00     0.055 C 
BRANCH  29  31
HETATM   31  C30 UNL     1      -5.673   2.060  11.186  1.00  0.00     0.171 C 
HETATM   32  O2  UNL     1      -6.713   2.147  11.810  1.00  0.00    -0.646 OA
BRANCH  31  33
HETATM   33  O3  UNL     1      -4.941   0.933  11.205  1.00  0.00    -0.773 OA
HETATM   34  H46 UNL     1      -5.464   0.330  11.772  1.00  0.00     0.167 HD
ENDBRANCH  31  33
ENDBRANCH  29  31
ENDBRANCH  27  28
ENDBRANCH  26  27
ENDBRANCH  24  26
ENDBRANCH   1  24
TORSDOF 6
ENDMDL
