MODEL 1
REMARK minimizedAffinity -8.42923832
REMARK CNNscore 0.444574356
REMARK CNNaffinity 7.11123705
REMARK  10 active torsions:
REMARK  status: ('A' for Active; 'I' for Inactive)
REMARK    1  A    between atoms: C2_2  and  C3_4 
REMARK    2  A    between atoms: C10_12  and  O3_13 
REMARK    3  A    between atoms: C13_16  and  C14_17 
REMARK    4  A    between atoms: C14_17  and  C16_19 
REMARK    5  A    between atoms: C16_19  and  C17_20 
REMARK    6  A    between atoms: C17_20  and  C18_21 
REMARK    7  A    between atoms: C26_29  and  C27_30 
REMARK    8  A    between atoms: C27_30  and  C28_31 
REMARK    9  A    between atoms: C28_31  and  C29_32 
REMARK   10  A    between atoms: C29_32  and  O4_33 
ROOT
HETATM    1  C3  UNL     1      -6.061   6.545  14.654  1.00  0.00     0.151 A 
HETATM    2  O2  UNL     1      -7.009   7.455  14.027  1.00  0.00    -0.360 OA
HETATM    3  C4  UNL     1      -5.693   7.946  14.221  1.00  0.00     0.166 A 
HETATM    4  C5  UNL     1      -4.931   8.125  12.954  1.00  0.00     0.041 C 
HETATM    5  C6  UNL     1      -3.739   7.158  12.832  1.00  0.00     0.006 C 
HETATM    6  C7  UNL     1      -4.095   5.636  13.201  1.00  0.00    -0.030 C 
HETATM    7  C8  UNL     1      -3.885   4.715  11.965  1.00  0.00     0.016 C 
HETATM    8  C9  UNL     1      -3.117   5.084  14.285  1.00  0.00     0.042 C 
HETATM    9  C10 UNL     1      -1.600   5.389  14.138  1.00  0.00     0.128 C 
HETATM   10  C11 UNL     1      -1.242   6.691  13.362  1.00  0.00    -0.006 C 
HETATM   11  C12 UNL     1      -0.925   6.347  11.868  1.00  0.00     0.019 C 
HETATM   12  C13 UNL     1      -0.026   7.551  13.876  1.00  0.00     0.001 C 
HETATM   13  C22 UNL     1      -0.349   8.964  13.296  1.00  0.00     0.007 C 
HETATM   14  C23 UNL     1      -1.828   8.961  12.860  1.00  0.00     0.011 C 
HETATM   15  C24 UNL     1      -2.433   7.711  13.525  1.00  0.00    -0.029 C 
HETATM   16  C25 UNL     1      -2.710   8.136  15.004  1.00  0.00     0.016 C 
HETATM   17  C26 UNL     1      -5.606   5.409  13.730  1.00  0.00     0.039 C 
ENDROOT
BRANCH  12  18
HETATM   18  C14 UNL     1       1.445   7.117  13.568  1.00  0.00    -0.013 C 
HETATM   19  C15 UNL     1       2.374   8.328  13.419  1.00  0.00     0.010 C 
BRANCH  18  20
HETATM   20  C16 UNL     1       1.477   6.238  12.286  1.00  0.00     0.008 C 
BRANCH  20  21
HETATM   21  C17 UNL     1       2.718   6.363  11.388  1.00  0.00     0.028 C 
BRANCH  21  22
HETATM   22  C18 UNL     1       2.439   6.975  10.043  1.00  0.00    -0.025 C 
HETATM   23  C19 UNL     1       3.197   7.865   9.372  1.00  0.00    -0.091 C 
HETATM   24  C20 UNL     1       4.465   8.485   9.900  1.00  0.00     0.042 C 
HETATM   25  C21 UNL     1       2.798   8.338   7.998  1.00  0.00     0.042 C 
ENDBRANCH  21  22
ENDBRANCH  20  21
ENDBRANCH  18  20
ENDBRANCH  12  18
BRANCH   9  26
HETATM   26  O3  UNL     1      -1.067   5.438  15.465  1.00  0.00    -0.395 OA
HETATM   27  H14 UNL     1      -1.167   4.551  15.858  1.00  0.00     0.210 HD
ENDBRANCH   9  26
BRANCH  17  28
HETATM   28  C27 UNL     1      -6.665   5.120  12.618  1.00  0.00     0.011 C 
BRANCH  28  29
HETATM   29  C28 UNL     1      -7.854   4.278  13.109  1.00  0.00     0.027 C 
BRANCH  29  30
HETATM   30  C29 UNL     1      -7.453   2.831  13.386  1.00  0.00     0.164 C 
BRANCH  30  31
HETATM   31  O4  UNL     1      -8.214   1.940  12.579  1.00  0.00    -0.401 OA
HETATM   32  H48 UNL     1      -7.861   1.047  12.742  1.00  0.00     0.209 HD
ENDBRANCH  30  31
ENDBRANCH  29  30
ENDBRANCH  28  29
ENDBRANCH  17  28
BRANCH   1  33
HETATM   33  C2  UNL     1      -6.457   6.255  16.071  1.00  0.00     0.160 C 
HETATM   34  C1  UNL     1      -7.565   7.085  16.655  1.00  0.00     0.094 C 
HETATM   35  O1  UNL     1      -5.883   5.388  16.728  1.00  0.00    -0.295 OA
ENDBRANCH   1  33
TORSDOF 10
ENDMDL
