MODEL 1
REMARK minimizedAffinity -8.28327656
REMARK  5 active torsions:
REMARK  status: ('A' for Active; 'I' for Inactive)
REMARK    1  A    between atoms: C2_2  and  C3_3 
REMARK    2  A    between atoms: C3_3  and  N1_4 
REMARK    3  A    between atoms: C4_5  and  S1_6 
REMARK    4  A    between atoms: S1_6  and  C5_7 
REMARK    5  A    between atoms: C21_31  and  C22_32 
ROOT
HETATM    1  C5  UNL     1      16.195  37.582  15.850  1.00  0.00     0.093 A 
HETATM    2  C6  UNL     1      16.002  38.776  16.478  1.00  0.00    -0.016 A 
HETATM    3  C7  UNL     1      15.542  38.875  17.927  1.00  0.00     0.042 C 
HETATM    4  C8  UNL     1      14.993  40.226  18.363  1.00  0.00     0.005 C 
HETATM    5  C9  UNL     1      15.949  41.324  17.948  1.00  0.00     0.005 C 
HETATM    6  C10 UNL     1      16.045  41.366  16.430  1.00  0.00     0.041 C 
HETATM    7  C11 UNL     1      16.318  40.030  15.753  1.00  0.00    -0.025 A 
HETATM    8  C12 UNL     1      16.817  39.991  14.490  1.00  0.00     0.096 A 
HETATM    9  C13 UNL     1      17.109  41.187  13.760  1.00  0.00     0.104 C 
HETATM   10  N2  UNL     1      17.316  42.191  13.213  1.00  0.00    -0.191 NA
HETATM   11  C14 UNL     1      17.015  38.740  13.837  1.00  0.00     0.135 A 
HETATM   12  N3  UNL     1      17.481  38.506  12.630  1.00  0.00    -0.339 N 
ATOM     13  H3  UNL     1      17.812  39.193  11.953  1.00  0.00     0.167 HD
HETATM   14  C15 UNL     1      17.429  37.156  12.471  1.00  0.00     0.061 A 
HETATM   15  C16 UNL     1      17.804  36.403  11.346  1.00  0.00     0.032 A 
HETATM   16  C17 UNL     1      17.641  35.017  11.368  1.00  0.00     0.002 A 
HETATM   17  C18 UNL     1      17.105  34.393  12.489  1.00  0.00     0.002 A 
HETATM   18  C19 UNL     1      16.727  35.130  13.619  1.00  0.00     0.032 A 
HETATM   19  C20 UNL     1      16.909  36.526  13.603  1.00  0.00     0.068 A 
HETATM   20  N4  UNL     1      16.675  37.566  14.514  1.00  0.00    -0.287 N 
ENDROOT
BRANCH   1  21
HETATM   21  S1  UNL     1      15.915  36.073  16.694  1.00  0.00    -0.033 SA
BRANCH  21  22
HETATM   22  C4  UNL     1      14.181  36.063  16.604  1.00  0.00     0.169 A 
HETATM   23  N1  UNL     1      13.361  35.888  17.687  1.00  0.00    -0.307 N 
HETATM   24  C21 UNL     1      12.073  35.949  17.189  1.00  0.00     0.135 A 
HETATM   25  N6  UNL     1      12.138  36.106  15.880  1.00  0.00    -0.283 N 
HETATM   26  N5  UNL     1      13.458  36.195  15.517  1.00  0.00    -0.278 N 
ATOM     27  H6  UNL     1      11.341  36.154  15.245  1.00  0.00     0.188 HD
ATOM     28  H5  UNL     1      13.814  36.337  14.571  1.00  0.00     0.189 HD
BRANCH  23  29
HETATM   29  C3  UNL     1      13.746  35.562  19.049  1.00  0.00     0.159 C 
BRANCH  29  30
HETATM   30  C2  UNL     1      14.424  34.225  19.153  1.00  0.00    -0.017 C 
HETATM   31  C1  UNL     1      15.488  33.975  19.928  1.00  0.00     0.008 C 
ENDBRANCH  29  30
ENDBRANCH  23  29
BRANCH  24  32
HETATM   32  C22 UNL     1      10.845  35.807  17.961  1.00  0.00     0.009 A 
HETATM   33  C23 UNL     1       9.620  36.171  17.387  1.00  0.00     0.015 A 
HETATM   34  C24 UNL     1       8.433  36.035  18.111  1.00  0.00     0.001 A 
HETATM   35  C25 UNL     1       8.463  35.544  19.415  1.00  0.00     0.000 A 
HETATM   36  C26 UNL     1       9.680  35.200  20.002  1.00  0.00     0.001 A 
HETATM   37  C27 UNL     1      10.867  35.335  19.279  1.00  0.00     0.015 A 
ENDBRANCH  24  32
ENDBRANCH  21  22
ENDBRANCH   1  21
TORSDOF 5
ENDMDL
