MODEL 1
REMARK minimizedAffinity -9.72856045
REMARK  4 active torsions:
REMARK  status: ('A' for Active; 'I' for Inactive)
REMARK    1  A    between atoms: C4_4  and  C5_5 
REMARK    2  A    between atoms: C5_5  and  C6_7 
REMARK    3  A    between atoms: C6_7  and  C7_8 
REMARK    4  A    between atoms: C7_8  and  C9_10 
ROOT
HETATM    1  C9  UNL     1      -3.715  50.519 -24.861  1.00  0.00    -0.002 C 
HETATM    2  C10 UNL     1      -5.163  50.362 -24.303  1.00  0.00     0.006 C 
HETATM    3  C11 UNL     1      -5.074  50.454 -22.765  1.00  0.00     0.011 C 
HETATM    4  C12 UNL     1      -3.671  51.021 -22.485  1.00  0.00    -0.032 C 
HETATM    5  C13 UNL     1      -3.792  52.574 -22.705  1.00  0.00     0.016 C 
HETATM    6  C14 UNL     1      -3.065  50.844 -21.051  1.00  0.00     0.004 C 
HETATM    7  C15 UNL     1      -3.784  49.852 -20.128  1.00  0.00     0.007 C 
HETATM    8  C16 UNL     1      -3.165  49.758 -18.719  1.00  0.00     0.007 C 
HETATM    9  C17 UNL     1      -1.916  50.645 -18.484  1.00  0.00     0.010 C 
HETATM   10  C18 UNL     1      -1.198  50.388 -17.119  1.00  0.00     0.018 C 
HETATM   11  C19 UNL     1      -2.171  50.615 -15.946  1.00  0.00     0.023 C 
HETATM   12  C20 UNL     1      -0.602  48.976 -17.005  1.00  0.00     0.023 C 
HETATM   13  C21 UNL     1      -0.044  51.391 -16.963  1.00  0.00     0.135 C 
HETATM   14  O2  UNL     1       0.532  51.558 -15.886  1.00  0.00    -0.297 OA
HETATM   15  C22 UNL     1       0.356  52.202 -18.172  1.00  0.00     0.080 C 
HETATM   16  C23 UNL     1       0.407  51.306 -19.397  1.00  0.00     0.018 C 
HETATM   17  C24 UNL     1      -0.918  50.606 -19.662  1.00  0.00    -0.026 A 
HETATM   18  C25 UNL     1      -0.865  49.369 -20.520  1.00  0.00     0.021 A 
HETATM   19  C26 UNL     1      -1.536  50.616 -21.076  1.00  0.00    -0.027 A 
HETATM   20  C27 UNL     1      -0.824  51.265 -22.255  1.00  0.00     0.011 C 
HETATM   21  C28 UNL     1      -1.417  50.914 -23.636  1.00  0.00     0.011 C 
HETATM   22  C29 UNL     1      -2.824  50.288 -23.593  1.00  0.00    -0.032 C 
HETATM   23  C30 UNL     1      -2.687  48.763 -23.343  1.00  0.00     0.016 C 
ENDROOT
BRANCH   1  24
HETATM   24  C7  UNL     1      -3.494  49.797 -26.228  1.00  0.00    -0.007 C 
HETATM   25  C8  UNL     1      -2.734  48.466 -26.213  1.00  0.00     0.011 C 
BRANCH  24  26
HETATM   26  C6  UNL     1      -3.056  50.772 -27.350  1.00  0.00     0.087 C 
BRANCH  26  27
HETATM   27  C5  UNL     1      -2.101  51.884 -26.959  1.00  0.00     0.149 C 
HETATM   28  O1  UNL     1      -2.394  53.070 -27.115  1.00  0.00    -0.293 OA
BRANCH  27  29
HETATM   29  C4  UNL     1      -0.716  51.573 -26.498  1.00  0.00     0.052 C 
HETATM   30  C2  UNL     1       0.464  51.608 -27.148  1.00  0.00    -0.084 C 
HETATM   31  C1  UNL     1       0.687  51.914 -28.603  1.00  0.00     0.043 C 
HETATM   32  C3  UNL     1       1.734  51.268 -26.405  1.00  0.00     0.043 C 
ENDBRANCH  27  29
ENDBRANCH  26  27
ENDBRANCH  24  26
ENDBRANCH   1  24
TORSDOF 4
ENDMDL
