MODEL 1
REMARK minimizedAffinity -9.94475937
REMARK  7 active torsions:
REMARK  status: ('A' for Active; 'I' for Inactive)
REMARK    1  A    between atoms: N1_2  and  C2_3 
REMARK    2  A    between atoms: C2_3  and  C3_4 
REMARK    3  A    between atoms: C5_6  and  O1_7 
REMARK    4  A    between atoms: C25_28  and  N2_29 
REMARK    5  A    between atoms: C25_28  and  C26_30 
REMARK    6  A    between atoms: C26_30  and  C27_31 
REMARK    7  A    between atoms: C27_31  and  O3_32 
ROOT
HETATM    1  C3  UNL     1      -5.054  50.690 -23.939  1.00  0.00    -0.021 A 
HETATM    2  C4  UNL     1      -4.423  51.887 -24.344  1.00  0.00     0.045 A 
HETATM    3  C5  UNL     1      -3.586  51.914 -25.448  1.00  0.00     0.066 A 
HETATM    4  C6  UNL     1      -3.300  50.745 -26.130  1.00  0.00     0.045 A 
HETATM    5  C7  UNL     1      -3.867  49.514 -25.738  1.00  0.00    -0.037 A 
HETATM    6  C8  UNL     1      -4.816  49.480 -24.674  1.00  0.00    -0.042 A 
HETATM    7  C9  UNL     1      -5.506  48.184 -24.249  1.00  0.00     0.044 C 
HETATM    8  C10 UNL     1      -6.897  47.793 -24.842  1.00  0.00    -0.010 C 
HETATM    9  C11 UNL     1      -7.995  48.861 -24.767  1.00  0.00     0.005 C 
HETATM   10  C12 UNL     1      -9.255  48.405 -25.502  1.00  0.00     0.001 C 
HETATM   11  C13 UNL     1      -9.018  48.141 -26.990  1.00  0.00     0.007 C 
HETATM   12  C14 UNL     1      -7.530  47.939 -27.356  1.00  0.00     0.022 C 
HETATM   13  C15 UNL     1      -6.850  47.118 -26.231  1.00  0.00     0.012 C 
HETATM   14  C16 UNL     1      -7.330  47.357 -28.813  1.00  0.00     0.082 C 
HETATM   15  C17 UNL     1      -7.331  45.806 -28.828  1.00  0.00     0.045 C 
HETATM   16  C18 UNL     1      -7.203  45.246 -30.261  1.00  0.00    -0.002 C 
HETATM   17  C19 UNL     1      -8.315  44.248 -30.621  1.00  0.00     0.005 C 
HETATM   18  C20 UNL     1      -9.447  44.876 -31.420  1.00  0.00     0.003 C 
HETATM   19  C21 UNL     1      -9.746  46.286 -30.939  1.00  0.00     0.038 C 
HETATM   20  C22 UNL     1      -8.499  47.224 -30.950  1.00  0.00     0.065 C 
HETATM   21  C23 UNL     1      -8.789  48.374 -31.921  1.00  0.00     0.046 C 
HETATM   22  O2  UNL     1      -8.450  47.814 -29.629  1.00  0.00    -0.367 OA
HETATM   23  C24 UNL     1      -7.161  46.457 -31.237  1.00  0.00     0.064 C 
HETATM   24  C25 UNL     1      -5.860  47.291 -30.928  1.00  0.00     0.180 C 
HETATM   25  C28 UNL     1      -6.082  47.976 -29.532  1.00  0.00     0.139 C 
HETATM   26  C29 UNL     1      -4.893  48.034 -28.663  1.00  0.00    -0.096 C 
HETATM   27  C30 UNL     1      -4.099  48.143 -27.773  1.00  0.00    -0.101 C 
HETATM   28  C31 UNL     1      -3.367  48.301 -26.512  1.00  0.00     0.133 C 
ENDROOT
BRANCH  24  29
HETATM   29  N2  UNL     1      -4.706  46.350 -30.913  1.00  0.00     0.090 N 
HETATM   30  H35 UNL     1      -3.851  46.844 -30.642  1.00  0.00     0.313 HD
HETATM   31  H36 UNL     1      -4.531  45.958 -31.837  1.00  0.00     0.313 HD
ENDBRANCH  24  29
BRANCH  24  32
HETATM   32  C26 UNL     1      -5.487  48.376 -31.986  1.00  0.00     0.069 C 
BRANCH  32  33
HETATM   33  C27 UNL     1      -4.772  47.873 -33.239  1.00  0.00     0.166 C 
BRANCH  33  34
HETATM   34  O3  UNL     1      -3.367  48.053 -33.092  1.00  0.00    -0.401 OA
HETATM   35  H41 UNL     1      -3.197  49.004 -32.977  1.00  0.00     0.209 HD
ENDBRANCH  33  34
ENDBRANCH  32  33
ENDBRANCH  24  32
BRANCH   3  36
HETATM   36  O1  UNL     1      -2.999  53.062 -25.878  1.00  0.00    -0.361 OA
HETATM   37  H8  UNL     1      -3.337  53.797 -25.341  1.00  0.00     0.217 HD
ENDBRANCH   3  36
BRANCH   1  38
HETATM   38  C2  UNL     1      -5.848  50.690 -22.634  1.00  0.00     0.308 C 
BRANCH  38  39
HETATM   39  N1  UNL     1      -5.260  51.497 -21.553  1.00  0.00     0.083 N 
HETATM   40  C1  UNL     1      -4.724  50.636 -20.504  1.00  0.00     0.307 C 
HETATM   41  H4  UNL     1      -5.995  52.083 -21.152  1.00  0.00     0.315 HD
ENDBRANCH  38  39
ENDBRANCH   1  38
TORSDOF 7
ENDMDL
