MODEL 1
REMARK minimizedAffinity -9.59226227
REMARK CNNscore 0.852823853
REMARK CNNaffinity 7.42416716
REMARK  11 active torsions:
REMARK  status: ('A' for Active; 'I' for Inactive)
REMARK    1  A    between atoms: C2_2  and  C3_3 
REMARK    2  A    between atoms: C2_2  and  C10_11 
REMARK    3  A    between atoms: C4_4  and  C5_5 
REMARK    4  A    between atoms: C5_5  and  C7_7 
REMARK    5  A    between atoms: C7_7  and  C9_9 
REMARK    6  A    between atoms: C9_9  and  O1_10 
REMARK    7  A    between atoms: C11_12  and  O2_13 
REMARK    8  A    between atoms: C12_14  and  O3_15 
REMARK    9  A    between atoms: C23_26  and  O4_27 
REMARK   10  A    between atoms: C26_30  and  O5_31 
REMARK   11  A    between atoms: C28_33  and  O6_34 
ROOT
HETATM    1  C10 UNL     1      -2.291  48.033 -20.464  1.00  0.00     0.033 C 
HETATM    2  C11 UNL     1      -3.564  47.324 -21.022  1.00  0.00     0.152 C 
HETATM    3  C12 UNL     1      -3.779  47.889 -22.457  1.00  0.00     0.155 C 
HETATM    4  C13 UNL     1      -2.554  48.774 -22.697  1.00  0.00     0.060 C 
HETATM    5  C14 UNL     1      -2.217  49.361 -21.289  1.00  0.00    -0.028 C 
HETATM    6  C15 UNL     1      -3.194  50.436 -20.755  1.00  0.00     0.016 C 
HETATM    7  C16 UNL     1      -0.814  49.986 -21.383  1.00  0.00     0.011 C 
HETATM    8  C17 UNL     1      -0.737  51.046 -22.501  1.00  0.00     0.009 C 
HETATM    9  C18 UNL     1      -1.146  50.477 -23.888  1.00  0.00     0.029 C 
HETATM   10  C19 UNL     1      -0.940  51.479 -25.092  1.00  0.00    -0.031 C 
HETATM   11  C20 UNL     1      -1.773  52.773 -24.896  1.00  0.00     0.016 C 
HETATM   12  C21 UNL     1       0.567  51.898 -25.185  1.00  0.00     0.012 C 
HETATM   13  C22 UNL     1       1.173  51.863 -26.597  1.00  0.00     0.032 C 
HETATM   14  C23 UNL     1       0.223  52.344 -27.687  1.00  0.00     0.118 C 
HETATM   15  C24 UNL     1      -1.137  51.632 -27.657  1.00  0.00     0.039 C 
HETATM   16  C25 UNL     1      -1.325  50.739 -26.412  1.00  0.00     0.025 C 
HETATM   17  C26 UNL     1      -2.728  50.108 -26.368  1.00  0.00     0.126 C 
HETATM   18  C27 UNL     1      -2.871  49.138 -25.191  1.00  0.00     0.071 C 
HETATM   19  C28 UNL     1      -2.561  49.804 -23.845  1.00  0.00     0.071 C 
ENDROOT
BRANCH   1  20
HETATM   20  C2  UNL     1      -2.049  48.031 -18.928  1.00  0.00     0.011 C 
HETATM   21  C1  UNL     1      -3.235  47.379 -18.195  1.00  0.00     0.015 C 
BRANCH  20  22
HETATM   22  C3  UNL     1      -1.607  49.319 -18.269  1.00  0.00    -0.026 C 
HETATM   23  C4  UNL     1      -0.471  49.526 -17.586  1.00  0.00    -0.026 C 
BRANCH  23  24
HETATM   24  C5  UNL     1      -0.121  50.832 -16.910  1.00  0.00     0.009 C 
HETATM   25  C6  UNL     1       0.482  50.522 -15.535  1.00  0.00     0.014 C 
BRANCH  24  26
HETATM   26  C7  UNL     1       0.770  51.740 -17.801  1.00  0.00     0.012 C 
HETATM   27  C8  UNL     1       1.748  52.622 -17.015  1.00  0.00     0.012 C 
BRANCH  26  28
HETATM   28  C9  UNL     1      -0.088  52.606 -18.738  1.00  0.00     0.168 C 
BRANCH  28  29
HETATM   29  O1  UNL     1       0.649  53.749 -19.155  1.00  0.00    -0.400 OA
HETATM   30  H17 UNL     1       0.062  54.275 -19.720  1.00  0.00     0.209 HD
ENDBRANCH  28  29
ENDBRANCH  26  28
ENDBRANCH  24  26
ENDBRANCH  23  24
ENDBRANCH  20  22
ENDBRANCH   1  20
BRANCH   2  31
HETATM   31  O2  UNL     1      -4.727  47.497 -20.233  1.00  0.00    -0.393 OA
HETATM   32  H20 UNL     1      -5.297  48.133 -20.714  1.00  0.00     0.210 HD
ENDBRANCH   2  31
BRANCH   3  33
HETATM   33  O3  UNL     1      -4.995  48.637 -22.540  1.00  0.00    -0.392 OA
HETATM   34  H22 UNL     1      -5.600  48.125 -23.101  1.00  0.00     0.210 HD
ENDBRANCH   3  33
BRANCH  19  35
HETATM   35  O6  UNL     1      -3.582  50.769 -23.637  1.00  0.00    -0.389 OA
HETATM   36  H48 UNL     1      -4.363  50.302 -23.272  1.00  0.00     0.210 HD
ENDBRANCH  19  35
BRANCH  17  37
HETATM   37  O5  UNL     1      -2.973  49.367 -27.570  1.00  0.00    -0.395 OA
HETATM   38  H45 UNL     1      -2.241  48.733 -27.686  1.00  0.00     0.210 HD
ENDBRANCH  17  37
BRANCH  14  39
HETATM   39  O4  UNL     1       0.022  53.752 -27.560  1.00  0.00    -0.396 OA
HETATM   40  H40 UNL     1       0.894  54.183 -27.614  1.00  0.00     0.210 HD
ENDBRANCH  14  39
TORSDOF 11
ENDMDL
