MODEL 1
REMARK minimizedAffinity -7.54821396
REMARK CNNscore 0.629901946
REMARK CNNaffinity 5.76221991
REMARK  9 active torsions:
REMARK  status: ('A' for Active; 'I' for Inactive)
REMARK    1  A    between atoms: C2_2  and  C30_35 
REMARK    2  A    between atoms: C3_3  and  C4_4 
REMARK    3  A    between atoms: C4_4  and  O1_5 
REMARK    4  A    between atoms: C4_4  and  C5_6 
REMARK    5  A    between atoms: C5_6  and  C6_7 
REMARK    6  A    between atoms: C6_7  and  C8_9 
REMARK    7  A    between atoms: C10_11  and  O2_12 
REMARK    8  A    between atoms: C29_33  and  O5_34 
REMARK    9  A    between atoms: C30_35  and  O7_37 
ROOT
HETATM    1  C8  UNL     1     -17.284   1.539  14.734  1.00  0.00     0.001 C 
HETATM    2  C9  UNL     1     -17.201   1.922  13.231  1.00  0.00     0.038 C 
HETATM    3  C10 UNL     1     -16.486   0.761  12.514  1.00  0.00     0.132 C 
HETATM    4  C11 UNL     1     -16.576  -0.433  13.506  1.00  0.00     0.017 C 
HETATM    5  C12 UNL     1     -17.992  -1.083  13.371  1.00  0.00     0.023 C 
HETATM    6  C13 UNL     1     -15.587  -1.602  13.396  1.00  0.00    -0.029 C 
HETATM    7  C14 UNL     1     -15.345  -2.400  14.472  1.00  0.00     0.002 C 
HETATM    8  C15 UNL     1     -15.911  -1.987  15.826  1.00  0.00     0.157 C 
HETATM    9  O3  UNL     1     -15.780  -2.712  16.811  1.00  0.00    -0.293 OA
HETATM   10  C16 UNL     1     -16.625  -0.651  16.000  1.00  0.00     0.094 C 
HETATM   11  C17 UNL     1     -16.317   0.321  14.863  1.00  0.00    -0.019 C 
HETATM   12  C18 UNL     1     -14.845   0.802  15.024  1.00  0.00     0.017 C 
HETATM   13  C19 UNL     1     -14.444  -3.649  14.401  1.00  0.00    -0.008 C 
HETATM   14  C20 UNL     1     -13.049  -3.230  14.937  1.00  0.00     0.021 C 
HETATM   15  C21 UNL     1     -14.908  -4.868  15.240  1.00  0.00     0.022 C 
HETATM   16  C22 UNL     1     -16.323  -5.317  14.913  1.00  0.00     0.080 C 
HETATM   17  C23 UNL     1     -16.649  -5.139  13.449  1.00  0.00     0.135 C 
HETATM   18  O4  UNL     1     -17.825  -5.070  13.090  1.00  0.00    -0.297 OA
HETATM   19  C24 UNL     1     -15.483  -5.145  12.446  1.00  0.00     0.018 C 
HETATM   20  C25 UNL     1     -14.951  -6.602  12.386  1.00  0.00     0.023 C 
HETATM   21  C26 UNL     1     -16.054  -4.869  11.041  1.00  0.00     0.023 C 
HETATM   22  C27 UNL     1     -14.316  -4.173  12.912  1.00  0.00     0.016 C 
HETATM   23  C28 UNL     1     -13.958  -3.004  11.973  1.00  0.00     0.043 C 
HETATM   24  C29 UNL     1     -14.874  -1.783  12.076  1.00  0.00     0.149 C 
ENDROOT
BRANCH   1  25
HETATM   25  C6  UNL     1     -17.242   2.772  15.688  1.00  0.00    -0.011 C 
HETATM   26  C7  UNL     1     -18.244   2.775  16.848  1.00  0.00     0.010 C 
BRANCH  25  27
HETATM   27  C5  UNL     1     -17.278   4.103  14.893  1.00  0.00     0.040 C 
BRANCH  27  28
HETATM   28  C4  UNL     1     -16.026   4.976  15.076  1.00  0.00     0.142 C 
BRANCH  28  29
HETATM   29  C3  UNL     1     -15.856   5.950  13.941  1.00  0.00     0.018 C 
HETATM   30  C2  UNL     1     -14.734   6.557  13.495  1.00  0.00     0.010 C 
HETATM   31  C1  UNL     1     -13.370   6.446  14.108  1.00  0.00     0.055 C 
BRANCH  30  32
HETATM   32  C30 UNL     1     -14.894   7.440  12.312  1.00  0.00     0.171 C 
HETATM   33  O6  UNL     1     -15.658   7.271  11.377  1.00  0.00    -0.646 OA
BRANCH  32  34
HETATM   34  O7  UNL     1     -14.068   8.498  12.346  1.00  0.00    -0.773 OA
HETATM   35  H44 UNL     1     -14.280   8.981  11.520  1.00  0.00     0.167 HD
ENDBRANCH  32  34
ENDBRANCH  30  32
ENDBRANCH  28  29
BRANCH  28  36
HETATM   36  O1  UNL     1     -16.085   5.679  16.309  1.00  0.00    -0.392 OA
HETATM   37  H6  UNL     1     -15.291   6.239  16.354  1.00  0.00     0.210 HD
ENDBRANCH  28  36
ENDBRANCH  27  28
ENDBRANCH  25  27
ENDBRANCH   1  25
BRANCH   3  38
HETATM   38  O2  UNL     1     -17.111   0.531  11.262  1.00  0.00    -0.394 OA
HETATM   39  H17 UNL     1     -16.802  -0.349  10.957  1.00  0.00     0.210 HD
ENDBRANCH   3  38
BRANCH  24  40
HETATM   40  O5  UNL     1     -15.825  -1.778  11.022  1.00  0.00    -0.391 OA
HETATM   41  H43 UNL     1     -15.359  -2.005  10.197  1.00  0.00     0.210 HD
ENDBRANCH  24  40
TORSDOF 9
ENDMDL
