MODEL 1
REMARK minimizedAffinity -9.54439926
REMARK  7 active torsions:
REMARK  status: ('A' for Active; 'I' for Inactive)
REMARK    1  A    between atoms: C2_2  and  C4_4 
REMARK    2  A    between atoms: C4_4  and  C6_6 
REMARK    3  A    between atoms: C6_6  and  O1_7 
REMARK    4  A    between atoms: C6_6  and  C7_8 
REMARK    5  A    between atoms: C7_8  and  C8_9 
REMARK    6  A    between atoms: C8_9  and  C10_11 
REMARK    7  A    between atoms: C16_17  and  O2_18 
ROOT
HETATM    1  C10 UNL     1       0.699   6.060  12.293  1.00  0.00    -0.002 C 
HETATM    2  C11 UNL     1       0.841   4.564  11.892  1.00  0.00     0.006 C 
HETATM    3  C12 UNL     1      -0.556   3.928  11.964  1.00  0.00     0.011 C 
HETATM    4  C13 UNL     1      -1.538   5.109  12.085  1.00  0.00    -0.030 C 
HETATM    5  C14 UNL     1      -1.802   5.624  10.636  1.00  0.00     0.016 C 
HETATM    6  C15 UNL     1      -2.888   4.771  12.788  1.00  0.00     0.032 C 
HETATM    7  C16 UNL     1      -3.845   3.886  11.963  1.00  0.00     0.124 C 
HETATM    8  C17 UNL     1      -5.125   3.587  12.745  1.00  0.00     0.038 C 
HETATM    9  C18 UNL     1      -5.955   4.862  12.918  1.00  0.00     0.012 C 
HETATM   10  C19 UNL     1      -7.313   4.653  13.662  1.00  0.00     0.018 C 
HETATM   11  C20 UNL     1      -8.206   3.666  12.881  1.00  0.00     0.023 C 
HETATM   12  C21 UNL     1      -7.163   4.122  15.097  1.00  0.00     0.023 C 
HETATM   13  C22 UNL     1      -8.037   6.011  13.733  1.00  0.00     0.135 C 
HETATM   14  O3  UNL     1      -9.239   6.134  13.489  1.00  0.00    -0.297 OA
HETATM   15  C23 UNL     1      -7.241   7.202  14.216  1.00  0.00     0.080 C 
HETATM   16  C24 UNL     1      -5.942   7.326  13.437  1.00  0.00     0.018 C 
HETATM   17  C25 UNL     1      -5.148   6.029  13.507  1.00  0.00    -0.026 A 
HETATM   18  C26 UNL     1      -4.250   5.854  14.703  1.00  0.00     0.021 A 
HETATM   19  C27 UNL     1      -3.601   6.038  13.338  1.00  0.00    -0.025 A 
HETATM   20  C28 UNL     1      -2.944   7.392  13.050  1.00  0.00     0.011 C 
HETATM   21  C29 UNL     1      -1.410   7.456  12.980  1.00  0.00     0.011 C 
HETATM   22  C30 UNL     1      -0.706   6.096  12.983  1.00  0.00    -0.032 C 
HETATM   23  C31 UNL     1      -0.562   5.627  14.463  1.00  0.00     0.016 C 
ENDROOT
BRANCH   1  24
HETATM   24  C8  UNL     1       1.956   6.586  13.053  1.00  0.00    -0.011 C 
HETATM   25  C9  UNL     1       1.568   7.383  14.306  1.00  0.00     0.010 C 
BRANCH  24  26
HETATM   26  C7  UNL     1       2.834   7.484  12.128  1.00  0.00     0.037 C 
BRANCH  26  27
HETATM   27  C6  UNL     1       3.735   6.676  11.173  1.00  0.00     0.126 C 
BRANCH  27  28
HETATM   28  C4  UNL     1       4.195   7.442   9.899  1.00  0.00     0.038 C 
HETATM   29  C5  UNL     1       4.757   8.836  10.213  1.00  0.00     0.017 C 
BRANCH  28  30
HETATM   30  C2  UNL     1       3.151   7.441   8.783  1.00  0.00    -0.087 C 
HETATM   31  C1  UNL     1       2.973   8.528   8.013  1.00  0.00     0.014 C 
HETATM   32  C3  UNL     1       2.300   6.216   8.575  1.00  0.00     0.043 C 
ENDBRANCH  28  30
ENDBRANCH  27  28
BRANCH  27  33
HETATM   33  O1  UNL     1       4.885   6.214  11.886  1.00  0.00    -0.395 OA
HETATM   34  H11 UNL     1       5.382   5.628  11.291  1.00  0.00     0.210 HD
ENDBRANCH  27  33
ENDBRANCH  26  27
ENDBRANCH  24  26
ENDBRANCH   1  24
BRANCH   7  35
HETATM   35  O2  UNL     1      -3.233   2.639  11.635  1.00  0.00    -0.395 OA
HETATM   36  H28 UNL     1      -3.004   2.189  12.466  1.00  0.00     0.210 HD
ENDBRANCH   7  35
TORSDOF 7
ENDMDL
