MODEL 1
REMARK minimizedAffinity -9.3085947
REMARK  8 active torsions:
REMARK  status: ('A' for Active; 'I' for Inactive)
REMARK    1  A    between atoms: C4_4  and  C5_5 
REMARK    2  A    between atoms: C5_5  and  C6_6 
REMARK    3  A    between atoms: C6_6  and  C7_7 
REMARK    4  A    between atoms: C7_7  and  C9_9 
REMARK    5  A    between atoms: C22_22  and  O1_23 
REMARK    6  A    between atoms: C24_25  and  O2_26 
REMARK    7  A    between atoms: C25_27  and  C27_29 
REMARK    8  A    between atoms: C27_29  and  O4_31 
ROOT
HETATM    1  C9  UNL     1      -3.596   7.501  14.772  1.00  0.00    -0.002 C 
HETATM    2  C10 UNL     1      -4.175   6.199  14.169  1.00  0.00     0.007 C 
HETATM    3  C11 UNL     1      -3.083   5.619  13.240  1.00  0.00     0.015 C 
HETATM    4  C12 UNL     1      -1.792   6.400  13.582  1.00  0.00    -0.005 C 
HETATM    5  C13 UNL     1      -1.161   5.703  14.827  1.00  0.00     0.021 C 
HETATM    6  C14 UNL     1      -0.644   6.510  12.586  1.00  0.00    -0.000 C 
HETATM    7  C15 UNL     1       0.195   7.582  12.593  1.00  0.00    -0.058 C 
HETATM    8  C16 UNL     1      -0.049   8.750  13.567  1.00  0.00     0.036 C 
HETATM    9  C17 UNL     1      -1.312   8.707  14.454  1.00  0.00     0.015 C 
HETATM   10  C18 UNL     1      -2.401   7.831  13.834  1.00  0.00    -0.028 C 
HETATM   11  C19 UNL     1      -2.897   8.529  12.532  1.00  0.00     0.016 C 
HETATM   12  C20 UNL     1       1.403   7.738  11.607  1.00  0.00     0.011 C 
HETATM   13  C21 UNL     1       0.905   8.647  10.457  1.00  0.00     0.023 C 
HETATM   14  C22 UNL     1       2.656   8.396  12.296  1.00  0.00     0.133 C 
HETATM   15  C23 UNL     1       3.928   8.327  11.454  1.00  0.00     0.065 C 
HETATM   16  C24 UNL     1       4.262   6.907  11.030  1.00  0.00     0.139 C 
HETATM   17  C25 UNL     1       3.122   6.221  10.232  1.00  0.00     0.072 C 
HETATM   18  C26 UNL     1       3.544   4.754   9.978  1.00  0.00     0.030 C 
HETATM   19  C28 UNL     1       1.825   6.297  11.119  1.00  0.00     0.029 C 
HETATM   20  C29 UNL     1       0.618   5.537  10.559  1.00  0.00     0.090 C 
HETATM   21  C30 UNL     1      -0.432   5.381  11.628  1.00  0.00     0.157 C 
HETATM   22  O5  UNL     1      -1.104   4.354  11.688  1.00  0.00    -0.293 OA
ENDROOT
BRANCH   1  23
HETATM   23  C7  UNL     1      -4.618   8.625  15.121  1.00  0.00    -0.014 C 
HETATM   24  C8  UNL     1      -3.973   9.539  16.181  1.00  0.00     0.010 C 
BRANCH  23  25
HETATM   25  C6  UNL     1      -6.001   8.140  15.623  1.00  0.00     0.008 C 
BRANCH  25  26
HETATM   26  C5  UNL     1      -6.364   6.707  15.197  1.00  0.00     0.028 C 
BRANCH  26  27
HETATM   27  C4  UNL     1      -7.376   6.630  14.089  1.00  0.00    -0.025 C 
HETATM   28  C2  UNL     1      -7.802   5.539  13.422  1.00  0.00    -0.091 C 
HETATM   29  C1  UNL     1      -8.844   5.665  12.341  1.00  0.00     0.042 C 
HETATM   30  C3  UNL     1      -7.310   4.135  13.641  1.00  0.00     0.042 C 
ENDBRANCH  26  27
ENDBRANCH  25  26
ENDBRANCH  23  25
ENDBRANCH   1  23
BRANCH  14  31
HETATM   31  O1  UNL     1       2.433   9.782  12.572  1.00  0.00    -0.394 OA
HETATM   32  H35 UNL     1       3.193  10.109  13.087  1.00  0.00     0.210 HD
ENDBRANCH  14  31
BRANCH  17  33
HETATM   33  C27 UNL     1       2.901   6.807   8.838  1.00  0.00     0.151 C 
HETATM   34  O3  UNL     1       3.195   7.934   8.477  1.00  0.00    -0.649 OA
BRANCH  33  35
HETATM   35  O4  UNL     1       2.273   5.989   7.970  1.00  0.00    -0.776 OA
HETATM   36  H43 UNL     1       2.186   6.543   7.161  1.00  0.00     0.167 HD
ENDBRANCH  33  35
ENDBRANCH  17  33
BRANCH  16  37
HETATM   37  O2  UNL     1       5.512   6.901  10.342  1.00  0.00    -0.394 OA
HETATM   38  H39 UNL     1       5.371   7.369   9.493  1.00  0.00     0.210 HD
ENDBRANCH  16  37
TORSDOF 8
ENDMDL
