MODEL 1
REMARK minimizedAffinity -9.16578197
REMARK  8 active torsions:
REMARK  status: ('A' for Active; 'I' for Inactive)
REMARK    1  A    between atoms: C2_2  and  C30_33 
REMARK    2  A    between atoms: C3_3  and  C4_4 
REMARK    3  A    between atoms: C4_4  and  C5_5 
REMARK    4  A    between atoms: C5_5  and  C6_6 
REMARK    5  A    between atoms: C6_6  and  C8_8 
REMARK    6  A    between atoms: C15_15  and  O1_16 
REMARK    7  A    between atoms: C23_24  and  O2_25 
REMARK    8  A    between atoms: C30_33  and  O4_34 
ROOT
HETATM    1  C8  UNL     1      -1.474   5.944  12.008  1.00  0.00    -0.002 C 
HETATM    2  C9  UNL     1      -1.962   6.792  13.213  1.00  0.00     0.007 C 
HETATM    3  C10 UNL     1      -0.848   7.797  13.553  1.00  0.00     0.015 C 
HETATM    4  C11 UNL     1       0.098   7.776  12.338  1.00  0.00    -0.005 C 
HETATM    5  C12 UNL     1      -0.520   8.724  11.263  1.00  0.00     0.021 C 
HETATM    6  C13 UNL     1       1.543   8.240  12.474  1.00  0.00     0.002 C 
HETATM    7  C14 UNL     1       2.531   7.738  11.681  1.00  0.00    -0.032 C 
HETATM    8  C15 UNL     1       2.218   6.612  10.677  1.00  0.00     0.149 C 
HETATM    9  C16 UNL     1       0.771   6.062  10.641  1.00  0.00     0.047 C 
HETATM   10  C17 UNL     1       0.059   6.238  11.991  1.00  0.00    -0.026 C 
HETATM   11  C18 UNL     1       0.766   5.346  13.062  1.00  0.00     0.016 C 
HETATM   12  C19 UNL     1       4.011   8.259  11.751  1.00  0.00    -0.013 C 
HETATM   13  C20 UNL     1       4.786   7.228  12.611  1.00  0.00     0.021 C 
HETATM   14  C21 UNL     1       4.633   8.373  10.324  1.00  0.00     0.017 C 
HETATM   15  C22 UNL     1       5.608   9.533  10.084  1.00  0.00     0.033 C 
HETATM   16  C23 UNL     1       6.390   9.950  11.321  1.00  0.00     0.126 C 
HETATM   17  C24 UNL     1       5.445  10.409  12.472  1.00  0.00    -0.017 C 
HETATM   18  C25 UNL     1       5.189  11.933  12.279  1.00  0.00     0.018 C 
HETATM   19  C26 UNL     1       6.147  10.274  13.842  1.00  0.00     0.018 C 
HETATM   20  C27 UNL     1       4.038   9.688  12.393  1.00  0.00     0.015 C 
HETATM   21  C28 UNL     1       3.278   9.692  13.718  1.00  0.00     0.090 C 
HETATM   22  C29 UNL     1       1.842   9.313  13.478  1.00  0.00     0.157 C 
HETATM   23  O3  UNL     1       0.944   9.871  14.105  1.00  0.00    -0.293 OA
ENDROOT
BRANCH   1  24
HETATM   24  C6  UNL     1      -1.980   4.475  12.093  1.00  0.00    -0.014 C 
HETATM   25  C7  UNL     1      -1.706   3.675  10.814  1.00  0.00     0.010 C 
BRANCH  24  26
HETATM   26  C5  UNL     1      -3.487   4.375  12.465  1.00  0.00     0.008 C 
BRANCH  26  27
HETATM   27  C4  UNL     1      -4.354   3.581  11.476  1.00  0.00     0.028 C 
BRANCH  27  28
HETATM   28  C3  UNL     1      -5.734   3.188  11.945  1.00  0.00    -0.022 C 
HETATM   29  C2  UNL     1      -6.566   3.783  12.825  1.00  0.00    -0.064 C 
HETATM   30  C1  UNL     1      -6.218   4.998  13.641  1.00  0.00     0.045 C 
BRANCH  29  31
HETATM   31  C30 UNL     1      -7.934   3.198  13.091  1.00  0.00     0.197 C 
BRANCH  31  32
HETATM   32  O4  UNL     1      -7.983   1.841  12.677  1.00  0.00    -0.397 OA
HETATM   33  H48 UNL     1      -7.279   1.691  12.026  1.00  0.00     0.209 HD
ENDBRANCH  31  32
ENDBRANCH  29  31
ENDBRANCH  27  28
ENDBRANCH  26  27
ENDBRANCH  24  26
ENDBRANCH   1  24
BRANCH   8  34
HETATM   34  O1  UNL     1       3.083   5.514  10.953  1.00  0.00    -0.391 OA
HETATM   35  H22 UNL     1       2.992   4.877  10.225  1.00  0.00     0.210 HD
ENDBRANCH   8  34
BRANCH  16  36
HETATM   36  O2  UNL     1       7.230   8.872  11.719  1.00  0.00    -0.395 OA
HETATM   37  H36 UNL     1       7.830   8.673  10.980  1.00  0.00     0.210 HD
ENDBRANCH  16  36
TORSDOF 8
ENDMDL
