MODEL 1
REMARK minimizedAffinity -7.1461606
REMARK CNNscore 0.543464005
REMARK CNNaffinity 5.57937193
REMARK  4 active torsions:
REMARK  status: ('A' for Active; 'I' for Inactive)
REMARK    1  A    between atoms: C4_4  and  C5_5 
REMARK    2  A    between atoms: C5_5  and  C6_6 
REMARK    3  A    between atoms: C6_6  and  C7_7 
REMARK    4  A    between atoms: C7_7  and  C9_9 
ROOT
HETATM    1  C9  UNL     1      -3.839  -9.814   4.094  1.00  0.00    -0.002 C 
HETATM    2  C10 UNL     1      -2.475 -10.030   4.754  1.00  0.00     0.007 C 
HETATM    3  C11 UNL     1      -2.799  -9.997   6.233  1.00  0.00     0.015 C 
HETATM    4  C12 UNL     1      -4.049 -10.900   6.387  1.00  0.00    -0.013 C 
HETATM    5  C13 UNL     1      -3.549 -12.358   6.571  1.00  0.00     0.021 C 
HETATM    6  C14 UNL     1      -4.852 -10.563   7.664  1.00  0.00    -0.070 C 
HETATM    7  C15 UNL     1      -4.232 -10.180   8.800  1.00  0.00    -0.022 C 
HETATM    8  C16 UNL     1      -4.899  -9.954  10.122  1.00  0.00     0.034 C 
HETATM    9  C17 UNL     1      -6.342 -10.490  10.181  1.00  0.00     0.013 C 
HETATM   10  C18 UNL     1      -7.062 -10.171  11.541  1.00  0.00     0.018 C 
HETATM   11  C19 UNL     1      -6.749  -8.782  12.130  1.00  0.00     0.023 C 
HETATM   12  C20 UNL     1      -6.645 -11.218  12.598  1.00  0.00     0.023 C 
HETATM   13  C21 UNL     1      -8.574 -10.316  11.364  1.00  0.00     0.135 C 
HETATM   14  O1  UNL     1      -9.388  -9.775  12.111  1.00  0.00    -0.297 OA
HETATM   15  C22 UNL     1      -9.031 -11.231  10.260  1.00  0.00     0.080 C 
HETATM   16  C23 UNL     1      -8.591 -10.682   8.915  1.00  0.00     0.017 C 
HETATM   17  C24 UNL     1      -7.132 -10.117   8.873  1.00  0.00    -0.031 C 
HETATM   18  C25 UNL     1      -7.220  -8.577   8.699  1.00  0.00     0.016 C 
HETATM   19  C26 UNL     1      -6.364 -10.780   7.647  1.00  0.00     0.024 C 
HETATM   20  C27 UNL     1      -7.029 -10.455   6.289  1.00  0.00     0.010 C 
HETATM   21  C28 UNL     1      -6.090  -9.798   5.288  1.00  0.00     0.011 C 
HETATM   22  C29 UNL     1      -4.830 -10.655   5.010  1.00  0.00    -0.029 C 
HETATM   23  C30 UNL     1      -5.254 -11.984   4.340  1.00  0.00     0.016 C 
ENDROOT
BRANCH   1  24
HETATM   24  C7  UNL     1      -3.827 -10.058   2.548  1.00  0.00    -0.014 C 
HETATM   25  C8  UNL     1      -2.666 -10.972   2.139  1.00  0.00     0.010 C 
BRANCH  24  26
HETATM   26  C6  UNL     1      -5.183 -10.643   2.057  1.00  0.00     0.008 C 
BRANCH  26  27
HETATM   27  C5  UNL     1      -5.662 -10.170   0.673  1.00  0.00     0.028 C 
BRANCH  27  28
HETATM   28  C4  UNL     1      -4.992 -10.880  -0.473  1.00  0.00    -0.025 C 
HETATM   29  C2  UNL     1      -5.167 -10.682  -1.795  1.00  0.00    -0.091 C 
HETATM   30  C1  UNL     1      -4.406 -11.511  -2.799  1.00  0.00     0.042 C 
HETATM   31  C3  UNL     1      -6.094  -9.673  -2.412  1.00  0.00     0.042 C 
ENDBRANCH  27  28
ENDBRANCH  26  27
ENDBRANCH  24  26
ENDBRANCH   1  24
TORSDOF 4
ENDMDL
