MODEL 1
REMARK minimizedAffinity -6.66038513
REMARK CNNscore 0.729583144
REMARK CNNaffinity 6.39568853
REMARK  2 active torsions:
REMARK  status: ('A' for Active; 'I' for Inactive)
REMARK    1  A    between atoms: C21_27  and  C22_28 
REMARK    2  A    between atoms: C22_28  and  O7_30 
ROOT
HETATM    1  C1  UNL     1      -1.579  49.375  -6.443  1.00  0.00     0.043 C 
HETATM    2  C2  UNL     1      -0.412  49.347  -7.397  1.00  0.00    -0.076 C 
HETATM    3  C3  UNL     1       0.630  50.182  -7.210  1.00  0.00     0.084 C 
HETATM    4  C4  UNL     1       1.810  50.303  -8.097  1.00  0.00     0.283 C 
HETATM    5  O1  UNL     1       2.106  49.561  -9.018  1.00  0.00    -0.260 OA
HETATM    6  O2  UNL     1       2.483  51.423  -7.724  1.00  0.00    -0.317 OA
HETATM    7  C5  UNL     1       3.646  51.752  -8.492  1.00  0.00     0.195 C 
HETATM    8  C6  UNL     1       3.780  53.289  -8.776  1.00  0.00     0.053 C 
HETATM    9  C7  UNL     1       3.620  54.084  -7.419  1.00  0.00     0.159 C 
HETATM   10  C8  UNL     1       4.807  53.986  -6.497  1.00  0.00     0.011 C 
HETATM   11  C9  UNL     1       6.061  53.804  -6.954  1.00  0.00    -0.054 C 
HETATM   12  C10 UNL     1       7.234  53.736  -6.018  1.00  0.00     0.046 C 
HETATM   13  C11 UNL     1       6.355  53.737  -8.396  1.00  0.00     0.180 A 
HETATM   14  O3  UNL     1       5.828  54.719  -9.303  1.00  0.00    -0.370 OA
HETATM   15  C12 UNL     1       5.208  53.435  -9.341  1.00  0.00     0.170 A 
HETATM   16  O4  UNL     1       3.371  55.493  -7.580  1.00  0.00    -0.372 OA
HETATM   17  C13 UNL     1       2.422  55.847  -8.590  1.00  0.00     0.162 C 
HETATM   18  C14 UNL     1       1.091  55.117  -8.391  1.00  0.00     0.068 C 
HETATM   19  C15 UNL     1       1.229  53.815  -9.220  1.00  0.00     0.147 C 
HETATM   20  O5  UNL     1       0.249  53.844 -10.283  1.00  0.00    -0.312 OA
HETATM   21  C16 UNL     1      -1.005  53.439  -9.955  1.00  0.00     0.283 C 
HETATM   22  O6  UNL     1      -1.359  53.008  -8.872  1.00  0.00    -0.260 OA
HETATM   23  C17 UNL     1      -1.853  53.656 -11.150  1.00  0.00     0.082 C 
HETATM   24  C18 UNL     1      -3.121  53.254 -11.315  1.00  0.00     0.006 C 
HETATM   25  C19 UNL     1      -3.928  52.475 -10.410  1.00  0.00    -0.001 C 
HETATM   26  C20 UNL     1      -3.832  51.152 -10.202  1.00  0.00     0.007 C 
HETATM   27  C21 UNL     1      -2.859  50.180 -10.816  1.00  0.00     0.172 C 
HETATM   28  O8  UNL     1      -2.370  49.404  -9.711  1.00  0.00    -0.379 OA
HETATM   29  C24 UNL     1      -1.006  49.004  -9.845  1.00  0.00     0.173 C 
HETATM   30  C25 UNL     1      -0.545  48.354  -8.538  1.00  0.00     0.060 C 
HETATM   31  C26 UNL     1       2.693  53.827  -9.824  1.00  0.00     0.034 C 
HETATM   32  C27 UNL     1       2.752  53.113 -11.183  1.00  0.00     0.022 C 
HETATM   33  C28 UNL     1       2.907  55.324  -9.898  1.00  0.00     0.119 A 
HETATM   34  C29 UNL     1       3.774  56.092 -10.864  1.00  0.00     0.210 A 
HETATM   35  O9  UNL     1       2.355  55.989 -11.047  1.00  0.00    -0.371 OA
ENDROOT
BRANCH  27  36
HETATM   36  C22 UNL     1      -3.514  49.240 -11.870  1.00  0.00     0.146 C 
HETATM   37  C23 UNL     1      -4.918  48.777 -11.496  1.00  0.00     0.042 C 
BRANCH  36  38
HETATM   38  O7  UNL     1      -3.624  49.899 -13.144  1.00  0.00    -0.393 OA
HETATM   39  H27 UNL     1      -4.124  50.722 -13.012  1.00  0.00     0.210 HD
ENDBRANCH  36  38
ENDBRANCH  27  36
TORSDOF 2
ENDMDL
