MODEL 1
REMARK minimizedAffinity -8.55818844
REMARK CNNscore 0.688807368
REMARK CNNaffinity 6.78154802
REMARK  12 active torsions:
REMARK  status: ('A' for Active; 'I' for Inactive)
REMARK    1  A    between atoms: C2_2  and  C3_3 
REMARK    2  A    between atoms: C2_2  and  C26_31 
REMARK    3  A    between atoms: C3_3  and  C4_4 
REMARK    4  A    between atoms: C4_4  and  C5_5 
REMARK    5  A    between atoms: C5_5  and  C7_7 
REMARK    6  A    between atoms: C8_8  and  O1_9 
REMARK    7  A    between atoms: C9_10  and  O2_11 
REMARK    8  A    between atoms: C20_22  and  O3_23 
REMARK    9  A    between atoms: C23_26  and  O4_27 
REMARK   10  A    between atoms: C25_29  and  O5_30 
REMARK   11  A    between atoms: C26_31  and  C28_33 
REMARK   12  A    between atoms: C28_33  and  O6_34 
ROOT
HETATM    1  C7  UNL     1      -3.601  48.586 -22.744  1.00  0.00     0.029 C 
HETATM    2  C8  UNL     1      -4.583  48.625 -21.525  1.00  0.00     0.152 C 
HETATM    3  C9  UNL     1      -6.018  48.491 -22.092  1.00  0.00     0.155 C 
HETATM    4  C10 UNL     1      -5.797  48.079 -23.543  1.00  0.00     0.060 C 
HETATM    5  C11 UNL     1      -4.537  48.931 -23.955  1.00  0.00    -0.029 C 
HETATM    6  C12 UNL     1      -4.758  50.464 -24.029  1.00  0.00     0.016 C 
HETATM    7  C13 UNL     1      -4.059  48.434 -25.337  1.00  0.00     0.011 C 
HETATM    8  C14 UNL     1      -5.185  48.391 -26.394  1.00  0.00     0.009 C 
HETATM    9  C15 UNL     1      -6.379  47.554 -25.899  1.00  0.00     0.029 C 
HETATM   10  C16 UNL     1      -7.488  47.218 -26.951  1.00  0.00    -0.031 C 
HETATM   11  C17 UNL     1      -8.408  48.429 -27.239  1.00  0.00     0.016 C 
HETATM   12  C18 UNL     1      -6.886  46.751 -28.310  1.00  0.00     0.012 C 
HETATM   13  C19 UNL     1      -7.927  46.169 -29.275  1.00  0.00     0.032 C 
HETATM   14  C20 UNL     1      -8.809  45.095 -28.638  1.00  0.00     0.118 C 
HETATM   15  C21 UNL     1      -9.376  45.507 -27.276  1.00  0.00     0.039 C 
HETATM   16  C22 UNL     1      -8.251  45.992 -26.354  1.00  0.00     0.025 C 
HETATM   17  C23 UNL     1      -8.584  46.100 -24.844  1.00  0.00     0.126 C 
HETATM   18  C24 UNL     1      -8.275  47.430 -24.157  1.00  0.00     0.071 C 
HETATM   19  C25 UNL     1      -6.961  48.135 -24.565  1.00  0.00     0.071 C 
ENDROOT
BRANCH   1  20
HETATM   20  C5  UNL     1      -2.277  49.379 -22.514  1.00  0.00    -0.011 C 
HETATM   21  C6  UNL     1      -1.339  48.675 -21.526  1.00  0.00     0.010 C 
BRANCH  20  22
HETATM   22  C4  UNL     1      -2.594  50.813 -21.997  1.00  0.00     0.009 C 
BRANCH  22  23
HETATM   23  C3  UNL     1      -1.553  51.864 -22.426  1.00  0.00     0.034 C 
BRANCH  23  24
HETATM   24  C2  UNL     1      -0.482  52.246 -21.405  1.00  0.00    -0.083 C 
HETATM   25  C1  UNL     1      -0.636  52.082 -20.078  1.00  0.00     0.015 C 
BRANCH  24  26
HETATM   26  C26 UNL     1       0.786  52.856 -22.031  1.00  0.00     0.033 C 
HETATM   27  C27 UNL     1       0.653  53.242 -23.512  1.00  0.00     0.017 C 
BRANCH  26  28
HETATM   28  C28 UNL     1       1.304  54.059 -21.215  1.00  0.00     0.172 C 
BRANCH  28  29
HETATM   29  O6  UNL     1       1.988  55.005 -22.032  1.00  0.00    -0.400 OA
HETATM   30  H48 UNL     1       1.376  55.250 -22.749  1.00  0.00     0.209 HD
ENDBRANCH  28  29
ENDBRANCH  26  28
ENDBRANCH  24  26
ENDBRANCH  23  24
ENDBRANCH  22  23
ENDBRANCH  20  22
ENDBRANCH   1  20
BRANCH   2  31
HETATM   31  O1  UNL     1      -4.482  49.844 -20.792  1.00  0.00    -0.393 OA
HETATM   32  H13 UNL     1      -4.939  49.718 -19.944  1.00  0.00     0.210 HD
ENDBRANCH   2  31
BRANCH   3  33
HETATM   33  O2  UNL     1      -6.730  47.491 -21.372  1.00  0.00    -0.392 OA
HETATM   34  H15 UNL     1      -6.870  47.820 -20.467  1.00  0.00     0.210 HD
ENDBRANCH   3  33
BRANCH  19  35
HETATM   35  O5  UNL     1      -7.319  49.509 -24.764  1.00  0.00    -0.389 OA
HETATM   36  H41 UNL     1      -7.731  49.842 -23.949  1.00  0.00     0.210 HD
ENDBRANCH  19  35
BRANCH  17  37
HETATM   37  O4  UNL     1      -9.942  45.749 -24.583  1.00  0.00    -0.395 OA
HETATM   38  H38 UNL     1     -10.508  46.443 -24.962  1.00  0.00     0.210 HD
ENDBRANCH  17  37
BRANCH  14  39
HETATM   39  O3  UNL     1      -9.876  44.796 -29.531  1.00  0.00    -0.396 OA
HETATM   40  H33 UNL     1     -10.421  44.105 -29.115  1.00  0.00     0.210 HD
ENDBRANCH  14  39
TORSDOF 12
ENDMDL
