MODEL 1
REMARK minimizedAffinity -8.58166599
REMARK CNNscore 0.705666184
REMARK CNNaffinity 7.26386786
REMARK  19 active torsions:
REMARK  status: ('A' for Active; 'I' for Inactive)
REMARK    1  A    between atoms: C19_20  and  O2_21 
REMARK    2  A    between atoms: C19_20  and  C20_22 
REMARK    3  A    between atoms: C20_22  and  C21_24 
REMARK    4  A    between atoms: C21_24  and  O4_25 
REMARK    5  A    between atoms: O4_25  and  C22_26 
REMARK    6  A    between atoms: C22_26  and  C23_28 
REMARK    7  A    between atoms: C23_28  and  C24_29 
REMARK    8  A    between atoms: C24_29  and  C25_30 
REMARK       I    between atoms: C25_30  and  N1_32 
REMARK    9  A    between atoms: N1_32  and  C26_33 
REMARK   10  A    between atoms: C26_33  and  C27_34 
REMARK   11  A    between atoms: C27_34  and  C28_35 
REMARK   12  A    between atoms: C28_35  and  C29_36 
REMARK   13  A    between atoms: C29_36  and  C30_37 
REMARK   14  A    between atoms: C30_37  and  C31_38 
REMARK       I    between atoms: C31_38  and  N2_40 
REMARK   15  A    between atoms: N2_40  and  C32_41 
REMARK   16  A    between atoms: C32_41  and  C33_42 
REMARK   17  A    between atoms: C33_42  and  C34_43 
REMARK   18  A    between atoms: C37_46  and  O8_47 
REMARK   19  A    between atoms: C38_48  and  O9_49 
ROOT
HETATM    1  C22 UNL     1      -2.477  50.719 -15.985  1.00  0.00     0.259 C 
HETATM    2  O5  UNL     1      -1.291  50.763 -16.276  1.00  0.00    -0.265 OA
ENDROOT
BRANCH   1   3
HETATM    3  O4  UNL     1      -3.449  50.208 -16.786  1.00  0.00    -0.314 OA
BRANCH   3   4
HETATM    4  C21 UNL     1      -3.208  48.919 -17.329  1.00  0.00     0.260 C 
BRANCH   4   5
HETATM    5  C20 UNL     1      -2.982  48.595 -18.822  1.00  0.00     0.185 C 
HETATM    6  O3  UNL     1      -3.926  48.143 -19.483  1.00  0.00    -0.292 OA
BRANCH   5   7
HETATM    7  C19 UNL     1      -1.629  48.972 -19.502  1.00  0.00     0.128 C 
HETATM    8  C14 UNL     1      -1.721  50.180 -20.493  1.00  0.00    -0.002 C 
HETATM    9  C13 UNL     1      -0.310  50.745 -20.823  1.00  0.00     0.013 C 
HETATM   10  C15 UNL     1      -2.597  51.327 -19.959  1.00  0.00     0.019 C 
HETATM   11  C16 UNL     1      -2.347  49.530 -21.749  1.00  0.00     0.002 C 
HETATM   12  C12 UNL     1      -0.269  51.630 -22.071  1.00  0.00     0.007 C 
HETATM   13  C11 UNL     1      -0.825  50.911 -23.316  1.00  0.00     0.002 C 
HETATM   14  C2  UNL     1      -0.729  51.776 -24.636  1.00  0.00    -0.016 C 
HETATM   15  C10 UNL     1      -2.256  50.393 -23.028  1.00  0.00    -0.004 C 
HETATM   16  C1  UNL     1      -1.368  53.173 -24.467  1.00  0.00     0.020 C 
HETATM   17  C3  UNL     1       0.780  51.949 -24.990  1.00  0.00     0.022 C 
HETATM   18  C7  UNL     1      -1.451  51.063 -25.786  1.00  0.00    -0.068 C 
HETATM   19  C4  UNL     1       1.026  52.451 -26.406  1.00  0.00     0.084 C 
HETATM   20  C5  UNL     1       0.344  51.558 -27.409  1.00  0.00     0.149 C 
HETATM   21  O1  UNL     1       0.777  51.397 -28.547  1.00  0.00    -0.293 OA
HETATM   22  C6  UNL     1      -0.941  50.933 -27.024  1.00  0.00     0.053 C 
HETATM   23  C8  UNL     1      -2.826  50.516 -25.484  1.00  0.00     0.035 C 
HETATM   24  C9  UNL     1      -2.818  49.638 -24.242  1.00  0.00     0.010 C 
HETATM   25  C17 UNL     1      -1.678  48.148 -21.833  1.00  0.00     0.009 C 
HETATM   26  C18 UNL     1      -1.196  47.805 -20.420  1.00  0.00     0.047 C 
BRANCH   7  27
HETATM   27  O2  UNL     1      -0.601  49.188 -18.547  1.00  0.00    -0.381 OA
HETATM   28  H27 UNL     1      -0.386  48.309 -18.173  1.00  0.00     0.211 HD
ENDBRANCH   7  27
ENDBRANCH   5   7
ENDBRANCH   4   5
ENDBRANCH   3   4
ENDBRANCH   1   3
BRANCH   1  29
HETATM   29  C23 UNL     1      -3.079  51.268 -14.718  1.00  0.00     0.120 C 
BRANCH  29  30
HETATM   30  C24 UNL     1      -2.722  50.399 -13.521  1.00  0.00     0.112 C 
BRANCH  30  31
HETATM   31  C25 UNL     1      -3.419  50.851 -12.252  1.00  0.00     0.217 C 
HETATM   32  O6  UNL     1      -3.942  50.081 -11.456  1.00  0.00    -0.274 OA
HETATM   33  N1  UNL     1      -3.381  52.219 -12.076  1.00  0.00    -0.361 N 
HETATM   34  H34 UNL     1      -3.135  52.795 -12.870  1.00  0.00     0.162 HD
BRANCH  33  35
HETATM   35  C26 UNL     1      -4.089  52.848 -10.978  1.00  0.00     0.122 C 
BRANCH  35  36
HETATM   36  C27 UNL     1      -3.231  53.883 -10.257  1.00  0.00     0.020 C 
BRANCH  36  37
HETATM   37  C28 UNL     1      -1.792  53.996 -10.776  1.00  0.00     0.002 C 
BRANCH  37  38
HETATM   38  C29 UNL     1      -0.952  55.139 -10.192  1.00  0.00     0.009 C 
BRANCH  38  39
HETATM   39  C30 UNL     1       0.246  54.695  -9.352  1.00  0.00     0.103 C 
BRANCH  39  40
HETATM   40  C31 UNL     1       1.556  55.337  -9.774  1.00  0.00     0.217 C 
HETATM   41  O7  UNL     1       1.866  55.551 -10.941  1.00  0.00    -0.274 OA
HETATM   42  N2  UNL     1       2.374  55.634  -8.707  1.00  0.00    -0.361 N 
HETATM   43  H45 UNL     1       1.979  55.619  -7.775  1.00  0.00     0.162 HD
BRANCH  42  44
HETATM   44  C32 UNL     1       3.632  56.339  -8.887  1.00  0.00     0.127 C 
BRANCH  44  45
HETATM   45  C33 UNL     1       4.856  55.508  -8.488  1.00  0.00     0.058 C 
BRANCH  45  46
HETATM   46  C34 UNL     1       5.693  56.165  -7.414  1.00  0.00    -0.054 A 
HETATM   47  C35 UNL     1       5.204  57.288  -6.722  1.00  0.00     0.010 A 
HETATM   48  C36 UNL     1       5.958  57.883  -5.709  1.00  0.00     0.040 A 
HETATM   49  C37 UNL     1       7.200  57.356  -5.388  1.00  0.00     0.098 A 
HETATM   50  C38 UNL     1       7.708  56.267  -6.089  1.00  0.00     0.099 A 
HETATM   51  C39 UNL     1       6.959  55.656  -7.087  1.00  0.00     0.046 A 
BRANCH  49  52
HETATM   52  O8  UNL     1       7.902  57.906  -4.355  1.00  0.00    -0.358 OA
HETATM   53  H52 UNL     1       8.390  57.173  -3.939  1.00  0.00     0.217 HD
ENDBRANCH  49  52
BRANCH  50  54
HETATM   54  O9  UNL     1       8.963  55.799  -5.829  1.00  0.00    -0.358 OA
HETATM   55  H53 UNL     1       9.521  56.590  -5.711  1.00  0.00     0.217 HD
ENDBRANCH  50  54
ENDBRANCH  45  46
ENDBRANCH  44  45
ENDBRANCH  42  44
ENDBRANCH  39  40
ENDBRANCH  38  39
ENDBRANCH  37  38
ENDBRANCH  36  37
ENDBRANCH  35  36
ENDBRANCH  33  35
ENDBRANCH  30  31
ENDBRANCH  29  30
ENDBRANCH   1  29
TORSDOF 19
ENDMDL
