MODEL 1
REMARK minimizedAffinity -8.69490242
REMARK  10 active torsions:
REMARK  status: ('A' for Active; 'I' for Inactive)
REMARK       I    between atoms: N1_2  and  C2_3 
REMARK    1  A    between atoms: C2_3  and  C3_5 
REMARK    2  A    between atoms: C3_5  and  C4_6 
REMARK    3  A    between atoms: C3_5  and  N3_16 
REMARK    4  A    between atoms: C4_6  and  C5_7 
REMARK       I    between atoms: N3_16  and  C13_17 
REMARK    5  A    between atoms: C13_17  and  C14_19 
REMARK    6  A    between atoms: C14_19  and  C15_20 
REMARK    7  A    between atoms: C14_19  and  C17_25 
REMARK    8  A    between atoms: C15_20  and  C16_21 
REMARK       I    between atoms: C16_21  and  N4_23 
REMARK    9  A    between atoms: N4_23  and  O4_24 
REMARK   10  A    between atoms: C17_25  and  C18_26 
ROOT
HETATM    1  C3  UNL     1      -0.470  52.945 -24.713  1.00  0.00     0.180 C 
ENDROOT
BRANCH   1   2
HETATM    2  C2  UNL     1      -0.093  53.588 -26.066  1.00  0.00     0.240 C 
HETATM    3  N1  UNL     1      -0.095  52.702 -27.124  1.00  0.00    -0.364 N 
HETATM    4  C1  UNL     1       0.313  53.091 -28.446  1.00  0.00     0.149 C 
HETATM    5  H4  UNL     1      -0.244  51.713 -26.924  1.00  0.00     0.161 HD
HETATM    6  O1  UNL     1       0.163  54.784 -26.195  1.00  0.00    -0.271 OA
ENDBRANCH   1   2
BRANCH   1   7
HETATM    7  C4  UNL     1       0.800  52.536 -23.947  1.00  0.00     0.075 C 
BRANCH   7   8
HETATM    8  C5  UNL     1       0.749  52.915 -22.496  1.00  0.00    -0.028 A 
HETATM    9  C6  UNL     1       1.190  54.107 -21.945  1.00  0.00     0.096 A 
HETATM   10  N2  UNL     1       0.943  54.073 -20.600  1.00  0.00    -0.365 N 
HETATM   11  C7  UNL     1       0.343  52.881 -20.256  1.00  0.00     0.042 A 
HETATM   12  H9  UNL     1       1.158  54.818 -19.948  1.00  0.00     0.165 HD
HETATM   13  C8  UNL     1      -0.090  52.419 -19.007  1.00  0.00     0.030 A 
HETATM   14  C12 UNL     1       0.213  52.131 -21.425  1.00  0.00    -0.002 A 
HETATM   15  C9  UNL     1      -0.677  51.150 -18.952  1.00  0.00     0.002 A 
HETATM   16  C10 UNL     1      -0.824  50.378 -20.101  1.00  0.00     0.001 A 
HETATM   17  C11 UNL     1      -0.386  50.856 -21.343  1.00  0.00     0.014 A 
ENDBRANCH   7   8
ENDBRANCH   1   7
BRANCH   1  18
HETATM   18  N3  UNL     1      -1.359  51.797 -24.942  1.00  0.00    -0.347 N 
HETATM   19  C13 UNL     1      -2.616  51.928 -25.468  1.00  0.00     0.223 C 
HETATM   20  O2  UNL     1      -3.048  53.010 -25.857  1.00  0.00    -0.273 OA
HETATM   21  H14 UNL     1      -1.070  50.901 -24.543  1.00  0.00     0.163 HD
BRANCH  19  22
HETATM   22  C14 UNL     1      -3.440  50.639 -25.497  1.00  0.00     0.087 C 
BRANCH  22  23
HETATM   23  C15 UNL     1      -2.733  49.609 -26.394  1.00  0.00     0.119 C 
BRANCH  23  24
HETATM   24  C16 UNL     1      -3.398  49.371 -27.737  1.00  0.00     0.241 C 
HETATM   25  O3  UNL     1      -3.865  48.298 -28.109  1.00  0.00    -0.271 OA
HETATM   26  N4  UNL     1      -3.504  50.511 -28.507  1.00  0.00    -0.237 N 
HETATM   27  H18 UNL     1      -2.776  51.218 -28.460  1.00  0.00     0.197 HD
BRANCH  26  28
HETATM   28  O4  UNL     1      -4.030  50.282 -29.806  1.00  0.00    -0.287 OA
HETATM   29  H19 UNL     1      -4.238  49.321 -29.782  1.00  0.00     0.244 HD
ENDBRANCH  26  28
ENDBRANCH  23  24
ENDBRANCH  22  23
BRANCH  22  30
HETATM   30  C17 UNL     1      -3.796  50.159 -24.073  1.00  0.00     0.018 C 
BRANCH  30  31
HETATM   31  C18 UNL     1      -3.847  48.629 -23.873  1.00  0.00    -0.022 C 
HETATM   32  C19 UNL     1      -5.286  48.111 -23.797  1.00  0.00     0.009 C 
HETATM   33  C20 UNL     1      -3.096  48.255 -22.590  1.00  0.00     0.009 C 
ENDBRANCH  30  31
ENDBRANCH  22  30
ENDBRANCH  19  22
ENDBRANCH   1  18
TORSDOF 10
ENDMDL
