MODEL 1
REMARK minimizedAffinity -10.0134897
REMARK  12 active torsions:
REMARK  status: ('A' for Active; 'I' for Inactive)
REMARK    1  A    between atoms: C2_2  and  C3_3 
REMARK    2  A    between atoms: C2_2  and  C26_31 
REMARK    3  A    between atoms: C3_3  and  C4_4 
REMARK    4  A    between atoms: C4_4  and  C5_5 
REMARK    5  A    between atoms: C5_5  and  C7_7 
REMARK    6  A    between atoms: C8_8  and  O1_9 
REMARK    7  A    between atoms: C9_10  and  O2_11 
REMARK    8  A    between atoms: C20_22  and  O3_23 
REMARK    9  A    between atoms: C23_26  and  O4_27 
REMARK   10  A    between atoms: C25_29  and  O5_30 
REMARK   11  A    between atoms: C26_31  and  C28_33 
REMARK   12  A    between atoms: C28_33  and  O6_34 
ROOT
HETATM    1  C7  UNL     1      -2.614  49.197 -25.595  1.00  0.00     0.029 C 
HETATM    2  C8  UNL     1      -2.208  50.559 -26.265  1.00  0.00     0.152 C 
HETATM    3  C9  UNL     1      -1.747  51.500 -25.122  1.00  0.00     0.155 C 
HETATM    4  C10 UNL     1      -1.720  50.603 -23.891  1.00  0.00     0.060 C 
HETATM    5  C11 UNL     1      -2.911  49.611 -24.110  1.00  0.00    -0.029 C 
HETATM    6  C12 UNL     1      -4.337  50.203 -23.992  1.00  0.00     0.016 C 
HETATM    7  C13 UNL     1      -2.744  48.501 -23.051  1.00  0.00     0.011 C 
HETATM    8  C14 UNL     1      -2.669  49.062 -21.615  1.00  0.00     0.009 C 
HETATM    9  C15 UNL     1      -1.547  50.113 -21.437  1.00  0.00     0.029 C 
HETATM   10  C16 UNL     1      -1.355  50.630 -19.957  1.00  0.00    -0.031 C 
HETATM   11  C17 UNL     1      -2.624  51.334 -19.417  1.00  0.00     0.016 C 
HETATM   12  C18 UNL     1      -1.032  49.435 -19.008  1.00  0.00     0.012 C 
HETATM   13  C19 UNL     1      -0.592  49.858 -17.604  1.00  0.00     0.032 C 
HETATM   14  C20 UNL     1       0.544  50.874 -17.621  1.00  0.00     0.118 C 
HETATM   15  C21 UNL     1       0.253  52.060 -18.540  1.00  0.00     0.039 C 
HETATM   16  C22 UNL     1      -0.112  51.577 -19.953  1.00  0.00     0.025 C 
HETATM   17  C23 UNL     1      -0.246  52.735 -20.957  1.00  0.00     0.126 C 
HETATM   18  C24 UNL     1      -0.456  52.208 -22.382  1.00  0.00     0.071 C 
HETATM   19  C25 UNL     1      -1.660  51.259 -22.497  1.00  0.00     0.071 C 
ENDROOT
BRANCH   1  20
HETATM   20  C5  UNL     1      -3.667  48.382 -26.403  1.00  0.00    -0.011 C 
HETATM   21  C6  UNL     1      -3.884  48.929 -27.819  1.00  0.00     0.010 C 
BRANCH  20  22
HETATM   22  C4  UNL     1      -5.032  48.378 -25.655  1.00  0.00     0.009 C 
BRANCH  22  23
HETATM   23  C3  UNL     1      -6.171  47.767 -26.492  1.00  0.00     0.034 C 
BRANCH  23  24
HETATM   24  C2  UNL     1      -7.536  47.649 -25.821  1.00  0.00    -0.083 C 
HETATM   25  C1  UNL     1      -7.691  47.456 -24.498  1.00  0.00     0.015 C 
BRANCH  24  26
HETATM   26  C26 UNL     1      -8.722  47.795 -26.791  1.00  0.00     0.033 C 
HETATM   27  C27 UNL     1      -8.350  48.284 -28.200  1.00  0.00     0.017 C 
BRANCH  26  28
HETATM   28  C28 UNL     1      -9.857  48.668 -26.207  1.00  0.00     0.172 C 
BRANCH  28  29
HETATM   29  O6  UNL     1      -9.510  50.046 -26.118  1.00  0.00    -0.400 OA
HETATM   30  H48 UNL     1      -9.160  50.325 -26.980  1.00  0.00     0.209 HD
ENDBRANCH  28  29
ENDBRANCH  26  28
ENDBRANCH  24  26
ENDBRANCH  23  24
ENDBRANCH  22  23
ENDBRANCH  20  22
ENDBRANCH   1  20
BRANCH   2  31
HETATM   31  O1  UNL     1      -3.273  51.201 -26.967  1.00  0.00    -0.393 OA
HETATM   32  H13 UNL     1      -3.400  50.737 -27.813  1.00  0.00     0.210 HD
ENDBRANCH   2  31
BRANCH   3  33
HETATM   33  O2  UNL     1      -2.641  52.598 -24.941  1.00  0.00    -0.392 OA
HETATM   34  H15 UNL     1      -3.189  52.601 -25.759  1.00  0.00     0.210 HD
ENDBRANCH   3  33
BRANCH  19  35
HETATM   35  O5  UNL     1      -2.828  52.039 -22.283  1.00  0.00    -0.389 OA
HETATM   36  H41 UNL     1      -2.965  52.569 -23.101  1.00  0.00     0.210 HD
ENDBRANCH  19  35
BRANCH  17  37
HETATM   37  O4  UNL     1       0.946  53.526 -20.947  1.00  0.00    -0.395 OA
HETATM   38  H38 UNL     1       1.687  52.962 -21.228  1.00  0.00     0.210 HD
ENDBRANCH  17  37
BRANCH  14  39
HETATM   39  O3  UNL     1       0.765  51.332 -16.292  1.00  0.00    -0.396 OA
HETATM   40  H33 UNL     1       1.449  52.023 -16.328  1.00  0.00     0.210 HD
ENDBRANCH  14  39
TORSDOF 12
ENDMDL
