MODEL 1
REMARK minimizedAffinity -8.30042744
REMARK  2 active torsions:
REMARK  status: ('A' for Active; 'I' for Inactive)
REMARK    1  A    between atoms: C4_6  and  O3_7 
REMARK    2  A    between atoms: C11_14  and  O4_15 
ROOT
HETATM    1  O1  UNL     1       0.215  54.899 -26.803  1.00  0.00    -0.259 OA
HETATM    2  C1  UNL     1       0.162  54.192 -25.802  1.00  0.00     0.299 A 
HETATM    3  O2  UNL     1       0.711  54.597 -24.597  1.00  0.00    -0.274 OA
HETATM    4  C2  UNL     1       0.667  53.806 -23.430  1.00  0.00     0.093 A 
HETATM    5  C3  UNL     1       1.266  54.358 -22.297  1.00  0.00     0.074 A 
HETATM    6  C4  UNL     1       1.258  53.634 -21.116  1.00  0.00     0.068 A 
HETATM    7  C5  UNL     1       0.662  52.380 -21.063  1.00  0.00     0.037 A 
HETATM    8  C6  UNL     1       0.066  51.844 -22.214  1.00  0.00     0.018 A 
HETATM    9  C7  UNL     1       0.055  52.549 -23.430  1.00  0.00     0.009 A 
HETATM   10  C8  UNL     1      -0.548  52.058 -24.676  1.00  0.00    -0.007 A 
HETATM   11  C9  UNL     1      -1.188  50.810 -24.790  1.00  0.00     0.016 A 
HETATM   12  C10 UNL     1      -1.747  50.385 -26.001  1.00  0.00     0.037 A 
HETATM   13  C11 UNL     1      -1.677  51.201 -27.118  1.00  0.00     0.066 A 
HETATM   14  C12 UNL     1      -1.054  52.437 -27.046  1.00  0.00     0.055 A 
HETATM   15  C13 UNL     1      -0.492  52.862 -25.828  1.00  0.00     0.053 A 
ENDROOT
BRANCH   6  16
HETATM   16  O3  UNL     1       1.848  54.190 -20.022  1.00  0.00    -0.361 OA
HETATM   17  H2  UNL     1       1.767  53.577 -19.273  1.00  0.00     0.217 HD
ENDBRANCH   6  16
BRANCH  13  18
HETATM   18  O4  UNL     1      -2.234  50.748 -28.275  1.00  0.00    -0.361 OA
HETATM   19  H7  UNL     1      -2.112  51.417 -28.970  1.00  0.00     0.217 HD
ENDBRANCH  13  18
TORSDOF 2
ENDMDL
