MODEL 1
REMARK minimizedAffinity -8.04347515
REMARK  12 active torsions:
REMARK  status: ('A' for Active; 'I' for Inactive)
REMARK    1  A    between atoms: O1_2  and  C2_3 
REMARK    2  A    between atoms: C3_6  and  C4_7 
REMARK    3  A    between atoms: C4_7  and  C5_8 
REMARK    4  A    between atoms: C6_9  and  C8_11 
REMARK    5  A    between atoms: C8_11  and  C9_12 
REMARK    6  A    between atoms: C10_13  and  C11_14 
REMARK    7  A    between atoms: C13_16  and  C14_17 
REMARK    8  A    between atoms: C14_17  and  C16_19 
REMARK    9  A    between atoms: C16_19  and  O2_20 
REMARK   10  A    between atoms: C16_19  and  C18_22 
REMARK   11  A    between atoms: C24_29  and  O4_30 
REMARK   12  A    between atoms: C25_31  and  O5_32 
ROOT
HETATM    1  C5  UNL     1      -3.261  50.747 -26.227  1.00  0.00    -0.018 C 
HETATM    2  C6  UNL     1      -3.490  49.430 -26.033  1.00  0.00    -0.084 C 
HETATM    3  C7  UNL     1      -3.904  48.815 -24.722  1.00  0.00     0.043 C 
ENDROOT
BRANCH   2   4
HETATM    4  C8  UNL     1      -3.280  48.439 -27.162  1.00  0.00     0.060 C 
BRANCH   4   5
HETATM    5  C9  UNL     1      -4.460  48.395 -28.093  1.00  0.00    -0.022 C 
HETATM    6  C10 UNL     1      -5.586  47.707 -27.840  1.00  0.00     0.003 C 
BRANCH   6   7
HETATM    7  C11 UNL     1      -6.761  47.614 -28.707  1.00  0.00    -0.066 C 
HETATM    8  C12 UNL     1      -8.112  47.499 -28.048  1.00  0.00     0.048 C 
HETATM    9  C13 UNL     1      -6.572  47.611 -30.045  1.00  0.00    -0.013 C 
BRANCH   9  10
HETATM   10  C14 UNL     1      -7.626  47.559 -31.145  1.00  0.00     0.037 C 
HETATM   11  C15 UNL     1      -8.220  48.966 -31.292  1.00  0.00     0.017 C 
BRANCH  10  12
HETATM   12  C16 UNL     1      -7.009  47.021 -32.471  1.00  0.00     0.165 C 
BRANCH  12  13
HETATM   13  O2  UNL     1      -7.483  47.868 -33.536  1.00  0.00    -0.387 OA
HETATM   14  C17 UNL     1      -8.199  47.162 -34.539  1.00  0.00     0.202 C 
ENDBRANCH  12  13
BRANCH  12  15
HETATM   15  C18 UNL     1      -5.486  47.040 -32.448  1.00  0.00     0.110 A 
HETATM   16  C19 UNL     1      -4.786  45.846 -31.869  1.00  0.00     0.051 C 
HETATM   17  O3  UNL     1      -4.921  48.299 -32.025  1.00  0.00    -0.367 OA
HETATM   18  C20 UNL     1      -4.758  47.978 -33.407  1.00  0.00     0.155 A 
HETATM   19  C21 UNL     1      -3.350  47.776 -33.839  1.00  0.00     0.042 C 
ENDBRANCH  12  15
ENDBRANCH  10  12
ENDBRANCH   9  10
ENDBRANCH   6   7
ENDBRANCH   4   5
ENDBRANCH   2   4
BRANCH   1  20
HETATM   20  C4  UNL     1      -3.413  51.875 -25.240  1.00  0.00     0.085 C 
BRANCH  20  21
HETATM   21  C3  UNL     1      -2.191  52.064 -24.364  1.00  0.00     0.023 A 
HETATM   22  N1  UNL     1      -1.059  52.418 -25.032  1.00  0.00    -0.337 N 
HETATM   23  C2  UNL     1       0.073  52.662 -24.327  1.00  0.00     0.179 A 
ATOM     24  H1  UNL     1      -1.062  52.499 -26.048  1.00  0.00     0.168 HD
HETATM   25  C25 UNL     1       0.137  52.579 -22.942  1.00  0.00     0.153 A 
HETATM   26  C24 UNL     1      -1.040  52.195 -22.289  1.00  0.00     0.111 A 
HETATM   27  C22 UNL     1      -2.226  51.917 -22.974  1.00  0.00    -0.003 A 
HETATM   28  C23 UNL     1      -3.474  51.551 -22.225  1.00  0.00     0.053 C 
BRANCH  23  29
HETATM   29  O1  UNL     1       1.208  52.990 -25.038  1.00  0.00    -0.339 OA
HETATM   30  C1  UNL     1       1.645  51.966 -25.929  1.00  0.00     0.211 C 
ENDBRANCH  23  29
BRANCH  25  31
HETATM   31  O5  UNL     1       1.192  52.805 -22.097  1.00  0.00    -0.349 OA
HETATM   32  C26 UNL     1       1.412  54.142 -21.665  1.00  0.00     0.210 C 
ENDBRANCH  25  31
BRANCH  26  33
HETATM   33  O4  UNL     1      -1.027  52.100 -20.916  1.00  0.00    -0.357 OA
HETATM   34  H36 UNL     1      -0.115  52.330 -20.651  1.00  0.00     0.217 HD
ENDBRANCH  26  33
ENDBRANCH  20  21
ENDBRANCH   1  20
TORSDOF 12
ENDMDL
