MODEL 1
REMARK minimizedAffinity -11.586112
REMARK  5 active torsions:
REMARK  status: ('A' for Active; 'I' for Inactive)
REMARK    1  A    between atoms: N1_2  and  C2_3 
REMARK    2  A    between atoms: C4_5  and  N3_29 
REMARK    3  A    between atoms: C5_7  and  N2_12 
REMARK    4  A    between atoms: C7_9  and  O2_10 
REMARK    5  A    between atoms: C28_35  and  O4_36 
ROOT
HETATM    1  C2  UNL     1      -5.011  49.008 -22.200  1.00  0.00     0.257 C 
HETATM    2  C3  UNL     1      -3.494  49.092 -21.987  1.00  0.00     0.092 C 
HETATM    3  C4  UNL     1      -2.714  48.906 -23.294  1.00  0.00     0.234 C 
HETATM    4  O1  UNL     1      -3.510  48.514 -24.409  1.00  0.00    -0.333 OA
HETATM    5  C5  UNL     1      -4.707  49.281 -24.689  1.00  0.00     0.168 C 
HETATM    6  C6  UNL     1      -5.608  48.163 -25.261  1.00  0.00     0.074 C 
HETATM    7  C7  UNL     1      -5.380  49.890 -23.413  1.00  0.00     0.209 C 
ENDROOT
BRANCH   1   8
HETATM    8  N1  UNL     1      -5.777  49.452 -21.016  1.00  0.00     0.086 N 
HETATM    9  C1  UNL     1      -4.941  49.915 -19.918  1.00  0.00     0.307 C 
HETATM   10  H4  UNL     1      -6.417  50.198 -21.303  1.00  0.00     0.316 HD
ENDBRANCH   1   8
BRANCH   7  11
HETATM   11  O2  UNL     1      -4.892  51.217 -23.106  1.00  0.00    -0.384 OA
HETATM   12  C8  UNL     1      -4.815  52.060 -24.249  1.00  0.00     0.202 C 
ENDBRANCH   7  11
BRANCH   3  13
HETATM   13  N3  UNL     1      -1.816  49.998 -23.655  1.00  0.00    -0.316 N 
HETATM   14  C24 UNL     1      -1.663  50.501 -24.939  1.00  0.00     0.048 A 
HETATM   15  C19 UNL     1      -0.832  51.630 -24.849  1.00  0.00     0.004 A 
HETATM   16  C23 UNL     1      -2.194  50.063 -26.166  1.00  0.00     0.030 A 
HETATM   17  C18 UNL     1      -0.479  51.798 -23.475  1.00  0.00     0.022 A 
HETATM   18  C20 UNL     1      -0.532  52.329 -26.038  1.00  0.00     0.014 A 
HETATM   19  C17 UNL     1       0.272  52.668 -22.671  1.00  0.00     0.057 A 
HETATM   20  C25 UNL     1      -1.092  50.761 -22.791  1.00  0.00     0.077 A 
HETATM   21  C16 UNL     1       0.443  52.535 -21.257  1.00  0.00     0.020 A 
HETATM   22  C27 UNL     1       1.025  53.861 -23.080  1.00  0.00     0.255 A 
HETATM   23  C15 UNL     1      -0.137  51.479 -20.536  1.00  0.00     0.017 A 
HETATM   24  C28 UNL     1       1.347  53.631 -20.775  1.00  0.00     0.257 A 
HETATM   25  C14 UNL     1      -0.124  51.007 -19.195  1.00  0.00     0.004 A 
HETATM   26  C26 UNL     1      -0.909  50.590 -21.253  1.00  0.00     0.077 A 
HETATM   27  C9  UNL     1      -0.864  49.809 -19.153  1.00  0.00     0.049 A 
HETATM   28  C13 UNL     1       0.496  51.478 -18.017  1.00  0.00     0.014 A 
HETATM   29  N2  UNL     1      -1.395  49.607 -20.427  1.00  0.00    -0.308 N 
HETATM   30  C10 UNL     1      -0.933  49.063 -17.961  1.00  0.00     0.030 A 
HETATM   31  C11 UNL     1      -0.304  49.552 -16.811  1.00  0.00     0.002 A 
HETATM   32  C12 UNL     1       0.393  50.750 -16.832  1.00  0.00     0.001 A 
HETATM   33  N4  UNL     1       1.579  54.405 -21.945  1.00  0.00    -0.326 N 
HETATM   34  H24 UNL     1       2.181  55.214 -21.980  1.00  0.00     0.165 HD
HETATM   35  O3  UNL     1       1.154  54.314 -24.200  1.00  0.00    -0.268 OA
HETATM   36  C21 UNL     1      -1.055  51.896 -27.262  1.00  0.00     0.001 A 
HETATM   37  C22 UNL     1      -1.875  50.777 -27.322  1.00  0.00     0.002 A 
BRANCH  24  38
HETATM   38  O4  UNL     1       0.737  54.486 -19.843  1.00  0.00    -0.372 OA
HETATM   39  H26 UNL     1      -0.192  54.565 -20.118  1.00  0.00     0.212 HD
ENDBRANCH  24  38
ENDBRANCH   3  13
TORSDOF 5
ENDMDL
