MODEL 1
REMARK minimizedAffinity -8.36622143
REMARK CNNscore 0.405084431
REMARK CNNaffinity 6.71695566
REMARK  11 active torsions:
REMARK  status: ('A' for Active; 'I' for Inactive)
REMARK    1  A    between atoms: C3_4  and  O2_5 
REMARK    2  A    between atoms: O2_5  and  C4_6 
REMARK    3  A    between atoms: C7_9  and  C8_10 
REMARK    4  A    between atoms: N1_11  and  C9_13 
REMARK    5  A    between atoms: C9_13  and  C10_14 
REMARK    6  A    between atoms: C10_14  and  C11_15 
REMARK    7  A    between atoms: C22_26  and  C23_27 
REMARK    8  A    between atoms: C29_35  and  O5_36 
REMARK    9  A    between atoms: C33_40  and  O6_41 
REMARK   10  A    between atoms: C36_44  and  O7_45 
REMARK   11  A    between atoms: C37_46  and  O8_47 
ROOT
HETATM    1  C4  UNL     1      -4.193   6.881  14.322  1.00  0.00     0.127 C 
HETATM    2  C5  UNL     1      -3.253   6.223  15.336  1.00  0.00     0.033 C 
HETATM    3  C6  UNL     1      -2.793   7.211  16.401  1.00  0.00     0.021 C 
HETATM    4  C7  UNL     1      -2.066   8.480  15.846  1.00  0.00     0.026 C 
HETATM    5  C17 UNL     1      -2.632   9.757  16.598  1.00  0.00     0.009 C 
HETATM    6  C18 UNL     1      -2.421   9.737  18.130  1.00  0.00     0.007 C 
HETATM    7  C19 UNL     1      -3.056  10.941  18.820  1.00  0.00     0.013 C 
HETATM    8  C20 UNL     1      -2.513  12.298  18.290  1.00  0.00    -0.005 C 
HETATM    9  C21 UNL     1      -1.053  12.468  18.764  1.00  0.00     0.019 C 
HETATM   10  C22 UNL     1      -3.466  13.438  18.794  1.00  0.00     0.028 C 
HETATM   11  C27 UNL     1      -4.617  13.446  17.761  1.00  0.00     0.013 C 
HETATM   12  C28 UNL     1      -4.161  12.627  16.545  1.00  0.00     0.040 C 
HETATM   13  C29 UNL     1      -2.662  12.354  16.744  1.00  0.00     0.070 C 
HETATM   14  C30 UNL     1      -2.127  11.093  16.002  1.00  0.00     0.026 C 
HETATM   15  C31 UNL     1      -2.440  11.161  14.498  1.00  0.00     0.011 C 
HETATM   16  C32 UNL     1      -1.839   9.986  13.750  1.00  0.00     0.039 C 
HETATM   17  C33 UNL     1      -2.269   8.608  14.291  1.00  0.00     0.073 C 
HETATM   18  C34 UNL     1      -3.727   8.289  13.899  1.00  0.00     0.071 C 
ENDROOT
BRANCH   1  19
HETATM   19  O2  UNL     1      -4.361   6.100  13.134  1.00  0.00    -0.356 OA
BRANCH  19  20
HETATM   20  C3  UNL     1      -5.166   4.933  13.297  1.00  0.00     0.263 C 
HETATM   21  O1  UNL     1      -5.234   4.189  12.085  1.00  0.00    -0.354 OA
HETATM   22  C2  UNL     1      -5.801   2.883  12.289  1.00  0.00     0.151 C 
HETATM   23  C1  UNL     1      -5.965   2.251  10.908  1.00  0.00     0.042 C 
HETATM   24  C37 UNL     1      -7.102   2.958  13.128  1.00  0.00     0.175 C 
HETATM   25  C36 UNL     1      -7.638   4.394  13.190  1.00  0.00     0.154 C 
HETATM   26  C35 UNL     1      -6.582   5.383  13.677  1.00  0.00     0.095 C 
BRANCH  24  27
HETATM   27  O8  UNL     1      -8.121   2.086  12.642  1.00  0.00    -0.390 OA
HETATM   28  H51 UNL     1      -8.612   2.599  11.967  1.00  0.00     0.210 HD
ENDBRANCH  24  27
BRANCH  25  29
HETATM   29  O7  UNL     1      -8.098   4.768  11.882  1.00  0.00    -0.393 OA
HETATM   30  H49 UNL     1      -7.297   4.887  11.320  1.00  0.00     0.210 HD
ENDBRANCH  25  29
ENDBRANCH  19  20
ENDBRANCH   1  19
BRANCH  17  31
HETATM   31  O6  UNL     1      -1.435   7.650  13.615  1.00  0.00    -0.389 OA
HETATM   32  H43 UNL     1      -1.517   7.788  12.651  1.00  0.00     0.210 HD
ENDBRANCH  17  31
BRANCH   4  33
HETATM   33  C8  UNL     1      -0.555   8.330  16.110  1.00  0.00     0.068 C 
HETATM   34  N1  UNL     1       0.044   7.192  15.998  1.00  0.00    -0.401 N 
ATOM     35  H1  UNL     1      -0.442   6.336  15.731  1.00  0.00     0.158 HD
BRANCH  34  36
HETATM   36  C9  UNL     1       1.484   7.232  16.287  1.00  0.00     0.123 C 
BRANCH  36  37
HETATM   37  C10 UNL     1       2.253   7.536  14.995  1.00  0.00     0.058 C 
BRANCH  37  38
HETATM   38  C11 UNL     1       3.446   8.441  15.196  1.00  0.00    -0.057 A 
HETATM   39  C12 UNL     1       3.299   9.685  15.825  1.00  0.00     0.007 A 
HETATM   40  C13 UNL     1       4.403  10.523  16.002  1.00  0.00     0.001 A 
HETATM   41  C14 UNL     1       5.661  10.128  15.548  1.00  0.00     0.000 A 
HETATM   42  C15 UNL     1       5.817   8.895  14.920  1.00  0.00     0.001 A 
HETATM   43  C16 UNL     1       4.716   8.056  14.742  1.00  0.00     0.007 A 
ENDBRANCH  37  38
ENDBRANCH  36  37
ENDBRANCH  34  36
ENDBRANCH   4  33
BRANCH  13  44
HETATM   44  O5  UNL     1      -1.974  13.497  16.219  1.00  0.00    -0.389 OA
HETATM   45  H37 UNL     1      -1.016  13.331  16.263  1.00  0.00     0.210 HD
ENDBRANCH  13  44
BRANCH  10  46
HETATM   46  C23 UNL     1      -2.850  14.802  19.009  1.00  0.00    -0.045 A 
HETATM   47  C24 UNL     1      -2.695  15.808  18.145  1.00  0.00     0.087 A 
HETATM   48  C25 UNL     1      -2.064  16.908  18.871  1.00  0.00     0.283 A 
HETATM   49  O3  UNL     1      -1.754  17.979  18.384  1.00  0.00    -0.260 OA
HETATM   50  O4  UNL     1      -1.877  16.540  20.167  1.00  0.00    -0.314 OA
HETATM   51  C26 UNL     1      -2.367  15.214  20.351  1.00  0.00     0.213 A 
ENDBRANCH  10  46
TORSDOF 11
ENDMDL
