MODEL 1
REMARK minimizedAffinity -9.72912502
REMARK CNNscore 0.622662008
REMARK CNNaffinity 7.47110128
REMARK  13 active torsions:
REMARK  status: ('A' for Active; 'I' for Inactive)
REMARK    1  A    between atoms: C19_21  and  O3_22 
REMARK    2  A    between atoms: C19_21  and  C20_23 
REMARK    3  A    between atoms: C20_23  and  C21_25 
REMARK    4  A    between atoms: C21_25  and  O5_26 
REMARK    5  A    between atoms: O5_26  and  C22_27 
REMARK    6  A    between atoms: C22_27  and  C23_29 
REMARK    7  A    between atoms: C23_29  and  C24_30 
REMARK    8  A    between atoms: C24_30  and  C25_31 
REMARK       I    between atoms: C25_31  and  N1_33 
REMARK    9  A    between atoms: N1_33  and  C26_34 
REMARK   10  A    between atoms: C26_34  and  C27_35 
REMARK   11  A    between atoms: C26_34  and  C34_42 
REMARK   12  A    between atoms: C27_35  and  C28_36 
REMARK   13  A    between atoms: C34_42  and  O9_44 
ROOT
HETATM    1  C20 UNL     1      -7.069  47.845 -21.590  1.00  0.00     0.185 C 
HETATM    2  O4  UNL     1      -6.999  46.673 -21.203  1.00  0.00    -0.292 OA
ENDROOT
BRANCH   1   3
HETATM    3  C19 UNL     1      -6.424  48.992 -20.775  1.00  0.00     0.128 C 
HETATM    4  C14 UNL     1      -4.881  49.101 -20.996  1.00  0.00     0.005 C 
HETATM    5  C13 UNL     1      -4.430  49.754 -22.310  1.00  0.00     0.091 C 
HETATM    6  C15 UNL     1      -4.204  47.706 -20.861  1.00  0.00     0.019 C 
HETATM    7  C16 UNL     1      -4.506  50.072 -19.847  1.00  0.00     0.002 C 
HETATM    8  C12 UNL     1      -2.937  50.047 -22.246  1.00  0.00     0.133 C 
HETATM    9  C11 UNL     1      -2.450  50.897 -21.053  1.00  0.00     0.072 C 
HETATM   10  O2  UNL     1      -2.195  49.658 -23.144  1.00  0.00    -0.297 OA
HETATM   11  C2  UNL     1      -0.903  51.181 -21.013  1.00  0.00    -0.009 C 
HETATM   12  C10 UNL     1      -2.994  50.306 -19.720  1.00  0.00     0.003 C 
HETATM   13  C1  UNL     1      -0.063  49.882 -20.981  1.00  0.00     0.021 C 
HETATM   14  C3  UNL     1      -0.518  52.026 -22.266  1.00  0.00     0.022 C 
HETATM   15  C7  UNL     1      -0.567  51.977 -19.738  1.00  0.00    -0.067 C 
HETATM   16  C4  UNL     1       0.856  52.675 -22.175  1.00  0.00     0.084 C 
HETATM   17  C5  UNL     1       0.960  53.512 -20.930  1.00  0.00     0.149 C 
HETATM   18  O1  UNL     1       1.670  54.513 -20.865  1.00  0.00    -0.293 OA
HETATM   19  C6  UNL     1       0.242  53.052 -19.721  1.00  0.00     0.053 C 
HETATM   20  C8  UNL     1      -1.167  51.480 -18.444  1.00  0.00     0.035 C 
HETATM   21  C9  UNL     1      -2.668  51.253 -18.558  1.00  0.00     0.010 C 
HETATM   22  C17 UNL     1      -5.248  49.500 -18.644  1.00  0.00     0.009 C 
HETATM   23  C18 UNL     1      -6.530  48.877 -19.232  1.00  0.00     0.047 C 
BRANCH   3  24
HETATM   24  O3  UNL     1      -7.037  50.234 -21.153  1.00  0.00    -0.381 OA
HETATM   25  H25 UNL     1      -7.941  50.042 -21.485  1.00  0.00     0.211 HD
ENDBRANCH   3  24
ENDBRANCH   1   3
BRANCH   1  26
HETATM   26  C21 UNL     1      -7.814  48.167 -22.889  1.00  0.00     0.260 C 
BRANCH  26  27
HETATM   27  O5  UNL     1      -7.160  48.832 -23.962  1.00  0.00    -0.314 OA
BRANCH  27  28
HETATM   28  C22 UNL     1      -7.245  48.233 -25.176  1.00  0.00     0.259 C 
HETATM   29  O6  UNL     1      -8.270  48.200 -25.848  1.00  0.00    -0.265 OA
BRANCH  28  30
HETATM   30  C23 UNL     1      -5.950  47.582 -25.609  1.00  0.00     0.120 C 
BRANCH  30  31
HETATM   31  C24 UNL     1      -5.237  48.283 -26.760  1.00  0.00     0.112 C 
BRANCH  31  32
HETATM   32  C25 UNL     1      -3.911  48.883 -26.328  1.00  0.00     0.218 C 
HETATM   33  O7  UNL     1      -3.009  48.228 -25.821  1.00  0.00    -0.274 OA
HETATM   34  N1  UNL     1      -3.824  50.234 -26.581  1.00  0.00    -0.346 N 
HETATM   35  H32 UNL     1      -4.697  50.742 -26.661  1.00  0.00     0.163 HD
BRANCH  34  36
HETATM   36  C26 UNL     1      -2.665  51.019 -26.127  1.00  0.00     0.186 C 
BRANCH  36  37
HETATM   37  C27 UNL     1      -1.904  51.562 -27.342  1.00  0.00     0.074 C 
BRANCH  37  38
HETATM   38  C28 UNL     1      -0.404  51.570 -27.180  1.00  0.00    -0.056 A 
HETATM   39  C29 UNL     1       0.178  51.347 -25.925  1.00  0.00     0.007 A 
HETATM   40  C30 UNL     1       1.567  51.364 -25.777  1.00  0.00     0.001 A 
HETATM   41  C31 UNL     1       2.384  51.601 -26.880  1.00  0.00     0.000 A 
HETATM   42  C32 UNL     1       1.815  51.824 -28.132  1.00  0.00     0.001 A 
HETATM   43  C33 UNL     1       0.428  51.808 -28.283  1.00  0.00     0.007 A 
ENDBRANCH  37  38
ENDBRANCH  36  37
BRANCH  36  44
HETATM   44  C34 UNL     1      -3.208  52.174 -25.289  1.00  0.00     0.163 C 
HETATM   45  O8  UNL     1      -2.558  53.135 -24.901  1.00  0.00    -0.648 OA
BRANCH  44  46
HETATM   46  O9  UNL     1      -4.511  52.049 -24.975  1.00  0.00    -0.775 OA
HETATM   47  H41 UNL     1      -4.726  52.842 -24.442  1.00  0.00     0.167 HD
ENDBRANCH  44  46
ENDBRANCH  36  44
ENDBRANCH  34  36
ENDBRANCH  31  32
ENDBRANCH  30  31
ENDBRANCH  28  30
ENDBRANCH  27  28
ENDBRANCH  26  27
ENDBRANCH   1  26
TORSDOF 13
ENDMDL
