MODEL 1
REMARK minimizedAffinity -7.63246489
REMARK CNNscore 0.502457261
REMARK CNNaffinity 5.87787008
REMARK  4 active torsions:
REMARK  status: ('A' for Active; 'I' for Inactive)
REMARK    1  A    between atoms: C4_4  and  C5_5 
REMARK    2  A    between atoms: C5_5  and  C6_6 
REMARK    3  A    between atoms: C6_6  and  C7_7 
REMARK    4  A    between atoms: C7_7  and  C9_9 
ROOT
HETATM    1  C9  UNL     1      -7.446  47.386 -30.576  1.00  0.00    -0.002 C 
HETATM    2  C10 UNL     1      -8.070  48.757 -30.997  1.00  0.00     0.007 C 
HETATM    3  C11 UNL     1      -9.531  48.774 -30.509  1.00  0.00     0.015 C 
HETATM    4  C12 UNL     1      -9.835  47.303 -30.166  1.00  0.00    -0.013 C 
HETATM    5  C13 UNL     1     -10.178  46.617 -31.526  1.00  0.00     0.021 C 
HETATM    6  C14 UNL     1     -10.955  46.959 -29.186  1.00  0.00    -0.070 C 
HETATM    7  C15 UNL     1     -11.738  47.877 -28.590  1.00  0.00    -0.022 C 
HETATM    8  C16 UNL     1     -12.713  47.570 -27.491  1.00  0.00     0.034 C 
HETATM    9  C17 UNL     1     -12.475  46.185 -26.849  1.00  0.00     0.013 C 
HETATM   10  C18 UNL     1     -13.458  45.800 -25.675  1.00  0.00     0.018 C 
HETATM   11  C19 UNL     1     -14.536  46.870 -25.404  1.00  0.00     0.023 C 
HETATM   12  C20 UNL     1     -12.650  45.632 -24.367  1.00  0.00     0.023 C 
HETATM   13  C21 UNL     1     -14.167  44.456 -25.905  1.00  0.00     0.135 C 
HETATM   14  O1  UNL     1     -15.337  44.267 -25.557  1.00  0.00    -0.297 OA
HETATM   15  C22 UNL     1     -13.386  43.301 -26.491  1.00  0.00     0.080 C 
HETATM   16  C23 UNL     1     -12.160  43.731 -27.279  1.00  0.00     0.017 C 
HETATM   17  C24 UNL     1     -12.317  45.103 -27.966  1.00  0.00    -0.031 C 
HETATM   18  C25 UNL     1     -13.557  45.064 -28.910  1.00  0.00     0.016 C 
HETATM   19  C26 UNL     1     -11.063  45.458 -28.865  1.00  0.00     0.024 C 
HETATM   20  C27 UNL     1      -9.698  44.936 -28.358  1.00  0.00     0.010 C 
HETATM   21  C28 UNL     1      -8.499  45.348 -29.247  1.00  0.00     0.011 C 
HETATM   22  C29 UNL     1      -8.463  46.870 -29.510  1.00  0.00    -0.029 C 
HETATM   23  C30 UNL     1      -8.184  47.584 -28.148  1.00  0.00     0.016 C 
ENDROOT
BRANCH   1  24
HETATM   24  C7  UNL     1      -5.932  47.530 -30.226  1.00  0.00    -0.014 C 
HETATM   25  C8  UNL     1      -5.322  48.814 -30.795  1.00  0.00     0.010 C 
BRANCH  24  26
HETATM   26  C6  UNL     1      -5.744  47.485 -28.681  1.00  0.00     0.008 C 
BRANCH  26  27
HETATM   27  C5  UNL     1      -4.619  48.352 -28.099  1.00  0.00     0.028 C 
BRANCH  27  28
HETATM   28  C4  UNL     1      -4.552  48.319 -26.597  1.00  0.00    -0.025 C 
HETATM   29  C2  UNL     1      -3.521  48.692 -25.815  1.00  0.00    -0.091 C 
HETATM   30  C1  UNL     1      -3.602  48.551 -24.317  1.00  0.00     0.042 C 
HETATM   31  C3  UNL     1      -2.229  49.277 -26.314  1.00  0.00     0.042 C 
ENDBRANCH  27  28
ENDBRANCH  26  27
ENDBRANCH  24  26
ENDBRANCH   1  24
TORSDOF 4
ENDMDL
