MODEL 1
REMARK minimizedAffinity -7.71353579
REMARK CNNscore 0.702342212
REMARK CNNaffinity 6.37334633
REMARK  14 active torsions:
REMARK  status: ('A' for Active; 'I' for Inactive)
REMARK    1  A    between atoms: C3_3  and  O1_4 
REMARK    2  A    between atoms: O1_4  and  C4_5 
REMARK    3  A    between atoms: C5_7  and  C6_8 
REMARK    4  A    between atoms: C6_8  and  O3_9 
REMARK    5  A    between atoms: C7_10  and  O4_11 
REMARK    6  A    between atoms: C9_13  and  O5_14 
REMARK    7  A    between atoms: C10_15  and  O6_16 
REMARK    8  A    between atoms: C20_26  and  C21_27 
REMARK    9  A    between atoms: C21_27  and  O8_29 
REMARK   10  A    between atoms: C22_30  and  O9_31 
REMARK   11  A    between atoms: C24_33  and  C25_34 
REMARK   12  A    between atoms: C25_34  and  C27_36 
REMARK   13  A    between atoms: C27_36  and  C28_37 
REMARK   14  A    between atoms: C28_37  and  C29_38 
ROOT
HETATM    1  C1  UNL     1     -11.499  47.763 -26.023  1.00  0.00     0.017 C 
HETATM    2  C2  UNL     1     -12.514  47.565 -26.885  1.00  0.00    -0.055 C 
HETATM    3  C3  UNL     1     -12.418  47.839 -28.381  1.00  0.00     0.153 C 
HETATM    4  C11 UNL     1     -12.825  46.602 -29.196  1.00  0.00     0.037 C 
HETATM    5  C12 UNL     1     -14.135  45.954 -28.730  1.00  0.00     0.017 C 
HETATM    6  C13 UNL     1     -14.180  45.663 -27.199  1.00  0.00    -0.013 C 
HETATM    7  C14 UNL     1     -13.114  44.588 -26.845  1.00  0.00     0.021 C 
HETATM    8  C15 UNL     1     -15.548  45.086 -26.750  1.00  0.00    -0.067 C 
HETATM    9  C16 UNL     1     -16.163  45.483 -25.602  1.00  0.00    -0.054 C 
HETATM   10  C17 UNL     1     -15.629  46.603 -24.737  1.00  0.00     0.036 C 
HETATM   11  C18 UNL     1     -14.158  46.926 -24.975  1.00  0.00     0.014 C 
HETATM   12  C19 UNL     1     -13.885  47.024 -26.480  1.00  0.00     0.029 C 
HETATM   13  C20 UNL     1     -17.487  44.837 -25.161  1.00  0.00     0.102 C 
HETATM   14  C22 UNL     1     -17.826  44.700 -23.652  1.00  0.00     0.142 C 
HETATM   15  C23 UNL     1     -18.862  43.551 -23.586  1.00  0.00     0.039 C 
HETATM   16  C24 UNL     1     -18.913  42.879 -24.993  1.00  0.00     0.001 C 
HETATM   17  C33 UNL     1     -17.558  43.327 -25.628  1.00  0.00    -0.016 C 
HETATM   18  C34 UNL     1     -16.409  42.430 -25.069  1.00  0.00     0.017 C 
HETATM   19  C35 UNL     1     -17.454  43.316 -27.159  1.00  0.00     0.015 C 
HETATM   20  C36 UNL     1     -16.156  44.000 -27.646  1.00  0.00     0.036 C 
ENDROOT
BRANCH   3  21
HETATM   21  O1  UNL     1     -11.066  48.170 -28.704  1.00  0.00    -0.349 OA
BRANCH  21  22
HETATM   22  C4  UNL     1     -10.121  47.112 -28.479  1.00  0.00     0.292 C 
HETATM   23  O2  UNL     1     -10.184  46.194 -29.571  1.00  0.00    -0.348 OA
HETATM   24  C5  UNL     1      -8.980  45.490 -29.886  1.00  0.00     0.179 C 
HETATM   25  C7  UNL     1      -7.794  46.443 -30.193  1.00  0.00     0.183 C 
HETATM   26  C9  UNL     1      -8.071  47.869 -29.687  1.00  0.00     0.183 C 
HETATM   27  C10 UNL     1      -8.745  47.808 -28.320  1.00  0.00     0.204 C 
BRANCH  24  28
HETATM   28  C6  UNL     1      -8.643  44.462 -28.793  1.00  0.00     0.198 C 
BRANCH  28  29
HETATM   29  O3  UNL     1      -7.237  44.303 -28.665  1.00  0.00    -0.398 OA
HETATM   30  H8  UNL     1      -7.086  43.674 -27.926  1.00  0.00     0.209 HD
ENDBRANCH  28  29
ENDBRANCH  24  28
BRANCH  25  31
HETATM   31  O4  UNL     1      -7.540  46.559 -31.610  1.00  0.00    -0.385 OA
HETATM   32  C8  UNL     1      -7.934  47.826 -32.126  1.00  0.00     0.202 C 
ENDBRANCH  25  31
BRANCH  26  33
HETATM   33  O5  UNL     1      -6.820  48.566 -29.625  1.00  0.00    -0.390 OA
HETATM   34  H14 UNL     1      -6.490  48.600 -30.541  1.00  0.00     0.210 HD
ENDBRANCH  26  33
BRANCH  27  35
HETATM   35  O6  UNL     1      -8.905  49.109 -27.733  1.00  0.00    -0.388 OA
HETATM   36  H16 UNL     1      -9.784  49.421 -28.034  1.00  0.00     0.210 HD
ENDBRANCH  27  35
ENDBRANCH  21  22
ENDBRANCH   3  21
BRANCH  13  37
HETATM   37  C21 UNL     1     -18.574  45.738 -25.840  1.00  0.00     0.156 C 
HETATM   38  O7  UNL     1     -19.263  46.602 -25.311  1.00  0.00    -0.649 OA
BRANCH  37  39
HETATM   39  O8  UNL     1     -18.746  45.534 -27.162  1.00  0.00    -0.775 OA
HETATM   40  H29 UNL     1     -19.457  46.168 -27.400  1.00  0.00     0.167 HD
ENDBRANCH  37  39
ENDBRANCH  13  37
BRANCH  14  41
HETATM   41  O9  UNL     1     -16.692  44.338 -22.852  1.00  0.00    -0.394 OA
HETATM   42  H31 UNL     1     -16.996  44.253 -21.931  1.00  0.00     0.210 HD
ENDBRANCH  14  41
BRANCH  16  43
HETATM   43  C25 UNL     1     -19.258  41.362 -24.905  1.00  0.00    -0.013 C 
HETATM   44  C26 UNL     1     -20.128  40.890 -26.077  1.00  0.00     0.010 C 
BRANCH  43  45
HETATM   45  C27 UNL     1     -20.001  41.009 -23.584  1.00  0.00     0.008 C 
BRANCH  45  46
HETATM   46  C28 UNL     1     -21.526  40.966 -23.752  1.00  0.00     0.028 C 
BRANCH  46  47
HETATM   47  C29 UNL     1     -22.205  40.825 -22.417  1.00  0.00    -0.025 C 
HETATM   48  C30 UNL     1     -22.937  39.786 -21.965  1.00  0.00    -0.091 C 
HETATM   49  C31 UNL     1     -23.209  38.519 -22.730  1.00  0.00     0.042 C 
HETATM   50  C32 UNL     1     -23.562  39.824 -20.596  1.00  0.00     0.042 C 
ENDBRANCH  46  47
ENDBRANCH  45  46
ENDBRANCH  43  45
ENDBRANCH  16  43
TORSDOF 14
ENDMDL
