MODEL 1
REMARK minimizedAffinity -6.85850573
REMARK CNNscore 0.66084826
REMARK CNNaffinity 6.68626022
REMARK  6 active torsions:
REMARK  status: ('A' for Active; 'I' for Inactive)
REMARK    1  A    between atoms: C4_4  and  C5_5 
REMARK    2  A    between atoms: C5_5  and  C6_6 
REMARK    3  A    between atoms: C6_6  and  C7_7 
REMARK    4  A    between atoms: C7_7  and  C9_9 
REMARK    5  A    between atoms: C17_17  and  O1_18 
REMARK    6  A    between atoms: C21_22  and  O2_23 
ROOT
HETATM    1  C9  UNL     1      -2.272  12.903  17.923  1.00  0.00    -0.002 C 
HETATM    2  C10 UNL     1      -1.293  12.339  19.000  1.00  0.00     0.006 C 
HETATM    3  C11 UNL     1      -0.738  11.002  18.474  1.00  0.00     0.011 C 
HETATM    4  C12 UNL     1      -1.121  10.977  16.983  1.00  0.00    -0.032 C 
HETATM    5  C13 UNL     1      -0.027  11.825  16.252  1.00  0.00     0.016 C 
HETATM    6  C14 UNL     1      -1.229   9.556  16.350  1.00  0.00     0.003 C 
HETATM    7  C15 UNL     1       0.079   8.749  16.462  1.00  0.00     0.009 C 
HETATM    8  C16 UNL     1       0.046   7.497  15.595  1.00  0.00     0.039 C 
HETATM    9  C17 UNL     1       0.084   7.877  14.101  1.00  0.00     0.071 C 
HETATM   10  C18 UNL     1      -0.801   9.145  13.802  1.00  0.00     0.029 C 
HETATM   11  C19 UNL     1      -1.326   9.165  12.347  1.00  0.00     0.011 C 
HETATM   12  C20 UNL     1      -0.309   8.611  11.359  1.00  0.00     0.033 C 
HETATM   13  C21 UNL     1       0.098   7.162  11.644  1.00  0.00     0.129 C 
HETATM   14  C22 UNL     1      -0.137   6.669  13.112  1.00  0.00     0.010 C 
HETATM   15  C23 UNL     1      -1.521   5.998  13.268  1.00  0.00     0.020 C 
HETATM   16  C24 UNL     1       0.891   5.532  13.380  1.00  0.00     0.020 C 
HETATM   17  C25 UNL     1      -1.882   9.554  14.900  1.00  0.00    -0.033 C 
HETATM   18  C26 UNL     1      -3.071   8.557  14.889  1.00  0.00     0.016 C 
HETATM   19  C27 UNL     1      -2.491  10.950  14.504  1.00  0.00     0.011 C 
HETATM   20  C28 UNL     1      -3.033  11.898  15.595  1.00  0.00     0.011 C 
HETATM   21  C29 UNL     1      -2.547  11.641  17.031  1.00  0.00    -0.032 C 
HETATM   22  C30 UNL     1      -3.631  10.785  17.760  1.00  0.00     0.016 C 
ENDROOT
BRANCH   1  23
HETATM   23  C7  UNL     1      -3.460  13.680  18.564  1.00  0.00    -0.014 C 
HETATM   24  C8  UNL     1      -4.269  14.435  17.493  1.00  0.00     0.010 C 
BRANCH  23  25
HETATM   25  C6  UNL     1      -4.408  12.813  19.423  1.00  0.00     0.008 C 
BRANCH  25  26
HETATM   26  C5  UNL     1      -5.085  13.536  20.593  1.00  0.00     0.028 C 
BRANCH  26  27
HETATM   27  C4  UNL     1      -6.583  13.459  20.472  1.00  0.00    -0.025 C 
HETATM   28  C2  UNL     1      -7.484  13.292  21.459  1.00  0.00    -0.091 C 
HETATM   29  C1  UNL     1      -7.152  13.107  22.914  1.00  0.00     0.042 C 
HETATM   30  C3  UNL     1      -8.960  13.269  21.154  1.00  0.00     0.042 C 
ENDBRANCH  26  27
ENDBRANCH  25  26
ENDBRANCH  23  25
ENDBRANCH   1  23
BRANCH   9  31
HETATM   31  O1  UNL     1       1.444   8.338  13.847  1.00  0.00    -0.389 OA
HETATM   32  H29 UNL     1       2.068   7.784  14.345  1.00  0.00     0.210 HD
ENDBRANCH   9  31
BRANCH  13  33
HETATM   33  O2  UNL     1      -0.575   6.320  10.702  1.00  0.00    -0.395 OA
HETATM   34  H36 UNL     1      -0.128   5.456  10.711  1.00  0.00     0.210 HD
ENDBRANCH  13  33
TORSDOF 6
ENDMDL
