MODEL 1
REMARK minimizedAffinity -9.83837509
REMARK  10 active torsions:
REMARK  status: ('A' for Active; 'I' for Inactive)
REMARK    1  A    between atoms: C14_14  and  C15_15 
REMARK    2  A    between atoms: C15_15  and  C17_17 
REMARK    3  A    between atoms: C17_17  and  C18_18 
REMARK    4  A    between atoms: C18_18  and  C19_19 
REMARK    5  A    between atoms: C20_20  and  C22_22 
REMARK    6  A    between atoms: C22_22  and  O2_24 
REMARK    7  A    between atoms: C27_29  and  C28_30 
REMARK    8  A    between atoms: C28_30  and  C29_31 
REMARK    9  A    between atoms: C29_31  and  C30_32 
REMARK   10  A    between atoms: C30_32  and  O4_34 
ROOT
HETATM    1  C1  UNL     1      -1.477  50.449 -15.835  1.00  0.00     0.043 C 
HETATM    2  C2  UNL     1      -0.795  50.778 -17.150  1.00  0.00    -0.085 C 
HETATM    3  C3  UNL     1       0.685  50.509 -17.064  1.00  0.00     0.043 C 
HETATM    4  C4  UNL     1      -1.486  51.203 -18.245  1.00  0.00    -0.073 C 
HETATM    5  C5  UNL     1      -3.006  51.103 -18.234  1.00  0.00     0.035 C 
HETATM    6  C6  UNL     1      -3.640  51.094 -19.624  1.00  0.00     0.010 C 
HETATM    7  C7  UNL     1      -2.856  50.259 -20.674  1.00  0.00     0.003 C 
HETATM    8  C8  UNL     1      -1.277  50.574 -20.699  1.00  0.00    -0.032 C 
HETATM    9  C9  UNL     1      -0.448  49.315 -20.317  1.00  0.00     0.016 C 
HETATM   10  C10 UNL     1      -0.782  50.989 -22.123  1.00  0.00     0.011 C 
HETATM   11  C11 UNL     1      -1.342  50.228 -23.345  1.00  0.00     0.011 C 
HETATM   12  C12 UNL     1      -2.709  49.550 -23.147  1.00  0.00    -0.032 C 
HETATM   13  C13 UNL     1      -2.499  48.063 -22.746  1.00  0.00     0.016 C 
HETATM   14  C14 UNL     1      -3.673  49.580 -24.384  1.00  0.00    -0.002 C 
HETATM   15  C23 UNL     1      -5.085  49.461 -23.740  1.00  0.00     0.006 C 
HETATM   16  C24 UNL     1      -4.911  49.698 -22.224  1.00  0.00     0.011 C 
HETATM   17  C25 UNL     1      -3.530  50.370 -22.088  1.00  0.00    -0.032 C 
HETATM   18  C26 UNL     1      -3.757  51.881 -22.453  1.00  0.00     0.016 C 
HETATM   19  C27 UNL     1      -0.971  51.699 -19.617  1.00  0.00     0.024 C 
ENDROOT
BRANCH  14  20
HETATM   20  C15 UNL     1      -3.466  48.701 -25.659  1.00  0.00    -0.014 C 
HETATM   21  C16 UNL     1      -4.813  48.261 -26.247  1.00  0.00     0.010 C 
BRANCH  20  22
HETATM   22  C17 UNL     1      -2.545  49.260 -26.770  1.00  0.00     0.008 C 
BRANCH  22  23
HETATM   23  C18 UNL     1      -3.127  50.448 -27.556  1.00  0.00     0.028 C 
BRANCH  23  24
HETATM   24  C19 UNL     1      -2.338  51.715 -27.376  1.00  0.00    -0.013 C 
HETATM   25  C20 UNL     1      -1.034  51.844 -27.058  1.00  0.00     0.008 C 
HETATM   26  C21 UNL     1      -0.068  50.726 -26.802  1.00  0.00     0.055 C 
BRANCH  25  27
HETATM   27  C22 UNL     1      -0.516  53.233 -26.948  1.00  0.00     0.171 C 
HETATM   28  O1  UNL     1       0.377  53.626 -26.218  1.00  0.00    -0.646 OA
BRANCH  27  29
HETATM   29  O2  UNL     1      -1.149  54.083 -27.774  1.00  0.00    -0.773 OA
HETATM   30  H35 UNL     1      -0.710  54.940 -27.597  1.00  0.00     0.167 HD
ENDBRANCH  27  29
ENDBRANCH  25  27
ENDBRANCH  23  24
ENDBRANCH  22  23
ENDBRANCH  20  22
ENDBRANCH  14  20
BRANCH  19  31
HETATM   31  C28 UNL     1       0.429  52.372 -19.675  1.00  0.00     0.020 C 
BRANCH  31  32
HETATM   32  C29 UNL     1       0.408  53.770 -20.304  1.00  0.00     0.110 C 
BRANCH  32  33
HETATM   33  C30 UNL     1       1.171  53.896 -21.590  1.00  0.00     0.139 C 
HETATM   34  O3  UNL     1       0.963  53.270 -22.617  1.00  0.00    -0.650 OA
BRANCH  33  35
HETATM   35  O4  UNL     1       2.181  54.781 -21.516  1.00  0.00    -0.776 OA
HETATM   36  H48 UNL     1       2.557  54.772 -22.421  1.00  0.00     0.167 HD
ENDBRANCH  33  35
ENDBRANCH  32  33
ENDBRANCH  31  32
ENDBRANCH  19  31
TORSDOF 10
ENDMDL
