MODEL 1
REMARK minimizedAffinity -7.60767031
REMARK CNNscore 0.416298091
REMARK CNNaffinity 5.71133184
REMARK  8 active torsions:
REMARK  status: ('A' for Active; 'I' for Inactive)
REMARK    1  A    between atoms: C3_3  and  O1_4 
REMARK    2  A    between atoms: N1_14  and  O2_16 
REMARK    3  A    between atoms: O2_16  and  C13_17 
REMARK    4  A    between atoms: C13_17  and  C14_18 
REMARK       I    between atoms: C14_18  and  N2_20 
REMARK    5  A    between atoms: N2_20  and  C15_21 
REMARK    6  A    between atoms: C15_21  and  C16_22 
REMARK    7  A    between atoms: C16_22  and  O4_23 
REMARK    8  A    between atoms: C16_22  and  C17_24 
ROOT
HETATM    1  C1  UNL     1      -2.885 -14.598   1.401  1.00  0.00     0.015 C 
HETATM    2  C2  UNL     1      -2.768 -13.629   2.101  1.00  0.00    -0.078 C 
HETATM    3  C3  UNL     1      -2.609 -12.447   2.963  1.00  0.00     0.128 C 
HETATM    4  C4  UNL     1      -2.261 -11.191   2.158  1.00  0.00     0.052 C 
HETATM    5  C5  UNL     1      -2.469 -10.078   3.178  1.00  0.00     0.010 C 
HETATM    6  C6  UNL     1      -3.778 -10.465   3.876  1.00  0.00     0.002 C 
HETATM    7  C7  UNL     1      -4.033  -9.840   5.269  1.00  0.00    -0.004 C 
HETATM    8  C8  UNL     1      -2.830  -9.777   6.226  1.00  0.00     0.010 C 
HETATM    9  C9  UNL     1      -3.192  -9.125   7.562  1.00  0.00     0.035 C 
HETATM   10  C10 UNL     1      -4.439  -9.691   8.203  1.00  0.00    -0.069 C 
HETATM   11  C11 UNL     1      -4.440 -10.015   9.508  1.00  0.00     0.030 C 
HETATM   12  C12 UNL     1      -5.682 -10.432  10.210  1.00  0.00     0.032 C 
HETATM   13  N1  UNL     1      -5.572 -10.855  11.438  1.00  0.00    -0.271 N 
ATOM     14  H1  UNL     1      -4.686 -10.952  11.934  1.00  0.00     0.194 HD
HETATM   15  C23 UNL     1      -6.991 -10.274   9.465  1.00  0.00     0.060 C 
HETATM   16  C24 UNL     1      -6.799 -10.641   7.998  1.00  0.00     0.020 C 
HETATM   17  C25 UNL     1      -5.664  -9.833   7.299  1.00  0.00    -0.016 C 
HETATM   18  C26 UNL     1      -6.221  -8.415   7.008  1.00  0.00     0.020 C 
HETATM   19  C27 UNL     1      -5.243 -10.534   5.949  1.00  0.00     0.002 C 
HETATM   20  C28 UNL     1      -4.997 -12.063   6.098  1.00  0.00     0.007 C 
HETATM   21  C29 UNL     1      -3.965 -12.683   5.155  1.00  0.00     0.014 C 
HETATM   22  C30 UNL     1      -3.891 -12.027   3.770  1.00  0.00     0.003 C 
HETATM   23  C31 UNL     1      -5.195 -12.363   2.993  1.00  0.00     0.020 C 
ENDROOT
BRANCH   3  24
HETATM   24  O1  UNL     1      -1.510 -12.690   3.848  1.00  0.00    -0.377 OA
HETATM   25  H2  UNL     1      -0.798 -13.087   3.321  1.00  0.00     0.211 HD
ENDBRANCH   3  24
BRANCH  13  26
HETATM   26  O2  UNL     1      -6.822 -11.160  11.991  1.00  0.00    -0.271 OA
BRANCH  26  27
HETATM   27  C13 UNL     1      -7.166 -10.157  12.942  1.00  0.00     0.303 C 
BRANCH  27  28
HETATM   28  C14 UNL     1      -8.672 -10.175  13.185  1.00  0.00     0.243 C 
HETATM   29  O3  UNL     1      -9.478  -9.771  12.351  1.00  0.00    -0.271 OA
HETATM   30  N2  UNL     1      -9.053 -10.700  14.402  1.00  0.00    -0.356 N 
HETATM   31  H16 UNL     1      -8.321 -10.819  15.095  1.00  0.00     0.162 HD
BRANCH  30  32
HETATM   32  C15 UNL     1     -10.437 -10.660  14.847  1.00  0.00     0.159 C 
BRANCH  32  33
HETATM   33  C16 UNL     1     -10.783  -9.409  15.681  1.00  0.00     0.170 C 
BRANCH  33  34
HETATM   34  O4  UNL     1     -12.191  -9.166  15.610  1.00  0.00    -0.389 OA
HETATM   35  H20 UNL     1     -12.366  -8.385  16.163  1.00  0.00     0.210 HD
ENDBRANCH  33  34
BRANCH  33  36
HETATM   36  C17 UNL     1     -10.381  -9.570  17.129  1.00  0.00    -0.013 A 
HETATM   37  C18 UNL     1      -9.610  -8.615  17.799  1.00  0.00     0.013 A 
HETATM   38  C19 UNL     1      -9.295  -8.796  19.142  1.00  0.00     0.025 A 
HETATM   39  C20 UNL     1      -9.771  -9.926  19.798  1.00  0.00     0.005 A 
HETATM   40  C21 UNL     1      -9.446 -10.148  21.246  1.00  0.00     0.068 C 
HETATM   41  N3  UNL     1     -10.529 -10.860  19.178  1.00  0.00    -0.369 N 
HETATM   42  C22 UNL     1     -10.812 -10.665  17.868  1.00  0.00     0.097 A 
ATOM     43  H3  UNL     1     -10.874 -11.679  19.678  1.00  0.00     0.165 HD
ENDBRANCH  33  36
ENDBRANCH  32  33
ENDBRANCH  30  32
ENDBRANCH  27  28
ENDBRANCH  26  27
ENDBRANCH  13  26
TORSDOF 8
ENDMDL
