MODEL 1
REMARK minimizedAffinity -8.03473473
REMARK CNNscore 0.559325814
REMARK CNNaffinity 7.27303553
REMARK  15 active torsions:
REMARK  status: ('A' for Active; 'I' for Inactive)
REMARK    1  A    between atoms: N1_2  and  C2_3 
REMARK    2  A    between atoms: C2_3  and  C3_4 
REMARK    3  A    between atoms: C3_4  and  C4_5 
REMARK    4  A    between atoms: C4_5  and  C5_6 
REMARK    5  A    between atoms: C4_5  and  C6_9 
REMARK    6  A    between atoms: C5_6  and  O2_8 
REMARK    7  A    between atoms: C6_9  and  C7_11 
REMARK    8  A    between atoms: C7_11  and  O4_12 
REMARK    9  A    between atoms: C7_11  and  C8_13 
REMARK   10  A    between atoms: C8_13  and  C9_14 
REMARK   11  A    between atoms: C9_14  and  C11_16 
REMARK   12  A    between atoms: C13_18  and  O5_19 
REMARK   13  A    between atoms: C16_22  and  O6_23 
REMARK   14  A    between atoms: C34_43  and  C35_44 
REMARK   15  A    between atoms: C36_45  and  C37_46 
ROOT
HETATM    1  C11 UNL     1      -0.560  53.203 -10.136  1.00  0.00     0.002 C 
HETATM    2  C12 UNL     1      -0.873  52.565  -8.752  1.00  0.00     0.049 C 
HETATM    3  C13 UNL     1      -0.116  53.391  -7.684  1.00  0.00     0.088 C 
HETATM    4  C14 UNL     1       0.700  52.581  -6.729  1.00  0.00     0.011 C 
HETATM    5  C15 UNL     1       1.852  53.046  -6.224  1.00  0.00     0.015 C 
HETATM    6  C16 UNL     1       2.498  54.358  -6.614  1.00  0.00     0.108 C 
HETATM    7  C17 UNL     1       2.114  54.804  -8.003  1.00  0.00    -0.018 C 
HETATM    8  C18 UNL     1       2.965  55.485  -8.807  1.00  0.00     0.003 C 
HETATM    9  C19 UNL     1       2.537  55.691 -10.260  1.00  0.00     0.157 C 
HETATM   10  O7  UNL     1       3.085  56.527 -10.974  1.00  0.00    -0.293 OA
HETATM   11  C20 UNL     1       1.407  54.839 -10.861  1.00  0.00     0.094 C 
HETATM   12  C21 UNL     1       0.887  53.757  -9.907  1.00  0.00    -0.019 C 
HETATM   13  C22 UNL     1       1.908  52.578  -9.954  1.00  0.00     0.017 C 
HETATM   14  C23 UNL     1       0.718  54.438  -8.499  1.00  0.00     0.026 C 
HETATM   15  C24 UNL     1      -0.097  55.784  -8.534  1.00  0.00     0.025 C 
HETATM   16  C25 UNL     1       4.288  56.118  -8.309  1.00  0.00    -0.007 C 
HETATM   17  C26 UNL     1       5.442  55.834  -9.314  1.00  0.00     0.021 C 
HETATM   18  C27 UNL     1       4.051  57.654  -8.263  1.00  0.00     0.022 C 
HETATM   19  C28 UNL     1       3.215  58.084  -7.068  1.00  0.00     0.080 C 
HETATM   20  C29 UNL     1       3.933  57.792  -5.779  1.00  0.00     0.135 C 
HETATM   21  O8  UNL     1       3.720  58.501  -4.786  1.00  0.00    -0.297 OA
HETATM   22  C30 UNL     1       4.981  56.672  -5.753  1.00  0.00     0.018 C 
HETATM   23  C31 UNL     1       5.003  56.081  -4.327  1.00  0.00     0.023 C 
HETATM   24  C32 UNL     1       6.367  57.353  -5.928  1.00  0.00     0.023 C 
HETATM   25  C33 UNL     1       4.782  55.576  -6.883  1.00  0.00     0.025 C 
HETATM   26  C34 UNL     1       4.044  54.264  -6.454  1.00  0.00     0.057 C 
ENDROOT
BRANCH   1  27
HETATM   27  C9  UNL     1      -0.834  52.227 -11.330  1.00  0.00    -0.011 C 
HETATM   28  C10 UNL     1      -1.937  51.224 -10.976  1.00  0.00     0.010 C 
BRANCH  27  29
HETATM   29  C8  UNL     1       0.483  51.519 -11.766  1.00  0.00     0.044 C 
BRANCH  29  30
HETATM   30  C7  UNL     1       1.089  51.894 -13.132  1.00  0.00     0.188 C 
BRANCH  30  31
HETATM   31  C6  UNL     1       1.476  50.671 -13.986  1.00  0.00     0.169 C 
HETATM   32  O3  UNL     1       0.651  49.792 -14.252  1.00  0.00    -0.294 OA
BRANCH  31  33
HETATM   33  C4  UNL     1       2.932  50.558 -14.399  1.00  0.00     0.157 C 
BRANCH  33  34
HETATM   34  C3  UNL     1       3.512  51.957 -14.686  1.00  0.00     0.053 C 
BRANCH  34  35
HETATM   35  C2  UNL     1       3.334  52.376 -16.151  1.00  0.00     0.270 C 
BRANCH  35  36
HETATM   36  N1  UNL     1       2.120  53.166 -16.385  1.00  0.00     0.079 N 
HETATM   37  C1  UNL     1       1.161  52.473 -17.247  1.00  0.00     0.306 C 
HETATM   38  H4  UNL     1       2.380  54.043 -16.842  1.00  0.00     0.315 HD
ENDBRANCH  35  36
ENDBRANCH  34  35
ENDBRANCH  33  34
BRANCH  33  39
HETATM   39  C5  UNL     1       3.726  49.826 -13.347  1.00  0.00     0.151 C 
HETATM   40  O1  UNL     1       3.356  49.468 -12.246  1.00  0.00    -0.649 OA
BRANCH  39  41
HETATM   41  O2  UNL     1       4.989  49.566 -13.754  1.00  0.00    -0.776 OA
HETATM   42  H10 UNL     1       5.370  49.037 -13.021  1.00  0.00     0.167 HD
ENDBRANCH  39  41
ENDBRANCH  33  39
ENDBRANCH  31  33
ENDBRANCH  30  31
BRANCH  30  43
HETATM   43  O4  UNL     1       0.286  52.858 -13.789  1.00  0.00    -0.388 OA
HETATM   44  H12 UNL     1      -0.560  52.449 -14.039  1.00  0.00     0.210 HD
ENDBRANCH  30  43
ENDBRANCH  29  30
ENDBRANCH  27  29
ENDBRANCH   1  27
BRANCH   3  45
HETATM   45  O5  UNL     1      -1.068  54.039  -6.834  1.00  0.00    -0.385 OA
HETATM   46  H22 UNL     1      -1.632  53.361  -6.430  1.00  0.00     0.211 HD
ENDBRANCH   3  45
BRANCH   6  47
HETATM   47  O6  UNL     1       1.995  55.327  -5.700  1.00  0.00    -0.380 OA
HETATM   48  H25 UNL     1       1.021  55.298  -5.767  1.00  0.00     0.211 HD
ENDBRANCH   6  47
BRANCH  26  49
HETATM   49  C35 UNL     1       4.656  53.059  -7.177  1.00  0.00    -0.017 C 
HETATM   50  C36 UNL     1       5.969  52.944  -7.437  1.00  0.00     0.008 C 
BRANCH  50  51
HETATM   51  C37 UNL     1       6.587  51.777  -8.089  1.00  0.00    -0.036 A 
HETATM   52  C38 UNL     1       7.296  50.864  -7.305  1.00  0.00     0.011 A 
HETATM   53  C39 UNL     1       7.862  49.720  -7.875  1.00  0.00     0.001 A 
HETATM   54  C40 UNL     1       7.700  49.473  -9.236  1.00  0.00     0.000 A 
HETATM   55  C41 UNL     1       6.976  50.364 -10.029  1.00  0.00     0.001 A 
HETATM   56  C42 UNL     1       6.426  51.512  -9.456  1.00  0.00     0.011 A 
ENDBRANCH  50  51
ENDBRANCH  26  49
TORSDOF 15
ENDMDL
