MODEL 1
REMARK minimizedAffinity -9.83001423
REMARK  8 active torsions:
REMARK  status: ('A' for Active; 'I' for Inactive)
REMARK    1  A    between atoms: C12_14  and  C13_15 
REMARK    2  A    between atoms: C13_15  and  C15_17 
REMARK    3  A    between atoms: C15_17  and  C16_18 
REMARK    4  A    between atoms: C16_18  and  C17_19 
REMARK    5  A    between atoms: C26_28  and  C27_29 
REMARK    6  A    between atoms: C27_29  and  C28_30 
REMARK    7  A    between atoms: C28_30  and  C29_31 
REMARK    8  A    between atoms: C29_31  and  O4_33 
ROOT
HETATM    1  C1  UNL     1      -0.377  49.210 -16.595  1.00  0.00     0.025 C 
HETATM    2  C2  UNL     1      -1.406  49.408 -17.427  1.00  0.00     0.015 C 
HETATM    3  C3  UNL     1      -2.488  48.415 -17.607  1.00  0.00     0.289 C 
HETATM    4  O1  UNL     1      -2.490  47.266 -17.208  1.00  0.00    -0.260 OA
HETATM    5  O2  UNL     1      -3.481  49.009 -18.321  1.00  0.00    -0.311 OA
HETATM    6  C4  UNL     1      -3.216  50.414 -18.431  1.00  0.00     0.142 C 
HETATM    7  C5  UNL     1      -3.788  50.976 -19.725  1.00  0.00     0.039 C 
HETATM    8  C6  UNL     1      -3.146  50.320 -20.956  1.00  0.00     0.006 C 
HETATM    9  C7  UNL     1      -1.620  50.574 -20.965  1.00  0.00    -0.027 A 
HETATM   10  C8  UNL     1      -1.063  51.321 -22.178  1.00  0.00     0.011 C 
HETATM   11  C9  UNL     1      -1.641  50.931 -23.552  1.00  0.00     0.011 C 
HETATM   12  C10 UNL     1      -2.966  50.155 -23.499  1.00  0.00    -0.032 C 
HETATM   13  C11 UNL     1      -2.632  48.636 -23.382  1.00  0.00     0.016 C 
HETATM   14  C12 UNL     1      -3.943  50.357 -24.707  1.00  0.00    -0.002 C 
HETATM   15  C21 UNL     1      -5.324  49.995 -24.087  1.00  0.00     0.006 C 
HETATM   16  C22 UNL     1      -5.175  50.028 -22.557  1.00  0.00     0.011 C 
HETATM   17  C23 UNL     1      -3.820  50.713 -22.303  1.00  0.00    -0.032 C 
HETATM   18  C24 UNL     1      -4.095  52.250 -22.359  1.00  0.00     0.016 C 
HETATM   19  C25 UNL     1      -0.749  49.460 -20.425  1.00  0.00     0.022 A 
HETATM   20  C26 UNL     1      -0.910  50.709 -19.585  1.00  0.00    -0.021 A 
HETATM   21  C30 UNL     1      -1.712  50.598 -18.273  1.00  0.00     0.063 C 
ENDROOT
BRANCH  14  22
HETATM   22  C13 UNL     1      -3.686  49.617 -26.058  1.00  0.00    -0.014 C 
HETATM   23  C14 UNL     1      -4.382  48.252 -26.104  1.00  0.00     0.010 C 
BRANCH  22  24
HETATM   24  C15 UNL     1      -2.156  49.452 -26.298  1.00  0.00     0.008 C 
BRANCH  24  25
HETATM   25  C16 UNL     1      -1.457  50.731 -26.773  1.00  0.00     0.028 C 
BRANCH  25  26
HETATM   26  C17 UNL     1      -0.001  50.947 -26.439  1.00  0.00    -0.025 C 
HETATM   27  C18 UNL     1       1.056  51.354 -27.171  1.00  0.00    -0.091 C 
HETATM   28  C19 UNL     1       2.429  51.407 -26.545  1.00  0.00     0.042 C 
HETATM   29  C20 UNL     1       1.023  51.801 -28.604  1.00  0.00     0.042 C 
ENDBRANCH  25  26
ENDBRANCH  24  25
ENDBRANCH  22  24
ENDBRANCH  14  22
BRANCH  20  30
HETATM   30  C27 UNL     1       0.348  51.574 -19.443  1.00  0.00     0.021 C 
BRANCH  30  31
HETATM   31  C28 UNL     1       0.647  52.415 -20.684  1.00  0.00     0.111 C 
BRANCH  31  32
HETATM   32  C29 UNL     1       0.911  53.848 -20.314  1.00  0.00     0.139 C 
HETATM   33  O3  UNL     1       1.618  54.647 -20.902  1.00  0.00    -0.650 OA
BRANCH  32  34
HETATM   34  O4  UNL     1       0.271  54.202 -19.182  1.00  0.00    -0.776 OA
HETATM   35  H43 UNL     1       0.528  55.139 -19.046  1.00  0.00     0.167 HD
ENDBRANCH  32  34
ENDBRANCH  31  32
ENDBRANCH  30  31
ENDBRANCH  20  30
TORSDOF 8
ENDMDL
