MODEL 1
REMARK minimizedAffinity -9.68979168
REMARK  8 active torsions:
REMARK  status: ('A' for Active; 'I' for Inactive)
REMARK    1  A    between atoms: C4_4  and  C5_5 
REMARK    2  A    between atoms: C5_5  and  C6_6 
REMARK    3  A    between atoms: C6_6  and  C7_7 
REMARK    4  A    between atoms: C7_7  and  C9_9 
REMARK    5  A    between atoms: C18_18  and  C20_20 
REMARK    6  A    between atoms: C20_20  and  O2_22 
REMARK    7  A    between atoms: C21_23  and  O3_24 
REMARK    8  A    between atoms: C23_26  and  O4_27 
ROOT
HETATM    1  C9  UNL     1      -1.313  51.998 -23.185  1.00  0.00    -0.002 C 
HETATM    2  C10 UNL     1      -0.553  51.429 -24.403  1.00  0.00     0.006 C 
HETATM    3  C11 UNL     1      -1.464  50.364 -25.045  1.00  0.00     0.011 C 
HETATM    4  C12 UNL     1      -2.822  50.477 -24.325  1.00  0.00    -0.032 C 
HETATM    5  C13 UNL     1      -3.659  51.553 -25.085  1.00  0.00     0.016 C 
HETATM    6  C14 UNL     1      -3.625  49.155 -24.246  1.00  0.00     0.004 C 
HETATM    7  C15 UNL     1      -4.051  48.608 -25.625  1.00  0.00     0.007 C 
HETATM    8  C16 UNL     1      -5.552  48.636 -25.882  1.00  0.00     0.007 C 
HETATM    9  C17 UNL     1      -6.271  47.793 -24.821  1.00  0.00     0.018 C 
HETATM   10  C18 UNL     1      -7.741  47.387 -25.170  1.00  0.00     0.072 C 
HETATM   11  C19 UNL     1      -7.722  46.276 -26.256  1.00  0.00     0.030 C 
HETATM   12  C21 UNL     1      -8.410  46.819 -23.894  1.00  0.00     0.139 C 
HETATM   13  C22 UNL     1      -8.423  47.789 -22.700  1.00  0.00     0.065 C 
HETATM   14  C23 UNL     1      -7.391  48.914 -22.793  1.00  0.00     0.130 C 
HETATM   15  C24 UNL     1      -6.101  48.464 -23.449  1.00  0.00    -0.001 A 
HETATM   16  C25 UNL     1      -5.062  47.891 -22.514  1.00  0.00     0.024 A 
HETATM   17  C26 UNL     1      -4.761  49.219 -23.184  1.00  0.00    -0.025 A 
HETATM   18  C27 UNL     1      -4.846  50.476 -22.294  1.00  0.00     0.011 C 
HETATM   19  C28 UNL     1      -3.606  51.371 -22.120  1.00  0.00     0.011 C 
HETATM   20  C29 UNL     1      -2.374  50.892 -22.882  1.00  0.00    -0.032 C 
HETATM   21  C30 UNL     1      -1.729  49.744 -22.056  1.00  0.00     0.016 C 
ENDROOT
BRANCH   1  22
HETATM   22  C7  UNL     1      -0.466  52.544 -21.996  1.00  0.00    -0.014 C 
HETATM   23  C8  UNL     1       0.826  53.183 -22.525  1.00  0.00     0.010 C 
BRANCH  22  24
HETATM   24  C6  UNL     1      -0.191  51.564 -20.828  1.00  0.00     0.008 C 
BRANCH  24  25
HETATM   25  C5  UNL     1      -0.697  51.958 -19.425  1.00  0.00     0.028 C 
BRANCH  25  26
HETATM   26  C4  UNL     1       0.403  52.426 -18.510  1.00  0.00    -0.025 C 
HETATM   27  C2  UNL     1       0.883  51.825 -17.404  1.00  0.00    -0.091 C 
HETATM   28  C1  UNL     1       0.379  50.532 -16.827  1.00  0.00     0.042 C 
HETATM   29  C3  UNL     1       2.019  52.441 -16.631  1.00  0.00     0.042 C 
ENDBRANCH  25  26
ENDBRANCH  24  25
ENDBRANCH  22  24
ENDBRANCH   1  22
BRANCH  14  30
HETATM   30  O4  UNL     1      -7.919  50.014 -23.530  1.00  0.00    -0.395 OA
HETATM   31  H39 UNL     1      -8.611  50.422 -22.982  1.00  0.00     0.210 HD
ENDBRANCH  14  30
BRANCH  10  32
HETATM   32  C20 UNL     1      -8.581  48.501 -25.798  1.00  0.00     0.151 C 
HETATM   33  O1  UNL     1      -9.070  48.516 -26.918  1.00  0.00    -0.649 OA
BRANCH  32  34
HETATM   34  O2  UNL     1      -8.908  49.499 -24.950  1.00  0.00    -0.776 OA
HETATM   35  H33 UNL     1      -9.460  50.078 -25.517  1.00  0.00     0.167 HD
ENDBRANCH  32  34
ENDBRANCH  10  32
BRANCH  12  36
HETATM   36  O3  UNL     1      -7.725  45.619 -23.481  1.00  0.00    -0.394 OA
HETATM   37  H35 UNL     1      -8.277  45.187 -22.808  1.00  0.00     0.210 HD
ENDBRANCH  12  36
TORSDOF 8
ENDMDL
