MODEL 1
REMARK minimizedAffinity -7.7209096
REMARK  9 active torsions:
REMARK  status: ('A' for Active; 'I' for Inactive)
REMARK    1  A    between atoms: O1_2  and  C2_3 
REMARK    2  A    between atoms: C2_3  and  C3_4 
REMARK    3  A    between atoms: C3_4  and  N1_5 
REMARK       I    between atoms: N1_5  and  C4_6 
REMARK    4  A    between atoms: C4_6  and  C5_8 
REMARK    5  A    between atoms: C5_8  and  C6_9 
REMARK    6  A    between atoms: C6_9  and  C7_10 
REMARK    7  A    between atoms: C10_13  and  O3_15 
REMARK    8  A    between atoms: C18_22  and  N2_23 
REMARK    9  A    between atoms: N2_23  and  C19_24 
ROOT
HETATM    1  C7  UNL     1      -2.728  50.618 -25.144  1.00  0.00    -0.005 C 
HETATM    2  C8  UNL     1      -3.244  51.596 -26.249  1.00  0.00     0.015 C 
HETATM    3  C9  UNL     1      -2.239  52.624 -26.754  1.00  0.00     0.038 C 
HETATM    4  C10 UNL     1      -0.881  52.017 -27.095  1.00  0.00     0.054 C 
HETATM    5  C11 UNL     1       0.093  53.115 -27.539  1.00  0.00     0.045 C 
HETATM    6  C12 UNL     1      -0.282  51.173 -25.957  1.00  0.00     0.043 C 
HETATM    7  C13 UNL     1      -1.217  50.831 -24.780  1.00  0.00     0.007 C 
HETATM    8  C14 UNL     1      -1.174  51.816 -23.546  1.00  0.00    -0.041 C 
HETATM    9  C15 UNL     1      -0.553  51.086 -22.330  1.00  0.00     0.015 C 
HETATM   10  C16 UNL     1      -0.370  53.118 -23.701  1.00  0.00     0.015 C 
HETATM   11  C17 UNL     1      -2.655  52.160 -23.279  1.00  0.00     0.045 C 
HETATM   12  C18 UNL     1      -3.476  50.963 -23.786  1.00  0.00     0.230 C 
ENDROOT
BRANCH   1  13
HETATM   13  C6  UNL     1      -3.040  49.144 -25.573  1.00  0.00     0.021 C 
BRANCH  13  14
HETATM   14  C5  UNL     1      -4.458  48.817 -26.045  1.00  0.00     0.103 C 
BRANCH  14  15
HETATM   15  C4  UNL     1      -4.470  48.294 -27.472  1.00  0.00     0.217 C 
HETATM   16  N1  UNL     1      -5.746  48.064 -27.944  1.00  0.00    -0.359 N 
HETATM   17  H8  UNL     1      -6.510  48.083 -27.281  1.00  0.00     0.162 HD
HETATM   18  O2  UNL     1      -3.461  48.108 -28.141  1.00  0.00    -0.274 OA
BRANCH  16  19
HETATM   19  C3  UNL     1      -5.981  47.475 -29.248  1.00  0.00     0.148 C 
BRANCH  19  20
HETATM   20  C2  UNL     1      -5.701  48.432 -30.412  1.00  0.00     0.186 C 
BRANCH  20  21
HETATM   21  O1  UNL     1      -4.676  47.922 -31.270  1.00  0.00    -0.394 OA
HETATM   22  C1  UNL     1      -5.017  48.004 -32.647  1.00  0.00     0.201 C 
ENDBRANCH  20  21
ENDBRANCH  19  20
ENDBRANCH  16  19
ENDBRANCH  14  15
ENDBRANCH  13  14
ENDBRANCH   1  13
BRANCH  12  23
HETATM   23  N2  UNL     1      -3.490  49.871 -22.800  1.00  0.00     0.093 N 
HETATM   24  H33 UNL     1      -3.094  49.027 -23.216  1.00  0.00     0.316 HD
BRANCH  23  25
HETATM   25  C19 UNL     1      -4.822  49.521 -22.278  1.00  0.00     0.225 C 
HETATM   26  C20 UNL     1      -4.963  49.799 -20.771  1.00  0.00     0.062 C 
HETATM   27  C21 UNL     1      -6.410  50.086 -20.375  1.00  0.00     0.169 C 
HETATM   28  O4  UNL     1      -7.308  49.406 -21.244  1.00  0.00    -0.391 OA
HETATM   29  C22 UNL     1      -7.282  49.933 -22.573  1.00  0.00     0.169 C 
HETATM   30  C23 UNL     1      -5.879  50.317 -23.044  1.00  0.00     0.062 C 
ENDBRANCH  23  25
ENDBRANCH  12  23
BRANCH   4  31
HETATM   31  O3  UNL     1      -1.075  51.156 -28.230  1.00  0.00    -0.390 OA
HETATM   32  H20 UNL     1      -0.195  50.899 -28.557  1.00  0.00     0.210 HD
ENDBRANCH   4  31
TORSDOF 9
ENDMDL
