MODEL 1
REMARK minimizedAffinity -7.59809971
REMARK  9 active torsions:
REMARK  status: ('A' for Active; 'I' for Inactive)
REMARK    1  A    between atoms: C1_2  and  C2_3 
REMARK       I    between atoms: C1_2  and  N1_6 
REMARK    2  A    between atoms: N1_6  and  C3_7 
REMARK    3  A    between atoms: N1_6  and  C5_10 
REMARK    4  A    between atoms: C3_7  and  C4_8 
REMARK    5  A    between atoms: C4_8  and  O2_9 
REMARK    6  A    between atoms: C5_10  and  C6_11 
REMARK    7  A    between atoms: C9_14  and  O3_15 
REMARK    8  A    between atoms: O3_15  and  C10_16 
REMARK    9  A    between atoms: C13_19  and  N2_20 
ROOT
HETATM    1  C6  UNL     1       0.617  53.405 -23.882  1.00  0.00    -0.040 A 
HETATM    2  C7  UNL     1       0.289  52.249 -23.159  1.00  0.00     0.011 A 
HETATM    3  C8  UNL     1       0.552  52.168 -21.790  1.00  0.00     0.038 A 
HETATM    4  C9  UNL     1       1.161  53.241 -21.137  1.00  0.00     0.076 A 
HETATM    5  C16 UNL     1       1.471  54.406 -21.837  1.00  0.00     0.038 A 
HETATM    6  C17 UNL     1       1.207  54.485 -23.205  1.00  0.00     0.011 A 
ENDROOT
BRANCH   1   7
HETATM    7  C5  UNL     1       0.318  53.506 -25.360  1.00  0.00     0.164 C 
BRANCH   7   8
HETATM    8  N1  UNL     1      -0.045  52.206 -25.935  1.00  0.00    -0.344 N 
HETATM    9  C1  UNL     1      -1.408  51.929 -26.118  1.00  0.00     0.253 C 
HETATM   10  O1  UNL     1      -2.252  52.802 -25.884  1.00  0.00    -0.270 OA
BRANCH   9  11
HETATM   11  C2  UNL     1      -1.821  50.530 -26.605  1.00  0.00     0.270 C 
HETATM   12 CL1  UNL     1      -3.035  50.701 -27.891  1.00  0.00    -0.098 Cl
HETATM   13 CL2  UNL     1      -2.496  49.568 -25.263  1.00  0.00    -0.098 Cl
ENDBRANCH   9  11
BRANCH   8  14
HETATM   14  C3  UNL     1       1.062  51.305 -26.284  1.00  0.00     0.152 C 
BRANCH  14  15
HETATM   15  C4  UNL     1       1.919  51.825 -27.443  1.00  0.00     0.184 C 
BRANCH  15  16
HETATM   16  O2  UNL     1       3.272  51.441 -27.234  1.00  0.00    -0.399 OA
HETATM   17  H6  UNL     1       3.777  51.733 -28.014  1.00  0.00     0.209 HD
ENDBRANCH  15  16
ENDBRANCH  14  15
ENDBRANCH   8  14
ENDBRANCH   7   8
ENDBRANCH   1   7
BRANCH   4  18
HETATM   18  O3  UNL     1       1.414  53.233 -19.784  1.00  0.00    -0.311 OA
BRANCH  18  19
HETATM   19  C10 UNL     1       0.529  52.547 -18.983  1.00  0.00     0.076 A 
HETATM   20  C11 UNL     1      -0.817  52.372 -19.318  1.00  0.00     0.040 A 
HETATM   21  C12 UNL     1      -1.653  51.632 -18.478  1.00  0.00     0.039 A 
HETATM   22  C13 UNL     1      -1.129  51.057 -17.311  1.00  0.00     0.103 A 
HETATM   23  C14 UNL     1       0.226  51.213 -16.985  1.00  0.00     0.039 A 
HETATM   24  C15 UNL     1       1.054  51.955 -17.831  1.00  0.00     0.040 A 
BRANCH  22  25
HETATM   25  N2  UNL     1      -2.006  50.279 -16.426  1.00  0.00    -0.116 N 
HETATM   26  O4  UNL     1      -1.469  49.562 -15.570  1.00  0.00    -0.532 OA
HETATM   27  O5  UNL     1      -3.229  50.385 -16.591  1.00  0.00    -0.532 OA
ENDBRANCH  22  25
ENDBRANCH  18  19
ENDBRANCH   4  18
TORSDOF 9
ENDMDL
