MODEL 1
REMARK minimizedAffinity -8.63444614
REMARK CNNscore 0.615528643
REMARK CNNaffinity 6.99376869
REMARK  7 active torsions:
REMARK  status: ('A' for Active; 'I' for Inactive)
REMARK    1  A    between atoms: C2_2  and  C3_3 
REMARK    2  A    between atoms: C2_2  and  C4_5 
REMARK    3  A    between atoms: C3_3  and  O1_4 
REMARK    4  A    between atoms: C13_14  and  C14_15 
REMARK    5  A    between atoms: C14_15  and  C16_17 
REMARK    6  A    between atoms: C16_17  and  C17_18 
REMARK    7  A    between atoms: C17_18  and  C18_20 
ROOT
HETATM    1  C4  UNL     1       2.485   6.298  10.899  1.00  0.00     0.051 C 
HETATM    2  C5  UNL     1       1.503   5.298  11.567  1.00  0.00     0.012 C 
HETATM    3  C6  UNL     1      -0.002   5.553  11.506  1.00  0.00     0.006 C 
HETATM    4  C7  UNL     1      -0.564   6.872  12.094  1.00  0.00    -0.001 C 
HETATM    5  C8  UNL     1       0.488   7.997  12.320  1.00  0.00    -0.007 C 
HETATM    6  C9  UNL     1      -0.069   9.248  13.060  1.00  0.00     0.006 C 
HETATM    7  C10 UNL     1      -1.026   8.980  14.232  1.00  0.00     0.011 C 
HETATM    8  C11 UNL     1      -2.116   7.971  13.843  1.00  0.00    -0.032 C 
HETATM    9  C12 UNL     1      -3.007   8.611  12.732  1.00  0.00     0.016 C 
HETATM   10  C13 UNL     1      -3.039   7.453  14.991  1.00  0.00    -0.002 C 
HETATM   11  C22 UNL     1      -3.545   6.095  14.423  1.00  0.00     0.006 C 
HETATM   12  C23 UNL     1      -2.599   5.687  13.275  1.00  0.00     0.011 C 
HETATM   13  C24 UNL     1      -1.394   6.637  13.400  1.00  0.00    -0.032 C 
HETATM   14  C25 UNL     1      -0.458   6.023  14.497  1.00  0.00     0.016 C 
HETATM   15  C26 UNL     1       1.150   8.498  11.016  1.00  0.00     0.044 C 
HETATM   16  C27 UNL     1       1.840   7.462  10.084  1.00  0.00     0.079 C 
HETATM   17  C28 UNL     1       0.928   7.079   8.919  1.00  0.00     0.049 C 
HETATM   18  C29 UNL     1       1.203   8.119   7.855  1.00  0.00     0.114 C 
HETATM   19  C30 UNL     1       2.580   8.587   8.186  1.00  0.00     0.259 C 
HETATM   20  O3  UNL     1       3.298   9.245   7.453  1.00  0.00    -0.265 OA
HETATM   21  O4  UNL     1       2.921   8.197   9.445  1.00  0.00    -0.309 OA
ENDROOT
BRANCH  10  22
HETATM   22  C14 UNL     1      -4.211   8.330  15.517  1.00  0.00    -0.007 C 
HETATM   23  C15 UNL     1      -5.407   8.371  14.561  1.00  0.00     0.011 C 
BRANCH  22  24
HETATM   24  C16 UNL     1      -3.769   9.773  15.868  1.00  0.00     0.087 C 
BRANCH  24  25
HETATM   25  C17 UNL     1      -3.048   9.906  17.201  1.00  0.00     0.149 C 
HETATM   26  O2  UNL     1      -1.934   9.418  17.368  1.00  0.00    -0.293 OA
BRANCH  25  27
HETATM   27  C18 UNL     1      -3.743  10.690  18.271  1.00  0.00     0.052 C 
HETATM   28  C19 UNL     1      -3.691  12.026  18.430  1.00  0.00    -0.084 C 
HETATM   29  C20 UNL     1      -4.480  12.699  19.522  1.00  0.00     0.043 C 
HETATM   30  C21 UNL     1      -2.884  12.949  17.558  1.00  0.00     0.043 C 
ENDBRANCH  25  27
ENDBRANCH  24  25
ENDBRANCH  22  24
ENDBRANCH  10  22
BRANCH   1  31
HETATM   31  C2  UNL     1       3.646   5.497  10.262  1.00  0.00    -0.059 C 
HETATM   32  C1  UNL     1       3.533   4.494   9.373  1.00  0.00     0.017 C 
BRANCH  31  33
HETATM   33  C3  UNL     1       5.033   5.930  10.695  1.00  0.00     0.198 C 
BRANCH  33  34
HETATM   34  O1  UNL     1       5.950   4.871  10.465  1.00  0.00    -0.397 OA
HETATM   35  H5  UNL     1       5.490   4.046  10.705  1.00  0.00     0.209 HD
ENDBRANCH  33  34
ENDBRANCH  31  33
ENDBRANCH   1  31
TORSDOF 7
ENDMDL
