MODEL 1
REMARK minimizedAffinity -9.97557926
REMARK CNNscore 0.752747357
REMARK CNNaffinity 7.02137232
REMARK  8 active torsions:
REMARK  status: ('A' for Active; 'I' for Inactive)
REMARK    1  A    between atoms: C2_2  and  C30_35 
REMARK    2  A    between atoms: C3_3  and  C4_4 
REMARK    3  A    between atoms: C4_4  and  O1_5 
REMARK    4  A    between atoms: C4_4  and  C5_6 
REMARK    5  A    between atoms: C5_6  and  C6_7 
REMARK    6  A    between atoms: C6_7  and  C8_9 
REMARK    7  A    between atoms: C29_33  and  O5_34 
REMARK    8  A    between atoms: C30_35  and  O7_37 
ROOT
HETATM    1  C8  UNL     1      -0.929  49.483 -18.190  1.00  0.00     0.006 C 
HETATM    2  C9  UNL     1      -1.825  48.247 -17.926  1.00  0.00     0.085 C 
HETATM    3  C10 UNL     1      -2.555  48.061 -19.240  1.00  0.00     0.140 C 
HETATM    4  O2  UNL     1      -3.331  47.135 -19.456  1.00  0.00    -0.297 OA
HETATM    5  C11 UNL     1      -2.136  49.114 -20.275  1.00  0.00     0.051 C 
HETATM    6  C12 UNL     1      -0.984  48.408 -21.053  1.00  0.00     0.029 C 
HETATM    7  C13 UNL     1      -3.075  49.681 -21.323  1.00  0.00    -0.024 C 
HETATM    8  C14 UNL     1      -2.740  50.833 -21.966  1.00  0.00     0.003 C 
HETATM    9  C15 UNL     1      -1.555  51.635 -21.439  1.00  0.00     0.157 C 
HETATM   10  O3  UNL     1      -1.092  52.577 -22.085  1.00  0.00    -0.293 OA
HETATM   11  C16 UNL     1      -0.903  51.275 -20.104  1.00  0.00     0.094 C 
HETATM   12  C17 UNL     1      -1.712  50.263 -19.295  1.00  0.00    -0.015 C 
HETATM   13  C18 UNL     1      -2.939  51.006 -18.685  1.00  0.00     0.018 C 
HETATM   14  C19 UNL     1      -3.505  51.378 -23.194  1.00  0.00    -0.008 C 
HETATM   15  C20 UNL     1      -4.335  52.594 -22.704  1.00  0.00     0.021 C 
HETATM   16  C21 UNL     1      -2.547  51.873 -24.326  1.00  0.00     0.022 C 
HETATM   17  C22 UNL     1      -3.136  51.770 -25.723  1.00  0.00     0.080 C 
HETATM   18  C23 UNL     1      -3.427  50.327 -26.068  1.00  0.00     0.135 C 
HETATM   19  O4  UNL     1      -3.310  49.934 -27.230  1.00  0.00    -0.297 OA
HETATM   20  C24 UNL     1      -3.880  49.399 -24.927  1.00  0.00     0.018 C 
HETATM   21  C25 UNL     1      -2.665  48.548 -24.532  1.00  0.00     0.023 C 
HETATM   22  C26 UNL     1      -4.953  48.450 -25.508  1.00  0.00     0.023 C 
HETATM   23  C27 UNL     1      -4.494  50.303 -23.798  1.00  0.00     0.016 C 
HETATM   24  C28 UNL     1      -5.229  49.565 -22.674  1.00  0.00     0.043 C 
HETATM   25  C29 UNL     1      -4.316  48.893 -21.655  1.00  0.00     0.149 C 
ENDROOT
BRANCH   1  26
HETATM   26  C6  UNL     1      -0.406  50.157 -16.888  1.00  0.00    -0.011 C 
HETATM   27  C7  UNL     1      -1.468  50.619 -15.882  1.00  0.00     0.010 C 
BRANCH  26  28
HETATM   28  C5  UNL     1       0.613  51.284 -17.204  1.00  0.00     0.040 C 
BRANCH  28  29
HETATM   29  C4  UNL     1       0.969  52.172 -15.998  1.00  0.00     0.142 C 
BRANCH  29  30
HETATM   30  C3  UNL     1       1.877  51.432 -15.047  1.00  0.00     0.018 C 
HETATM   31  C2  UNL     1       3.224  51.398 -14.957  1.00  0.00     0.010 C 
HETATM   32  C1  UNL     1       4.173  52.154 -15.845  1.00  0.00     0.055 C 
BRANCH  31  33
HETATM   33  C30 UNL     1       3.878  50.569 -13.907  1.00  0.00     0.171 C 
HETATM   34  O6  UNL     1       4.879  49.888 -14.060  1.00  0.00    -0.646 OA
BRANCH  33  35
HETATM   35  O7  UNL     1       3.261  50.610 -12.714  1.00  0.00    -0.773 OA
HETATM   36  H42 UNL     1       3.804  50.007 -12.161  1.00  0.00     0.167 HD
ENDBRANCH  33  35
ENDBRANCH  31  33
ENDBRANCH  29  30
BRANCH  29  37
HETATM   37  O1  UNL     1       1.557  53.374 -16.453  1.00  0.00    -0.392 OA
HETATM   38  H6  UNL     1       1.454  54.028 -15.737  1.00  0.00     0.210 HD
ENDBRANCH  29  37
ENDBRANCH  28  29
ENDBRANCH  26  28
ENDBRANCH   1  26
BRANCH  25  39
HETATM   39  O5  UNL     1      -5.099  48.760 -20.470  1.00  0.00    -0.391 OA
HETATM   40  H41 UNL     1      -4.849  47.898 -20.074  1.00  0.00     0.210 HD
ENDBRANCH  25  39
TORSDOF 8
ENDMDL
