MODEL 1
REMARK minimizedAffinity -7.54546165
REMARK CNNscore 0.395361334
REMARK CNNaffinity 7.00032234
REMARK  6 active torsions:
REMARK  status: ('A' for Active; 'I' for Inactive)
REMARK    1  A    between atoms: C3_3  and  C4_4 
REMARK    2  A    between atoms: C4_4  and  O1_5 
REMARK    3  A    between atoms: C7_9  and  O3_10 
REMARK    4  A    between atoms: C25_30  and  C26_31 
REMARK    5  A    between atoms: C39_45  and  O7_47 
REMARK    6  A    between atoms: C41_48  and  O8_49 
ROOT
HETATM    1  C1  UNL     1      -5.158  42.951  -8.291  1.00  0.00     0.013 C 
HETATM    2  C2  UNL     1      -4.602  44.366  -8.160  1.00  0.00     0.023 C 
HETATM    3  C3  UNL     1      -5.671  45.327  -7.568  1.00  0.00     0.047 C 
HETATM    4  C5  UNL     1      -5.975  46.359  -8.682  1.00  0.00     0.160 C 
HETATM    5  O2  UNL     1      -5.519  45.670  -9.852  1.00  0.00    -0.373 OA
HETATM    6  C6  UNL     1      -4.279  45.028  -9.496  1.00  0.00     0.167 C 
HETATM    7  C7  UNL     1      -3.750  44.229 -10.700  1.00  0.00     0.226 C 
HETATM    8  C8  UNL     1      -3.546  45.210 -11.786  1.00  0.00    -0.072 C 
HETATM    9  C9  UNL     1      -3.565  46.191 -12.481  1.00  0.00    -0.103 C 
HETATM   10  C10 UNL     1      -3.789  47.442 -13.207  1.00  0.00     0.099 C 
HETATM   11  C11 UNL     1      -2.993  48.667 -12.740  1.00  0.00     0.009 C 
HETATM   12  C12 UNL     1      -1.447  48.417 -13.003  1.00  0.00     0.016 C 
HETATM   13  C13 UNL     1      -0.642  49.728 -12.940  1.00  0.00     0.027 C 
HETATM   14  C14 UNL     1      -1.442  50.957 -12.521  1.00  0.00    -0.036 C 
HETATM   15  C15 UNL     1      -1.200  51.983 -13.391  1.00  0.00     0.057 C 
HETATM   16  C16 UNL     1       0.256  52.061 -13.794  1.00  0.00     0.154 C 
HETATM   17  O4  UNL     1       0.651  52.643 -14.789  1.00  0.00    -0.293 OA
HETATM   18  C17 UNL     1       1.133  51.432 -12.725  1.00  0.00     0.071 C 
HETATM   19  C18 UNL     1       2.533  51.919 -12.432  1.00  0.00     0.045 C 
HETATM   20  C19 UNL     1       2.680  51.805 -10.894  1.00  0.00     0.122 C 
HETATM   21  C20 UNL     1       2.514  50.303 -10.519  1.00  0.00     0.033 C 
HETATM   22  C21 UNL     1       1.183  49.654 -11.008  1.00  0.00     0.013 C 
HETATM   23  C22 UNL     1       0.860  49.912 -12.506  1.00  0.00    -0.026 C 
HETATM   24  C23 UNL     1       1.754  49.029 -13.394  1.00  0.00     0.016 C 
HETATM   25  O5  UNL     1       1.646  52.525 -10.168  1.00  0.00    -0.384 OA
HETATM   26  C24 UNL     1       1.551  53.938 -10.407  1.00  0.00     0.190 C 
HETATM   27  C25 UNL     1       0.200  54.593  -9.965  1.00  0.00     0.121 C 
HETATM   28  C32 UNL     1      -1.015  54.112 -10.700  1.00  0.00    -0.093 C 
HETATM   29  C33 UNL     1      -2.074  53.754 -11.162  1.00  0.00    -0.080 C 
HETATM   30  C34 UNL     1      -3.419  53.227 -11.563  1.00  0.00     0.263 C 
HETATM   31  O6  UNL     1      -3.525  51.822 -11.974  1.00  0.00    -0.363 OA
HETATM   32  C35 UNL     1      -2.549  50.861 -11.457  1.00  0.00     0.094 C 
HETATM   33  C36 UNL     1      -2.465  51.131  -9.933  1.00  0.00     0.044 C 
HETATM   34  C37 UNL     1      -3.864  50.664  -9.433  1.00  0.00     0.012 C 
HETATM   35  C38 UNL     1      -4.442  49.653 -10.499  1.00  0.00     0.034 C 
HETATM   36  C39 UNL     1      -5.594  48.749  -9.886  1.00  0.00     0.087 C 
HETATM   37  C40 UNL     1      -6.426  48.116 -11.012  1.00  0.00     0.049 C 
HETATM   38  C41 UNL     1      -5.372  47.804  -8.610  1.00  0.00     0.181 C 
HETATM   39  C42 UNL     1      -3.131  49.293 -11.302  1.00  0.00     0.002 C 
HETATM   40  C43 UNL     1      -2.249  48.409 -10.346  1.00  0.00     0.019 C 
ENDROOT
BRANCH  27  41
HETATM   41  C26 UNL     1      -0.071  54.641  -8.464  1.00  0.00    -0.040 A 
HETATM   42  C27 UNL     1      -0.750  53.627  -7.771  1.00  0.00     0.008 A 
HETATM   43  C28 UNL     1      -0.980  53.732  -6.397  1.00  0.00     0.001 A 
HETATM   44  C29 UNL     1      -0.548  54.856  -5.695  1.00  0.00     0.000 A 
HETATM   45  C30 UNL     1       0.110  55.882  -6.366  1.00  0.00     0.001 A 
HETATM   46  C31 UNL     1       0.344  55.774  -7.738  1.00  0.00     0.008 A 
ENDBRANCH  27  41
BRANCH  36  47
HETATM   47  O7  UNL     1      -6.519  49.782  -9.368  1.00  0.00    -0.387 OA
HETATM   48  H49 UNL     1      -7.366  49.354  -9.153  1.00  0.00     0.210 HD
ENDBRANCH  36  47
BRANCH  38  49
HETATM   49  O8  UNL     1      -4.020  47.742  -8.175  1.00  0.00    -0.390 OA
HETATM   50  H51 UNL     1      -3.895  48.463  -7.530  1.00  0.00     0.210 HD
ENDBRANCH  38  49
BRANCH   7  51
HETATM   51  O3  UNL     1      -2.511  43.597 -10.404  1.00  0.00    -0.381 OA
HETATM   52  H12 UNL     1      -2.717  42.741  -9.997  1.00  0.00     0.211 HD
ENDBRANCH   7  51
BRANCH   3  53
HETATM   53  C4  UNL     1      -5.325  45.874  -6.189  1.00  0.00     0.172 C 
BRANCH  53  54
HETATM   54  O1  UNL     1      -6.197  46.948  -5.856  1.00  0.00    -0.400 OA
HETATM   55  H8  UNL     1      -7.055  46.559  -5.608  1.00  0.00     0.209 HD
ENDBRANCH  53  54
ENDBRANCH   3  53
TORSDOF 6
ENDMDL
