MODEL 1
REMARK minimizedAffinity -7.55953503
REMARK CNNscore 0.80618149
REMARK CNNaffinity 7.19265699
REMARK  7 active torsions:
REMARK  status: ('A' for Active; 'I' for Inactive)
REMARK    1  A    between atoms: C2_2  and  C4_4 
REMARK    2  A    between atoms: C4_4  and  C6_6 
REMARK    3  A    between atoms: C6_6  and  O1_7 
REMARK    4  A    between atoms: C6_6  and  C7_8 
REMARK    5  A    between atoms: C7_8  and  C8_9 
REMARK    6  A    between atoms: C8_9  and  C10_11 
REMARK    7  A    between atoms: C16_17  and  O2_18 
ROOT
HETATM    1  C10 UNL     1       4.390  56.145  -8.147  1.00  0.00    -0.002 C 
HETATM    2  C11 UNL     1       5.343  55.257  -8.997  1.00  0.00     0.006 C 
HETATM    3  C12 UNL     1       4.472  54.378  -9.908  1.00  0.00     0.011 C 
HETATM    4  C13 UNL     1       3.056  54.979  -9.823  1.00  0.00    -0.030 C 
HETATM    5  C14 UNL     1       3.006  56.157 -10.844  1.00  0.00     0.016 C 
HETATM    6  C15 UNL     1       1.898  53.973 -10.108  1.00  0.00     0.032 C 
HETATM    7  C16 UNL     1       1.769  53.534 -11.581  1.00  0.00     0.124 C 
HETATM    8  C17 UNL     1       0.628  52.530 -11.755  1.00  0.00     0.038 C 
HETATM    9  C18 UNL     1      -0.722  53.210 -11.516  1.00  0.00     0.012 C 
HETATM   10  C19 UNL     1      -1.961  52.279 -11.720  1.00  0.00     0.018 C 
HETATM   11  C20 UNL     1      -2.000  51.750 -13.170  1.00  0.00     0.023 C 
HETATM   12  C21 UNL     1      -1.993  51.068 -10.774  1.00  0.00     0.023 C 
HETATM   13  C22 UNL     1      -3.234  53.109 -11.471  1.00  0.00     0.135 C 
HETATM   14  O3  UNL     1      -4.219  53.050 -12.211  1.00  0.00    -0.297 OA
HETATM   15  C23 UNL     1      -3.287  53.945 -10.212  1.00  0.00     0.080 C 
HETATM   16  C24 UNL     1      -2.047  54.816 -10.099  1.00  0.00     0.018 C 
HETATM   17  C25 UNL     1      -0.786  53.968 -10.182  1.00  0.00    -0.026 A 
HETATM   18  C26 UNL     1      -0.302  53.357  -8.893  1.00  0.00     0.021 A 
HETATM   19  C27 UNL     1       0.540  54.456  -9.526  1.00  0.00    -0.025 A 
HETATM   20  C28 UNL     1       0.514  55.834  -8.857  1.00  0.00     0.011 C 
HETATM   21  C29 UNL     1       1.774  56.303  -8.111  1.00  0.00     0.011 C 
HETATM   22  C30 UNL     1       3.011  55.423  -8.315  1.00  0.00    -0.032 C 
HETATM   23  C31 UNL     1       2.931  54.232  -7.312  1.00  0.00     0.016 C 
ENDROOT
BRANCH   1  24
HETATM   24  C8  UNL     1       4.959  56.418  -6.720  1.00  0.00    -0.011 C 
HETATM   25  C9  UNL     1       4.065  57.384  -5.930  1.00  0.00     0.010 C 
BRANCH  24  26
HETATM   26  C7  UNL     1       6.403  57.005  -6.796  1.00  0.00     0.037 C 
BRANCH  26  27
HETATM   27  C6  UNL     1       7.398  56.296  -5.857  1.00  0.00     0.126 C 
BRANCH  27  28
HETATM   28  C4  UNL     1       8.086  57.219  -4.810  1.00  0.00     0.038 C 
HETATM   29  C5  UNL     1       7.426  58.602  -4.712  1.00  0.00     0.017 C 
BRANCH  28  30
HETATM   30  C2  UNL     1       9.606  57.277  -4.962  1.00  0.00    -0.087 C 
HETATM   31  C1  UNL     1      10.261  58.444  -4.832  1.00  0.00     0.014 C 
HETATM   32  C3  UNL     1      10.360  56.015  -5.289  1.00  0.00     0.043 C 
ENDBRANCH  28  30
ENDBRANCH  27  28
BRANCH  27  33
HETATM   33  O1  UNL     1       6.729  55.230  -5.178  1.00  0.00    -0.395 OA
HETATM   34  H11 UNL     1       7.399  54.740  -4.672  1.00  0.00     0.210 HD
ENDBRANCH  27  33
ENDBRANCH  26  27
ENDBRANCH  24  26
ENDBRANCH   1  24
BRANCH   7  35
HETATM   35  O2  UNL     1       2.970  52.912 -12.036  1.00  0.00    -0.395 OA
HETATM   36  H28 UNL     1       3.137  52.136 -11.476  1.00  0.00     0.210 HD
ENDBRANCH   7  35
TORSDOF 7
ENDMDL
