MODEL 1
REMARK minimizedAffinity -7.6183176
REMARK CNNscore 0.355554223
REMARK CNNaffinity 6.69428015
REMARK  20 active torsions:
REMARK  status: ('A' for Active; 'I' for Inactive)
REMARK    1  A    between atoms: C2_2  and  C3_3 
REMARK    2  A    between atoms: C2_2  and  C30_37 
REMARK    3  A    between atoms: C4_4  and  C5_5 
REMARK    4  A    between atoms: C6_6  and  C7_7 
REMARK    5  A    between atoms: C6_6  and  C11_14 
REMARK    6  A    between atoms: C7_7  and  O1_8 
REMARK    7  A    between atoms: O1_8  and  C8_9 
REMARK    8  A    between atoms: C8_9  and  C9_10 
REMARK    9  A    between atoms: C9_10  and  O2_11 
REMARK   10  A    between atoms: C9_10  and  C10_12 
REMARK   11  A    between atoms: C10_12  and  O3_13 
REMARK   12  A    between atoms: C15_18  and  O4_19 
REMARK   13  A    between atoms: C16_20  and  C17_21 
REMARK   14  A    between atoms: C17_21  and  C18_22 
REMARK   15  A    between atoms: C18_22  and  C19_23 
REMARK   16  A    between atoms: C19_23  and  O5_24 
REMARK   17  A    between atoms: C21_26  and  C22_27 
REMARK   18  A    between atoms: C28_34  and  O7_36 
REMARK   19  A    between atoms: C30_37  and  C31_38 
REMARK   20  A    between atoms: C31_38  and  C32_39 
ROOT
HETATM    1  C11 UNL     1       0.482   9.070  14.521  1.00  0.00     0.046 C 
HETATM    2  C12 UNL     1      -0.103  10.473  14.671  1.00  0.00     0.013 C 
HETATM    3  C13 UNL     1      -1.447  10.353  13.951  1.00  0.00     0.017 C 
HETATM    4  C14 UNL     1      -1.981   8.914  14.262  1.00  0.00     0.024 C 
HETATM    5  C15 UNL     1      -0.738   8.202  14.915  1.00  0.00     0.138 C 
HETATM    6  C16 UNL     1      -2.409   8.212  12.881  1.00  0.00     0.029 C 
HETATM    7  C20 UNL     1      -3.542   7.199  13.146  1.00  0.00    -0.061 C 
HETATM    8  C21 UNL     1      -3.530   5.843  13.170  1.00  0.00    -0.017 C 
HETATM    9  C23 UNL     1      -4.779   5.002  13.341  1.00  0.00     0.042 C 
HETATM   10  C24 UNL     1      -6.079   5.795  13.261  1.00  0.00     0.005 C 
HETATM   11  C25 UNL     1      -5.955   7.078  14.061  1.00  0.00     0.009 C 
HETATM   12  C26 UNL     1      -4.836   7.957  13.477  1.00  0.00     0.018 C 
HETATM   13  C27 UNL     1      -4.553   9.147  14.422  1.00  0.00     0.047 C 
HETATM   14  C28 UNL     1      -3.248   8.987  15.235  1.00  0.00     0.066 C 
HETATM   15  C29 UNL     1      -3.218  10.096  16.307  1.00  0.00     0.047 C 
ENDROOT
BRANCH   1  16
HETATM   16  C6  UNL     1       1.801   8.643  15.164  1.00  0.00    -0.050 C 
HETATM   17  C5  UNL     1       3.012   8.427  14.607  1.00  0.00     0.005 C 
BRANCH  17  18
HETATM   18  C4  UNL     1       3.450   8.562  13.235  1.00  0.00     0.001 C 
HETATM   19  C3  UNL     1       4.513   7.899  12.751  1.00  0.00     0.006 C 
BRANCH  19  20
HETATM   20  C2  UNL     1       5.062   8.003  11.398  1.00  0.00    -0.067 C 
HETATM   21  C1  UNL     1       6.399   8.024  11.260  1.00  0.00     0.019 C 
BRANCH  20  22
HETATM   22  C30 UNL     1       4.089   8.107  10.226  1.00  0.00     0.041 C 
BRANCH  22  23
HETATM   23  C31 UNL     1       3.220   6.882   9.873  1.00  0.00     0.032 C 
BRANCH  23  24
HETATM   24  C32 UNL     1       2.859   6.834   8.408  1.00  0.00    -0.024 C 
HETATM   25  C33 UNL     1       1.803   7.394   7.785  1.00  0.00    -0.091 C 
HETATM   26  C34 UNL     1       1.628   7.244   6.295  1.00  0.00     0.042 C 
HETATM   27  C35 UNL     1       0.724   8.203   8.449  1.00  0.00     0.042 C 
ENDBRANCH  23  24
ENDBRANCH  22  23
ENDBRANCH  20  22
ENDBRANCH  19  20
ENDBRANCH  17  18
BRANCH  16  28
HETATM   28  C7  UNL     1       1.678   8.407  16.672  1.00  0.00     0.202 C 
BRANCH  28  29
HETATM   29  O1  UNL     1       1.323   9.636  17.297  1.00  0.00    -0.384 OA
BRANCH  29  30
HETATM   30  C8  UNL     1       2.432  10.352  17.848  1.00  0.00     0.201 C 
BRANCH  30  31
HETATM   31  C9  UNL     1       2.273  10.686  19.342  1.00  0.00     0.165 C 
BRANCH  31  32
HETATM   32  O2  UNL     1       2.733   9.587  20.141  1.00  0.00    -0.391 OA
HETATM   33  H11 UNL     1       2.805   9.907  21.057  1.00  0.00     0.210 HD
ENDBRANCH  31  32
BRANCH  31  34
HETATM   34  C10 UNL     1       0.831  11.040  19.724  1.00  0.00     0.198 C 
BRANCH  34  35
HETATM   35  O3  UNL     1       0.769  12.253  20.463  1.00  0.00    -0.398 OA
HETATM   36  H14 UNL     1       0.765  12.032  21.410  1.00  0.00     0.209 HD
ENDBRANCH  34  35
ENDBRANCH  31  34
ENDBRANCH  30  31
ENDBRANCH  29  30
ENDBRANCH  28  29
ENDBRANCH  16  28
ENDBRANCH   1  16
BRANCH   5  37
HETATM   37  O4  UNL     1      -0.839   8.162  16.348  1.00  0.00    -0.394 OA
HETATM   38  H21 UNL     1      -0.081   7.642  16.670  1.00  0.00     0.210 HD
ENDBRANCH   5  37
BRANCH   6  39
HETATM   39  C17 UNL     1      -1.317   7.701  11.898  1.00  0.00     0.012 C 
BRANCH  39  40
HETATM   40  C18 UNL     1       0.107   7.564  12.461  1.00  0.00     0.027 C 
BRANCH  40  41
HETATM   41  C19 UNL     1       0.721   6.210  12.099  1.00  0.00     0.164 C 
BRANCH  41  42
HETATM   42  O5  UNL     1       1.377   5.647  13.230  1.00  0.00    -0.401 OA
HETATM   43  H29 UNL     1       0.759   5.026  13.653  1.00  0.00     0.209 HD
ENDBRANCH  41  42
ENDBRANCH  40  41
ENDBRANCH  39  40
ENDBRANCH   6  39
BRANCH  14  44
HETATM   44  O7  UNL     1      -3.362   7.753  15.969  1.00  0.00    -0.389 OA
HETATM   45  H43 UNL     1      -2.558   7.719  16.530  1.00  0.00     0.210 HD
ENDBRANCH  14  44
BRANCH   8  46
HETATM   46  C22 UNL     1      -2.299   4.999  13.098  1.00  0.00     0.265 C 
HETATM   47  O6  UNL     1      -2.143   4.116  12.260  1.00  0.00    -0.302 OA
ENDBRANCH   8  46
TORSDOF 20
ENDMDL
