MODEL 1
REMARK minimizedAffinity -9.38532829
REMARK  10 active torsions:
REMARK  status: ('A' for Active; 'I' for Inactive)
REMARK    1  A    between atoms: C12_14  and  C13_15 
REMARK    2  A    between atoms: C13_15  and  C15_17 
REMARK    3  A    between atoms: C15_17  and  C16_18 
REMARK    4  A    between atoms: C16_18  and  C17_19 
REMARK    5  A    between atoms: C18_20  and  C20_22 
REMARK    6  A    between atoms: C20_22  and  O3_23 
REMARK    7  A    between atoms: C26_29  and  C27_30 
REMARK    8  A    between atoms: C27_30  and  C28_31 
REMARK    9  A    between atoms: C28_31  and  C29_32 
REMARK   10  A    between atoms: C29_32  and  O5_34 
ROOT
HETATM    1  C1  UNL     1      -2.867  51.206 -27.888  1.00  0.00     0.025 C 
HETATM    2  C2  UNL     1      -2.974  50.109 -27.128  1.00  0.00     0.015 C 
HETATM    3  C3  UNL     1      -3.852  48.985 -27.519  1.00  0.00     0.289 C 
HETATM    4  O1  UNL     1      -4.446  48.864 -28.574  1.00  0.00    -0.260 OA
HETATM    5  O2  UNL     1      -3.867  48.092 -26.496  1.00  0.00    -0.311 OA
HETATM    6  C4  UNL     1      -3.211  48.638 -25.335  1.00  0.00     0.142 C 
HETATM    7  C5  UNL     1      -4.284  49.032 -24.330  1.00  0.00     0.039 C 
HETATM    8  C6  UNL     1      -3.793  49.817 -23.105  1.00  0.00     0.006 C 
HETATM    9  C7  UNL     1      -2.783  50.934 -23.458  1.00  0.00    -0.027 A 
HETATM   10  C8  UNL     1      -2.213  51.687 -22.241  1.00  0.00     0.011 C 
HETATM   11  C9  UNL     1      -1.853  50.818 -21.025  1.00  0.00     0.011 C 
HETATM   12  C10 UNL     1      -3.003  49.870 -20.654  1.00  0.00    -0.032 C 
HETATM   13  C11 UNL     1      -4.241  50.715 -20.218  1.00  0.00     0.016 C 
HETATM   14  C12 UNL     1      -2.723  48.804 -19.542  1.00  0.00    -0.002 C 
HETATM   15  C21 UNL     1      -3.732  47.670 -19.908  1.00  0.00     0.006 C 
HETATM   16  C22 UNL     1      -4.239  47.929 -21.338  1.00  0.00     0.011 C 
HETATM   17  C23 UNL     1      -3.256  48.952 -21.921  1.00  0.00    -0.032 C 
HETATM   18  C24 UNL     1      -1.992  48.154 -22.376  1.00  0.00     0.016 C 
HETATM   19  C25 UNL     1      -3.170  51.874 -24.574  1.00  0.00     0.022 A 
HETATM   20  C26 UNL     1      -2.037  50.893 -24.830  1.00  0.00    -0.021 A 
HETATM   21  C31 UNL     1      -2.315  49.763 -25.833  1.00  0.00     0.063 C 
ENDROOT
BRANCH  14  22
HETATM   22  C13 UNL     1      -2.810  49.194 -18.032  1.00  0.00    -0.014 C 
HETATM   23  C14 UNL     1      -3.107  50.686 -17.837  1.00  0.00     0.010 C 
BRANCH  22  24
HETATM   24  C15 UNL     1      -1.490  48.817 -17.303  1.00  0.00     0.008 C 
BRANCH  24  25
HETATM   25  C16 UNL     1      -0.241  49.484 -17.894  1.00  0.00     0.028 C 
BRANCH  25  26
HETATM   26  C17 UNL     1       0.415  50.387 -16.884  1.00  0.00    -0.022 C 
HETATM   27  C18 UNL     1       0.802  51.669 -17.054  1.00  0.00    -0.064 C 
HETATM   28  C19 UNL     1       0.585  52.467 -18.313  1.00  0.00     0.045 C 
BRANCH  27  29
HETATM   29  C20 UNL     1       1.476  52.425 -15.940  1.00  0.00     0.197 C 
BRANCH  29  30
HETATM   30  O3  UNL     1       2.420  53.323 -16.503  1.00  0.00    -0.397 OA
HETATM   31  H29 UNL     1       2.846  53.780 -15.760  1.00  0.00     0.209 HD
ENDBRANCH  29  30
ENDBRANCH  27  29
ENDBRANCH  25  26
ENDBRANCH  24  25
ENDBRANCH  22  24
ENDBRANCH  14  22
BRANCH  20  32
HETATM   32  C27 UNL     1      -0.574  51.367 -24.869  1.00  0.00     0.021 C 
BRANCH  32  33
HETATM   33  C28 UNL     1       0.190  51.037 -26.150  1.00  0.00     0.112 C 
BRANCH  33  34
HETATM   34  C29 UNL     1       1.287  52.042 -26.408  1.00  0.00     0.258 C 
HETATM   35  O4  UNL     1       2.483  51.790 -26.454  1.00  0.00    -0.265 OA
BRANCH  34  36
HETATM   36  O5  UNL     1       0.740  53.283 -26.558  1.00  0.00    -0.326 OA
HETATM   37  C30 UNL     1       0.015  53.456 -27.776  1.00  0.00     0.213 C 
ENDBRANCH  34  36
ENDBRANCH  33  34
ENDBRANCH  32  33
ENDBRANCH  20  32
TORSDOF 10
ENDMDL
