MODEL 1
REMARK minimizedAffinity -7.43005753
REMARK CNNscore 0.819893181
REMARK CNNaffinity 7.41867876
REMARK  16 active torsions:
REMARK  status: ('A' for Active; 'I' for Inactive)
REMARK    1  A    between atoms: C2_2  and  C3_3 
REMARK    2  A    between atoms: C2_2  and  C29_35 
REMARK    3  A    between atoms: C3_3  and  C4_4 
REMARK    4  A    between atoms: C4_4  and  O1_5 
REMARK    5  A    between atoms: C4_4  and  C5_6 
REMARK    6  A    between atoms: C5_6  and  C7_8 
REMARK    7  A    between atoms: C9_10  and  C10_11 
REMARK    8  A    between atoms: C10_11  and  C11_12 
REMARK    9  A    between atoms: C11_12  and  C12_13 
REMARK   10  A    between atoms: C12_13  and  O2_14 
REMARK   11  A    between atoms: C13_15  and  O3_16 
REMARK   12  A    between atoms: C19_23  and  O5_24 
REMARK   13  A    between atoms: C20_25  and  O6_26 
REMARK   14  A    between atoms: C29_35  and  C32_38 
REMARK   15  A    between atoms: C32_38  and  C33_39 
REMARK   16  A    between atoms: C33_39  and  N1_40 
ROOT
HETATM    1  C7  UNL     1       2.119  54.713 -10.757  1.00  0.00     0.003 C 
HETATM    2  C8  UNL     1       3.114  53.558 -11.028  1.00  0.00     0.014 C 
HETATM    3  C9  UNL     1       2.274  52.244 -11.136  1.00  0.00     0.026 C 
HETATM    4  C13 UNL     1       0.810  52.754 -11.227  1.00  0.00     0.093 C 
HETATM    5  C14 UNL     1      -0.401  51.931 -10.845  1.00  0.00    -0.036 C 
HETATM    6  C15 UNL     1      -0.327  50.760 -10.192  1.00  0.00     0.057 C 
HETATM    7  C16 UNL     1      -1.529  50.105  -9.636  1.00  0.00     0.154 C 
HETATM    8  O4  UNL     1      -1.402  49.000  -9.113  1.00  0.00    -0.293 OA
HETATM    9  C17 UNL     1      -2.860  50.855  -9.683  1.00  0.00     0.071 C 
HETATM   10  C18 UNL     1      -4.038  49.872  -9.519  1.00  0.00     0.047 C 
HETATM   11  C19 UNL     1      -4.381  49.098 -10.795  1.00  0.00     0.147 C 
HETATM   12  C20 UNL     1      -3.384  49.306 -11.941  1.00  0.00     0.147 C 
HETATM   13  C21 UNL     1      -3.100  50.786 -12.233  1.00  0.00     0.044 C 
HETATM   14  C22 UNL     1      -2.979  51.710 -10.970  1.00  0.00    -0.023 C 
HETATM   15  C23 UNL     1      -4.264  52.575 -10.908  1.00  0.00     0.016 C 
HETATM   16  C24 UNL     1      -1.724  52.648 -11.125  1.00  0.00     0.027 C 
HETATM   17  C25 UNL     1      -1.753  53.965 -10.299  1.00  0.00     0.011 C 
HETATM   18  C26 UNL     1      -0.476  54.829 -10.451  1.00  0.00     0.013 C 
HETATM   19  C27 UNL     1       0.823  54.003 -10.268  1.00  0.00    -0.004 C 
HETATM   20  C28 UNL     1       0.909  53.610  -8.768  1.00  0.00     0.019 C 
ENDROOT
BRANCH   1  21
HETATM   21  C5  UNL     1       2.650  55.966  -9.986  1.00  0.00     0.015 C 
HETATM   22  C6  UNL     1       3.685  56.657 -10.901  1.00  0.00     0.013 C 
BRANCH  21  23
HETATM   23  C4  UNL     1       3.284  55.761  -8.573  1.00  0.00     0.126 C 
BRANCH  23  24
HETATM   24  C3  UNL     1       4.590  56.570  -8.334  1.00  0.00     0.066 C 
BRANCH  24  25
HETATM   25  C2  UNL     1       5.801  55.854  -7.751  1.00  0.00    -0.079 C 
HETATM   26  C1  UNL     1       6.630  55.232  -8.614  1.00  0.00     0.015 C 
BRANCH  25  27
HETATM   27  C29 UNL     1       6.140  56.009  -6.238  1.00  0.00    -0.023 C 
HETATM   28  C30 UNL     1       6.029  54.681  -5.455  1.00  0.00     0.019 C 
HETATM   29  C31 UNL     1       5.106  56.989  -5.640  1.00  0.00     0.019 C 
BRANCH  27  30
HETATM   30  C32 UNL     1       7.586  56.580  -6.052  1.00  0.00     0.033 C 
BRANCH  30  31
HETATM   31  C33 UNL     1       8.600  55.639  -5.389  1.00  0.00     0.130 C 
BRANCH  31  32
HETATM   32  N1  UNL     1       9.865  56.305  -5.138  1.00  0.00    -0.352 N 
HETATM   33  C34 UNL     1      10.038  57.622  -4.822  1.00  0.00     0.108 A 
HETATM   34  C35 UNL     1      11.397  57.769  -4.660  1.00  0.00     0.106 A 
HETATM   35  N2  UNL     1      12.044  56.579  -4.866  1.00  0.00    -0.361 N 
HETATM   36  C36 UNL     1      11.096  55.714  -5.150  1.00  0.00     0.182 A 
ATOM     37  H2  UNL     1      13.047  56.403  -4.811  1.00  0.00     0.166 HD
ENDBRANCH  31  32
ENDBRANCH  30  31
ENDBRANCH  27  30
ENDBRANCH  25  27
ENDBRANCH  24  25
ENDBRANCH  23  24
BRANCH  23  38
HETATM   38  O1  UNL     1       2.382  56.166  -7.545  1.00  0.00    -0.395 OA
HETATM   39  H6  UNL     1       2.752  55.878  -6.692  1.00  0.00     0.210 HD
ENDBRANCH  23  38
ENDBRANCH  21  23
ENDBRANCH   1  21
BRANCH   3  40
HETATM   40  C10 UNL     1       2.810  51.391 -12.305  1.00  0.00     0.010 C 
BRANCH  40  41
HETATM   41  C11 UNL     1       3.290  49.997 -11.914  1.00  0.00     0.027 C 
BRANCH  41  42
HETATM   42  C12 UNL     1       4.319  50.055 -10.792  1.00  0.00     0.164 C 
BRANCH  42  43
HETATM   43  O2  UNL     1       4.887  48.764 -10.622  1.00  0.00    -0.401 OA
HETATM   44  H21 UNL     1       5.557  48.837  -9.922  1.00  0.00     0.209 HD
ENDBRANCH  42  43
ENDBRANCH  41  42
ENDBRANCH  40  41
ENDBRANCH   3  40
BRANCH   4  45
HETATM   45  O3  UNL     1       0.627  53.091 -12.612  1.00  0.00    -0.384 OA
HETATM   46  H22 UNL     1       0.281  53.992 -12.693  1.00  0.00     0.211 HD
ENDBRANCH   4  45
BRANCH  12  47
HETATM   47  O6  UNL     1      -3.920  48.709 -13.130  1.00  0.00    -0.393 OA
HETATM   48  H30 UNL     1      -3.783  47.748 -13.048  1.00  0.00     0.210 HD
ENDBRANCH  12  47
BRANCH  11  49
HETATM   49  O5  UNL     1      -5.686  49.498 -11.238  1.00  0.00    -0.393 OA
HETATM   50  H28 UNL     1      -5.722  49.254 -12.185  1.00  0.00     0.210 HD
ENDBRANCH  11  49
TORSDOF 16
ENDMDL
