MODEL 1
REMARK minimizedAffinity -8.46146202
REMARK  11 active torsions:
REMARK  status: ('A' for Active; 'I' for Inactive)
REMARK    1  A    between atoms: C2_2  and  O1_3 
REMARK    2  A    between atoms: C2_2  and  C3_4 
REMARK    3  A    between atoms: C4_5  and  C5_6 
REMARK    4  A    between atoms: C5_6  and  O2_7 
REMARK    5  A    between atoms: C9_11  and  O3_12 
REMARK    6  A    between atoms: O3_12  and  C10_13 
REMARK    7  A    between atoms: C11_15  and  C12_16 
REMARK    8  A    between atoms: C12_16  and  O5_17 
REMARK    9  A    between atoms: C13_18  and  O6_19 
REMARK   10  A    between atoms: C14_20  and  O7_21 
REMARK   11  A    between atoms: C15_22  and  O8_23 
ROOT
HETATM    1  C5  UNL     1      -0.509  51.934 -19.791  1.00  0.00     0.086 C 
HETATM    2  C6  UNL     1       0.506  52.559 -20.820  1.00  0.00     0.023 C 
HETATM    3  C7  UNL     1       1.032  53.944 -20.412  1.00  0.00     0.013 C 
HETATM    4  C8  UNL     1      -0.113  52.656 -22.220  1.00  0.00     0.039 C 
HETATM    5  C9  UNL     1      -0.410  51.274 -22.804  1.00  0.00     0.126 C 
HETATM    6  C16 UNL     1      -0.666  50.219 -21.716  1.00  0.00     0.044 C 
HETATM    7  C17 UNL     1      -1.381  50.762 -20.451  1.00  0.00    -0.010 C 
HETATM    8  C18 UNL     1      -2.809  51.237 -20.832  1.00  0.00     0.018 C 
HETATM    9  C19 UNL     1      -1.596  49.550 -19.506  1.00  0.00     0.018 C 
ENDROOT
BRANCH   5  10
HETATM   10  O3  UNL     1      -1.548  51.301 -23.674  1.00  0.00    -0.353 OA
BRANCH  10  11
HETATM   11  C10 UNL     1      -1.306  50.761 -24.978  1.00  0.00     0.292 C 
HETATM   12  O4  UNL     1      -0.078  51.196 -25.559  1.00  0.00    -0.348 OA
HETATM   13  C11 UNL     1      -0.134  52.364 -26.402  1.00  0.00     0.179 C 
HETATM   14  C13 UNL     1      -1.149  52.192 -27.558  1.00  0.00     0.180 C 
HETATM   15  C14 UNL     1      -2.133  51.046 -27.305  1.00  0.00     0.183 C 
HETATM   16  C15 UNL     1      -2.546  51.065 -25.842  1.00  0.00     0.204 C 
BRANCH  13  17
HETATM   17  C12 UNL     1      -0.294  53.661 -25.588  1.00  0.00     0.198 C 
BRANCH  17  18
HETATM   18  O5  UNL     1       0.191  54.771 -26.347  1.00  0.00    -0.398 OA
HETATM   19  H20 UNL     1       0.343  55.499 -25.720  1.00  0.00     0.209 HD
ENDBRANCH  17  18
ENDBRANCH  13  17
BRANCH  14  20
HETATM   20  O6  UNL     1      -1.894  53.394 -27.798  1.00  0.00    -0.390 OA
HETATM   21  H22 UNL     1      -2.667  53.103 -28.330  1.00  0.00     0.210 HD
ENDBRANCH  14  20
BRANCH  15  22
HETATM   22  O7  UNL     1      -3.286  51.217 -28.148  1.00  0.00    -0.390 OA
HETATM   23  H24 UNL     1      -3.962  50.620 -27.766  1.00  0.00     0.210 HD
ENDBRANCH  15  22
BRANCH  16  24
HETATM   24  O8  UNL     1      -3.588  50.096 -25.627  1.00  0.00    -0.388 OA
HETATM   25  H26 UNL     1      -3.815  50.160 -24.679  1.00  0.00     0.210 HD
ENDBRANCH  16  24
ENDBRANCH  10  11
ENDBRANCH   5  10
BRANCH   1  26
HETATM   26  C4  UNL     1       0.152  51.510 -18.482  1.00  0.00     0.010 C 
HETATM   27  C3  UNL     1       0.763  52.264 -17.549  1.00  0.00     0.003 C 
BRANCH  27  28
HETATM   28  C2  UNL     1       1.390  51.774 -16.268  1.00  0.00     0.136 C 
HETATM   29  C1  UNL     1       0.816  50.427 -15.846  1.00  0.00     0.043 C 
BRANCH  28  30
HETATM   30  O1  UNL     1       1.198  52.706 -15.213  1.00  0.00    -0.392 OA
HETATM   31  H5  UNL     1       0.243  52.742 -15.033  1.00  0.00     0.210 HD
ENDBRANCH  28  30
ENDBRANCH  27  28
ENDBRANCH   1  26
BRANCH   1  32
HETATM   32  O2  UNL     1      -1.419  52.973 -19.391  1.00  0.00    -0.385 OA
HETATM   33  H8  UNL     1      -0.937  53.584 -18.806  1.00  0.00     0.211 HD
ENDBRANCH   1  32
TORSDOF 11
ENDMDL
