MODEL 1
REMARK minimizedAffinity -6.27624273
REMARK CNNscore 0.397353023
REMARK CNNaffinity 6.09184313
REMARK  8 active torsions:
REMARK  status: ('A' for Active; 'I' for Inactive)
REMARK    1  A    between atoms: C12_14  and  C13_15 
REMARK    2  A    between atoms: C13_15  and  C15_17 
REMARK    3  A    between atoms: C15_17  and  C16_18 
REMARK    4  A    between atoms: C16_18  and  C17_19 
REMARK    5  A    between atoms: C26_28  and  C27_29 
REMARK    6  A    between atoms: C27_29  and  C28_30 
REMARK    7  A    between atoms: C28_30  and  C29_31 
REMARK    8  A    between atoms: C29_31  and  O4_33 
ROOT
HETATM    1  C1  UNL     1       5.615  13.674  22.636  1.00  0.00     0.025 C 
HETATM    2  C2  UNL     1       5.184  13.372  21.407  1.00  0.00     0.015 C 
HETATM    3  C3  UNL     1       5.259  14.326  20.278  1.00  0.00     0.289 C 
HETATM    4  O1  UNL     1       5.515  15.513  20.351  1.00  0.00    -0.260 OA
HETATM    5  O2  UNL     1       4.968  13.644  19.139  1.00  0.00    -0.311 OA
HETATM    6  C4  UNL     1       4.926  12.239  19.420  1.00  0.00     0.142 C 
HETATM    7  C5  UNL     1       3.950  11.527  18.493  1.00  0.00     0.039 C 
HETATM    8  C6  UNL     1       2.517  12.046  18.678  1.00  0.00     0.006 C 
HETATM    9  C7  UNL     1       2.044  11.809  20.131  1.00  0.00    -0.027 A 
HETATM   10  C8  UNL     1       0.801  10.934  20.308  1.00  0.00     0.011 C 
HETATM   11  C9  UNL     1      -0.346  11.160  19.304  1.00  0.00     0.011 C 
HETATM   12  C10 UNL     1       0.049  11.923  18.030  1.00  0.00    -0.032 C 
HETATM   13  C11 UNL     1      -0.107  13.448  18.313  1.00  0.00     0.016 C 
HETATM   14  C12 UNL     1      -0.753  11.575  16.731  1.00  0.00    -0.002 C 
HETATM   15  C21 UNL     1       0.237  11.990  15.603  1.00  0.00     0.006 C 
HETATM   16  C22 UNL     1       1.633  12.133  16.233  1.00  0.00     0.011 C 
HETATM   17  C23 UNL     1       1.508  11.495  17.629  1.00  0.00    -0.032 C 
HETATM   18  C24 UNL     1       1.704   9.959  17.422  1.00  0.00     0.016 C 
HETATM   19  C25 UNL     1       2.157  12.986  21.076  1.00  0.00     0.022 A 
HETATM   20  C26 UNL     1       3.129  11.839  21.250  1.00  0.00    -0.021 A 
HETATM   21  C30 UNL     1       4.610  12.090  20.903  1.00  0.00     0.063 C 
ENDROOT
BRANCH  14  22
HETATM   22  C13 UNL     1      -2.184  12.159  16.509  1.00  0.00    -0.014 C 
HETATM   23  C14 UNL     1      -3.277  11.142  16.855  1.00  0.00     0.010 C 
BRANCH  22  24
HETATM   24  C15 UNL     1      -2.344  12.645  15.038  1.00  0.00     0.008 C 
BRANCH  24  25
HETATM   25  C16 UNL     1      -2.974  14.037  14.906  1.00  0.00     0.028 C 
BRANCH  25  26
HETATM   26  C17 UNL     1      -4.476  14.178  14.964  1.00  0.00    -0.025 C 
HETATM   27  C18 UNL     1      -5.308  15.214  14.732  1.00  0.00    -0.091 C 
HETATM   28  C19 UNL     1      -6.794  15.048  14.943  1.00  0.00     0.042 C 
HETATM   29  C20 UNL     1      -4.911  16.579  14.246  1.00  0.00     0.042 C 
ENDBRANCH  25  26
ENDBRANCH  24  25
ENDBRANCH  22  24
ENDBRANCH  14  22
BRANCH  20  30
HETATM   30  C27 UNL     1       2.948  11.009  22.526  1.00  0.00     0.021 C 
BRANCH  30  31
HETATM   31  C28 UNL     1       3.415   9.561  22.377  1.00  0.00     0.111 C 
BRANCH  31  32
HETATM   32  C29 UNL     1       2.485   8.618  23.090  1.00  0.00     0.139 C 
HETATM   33  O3  UNL     1       2.258   8.564  24.286  1.00  0.00    -0.650 OA
BRANCH  32  34
HETATM   34  O4  UNL     1       1.891   7.759  22.239  1.00  0.00    -0.776 OA
HETATM   35  H43 UNL     1       1.328   7.202  22.818  1.00  0.00     0.167 HD
ENDBRANCH  32  34
ENDBRANCH  31  32
ENDBRANCH  30  31
ENDBRANCH  20  30
TORSDOF 8
ENDMDL
