MODEL 1
REMARK minimizedAffinity -8.66314888
REMARK  10 active torsions:
REMARK  status: ('A' for Active; 'I' for Inactive)
REMARK    1  A    between atoms: C2_2  and  C3_3 
REMARK    2  A    between atoms: C5_5  and  C6_6 
REMARK    3  A    between atoms: C6_6  and  C7_7 
REMARK    4  A    between atoms: C13_13  and  C15_15 
REMARK    5  A    between atoms: C15_15  and  O1_16 
REMARK    6  A    between atoms: O1_16  and  C16_17 
REMARK    7  A    between atoms: C17_19  and  C18_20 
REMARK    8  A    between atoms: C18_20  and  O3_21 
REMARK    9  A    between atoms: C19_22  and  O4_23 
REMARK   10  A    between atoms: C20_24  and  O5_25 
ROOT
HETATM    1  C7  UNL     1      -4.810   6.396  14.582  1.00  0.00     0.025 C 
HETATM    2  C8  UNL     1      -5.464   7.725  14.258  1.00  0.00    -0.084 C 
HETATM    3  C9  UNL     1      -6.344   8.324  15.075  1.00  0.00     0.015 C 
HETATM    4  C10 UNL     1      -5.033   8.326  12.957  1.00  0.00     0.034 C 
HETATM    5  C11 UNL     1      -3.522   8.506  12.932  1.00  0.00     0.010 C 
HETATM    6  C12 UNL     1      -2.682   7.237  13.293  1.00  0.00     0.005 C 
HETATM    7  C13 UNL     1      -1.129   7.599  13.327  1.00  0.00    -0.018 C 
HETATM    8  C14 UNL     1      -0.251   6.327  13.225  1.00  0.00     0.018 C 
HETATM    9  C21 UNL     1      -0.785   8.372  14.627  1.00  0.00     0.012 C 
HETATM   10  C22 UNL     1      -1.324   7.739  15.906  1.00  0.00     0.002 C 
HETATM   11  C23 UNL     1      -2.819   7.426  15.834  1.00  0.00     0.010 C 
HETATM   12  C24 UNL     1      -3.227   6.548  14.614  1.00  0.00    -0.032 C 
HETATM   13  C25 UNL     1      -2.654   5.123  14.833  1.00  0.00     0.016 C 
ENDROOT
BRANCH   7  14
HETATM   14  C15 UNL     1      -0.727   8.492  12.107  1.00  0.00     0.180 C 
BRANCH  14  15
HETATM   15  O1  UNL     1      -0.054   7.720  11.103  1.00  0.00    -0.358 OA
BRANCH  15  16
HETATM   16  C16 UNL     1       1.070   8.421  10.570  1.00  0.00     0.291 C 
HETATM   17  O2  UNL     1       0.930   8.581   9.153  1.00  0.00    -0.348 OA
HETATM   18  C17 UNL     1       1.378   7.344   8.528  1.00  0.00     0.179 C 
HETATM   19  C19 UNL     1       2.127   6.546   9.608  1.00  0.00     0.182 C 
HETATM   20  C20 UNL     1       2.334   7.572  10.717  1.00  0.00     0.204 C 
BRANCH  18  21
HETATM   21  C18 UNL     1       2.274   7.683   7.333  1.00  0.00     0.198 C 
BRANCH  21  22
HETATM   22  O3  UNL     1       2.986   8.895   7.580  1.00  0.00    -0.398 OA
HETATM   23  H27 UNL     1       3.532   9.074   6.796  1.00  0.00     0.209 HD
ENDBRANCH  21  22
ENDBRANCH  18  21
BRANCH  19  24
HETATM   24  O4  UNL     1       1.314   5.460  10.071  1.00  0.00    -0.390 OA
HETATM   25  H29 UNL     1       0.534   5.851  10.516  1.00  0.00     0.210 HD
ENDBRANCH  19  24
BRANCH  20  26
HETATM   26  O5  UNL     1       3.517   8.342  10.466  1.00  0.00    -0.388 OA
HETATM   27  H31 UNL     1       3.286   9.047   9.832  1.00  0.00     0.210 HD
ENDBRANCH  20  26
ENDBRANCH  15  16
ENDBRANCH  14  15
ENDBRANCH   7  14
BRANCH   1  28
HETATM   28  C6  UNL     1      -5.317   5.275  13.617  1.00  0.00     0.037 C 
BRANCH  28  29
HETATM   29  C5  UNL     1      -4.201   4.540  12.910  1.00  0.00    -0.019 C 
HETATM   30  C3  UNL     1      -4.266   3.533  12.012  1.00  0.00    -0.067 C 
HETATM   31  C4  UNL     1      -2.980   2.955  11.469  1.00  0.00     0.048 C 
BRANCH  30  32
HETATM   32  C2  UNL     1      -5.521   2.968  11.531  1.00  0.00    -0.004 C 
HETATM   33  C1  UNL     1      -5.732   1.693  11.177  1.00  0.00     0.012 C 
ENDBRANCH  30  32
ENDBRANCH  28  29
ENDBRANCH   1  28
TORSDOF 10
ENDMDL
