MODEL 1
REMARK minimizedAffinity -8.88862419
REMARK  10 active torsions:
REMARK  status: ('A' for Active; 'I' for Inactive)
REMARK    1  A    between atoms: C14_14  and  C15_15 
REMARK    2  A    between atoms: C15_15  and  C17_17 
REMARK    3  A    between atoms: C17_17  and  C18_18 
REMARK    4  A    between atoms: C18_18  and  C19_19 
REMARK    5  A    between atoms: C20_20  and  C22_22 
REMARK    6  A    between atoms: C22_22  and  O2_24 
REMARK    7  A    between atoms: C27_29  and  C28_30 
REMARK    8  A    between atoms: C28_30  and  C29_31 
REMARK    9  A    between atoms: C29_31  and  C30_32 
REMARK   10  A    between atoms: C30_32  and  O3_33 
ROOT
HETATM    1  C1  UNL     1      -5.063  48.441 -24.905  1.00  0.00     0.043 C 
HETATM    2  C2  UNL     1      -3.775  49.234 -24.968  1.00  0.00    -0.085 C 
HETATM    3  C3  UNL     1      -2.780  48.611 -25.920  1.00  0.00     0.043 C 
HETATM    4  C4  UNL     1      -3.557  50.374 -24.258  1.00  0.00    -0.073 C 
HETATM    5  C5  UNL     1      -4.608  50.922 -23.318  1.00  0.00     0.035 C 
HETATM    6  C6  UNL     1      -4.140  51.954 -22.293  1.00  0.00     0.010 C 
HETATM    7  C7  UNL     1      -2.699  51.813 -21.764  1.00  0.00     0.003 C 
HETATM    8  C8  UNL     1      -1.622  51.441 -22.882  1.00  0.00    -0.032 C 
HETATM    9  C9  UNL     1      -0.558  52.564 -23.042  1.00  0.00     0.016 C 
HETATM   10  C10 UNL     1      -0.803  50.156 -22.484  1.00  0.00     0.011 C 
HETATM   11  C11 UNL     1      -0.313  50.010 -21.028  1.00  0.00     0.011 C 
HETATM   12  C12 UNL     1      -1.111  50.809 -19.988  1.00  0.00    -0.032 C 
HETATM   13  C13 UNL     1      -0.438  52.194 -19.750  1.00  0.00     0.016 C 
HETATM   14  C14 UNL     1      -1.281  50.105 -18.604  1.00  0.00    -0.002 C 
HETATM   15  C23 UNL     1      -2.538  50.792 -18.008  1.00  0.00     0.006 C 
HETATM   16  C24 UNL     1      -3.238  51.527 -19.181  1.00  0.00     0.011 C 
HETATM   17  C25 UNL     1      -2.607  50.927 -20.463  1.00  0.00    -0.032 C 
HETATM   18  C26 UNL     1      -3.346  49.566 -20.688  1.00  0.00     0.016 C 
HETATM   19  C27 UNL     1      -2.258  51.172 -24.316  1.00  0.00     0.023 C 
ENDROOT
BRANCH  14  20
HETATM   20  C15 UNL     1      -0.075  49.819 -17.662  1.00  0.00    -0.014 C 
HETATM   21  C16 UNL     1      -0.498  48.809 -16.578  1.00  0.00     0.010 C 
BRANCH  20  22
HETATM   22  C17 UNL     1       0.745  50.959 -17.018  1.00  0.00     0.008 C 
BRANCH  22  23
HETATM   23  C18 UNL     1       0.509  51.261 -15.534  1.00  0.00     0.028 C 
BRANCH  23  24
HETATM   24  C19 UNL     1       1.606  50.659 -14.696  1.00  0.00    -0.013 C 
HETATM   25  C20 UNL     1       2.909  51.002 -14.664  1.00  0.00     0.008 C 
HETATM   26  C21 UNL     1       3.566  52.064 -15.492  1.00  0.00     0.055 C 
BRANCH  25  27
HETATM   27  C22 UNL     1       3.767  50.238 -13.721  1.00  0.00     0.171 C 
HETATM   28  O1  UNL     1       4.849  49.734 -13.966  1.00  0.00    -0.646 OA
BRANCH  27  29
HETATM   29  O2  UNL     1       3.220  50.133 -12.498  1.00  0.00    -0.773 OA
HETATM   30  H35 UNL     1       3.886  49.619 -11.997  1.00  0.00     0.167 HD
ENDBRANCH  27  29
ENDBRANCH  25  27
ENDBRANCH  23  24
ENDBRANCH  22  23
ENDBRANCH  20  22
ENDBRANCH  14  20
BRANCH  19  31
HETATM   31  C28 UNL     1      -2.346  52.331 -25.358  1.00  0.00     0.012 C 
BRANCH  31  32
HETATM   32  C29 UNL     1      -2.225  52.001 -26.846  1.00  0.00     0.027 C 
BRANCH  32  33
HETATM   33  C30 UNL     1      -1.206  52.885 -27.561  1.00  0.00     0.164 C 
BRANCH  33  34
HETATM   34  O3  UNL     1      -1.846  53.936 -28.271  1.00  0.00    -0.401 OA
HETATM   35  H50 UNL     1      -2.243  53.549 -29.070  1.00  0.00     0.209 HD
ENDBRANCH  33  34
ENDBRANCH  32  33
ENDBRANCH  31  32
ENDBRANCH  19  31
TORSDOF 10
ENDMDL
