MODEL 1
REMARK minimizedAffinity -9.54411411
REMARK CNNscore 0.354228675
REMARK CNNaffinity 7.4418292
REMARK  13 active torsions:
REMARK  status: ('A' for Active; 'I' for Inactive)
REMARK    1  A    between atoms: C2_2  and  C3_3 
REMARK    2  A    between atoms: C2_2  and  C11_12 
REMARK    3  A    between atoms: C3_3  and  C4_4 
REMARK    4  A    between atoms: C4_4  and  C5_5 
REMARK    5  A    between atoms: C5_5  and  O1_7 
REMARK    6  A    between atoms: C5_5  and  C7_8 
REMARK    7  A    between atoms: C28_32  and  O5_33 
REMARK    8  A    between atoms: O5_33  and  C29_34 
REMARK    9  A    between atoms: C30_36  and  C31_37 
REMARK   10  A    between atoms: C31_37  and  O7_38 
REMARK   11  A    between atoms: C32_39  and  O8_40 
REMARK   12  A    between atoms: C33_41  and  O9_42 
REMARK   13  A    between atoms: C34_43  and  O10_44 
ROOT
HETATM    1  C11 UNL     1       0.423   7.240  13.216  1.00  0.00    -0.001 C 
HETATM    2  C12 UNL     1       0.259   6.472  11.873  1.00  0.00     0.007 C 
HETATM    3  C13 UNL     1      -1.224   6.112  11.723  1.00  0.00     0.024 C 
HETATM    4  C14 UNL     1      -1.911   6.764  12.909  1.00  0.00     0.092 C 
HETATM    5  C15 UNL     1      -2.427   8.205  12.584  1.00  0.00     0.272 C 
HETATM    6  O2  UNL     1      -1.935   9.020  11.823  1.00  0.00    -0.264 OA
HETATM    7  O3  UNL     1      -3.561   8.450  13.347  1.00  0.00    -0.305 OA
HETATM    8  C16 UNL     1      -3.760   7.333  14.237  1.00  0.00     0.113 C 
HETATM    9  C17 UNL     1      -2.789   7.582  15.455  1.00  0.00     0.043 C 
HETATM   10  C18 UNL     1      -1.302   7.791  15.103  1.00  0.00     0.014 C 
HETATM   11  C19 UNL     1      -0.834   6.793  14.026  1.00  0.00    -0.020 C 
HETATM   12  C20 UNL     1      -0.633   5.394  14.665  1.00  0.00     0.017 C 
HETATM   13  C21 UNL     1      -3.211   6.197  13.400  1.00  0.00     0.137 A 
HETATM   14  O4  UNL     1      -3.941   5.878  12.171  1.00  0.00    -0.364 OA
HETATM   15  C22 UNL     1      -4.010   4.914  13.196  1.00  0.00     0.162 A 
HETATM   16  C23 UNL     1      -5.430   4.805  13.681  1.00  0.00     0.041 C 
HETATM   17  C24 UNL     1      -6.102   6.214  13.753  1.00  0.00     0.009 C 
HETATM   18  C25 UNL     1      -7.676   6.184  13.917  1.00  0.00    -0.017 C 
HETATM   19  C26 UNL     1      -8.200   5.289  15.064  1.00  0.00     0.018 C 
HETATM   20  C27 UNL     1      -8.293   5.588  12.616  1.00  0.00     0.018 C 
HETATM   21  C28 UNL     1      -8.221   7.649  14.044  1.00  0.00     0.133 C 
HETATM   22  C35 UNL     1      -7.459   8.478  15.080  1.00  0.00     0.034 C 
HETATM   23  C36 UNL     1      -5.970   8.540  14.766  1.00  0.00     0.015 C 
HETATM   24  C37 UNL     1      -5.284   7.151  14.728  1.00  0.00    -0.004 C 
HETATM   25  C38 UNL     1      -5.307   6.555  16.166  1.00  0.00     0.019 C 
ENDROOT
BRANCH  21  26
HETATM   26  O5  UNL     1      -9.624   7.603  14.366  1.00  0.00    -0.352 OA
BRANCH  26  27
HETATM   27  C29 UNL     1     -10.402   8.604  13.710  1.00  0.00     0.292 C 
HETATM   28  O6  UNL     1     -10.735   9.705  14.559  1.00  0.00    -0.348 OA
HETATM   29  C30 UNL     1     -11.620   9.420  15.657  1.00  0.00     0.179 C 
HETATM   30  C32 UNL     1     -12.905   8.685  15.220  1.00  0.00     0.180 C 
HETATM   31  C33 UNL     1     -12.621   7.526  14.252  1.00  0.00     0.183 C 
HETATM   32  C34 UNL     1     -11.677   7.965  13.129  1.00  0.00     0.204 C 
BRANCH  29  33
HETATM   33  C31 UNL     1     -10.895   8.791  16.860  1.00  0.00     0.198 C 
BRANCH  33  34
HETATM   34  O7  UNL     1     -11.566   9.072  18.088  1.00  0.00    -0.398 OA
HETATM   35  H49 UNL     1     -12.518   8.913  17.927  1.00  0.00     0.209 HD
ENDBRANCH  33  34
ENDBRANCH  29  33
BRANCH  30  36
HETATM   36  O8  UNL     1     -13.648   8.205  16.352  1.00  0.00    -0.390 OA
HETATM   37  H51 UNL     1     -13.573   7.224  16.316  1.00  0.00     0.210 HD
ENDBRANCH  30  36
BRANCH  31  38
HETATM   38  O9  UNL     1     -12.143   6.408  15.014  1.00  0.00    -0.390 OA
HETATM   39  H53 UNL     1     -11.192   6.264  14.804  1.00  0.00     0.210 HD
ENDBRANCH  31  38
BRANCH  32  40
HETATM   40  O10 UNL     1     -12.354   8.885  12.258  1.00  0.00    -0.388 OA
HETATM   41  H55 UNL     1     -12.265   9.781  12.637  1.00  0.00     0.210 HD
ENDBRANCH  32  40
ENDBRANCH  26  27
ENDBRANCH  21  26
BRANCH   1  42
HETATM   42  C2  UNL     1       1.844   7.057  13.833  1.00  0.00    -0.014 C 
HETATM   43  C1  UNL     1       2.025   7.900  15.103  1.00  0.00     0.010 C 
BRANCH  42  44
HETATM   44  C3  UNL     1       2.931   7.435  12.791  1.00  0.00     0.007 C 
BRANCH  44  45
HETATM   45  C4  UNL     1       2.773   6.717  11.436  1.00  0.00     0.038 C 
BRANCH  45  46
HETATM   46  C5  UNL     1       3.593   7.329  10.259  1.00  0.00     0.061 C 
HETATM   47  C6  UNL     1       4.354   8.589  10.719  1.00  0.00     0.046 C 
BRANCH  46  48
HETATM   48  O1  UNL     1       4.576   6.350   9.874  1.00  0.00    -0.389 OA
HETATM   49  H12 UNL     1       5.266   6.317  10.559  1.00  0.00     0.210 HD
ENDBRANCH  46  48
BRANCH  46  50
HETATM   50  C7  UNL     1       2.696   7.602   8.974  1.00  0.00    -0.021 C 
HETATM   51  C8  UNL     1       1.275   8.073   9.375  1.00  0.00     0.017 C 
HETATM   52  C9  UNL     1       3.293   8.723   8.089  1.00  0.00     0.017 C 
HETATM   53  C10 UNL     1       2.538   6.343   8.097  1.00  0.00     0.017 C 
ENDBRANCH  46  50
ENDBRANCH  45  46
ENDBRANCH  44  45
ENDBRANCH  42  44
ENDBRANCH   1  42
TORSDOF 13
ENDMDL
