MODEL 1
REMARK minimizedAffinity -10.1854563
REMARK  10 active torsions:
REMARK  status: ('A' for Active; 'I' for Inactive)
REMARK    1  A    between atoms: C2_2  and  C3_3 
REMARK    2  A    between atoms: C2_2  and  C9_12 
REMARK    3  A    between atoms: C3_3  and  C4_4 
REMARK    4  A    between atoms: C4_4  and  O1_5 
REMARK    5  A    between atoms: C4_4  and  C5_6 
REMARK    6  A    between atoms: C5_6  and  O2_7 
REMARK    7  A    between atoms: C5_6  and  C6_8 
REMARK    8  A    between atoms: C6_8  and  O3_11 
REMARK    9  A    between atoms: C23_27  and  C25_29 
REMARK   10  A    between atoms: C25_29  and  O5_30 
ROOT
HETATM    1  C9  UNL     1       0.883   6.850  12.619  1.00  0.00    -0.002 C 
HETATM    2  C10 UNL     1       1.044   5.385  12.138  1.00  0.00     0.007 C 
HETATM    3  C11 UNL     1      -0.320   4.690  12.368  1.00  0.00     0.015 C 
HETATM    4  C12 UNL     1      -1.147   5.688  13.209  1.00  0.00    -0.013 C 
HETATM    5  C13 UNL     1      -0.751   5.430  14.701  1.00  0.00     0.021 C 
HETATM    6  C14 UNL     1      -2.669   5.595  13.178  1.00  0.00    -0.070 C 
HETATM    7  C15 UNL     1      -3.311   4.419  13.043  1.00  0.00    -0.022 C 
HETATM    8  C16 UNL     1      -4.799   4.243  13.151  1.00  0.00     0.034 C 
HETATM    9  C17 UNL     1      -5.604   5.562  13.218  1.00  0.00     0.015 C 
HETATM   10  C18 UNL     1      -4.852   6.639  14.084  1.00  0.00    -0.031 C 
HETATM   11  C19 UNL     1      -4.670   6.182  15.551  1.00  0.00     0.016 C 
HETATM   12  C20 UNL     1      -5.695   7.932  14.026  1.00  0.00     0.017 C 
HETATM   13  C21 UNL     1      -7.080   7.796  14.627  1.00  0.00     0.080 C 
HETATM   14  C22 UNL     1      -7.663   6.406  14.563  1.00  0.00     0.137 C 
HETATM   15  O4  UNL     1      -8.611   6.132  15.308  1.00  0.00    -0.297 OA
HETATM   16  C23 UNL     1      -7.152   5.409  13.513  1.00  0.00     0.043 C 
HETATM   17  C24 UNL     1      -7.939   5.735  12.221  1.00  0.00     0.026 C 
HETATM   18  C26 UNL     1      -3.448   6.896  13.398  1.00  0.00     0.024 C 
HETATM   19  C27 UNL     1      -2.598   8.016  14.054  1.00  0.00     0.010 C 
HETATM   20  C28 UNL     1      -1.166   8.211  13.497  1.00  0.00     0.011 C 
HETATM   21  C29 UNL     1      -0.665   7.057  12.609  1.00  0.00    -0.029 C 
HETATM   22  C30 UNL     1      -1.151   7.304  11.151  1.00  0.00     0.016 C 
ENDROOT
BRANCH   1  23
HETATM   23  C2  UNL     1       1.808   7.922  11.963  1.00  0.00    -0.011 C 
HETATM   24  C1  UNL     1       1.907   9.128  12.916  1.00  0.00     0.010 C 
BRANCH  23  25
HETATM   25  C3  UNL     1       3.227   7.439  11.557  1.00  0.00     0.039 C 
BRANCH  25  26
HETATM   26  C4  UNL     1       3.577   7.709  10.077  1.00  0.00     0.150 C 
BRANCH  26  27
HETATM   27  O1  UNL     1       4.942   7.307   9.873  1.00  0.00    -0.393 OA
HETATM   28  H8  UNL     1       5.078   7.237   8.902  1.00  0.00     0.210 HD
ENDBRANCH  26  27
BRANCH  26  29
HETATM   29  C5  UNL     1       2.656   6.911   9.113  1.00  0.00     0.180 C 
BRANCH  29  30
HETATM   30  O2  UNL     1       3.409   5.800   8.592  1.00  0.00    -0.390 OA
HETATM   31  H10 UNL     1       4.268   6.178   8.311  1.00  0.00     0.210 HD
ENDBRANCH  29  30
BRANCH  29  32
HETATM   32  C6  UNL     1       2.098   7.750   7.921  1.00  0.00     0.079 C 
HETATM   33  C7  UNL     1       0.747   8.389   8.256  1.00  0.00     0.048 C 
HETATM   34  C8  UNL     1       1.961   6.882   6.662  1.00  0.00     0.048 C 
BRANCH  32  35
HETATM   35  O3  UNL     1       3.019   8.818   7.637  1.00  0.00    -0.388 OA
HETATM   36  H17 UNL     1       2.770   9.197   6.775  1.00  0.00     0.210 HD
ENDBRANCH  32  35
ENDBRANCH  29  32
ENDBRANCH  26  29
ENDBRANCH  25  26
ENDBRANCH  23  25
ENDBRANCH   1  23
BRANCH  16  37
HETATM   37  C25 UNL     1      -7.583   4.000  13.999  1.00  0.00     0.181 C 
BRANCH  37  38
HETATM   38  O5  UNL     1      -8.623   3.442  13.204  1.00  0.00    -0.400 OA
HETATM   39  H42 UNL     1      -9.470   3.717  13.596  1.00  0.00     0.209 HD
ENDBRANCH  37  38
ENDBRANCH  16  37
TORSDOF 10
ENDMDL
