MODEL 1
REMARK minimizedAffinity -7.47542
REMARK CNNscore 0.773959577
REMARK CNNaffinity 6.53676176
REMARK  13 active torsions:
REMARK  status: ('A' for Active; 'I' for Inactive)
REMARK    1  A    between atoms: C3_3  and  O1_4 
REMARK    2  A    between atoms: N1_14  and  O2_16 
REMARK    3  A    between atoms: O2_16  and  C13_17 
REMARK    4  A    between atoms: C13_17  and  C14_18 
REMARK       I    between atoms: C14_18  and  N2_20 
REMARK    5  A    between atoms: N2_20  and  C15_21 
REMARK    6  A    between atoms: C15_21  and  C17_23 
REMARK       I    between atoms: C17_23  and  N3_25 
REMARK    7  A    between atoms: N3_25  and  C18_26 
REMARK    8  A    between atoms: C18_26  and  C19_27 
REMARK    9  A    between atoms: C18_26  and  C22_31 
REMARK   10  A    between atoms: C19_27  and  C20_28 
REMARK   11  A    between atoms: C20_28  and  S1_29 
REMARK   12  A    between atoms: C22_31  and  O6_33 
REMARK   13  A    between atoms: C28_39  and  O7_40 
ROOT
HETATM    1  C1  UNL     1       0.565  52.610 -21.150  1.00  0.00     0.015 C 
HETATM    2  C2  UNL     1      -0.032  51.669 -20.707  1.00  0.00    -0.078 C 
HETATM    3  C3  UNL     1      -0.762  50.510 -20.166  1.00  0.00     0.128 C 
HETATM    4  C4  UNL     1      -0.476  49.227 -20.964  1.00  0.00     0.052 C 
HETATM    5  C5  UNL     1      -1.736  48.363 -20.829  1.00  0.00     0.010 C 
HETATM    6  C6  UNL     1      -2.752  49.180 -20.004  1.00  0.00     0.002 C 
HETATM    7  C7  UNL     1      -4.260  48.890 -20.219  1.00  0.00    -0.002 C 
HETATM    8  C8  UNL     1      -4.541  47.378 -20.363  1.00  0.00     0.010 C 
HETATM    9  C9  UNL     1      -4.852  46.964 -21.794  1.00  0.00     0.035 C 
HETATM   10  C10 UNL     1      -6.060  47.687 -22.322  1.00  0.00    -0.069 C 
HETATM   11  C11 UNL     1      -6.892  47.062 -23.174  1.00  0.00     0.030 C 
HETATM   12  C12 UNL     1      -8.103  47.739 -23.709  1.00  0.00     0.032 C 
HETATM   13  N1  UNL     1      -9.025  46.992 -24.245  1.00  0.00    -0.271 N 
ATOM     14  H1  UNL     1      -8.967  45.976 -24.322  1.00  0.00     0.194 HD
HETATM   15  C23 UNL     1      -8.223  49.246 -23.559  1.00  0.00     0.060 C 
HETATM   16  C24 UNL     1      -6.929  49.881 -23.047  1.00  0.00     0.020 C 
HETATM   17  C25 UNL     1      -6.297  49.122 -21.850  1.00  0.00    -0.014 C 
HETATM   18  C26 UNL     1      -7.341  49.105 -20.692  1.00  0.00     0.020 C 
HETATM   19  C27 UNL     1      -4.974  49.799 -21.283  1.00  0.00     0.031 C 
HETATM   20  C28 UNL     1      -3.951  50.354 -22.296  1.00  0.00     0.124 C 
HETATM   21  C29 UNL     1      -2.806  51.141 -21.625  1.00  0.00     0.045 C 
HETATM   22  C30 UNL     1      -2.319  50.639 -20.238  1.00  0.00     0.005 C 
HETATM   23  C31 UNL     1      -2.864  51.566 -19.133  1.00  0.00     0.020 C 
ENDROOT
BRANCH   3  24
HETATM   24  O1  UNL     1      -0.325  50.326 -18.818  1.00  0.00    -0.377 OA
HETATM   25  H2  UNL     1      -0.434  49.395 -18.569  1.00  0.00     0.211 HD
ENDBRANCH   3  24
BRANCH  20  26
HETATM   26  O7  UNL     1      -4.563  51.276 -23.200  1.00  0.00    -0.395 OA
HETATM   27  H40 UNL     1      -3.879  51.574 -23.826  1.00  0.00     0.210 HD
ENDBRANCH  20  26
BRANCH  13  28
HETATM   28  O2  UNL     1     -10.109  47.758 -24.705  1.00  0.00    -0.271 OA
BRANCH  28  29
HETATM   29  C13 UNL     1     -11.146  46.883 -25.138  1.00  0.00     0.303 C 
BRANCH  29  30
HETATM   30  C14 UNL     1     -12.183  46.651 -24.048  1.00  0.00     0.244 C 
HETATM   31  O3  UNL     1     -11.905  46.715 -22.850  1.00  0.00    -0.271 OA
HETATM   32  N2  UNL     1     -13.426  46.283 -24.503  1.00  0.00    -0.346 N 
HETATM   33  H16 UNL     1     -13.606  46.261 -25.509  1.00  0.00     0.163 HD
BRANCH  32  34
HETATM   34  C15 UNL     1     -14.474  45.802 -23.612  1.00  0.00     0.172 C 
HETATM   35  C16 UNL     1     -14.302  44.304 -23.351  1.00  0.00     0.042 C 
BRANCH  34  36
HETATM   36  C17 UNL     1     -15.856  46.079 -24.239  1.00  0.00     0.240 C 
HETATM   37  O4  UNL     1     -16.072  47.027 -24.993  1.00  0.00    -0.271 OA
HETATM   38  N3  UNL     1     -16.834  45.155 -23.911  1.00  0.00    -0.345 N 
HETATM   39  H21 UNL     1     -16.505  44.267 -23.545  1.00  0.00     0.163 HD
BRANCH  38  40
HETATM   40  C18 UNL     1     -18.073  45.102 -24.688  1.00  0.00     0.183 C 
BRANCH  40  41
HETATM   41  C19 UNL     1     -17.788  45.157 -26.193  1.00  0.00     0.046 C 
BRANCH  41  42
HETATM   42  C20 UNL     1     -18.572  44.088 -26.948  1.00  0.00     0.076 C 
BRANCH  42  43
HETATM   43  S1  UNL     1     -17.724  43.591 -28.490  1.00  0.00    -0.173 SA
HETATM   44  C21 UNL     1     -19.131  43.581 -29.630  1.00  0.00     0.089 C 
ENDBRANCH  42  43
ENDBRANCH  41  42
ENDBRANCH  40  41
BRANCH  40  45
HETATM   45  C22 UNL     1     -18.922  46.314 -24.296  1.00  0.00     0.163 C 
HETATM   46  O5  UNL     1     -19.532  47.047 -25.059  1.00  0.00    -0.648 OA
BRANCH  45  47
HETATM   47  O6  UNL     1     -18.981  46.504 -22.965  1.00  0.00    -0.775 OA
HETATM   48  H30 UNL     1     -19.508  47.325 -22.864  1.00  0.00     0.167 HD
ENDBRANCH  45  47
ENDBRANCH  40  45
ENDBRANCH  38  40
ENDBRANCH  34  36
ENDBRANCH  32  34
ENDBRANCH  29  30
ENDBRANCH  28  29
ENDBRANCH  13  28
TORSDOF 13
ENDMDL
