MODEL 1
REMARK minimizedAffinity -7.58615208
REMARK CNNscore 0.724316835
REMARK CNNaffinity 7.12890625
REMARK  5 active torsions:
REMARK  status: ('A' for Active; 'I' for Inactive)
REMARK    1  A    between atoms: C2_2  and  C3_3 
REMARK    2  A    between atoms: C2_2  and  C25_27 
REMARK    3  A    between atoms: C3_3  and  C4_4 
REMARK    4  A    between atoms: C4_4  and  C5_5 
REMARK    5  A    between atoms: C15_15  and  O1_16 
ROOT
HETATM    1  C5  UNL     1       5.271  53.351  -9.503  1.00  0.00    -0.023 C 
HETATM    2  C6  UNL     1       4.175  53.879 -10.074  1.00  0.00    -0.075 C 
HETATM    3  C7  UNL     1       3.992  55.340 -10.446  1.00  0.00     0.035 C 
HETATM    4  C8  UNL     1       2.522  55.459 -10.873  1.00  0.00     0.013 C 
HETATM    5  C9  UNL     1       1.875  54.266 -10.178  1.00  0.00     0.033 C 
HETATM    6  C10 UNL     1       0.426  53.907 -10.506  1.00  0.00     0.070 C 
HETATM    7  C11 UNL     1      -0.523  55.082 -10.152  1.00  0.00     0.039 C 
HETATM    8  C12 UNL     1      -1.985  54.790 -10.500  1.00  0.00     0.009 C 
HETATM    9  C13 UNL     1      -2.367  53.361 -10.100  1.00  0.00    -0.001 C 
HETATM   10  C14 UNL     1      -3.764  52.974 -10.585  1.00  0.00     0.037 C 
HETATM   11  C15 UNL     1      -4.217  51.658  -9.939  1.00  0.00     0.118 C 
HETATM   12  C16 UNL     1      -3.055  50.749  -9.522  1.00  0.00     0.032 C 
HETATM   13  C17 UNL     1      -1.867  50.871 -10.476  1.00  0.00     0.015 C 
HETATM   14  C18 UNL     1      -1.299  52.308 -10.562  1.00  0.00    -0.009 C 
HETATM   15  C19 UNL     1      -0.789  52.594 -11.994  1.00  0.00     0.179 C 
HETATM   16  O2  UNL     1       0.220  53.619 -11.898  1.00  0.00    -0.379 OA
HETATM   17  C20 UNL     1      -0.011  52.617  -9.767  1.00  0.00     0.032 C 
HETATM   18  C21 UNL     1       1.051  51.490  -9.776  1.00  0.00     0.009 C 
HETATM   19  C22 UNL     1       2.479  51.969  -9.473  1.00  0.00     0.014 C 
HETATM   20  C23 UNL     1       2.890  53.125 -10.401  1.00  0.00    -0.014 C 
HETATM   21  C24 UNL     1       3.044  52.613 -11.852  1.00  0.00     0.020 C 
ENDROOT
BRANCH   1  22
HETATM   22  C4  UNL     1       6.534  54.096  -9.158  1.00  0.00     0.031 C 
BRANCH  22  23
HETATM   23  C3  UNL     1       6.237  55.555  -8.798  1.00  0.00     0.037 C 
BRANCH  23  24
HETATM   24  C2  UNL     1       6.472  55.897  -7.336  1.00  0.00    -0.086 C 
HETATM   25  C1  UNL     1       7.522  55.362  -6.686  1.00  0.00     0.014 C 
BRANCH  24  26
HETATM   26  C25 UNL     1       5.493  56.796  -6.585  1.00  0.00     0.005 C 
HETATM   27  C26 UNL     1       6.208  57.886  -5.784  1.00  0.00     0.014 C 
HETATM   28  C27 UNL     1       4.404  57.400  -7.473  1.00  0.00     0.014 C 
ENDBRANCH  24  26
ENDBRANCH  23  24
ENDBRANCH  22  23
ENDBRANCH   1  22
BRANCH  11  29
HETATM   29  O1  UNL     1      -5.078  50.969 -10.841  1.00  0.00    -0.396 OA
HETATM   30  H21 UNL     1      -4.563  50.721 -11.626  1.00  0.00     0.210 HD
ENDBRANCH  11  29
TORSDOF 5
ENDMDL
