MODEL 1
REMARK minimizedAffinity -9.61425591
REMARK  6 active torsions:
REMARK  status: ('A' for Active; 'I' for Inactive)
REMARK    1  A    between atoms: C2_2  and  C30_33 
REMARK    2  A    between atoms: C3_3  and  C4_4 
REMARK    3  A    between atoms: C4_4  and  C5_5 
REMARK    4  A    between atoms: C5_5  and  C6_6 
REMARK    5  A    between atoms: C6_6  and  C8_8 
REMARK    6  A    between atoms: C30_33  and  O5_35 
ROOT
HETATM    1  C8  UNL     1      -2.281   6.034  12.905  1.00  0.00    -0.001 C 
HETATM    2  C9  UNL     1      -2.154   5.148  11.636  1.00  0.00     0.007 C 
HETATM    3  C10 UNL     1      -0.674   5.189  11.208  1.00  0.00     0.015 C 
HETATM    4  C11 UNL     1       0.081   5.761  12.425  1.00  0.00    -0.004 C 
HETATM    5  C12 UNL     1       0.322   4.574  13.409  1.00  0.00     0.021 C 
HETATM    6  C13 UNL     1       1.445   6.413  12.261  1.00  0.00     0.007 C 
HETATM    7  C14 UNL     1       1.911   7.359  13.115  1.00  0.00     0.007 C 
HETATM    8  C15 UNL     1       0.972   7.833  14.218  1.00  0.00     0.157 C 
HETATM    9  O1  UNL     1       1.370   8.599  15.093  1.00  0.00    -0.293 OA
HETATM   10  C16 UNL     1      -0.480   7.367  14.261  1.00  0.00     0.094 C 
HETATM   11  C17 UNL     1      -0.951   6.848  12.905  1.00  0.00    -0.022 C 
HETATM   12  C18 UNL     1      -1.059   8.059  11.933  1.00  0.00     0.017 C 
HETATM   13  C19 UNL     1       3.320   8.003  13.037  1.00  0.00    -0.007 C 
HETATM   14  C20 UNL     1       3.112   9.449  12.521  1.00  0.00     0.021 C 
HETATM   15  C21 UNL     1       4.019   8.058  14.434  1.00  0.00     0.022 C 
HETATM   16  C22 UNL     1       5.545   7.978  14.429  1.00  0.00     0.080 C 
HETATM   17  C23 UNL     1       6.133   8.472  13.131  1.00  0.00     0.135 C 
HETATM   18  O2  UNL     1       6.977   9.366  13.116  1.00  0.00    -0.297 OA
HETATM   19  C24 UNL     1       5.683   7.742  11.861  1.00  0.00     0.018 C 
HETATM   20  C25 UNL     1       5.789   8.689  10.650  1.00  0.00     0.023 C 
HETATM   21  C26 UNL     1       6.689   6.591  11.635  1.00  0.00     0.023 C 
HETATM   22  C27 UNL     1       4.249   7.155  12.094  1.00  0.00     0.021 C 
HETATM   23  C28 UNL     1       3.529   6.784  10.799  1.00  0.00     0.090 C 
HETATM   24  C29 UNL     1       2.311   5.963  11.128  1.00  0.00     0.157 C 
HETATM   25  O3  UNL     1       2.030   4.970  10.463  1.00  0.00    -0.293 OA
ENDROOT
BRANCH   1  26
HETATM   26  C6  UNL     1      -3.686   6.684  13.081  1.00  0.00    -0.014 C 
HETATM   27  C7  UNL     1      -3.728   8.205  13.275  1.00  0.00     0.010 C 
BRANCH  26  28
HETATM   28  C5  UNL     1      -4.505   5.973  14.184  1.00  0.00     0.008 C 
BRANCH  28  29
HETATM   29  C4  UNL     1      -5.772   5.252  13.696  1.00  0.00     0.028 C 
BRANCH  29  30
HETATM   30  C3  UNL     1      -5.473   4.199  12.664  1.00  0.00    -0.013 C 
HETATM   31  C2  UNL     1      -6.241   3.151  12.298  1.00  0.00     0.008 C 
HETATM   32  C1  UNL     1      -7.589   2.804  12.858  1.00  0.00     0.055 C 
BRANCH  31  33
HETATM   33  C30 UNL     1      -5.780   2.207  11.242  1.00  0.00     0.171 C 
HETATM   34  O4  UNL     1      -5.884   0.994  11.291  1.00  0.00    -0.646 OA
BRANCH  33  35
HETATM   35  O5  UNL     1      -5.232   2.806  10.172  1.00  0.00    -0.773 OA
HETATM   36  H42 UNL     1      -4.997   2.056   9.587  1.00  0.00     0.167 HD
ENDBRANCH  33  35
ENDBRANCH  31  33
ENDBRANCH  29  30
ENDBRANCH  28  29
ENDBRANCH  26  28
ENDBRANCH   1  26
TORSDOF 6
ENDMDL
