MODEL 1
REMARK minimizedAffinity -7.68191814
REMARK CNNscore 0.414895296
REMARK CNNaffinity 6.15418482
REMARK  9 active torsions:
REMARK  status: ('A' for Active; 'I' for Inactive)
REMARK    1  A    between atoms: C7_8  and  O1_9 
REMARK    2  A    between atoms: O1_9  and  C8_10 
REMARK    3  A    between atoms: C8_10  and  C9_11 
REMARK       I    between atoms: C9_11  and  N1_13 
REMARK    4  A    between atoms: N1_13  and  N2_14 
REMARK    5  A    between atoms: C10_16  and  C11_17 
REMARK    6  A    between atoms: C14_20  and  O3_21 
REMARK    7  A    between atoms: C16_23  and  O4_24 
REMARK    8  A    between atoms: C25_33  and  C26_34 
REMARK    9  A    between atoms: C32_42  and  O7_43 
ROOT
HETATM    1  C11 UNL     1     -11.395  46.400 -27.432  1.00  0.00     0.028 C 
HETATM    2  C12 UNL     1     -11.268  47.811 -26.774  1.00  0.00     0.021 C 
HETATM    3  C13 UNL     1      -9.856  48.412 -26.814  1.00  0.00     0.033 C 
HETATM    4  C14 UNL     1      -8.977  47.854 -27.925  1.00  0.00     0.121 C 
HETATM    5  C15 UNL     1      -8.870  46.320 -27.900  1.00  0.00     0.070 C 
HETATM    6  C16 UNL     1     -10.060  45.628 -27.195  1.00  0.00     0.073 C 
HETATM    7  C17 UNL     1     -10.140  44.147 -27.604  1.00  0.00     0.039 C 
HETATM    8  C18 UNL     1     -11.331  43.421 -26.973  1.00  0.00     0.011 C 
HETATM    9  C19 UNL     1     -12.669  44.136 -27.251  1.00  0.00     0.026 C 
HETATM   10  C20 UNL     1     -12.613  45.624 -26.809  1.00  0.00     0.009 C 
HETATM   11  C21 UNL     1     -13.971  46.339 -26.999  1.00  0.00     0.007 C 
HETATM   12  C22 UNL     1     -15.031  45.483 -27.682  1.00  0.00     0.013 C 
HETATM   13  C23 UNL     1     -15.259  44.068 -27.087  1.00  0.00    -0.005 C 
HETATM   14  C24 UNL     1     -15.999  43.259 -28.183  1.00  0.00     0.019 C 
HETATM   15  C25 UNL     1     -16.111  44.022 -25.776  1.00  0.00     0.028 C 
HETATM   16  C30 UNL     1     -15.102  44.202 -24.648  1.00  0.00     0.013 C 
HETATM   17  C31 UNL     1     -13.916  43.362 -25.097  1.00  0.00     0.040 C 
HETATM   18  C32 UNL     1     -13.900  43.400 -26.647  1.00  0.00     0.070 C 
ENDROOT
BRANCH   1  19
HETATM   19  C10 UNL     1     -11.653  46.510 -28.948  1.00  0.00     0.093 C 
HETATM   20  N2  UNL     1     -11.469  45.509 -29.746  1.00  0.00    -0.312 N 
ATOM     21  H2  UNL     1     -11.168  44.598 -29.401  1.00  0.00     0.185 HD
BRANCH  20  22
HETATM   22  N1  UNL     1     -11.698  45.732 -31.070  1.00  0.00    -0.269 N 
HETATM   23  C9  UNL     1     -10.608  45.921 -31.921  1.00  0.00     0.260 C 
HETATM   24  O2  UNL     1      -9.433  45.908 -31.565  1.00  0.00    -0.269 OA
HETATM   25  H9  UNL     1     -12.648  45.859 -31.405  1.00  0.00     0.190 HD
BRANCH  23  26
HETATM   26  C8  UNL     1     -11.039  46.167 -33.374  1.00  0.00     0.280 C 
BRANCH  26  27
HETATM   27  O1  UNL     1     -10.351  45.439 -34.375  1.00  0.00    -0.342 OA
BRANCH  27  28
HETATM   28  C7  UNL     1      -9.650  46.134 -35.325  1.00  0.00     0.075 A 
HETATM   29  C2  UNL     1     -10.105  45.976 -36.649  1.00  0.00    -0.027 A 
HETATM   30  C1  UNL     1     -11.296  45.109 -36.956  1.00  0.00     0.051 C 
HETATM   31  C3  UNL     1      -9.439  46.635 -37.696  1.00  0.00     0.033 A 
HETATM   32  C4  UNL     1      -8.339  47.445 -37.427  1.00  0.00     0.034 A 
HETATM   33 CL1  UNL     1      -7.527  48.247 -38.714  1.00  0.00    -0.084 Cl
HETATM   34  C5  UNL     1      -7.890  47.605 -36.119  1.00  0.00     0.026 A 
HETATM   35  C6  UNL     1      -8.543  46.950 -35.069  1.00  0.00     0.039 A 
ENDBRANCH  27  28
ENDBRANCH  26  27
ENDBRANCH  23  26
ENDBRANCH  20  22
ENDBRANCH   1  19
BRANCH   6  36
HETATM   36  O4  UNL     1      -9.721  45.638 -25.794  1.00  0.00    -0.389 OA
HETATM   37  H19 UNL     1     -10.453  45.289 -25.262  1.00  0.00     0.210 HD
ENDBRANCH   6  36
BRANCH   4  38
HETATM   38  O3  UNL     1      -7.676  48.428 -27.818  1.00  0.00    -0.395 OA
HETATM   39  H16 UNL     1      -7.152  48.124 -28.577  1.00  0.00     0.210 HD
ENDBRANCH   4  38
BRANCH  18  40
HETATM   40  O7  UNL     1     -13.875  42.044 -27.107  1.00  0.00    -0.389 OA
HETATM   41  H41 UNL     1     -13.204  41.549 -26.608  1.00  0.00     0.210 HD
ENDBRANCH  18  40
BRANCH  15  42
HETATM   42  C26 UNL     1     -17.329  44.893 -25.678  1.00  0.00    -0.045 A 
HETATM   43  C27 UNL     1     -17.431  45.989 -24.925  1.00  0.00     0.087 A 
HETATM   44  C28 UNL     1     -18.755  46.559 -25.159  1.00  0.00     0.283 A 
HETATM   45  O5  UNL     1     -19.181  47.567 -24.626  1.00  0.00    -0.260 OA
HETATM   46  O6  UNL     1     -19.415  45.789 -26.063  1.00  0.00    -0.314 OA
HETATM   47  C29 UNL     1     -18.574  44.704 -26.460  1.00  0.00     0.213 A 
ENDBRANCH  15  42
TORSDOF 9
ENDMDL
