MODEL 1
REMARK minimizedAffinity -9.17445564
REMARK CNNscore 0.593590677
REMARK CNNaffinity 7.46892691
REMARK  14 active torsions:
REMARK  status: ('A' for Active; 'I' for Inactive)
REMARK    1  A    between atoms: O1_2  and  C2_3 
REMARK    2  A    between atoms: C6_8  and  C7_9 
REMARK    3  A    between atoms: C7_9  and  O3_11 
REMARK    4  A    between atoms: C8_12  and  C9_13 
REMARK    5  A    between atoms: C9_13  and  C10_14 
REMARK    6  A    between atoms: C10_14  and  N2_15 
REMARK       I    between atoms: N2_15  and  C11_16 
REMARK    7  A    between atoms: C11_16  and  C12_18 
REMARK    8  A    between atoms: C12_18  and  C13_19 
REMARK    9  A    between atoms: C13_19  and  C14_20 
REMARK   10  A    between atoms: C14_20  and  O6_22 
REMARK   11  A    between atoms: O6_22  and  C15_23 
REMARK   12  A    between atoms: C15_23  and  C16_24 
REMARK   13  A    between atoms: C16_24  and  C17_26 
REMARK   14  A    between atoms: C17_26  and  O8_27 
ROOT
HETATM    1  C14 UNL     1      -2.380  11.380  16.971  1.00  0.00     0.259 C 
HETATM    2  O5  UNL     1      -2.576  12.346  17.700  1.00  0.00    -0.265 OA
ENDROOT
BRANCH   1   3
HETATM    3  C13 UNL     1      -3.254  10.151  16.908  1.00  0.00     0.120 C 
BRANCH   3   4
HETATM    4  C12 UNL     1      -4.412  10.358  15.939  1.00  0.00     0.112 C 
BRANCH   4   5
HETATM    5  C11 UNL     1      -5.005   9.035  15.491  1.00  0.00     0.218 C 
HETATM    6  N2  UNL     1      -4.199   7.956  15.781  1.00  0.00    -0.361 N 
HETATM    7  H12 UNL     1      -3.373   8.099  16.347  1.00  0.00     0.162 HD
HETATM    8  O4  UNL     1      -6.083   8.948  14.913  1.00  0.00    -0.274 OA
BRANCH   6   9
HETATM    9  C10 UNL     1      -4.641   6.592  15.552  1.00  0.00     0.127 C 
BRANCH   9  10
HETATM   10  C9  UNL     1      -4.032   5.964  14.296  1.00  0.00     0.061 C 
BRANCH  10  11
HETATM   11  C8  UNL     1      -5.059   5.222  13.486  1.00  0.00    -0.011 A 
HETATM   12  C6  UNL     1      -4.847   4.182  12.581  1.00  0.00     0.114 A 
HETATM   13  N1  UNL     1      -6.081   3.831  12.079  1.00  0.00    -0.350 N 
HETATM   14  C5  UNL     1      -7.076   4.614  12.607  1.00  0.00     0.043 A 
HETATM   15  H6  UNL     1      -6.221   3.099  11.395  1.00  0.00     0.166 HD
HETATM   16  C4  UNL     1      -8.450   4.610  12.356  1.00  0.00     0.033 A 
HETATM   17  C36 UNL     1      -6.473   5.489  13.503  1.00  0.00     0.002 A 
HETATM   18  C3  UNL     1      -9.233   5.532  13.057  1.00  0.00     0.039 A 
HETATM   19  C2  UNL     1      -8.672   6.422  13.973  1.00  0.00     0.069 A 
HETATM   20  C37 UNL     1      -7.290   6.409  14.200  1.00  0.00     0.051 A 
BRANCH  12  21
HETATM   21  C7  UNL     1      -3.664   3.495  12.134  1.00  0.00     0.194 C 
HETATM   22  O2  UNL     1      -3.367   2.334  12.372  1.00  0.00    -0.645 OA
BRANCH  21  23
HETATM   23  O3  UNL     1      -2.876   4.274  11.376  1.00  0.00    -0.772 OA
HETATM   24  H7  UNL     1      -2.116   3.713  11.133  1.00  0.00     0.167 HD
ENDBRANCH  21  23
ENDBRANCH  12  21
BRANCH  19  25
HETATM   25  O1  UNL     1      -9.576   7.255  14.578  1.00  0.00    -0.356 OA
HETATM   26  C1  UNL     1     -10.819   7.446  13.913  1.00  0.00     0.210 C 
ENDBRANCH  19  25
ENDBRANCH  10  11
ENDBRANCH   9  10
ENDBRANCH   6   9
ENDBRANCH   4   5
ENDBRANCH   3   4
ENDBRANCH   1   3
BRANCH   1  27
HETATM   27  O6  UNL     1      -1.318  11.248  16.134  1.00  0.00    -0.314 OA
BRANCH  27  28
HETATM   28  C15 UNL     1      -0.888   9.913  15.900  1.00  0.00     0.260 C 
BRANCH  28  29
HETATM   29  C16 UNL     1      -0.991   9.420  14.457  1.00  0.00     0.185 C 
HETATM   30  O7  UNL     1      -1.373  10.204  13.580  1.00  0.00    -0.292 OA
BRANCH  29  31
HETATM   31  C17 UNL     1      -0.541   7.962  14.112  1.00  0.00     0.128 C 
HETATM   32  C18 UNL     1      -1.589   7.351  13.153  1.00  0.00     0.047 C 
HETATM   33  C19 UNL     1      -1.070   7.577  11.728  1.00  0.00     0.009 C 
HETATM   34  C20 UNL     1       0.294   8.276  11.865  1.00  0.00     0.002 C 
HETATM   35  C21 UNL     1       1.310   7.993  10.740  1.00  0.00    -0.004 C 
HETATM   36  C34 UNL     1       0.781   7.878  13.275  1.00  0.00    -0.002 C 
HETATM   37  C22 UNL     1       0.722   8.338   9.364  1.00  0.00     0.010 C 
HETATM   38  C31 UNL     1       1.854   6.542  10.749  1.00  0.00     0.002 C 
HETATM   39  C23 UNL     1       1.772   8.195   8.272  1.00  0.00     0.035 C 
HETATM   40  C24 UNL     1       2.379   6.813   8.256  1.00  0.00    -0.068 C 
HETATM   41  C25 UNL     1       2.484   6.148   7.092  1.00  0.00     0.053 C 
HETATM   42  C29 UNL     1       2.898   6.268   9.592  1.00  0.00    -0.016 C 
HETATM   43  C26 UNL     1       3.197   4.854   6.988  1.00  0.00     0.149 C 
HETATM   44  O9  UNL     1       3.306   4.312   5.890  1.00  0.00    -0.293 OA
HETATM   45  C27 UNL     1       3.850   4.296   8.226  1.00  0.00     0.084 C 
HETATM   46  C28 UNL     1       3.103   4.727   9.480  1.00  0.00     0.022 C 
HETATM   47  C30 UNL     1       4.262   6.940   9.873  1.00  0.00     0.020 C 
HETATM   48  C32 UNL     1       2.387   6.187  12.152  1.00  0.00     0.007 C 
HETATM   49  C33 UNL     1       1.352   6.430  13.254  1.00  0.00     0.013 C 
HETATM   50  C35 UNL     1       1.879   8.831  13.775  1.00  0.00     0.019 C 
BRANCH  31  51
HETATM   51  O8  UNL     1      -0.495   7.118  15.252  1.00  0.00    -0.381 OA
HETATM   52  H19 UNL     1       0.290   7.351  15.790  1.00  0.00     0.211 HD
ENDBRANCH  31  51
ENDBRANCH  29  31
ENDBRANCH  28  29
ENDBRANCH  27  28
ENDBRANCH   1  27
TORSDOF 14
ENDMDL
