MODEL 1
REMARK minimizedAffinity -8.20452404
REMARK  7 active torsions:
REMARK  status: ('A' for Active; 'I' for Inactive)
REMARK    1  A    between atoms: O1_2  and  C2_3 
REMARK    2  A    between atoms: C2_3  and  C3_5 
REMARK    3  A    between atoms: C14_16  and  C15_17 
REMARK    4  A    between atoms: C15_17  and  O4_19 
REMARK    5  A    between atoms: O4_19  and  C16_20 
REMARK    6  A    between atoms: C16_20  and  C17_21 
REMARK    7  A    between atoms: C17_21  and  N1_22 
ROOT
HETATM    1  C3  UNL     1      -7.025   4.082  12.824  1.00  0.00     0.049 C 
HETATM    2  C4  UNL     1      -7.131   3.596  14.288  1.00  0.00     0.026 C 
HETATM    3  C5  UNL     1      -7.466   2.924  11.900  1.00  0.00     0.020 C 
HETATM    4  C6  UNL     1      -6.508   1.743  11.869  1.00  0.00     0.002 C 
HETATM    5  C7  UNL     1      -5.055   2.097  12.166  1.00  0.00     0.010 C 
HETATM    6  C8  UNL     1      -4.625   3.529  11.757  1.00  0.00    -0.034 C 
HETATM    7  C9  UNL     1      -4.720   3.654  10.213  1.00  0.00     0.016 C 
HETATM    8  C10 UNL     1      -3.121   3.742  12.224  1.00  0.00     0.006 C 
HETATM    9  C11 UNL     1      -2.085   2.926  11.419  1.00  0.00     0.010 C 
HETATM   10  C12 UNL     1      -0.668   3.103  11.961  1.00  0.00     0.035 C 
HETATM   11  C13 UNL     1      -0.264   4.563  12.008  1.00  0.00    -0.070 C 
HETATM   12  C14 UNL     1       0.888   4.942  11.416  1.00  0.00     0.085 C 
HETATM   13  C20 UNL     1      -1.251   5.459  12.748  1.00  0.00     0.022 C 
HETATM   14  C21 UNL     1      -1.094   5.249  14.263  1.00  0.00     0.015 C 
HETATM   15  C22 UNL     1      -2.696   5.230  12.227  1.00  0.00     0.068 C 
HETATM   16  C23 UNL     1      -3.683   6.072  13.016  1.00  0.00     0.132 C 
HETATM   17  O5  UNL     1      -3.498   7.270  13.224  1.00  0.00    -0.298 OA
HETATM   18  C24 UNL     1      -4.903   5.367  13.554  1.00  0.00     0.085 C 
HETATM   19  C25 UNL     1      -5.594   4.605  12.412  1.00  0.00     0.019 C 
ENDROOT
BRANCH  12  20
HETATM   20  C15 UNL     1       1.576   6.251  11.328  1.00  0.00     0.283 C 
HETATM   21  O3  UNL     1       1.077   7.263  11.801  1.00  0.00    -0.260 OA
BRANCH  20  22
HETATM   22  O4  UNL     1       2.729   6.189  10.630  1.00  0.00    -0.316 OA
BRANCH  22  23
HETATM   23  C16 UNL     1       2.591   6.128   9.199  1.00  0.00     0.209 C 
BRANCH  23  24
HETATM   24  C17 UNL     1       3.003   7.468   8.568  1.00  0.00     0.298 C 
BRANCH  24  25
HETATM   25  N1  UNL     1       1.992   8.038   7.657  1.00  0.00     0.082 N 
HETATM   26  C18 UNL     1       1.796   7.147   6.510  1.00  0.00     0.309 C 
HETATM   27  C19 UNL     1       0.712   8.249   8.338  1.00  0.00     0.309 C 
ENDBRANCH  24  25
ENDBRANCH  23  24
ENDBRANCH  22  23
ENDBRANCH  20  22
ENDBRANCH  12  20
BRANCH   1  28
HETATM   28  C2  UNL     1      -8.035   5.234  12.604  1.00  0.00     0.267 C 
HETATM   29  O2  UNL     1      -8.574   5.489  11.534  1.00  0.00    -0.264 OA
BRANCH  28  30
HETATM   30  O1  UNL     1      -8.215   5.963  13.738  1.00  0.00    -0.326 OA
HETATM   31  C1  UNL     1      -9.490   6.600  13.835  1.00  0.00     0.213 C 
ENDBRANCH  28  30
ENDBRANCH   1  28
TORSDOF 7
ENDMDL
