MODEL 1
REMARK minimizedAffinity -8.50323391
REMARK CNNscore 0.83639431
REMARK CNNaffinity 7.18873787
REMARK  13 active torsions:
REMARK  status: ('A' for Active; 'I' for Inactive)
REMARK    1  A    between atoms: C14_15  and  O2_16 
REMARK    2  A    between atoms: C14_15  and  C15_17 
REMARK    3  A    between atoms: C15_17  and  C16_19 
REMARK    4  A    between atoms: C16_19  and  O4_20 
REMARK    5  A    between atoms: O4_20  and  C17_21 
REMARK    6  A    between atoms: C17_21  and  C18_23 
REMARK    7  A    between atoms: C18_23  and  C19_24 
REMARK    8  A    between atoms: C19_24  and  C20_25 
REMARK       I    between atoms: C20_25  and  N1_27 
REMARK    9  A    between atoms: N1_27  and  C21_28 
REMARK   10  A    between atoms: C21_28  and  C22_29 
REMARK   11  A    between atoms: C22_29  and  C23_30 
REMARK   12  A    between atoms: C26_33  and  O7_34 
REMARK   13  A    between atoms: C27_35  and  O8_36 
ROOT
HETATM    1  C15 UNL     1      -2.218  51.805 -10.240  1.00  0.00     0.185 C 
HETATM    2  O3  UNL     1      -2.694  51.583  -9.122  1.00  0.00    -0.292 OA
ENDROOT
BRANCH   1   3
HETATM    3  C14 UNL     1      -0.835  52.475 -10.411  1.00  0.00     0.128 C 
HETATM    4  C13 UNL     1      -0.462  52.611 -11.894  1.00  0.00     0.047 C 
HETATM    5  C12 UNL     1       0.707  53.585 -11.864  1.00  0.00     0.009 C 
HETATM    6  C11 UNL     1       0.333  54.625 -10.793  1.00  0.00     0.002 C 
HETATM    7  C10 UNL     1       1.526  55.208  -9.999  1.00  0.00     0.003 C 
HETATM    8  C29 UNL     1      -0.761  53.954  -9.893  1.00  0.00     0.005 C 
HETATM    9  C9  UNL     1       2.582  55.810 -10.949  1.00  0.00     0.010 C 
HETATM   10  C33 UNL     1       2.123  54.188  -8.976  1.00  0.00     0.072 C 
HETATM   11  C8  UNL     1       3.783  56.380 -10.198  1.00  0.00     0.035 C 
HETATM   12  C7  UNL     1       4.336  55.289  -9.320  1.00  0.00    -0.067 C 
HETATM   13  C2  UNL     1       3.383  54.765  -8.230  1.00  0.00    -0.009 C 
HETATM   14  C6  UNL     1       5.535  54.753  -9.608  1.00  0.00     0.053 C 
HETATM   15  C1  UNL     1       2.986  55.921  -7.274  1.00  0.00     0.021 C 
HETATM   16  C3  UNL     1       4.144  53.729  -7.347  1.00  0.00     0.022 C 
HETATM   17  C4  UNL     1       4.997  52.744  -8.129  1.00  0.00     0.084 C 
HETATM   18  C5  UNL     1       5.995  53.501  -8.964  1.00  0.00     0.149 C 
HETATM   19  O1  UNL     1       7.121  53.074  -9.202  1.00  0.00    -0.293 OA
HETATM   20  C32 UNL     1       1.001  53.738  -8.028  1.00  0.00     0.133 C 
HETATM   21  C31 UNL     1      -0.428  54.083  -8.397  1.00  0.00     0.091 C 
HETATM   22  O9  UNL     1       1.214  53.152  -6.968  1.00  0.00    -0.297 OA
HETATM   23  C30 UNL     1      -2.095  54.709 -10.127  1.00  0.00     0.019 C 
BRANCH   3  24
HETATM   24  O2  UNL     1       0.187  51.698  -9.786  1.00  0.00    -0.381 OA
HETATM   25  H19 UNL     1       0.297  50.871 -10.295  1.00  0.00     0.211 HD
ENDBRANCH   3  24
ENDBRANCH   1   3
BRANCH   1  26
HETATM   26  C16 UNL     1      -2.941  51.370 -11.518  1.00  0.00     0.260 C 
BRANCH  26  27
HETATM   27  O4  UNL     1      -2.974  49.951 -11.684  1.00  0.00    -0.314 OA
BRANCH  27  28
HETATM   28  C17 UNL     1      -3.061  49.546 -12.984  1.00  0.00     0.259 C 
HETATM   29  O5  UNL     1      -3.553  48.487 -13.351  1.00  0.00    -0.265 OA
BRANCH  28  30
HETATM   30  C18 UNL     1      -2.455  50.599 -13.881  1.00  0.00     0.120 C 
BRANCH  30  31
HETATM   31  C19 UNL     1      -1.513  49.981 -14.905  1.00  0.00     0.112 C 
BRANCH  31  32
HETATM   32  C20 UNL     1      -1.791  50.467 -16.315  1.00  0.00     0.218 C 
HETATM   33  O6  UNL     1      -2.822  51.043 -16.647  1.00  0.00    -0.274 OA
HETATM   34  N1  UNL     1      -0.737  50.233 -17.173  1.00  0.00    -0.361 N 
HETATM   35  H26 UNL     1       0.152  49.941 -16.783  1.00  0.00     0.162 HD
BRANCH  34  36
HETATM   36  C21 UNL     1      -0.741  50.703 -18.546  1.00  0.00     0.127 C 
BRANCH  36  37
HETATM   37  C22 UNL     1      -0.331  52.174 -18.684  1.00  0.00     0.058 C 
BRANCH  37  38
HETATM   38  C23 UNL     1       0.040  52.567 -20.100  1.00  0.00    -0.054 A 
HETATM   39  C24 UNL     1      -0.571  51.928 -21.193  1.00  0.00     0.010 A 
HETATM   40  C25 UNL     1      -0.261  52.298 -22.505  1.00  0.00     0.040 A 
HETATM   41  C26 UNL     1       0.658  53.315 -22.721  1.00  0.00     0.098 A 
HETATM   42  C27 UNL     1       1.270  53.951 -21.644  1.00  0.00     0.099 A 
HETATM   43  C28 UNL     1       0.975  53.584 -20.339  1.00  0.00     0.046 A 
BRANCH  41  44
HETATM   44  O7  UNL     1       0.988  53.736 -23.978  1.00  0.00    -0.358 OA
HETATM   45  H33 UNL     1       0.490  53.200 -24.618  1.00  0.00     0.217 HD
ENDBRANCH  41  44
BRANCH  42  46
HETATM   46  O8  UNL     1       2.160  54.962 -21.868  1.00  0.00    -0.358 OA
HETATM   47  H34 UNL     1       2.229  55.009 -22.843  1.00  0.00     0.217 HD
ENDBRANCH  42  46
ENDBRANCH  37  38
ENDBRANCH  36  37
ENDBRANCH  34  36
ENDBRANCH  31  32
ENDBRANCH  30  31
ENDBRANCH  28  30
ENDBRANCH  27  28
ENDBRANCH  26  27
ENDBRANCH   1  26
TORSDOF 13
ENDMDL
