MODEL 1
REMARK minimizedAffinity -9.64344406
REMARK  7 active torsions:
REMARK  status: ('A' for Active; 'I' for Inactive)
REMARK    1  A    between atoms: C2_2  and  C4_4 
REMARK    2  A    between atoms: C7_7  and  O1_9 
REMARK    3  A    between atoms: C9_10  and  C10_11 
REMARK    4  A    between atoms: C11_12  and  C12_13 
REMARK    5  A    between atoms: C14_15  and  C15_16 
REMARK    6  A    between atoms: C24_26  and  C26_28 
REMARK    7  A    between atoms: C29_32  and  O4_34 
ROOT
HETATM    1  C15 UNL     1      -0.243   7.674  13.240  1.00  0.00     0.149 C 
HETATM    2  C16 UNL     1       1.077   6.897  13.295  1.00  0.00     0.054 C 
HETATM    3  C17 UNL     1       2.046   7.623  12.327  1.00  0.00     0.050 C 
HETATM    4  C18 UNL     1       1.398   9.031  12.360  1.00  0.00     0.272 C 
HETATM    5  O2  UNL     1       1.709   9.798  13.521  1.00  0.00    -0.360 OA
HETATM    6  C19 UNL     1       2.888  10.570  13.397  1.00  0.00     0.171 C 
HETATM    7  C20 UNL     1       4.091   9.818  13.937  1.00  0.00     0.027 C 
HETATM    8  C21 UNL     1       3.886   8.315  14.112  1.00  0.00     0.012 C 
HETATM    9  C22 UNL     1       3.536   7.512  12.839  1.00  0.00     0.032 C 
HETATM   10  C23 UNL     1       4.600   7.707  11.735  1.00  0.00    -0.066 C 
HETATM   11  C24 UNL     1       5.861   7.207  11.778  1.00  0.00    -0.021 C 
HETATM   12  C25 UNL     1       6.902   7.425  10.715  1.00  0.00     0.052 C 
HETATM   13  C27 UNL     1       4.101   8.478  10.537  1.00  0.00     0.038 C 
HETATM   14  C28 UNL     1       2.883   7.823   9.892  1.00  0.00     0.042 C 
HETATM   15  C29 UNL     1       1.989   7.011  10.861  1.00  0.00     0.067 C 
HETATM   16  C30 UNL     1       2.383   5.517  10.795  1.00  0.00     0.047 C 
HETATM   17  O5  UNL     1      -0.019   8.813  12.407  1.00  0.00    -0.351 OA
ENDROOT
BRANCH   1  18
HETATM   18  C14 UNL     1      -1.396   6.887  12.684  1.00  0.00     0.011 C 
HETATM   19  C12 UNL     1      -2.156   5.963  13.311  1.00  0.00    -0.064 C 
HETATM   20  C13 UNL     1      -1.985   5.593  14.763  1.00  0.00     0.048 C 
BRANCH  19  21
HETATM   21  C11 UNL     1      -3.224   5.313  12.554  1.00  0.00     0.003 C 
HETATM   22  C10 UNL     1      -4.161   4.483  13.045  1.00  0.00    -0.018 C 
BRANCH  22  23
HETATM   23  C9  UNL     1      -5.288   3.826  12.273  1.00  0.00     0.050 C 
HETATM   24  C4  UNL     1      -6.552   3.357  13.063  1.00  0.00     0.024 C 
HETATM   25  C5  UNL     1      -7.124   2.260  12.150  1.00  0.00     0.013 C 
HETATM   26  C6  UNL     1      -5.888   1.489  11.714  1.00  0.00     0.039 C 
HETATM   27  C7  UNL     1      -4.848   2.582  11.423  1.00  0.00     0.062 C 
HETATM   28  C8  UNL     1      -3.437   2.045  11.662  1.00  0.00     0.046 C 
BRANCH  24  29
HETATM   29  C2  UNL     1      -7.532   4.469  13.439  1.00  0.00    -0.088 C 
HETATM   30  C1  UNL     1      -8.451   4.994  12.608  1.00  0.00     0.014 C 
HETATM   31  C3  UNL     1      -7.472   4.958  14.866  1.00  0.00     0.043 C 
ENDBRANCH  24  29
BRANCH  27  32
HETATM   32  O1  UNL     1      -4.912   2.922  10.029  1.00  0.00    -0.390 OA
HETATM   33  H14 UNL     1      -5.825   3.182   9.818  1.00  0.00     0.210 HD
ENDBRANCH  27  32
ENDBRANCH  22  23
ENDBRANCH  19  21
ENDBRANCH   1  18
BRANCH  15  34
HETATM   34  O4  UNL     1       0.663   7.061  10.325  1.00  0.00    -0.389 OA
HETATM   35  H44 UNL     1       0.681   6.750   9.404  1.00  0.00     0.210 HD
ENDBRANCH  15  34
BRANCH  11  36
HETATM   36  C26 UNL     1       6.361   6.375  12.917  1.00  0.00     0.265 C 
HETATM   37  O3  UNL     1       6.824   6.836  13.951  1.00  0.00    -0.302 OA
ENDBRANCH  11  36
TORSDOF 7
ENDMDL
