MODEL 1
REMARK minimizedAffinity -8.81923008
REMARK CNNscore 0.571084678
REMARK CNNaffinity 6.81073999
REMARK  12 active torsions:
REMARK  status: ('A' for Active; 'I' for Inactive)
REMARK    1  A    between atoms: C3_3  and  O1_4 
REMARK    2  A    between atoms: N1_14  and  O2_16 
REMARK    3  A    between atoms: O2_16  and  C13_17 
REMARK    4  A    between atoms: C13_17  and  C14_18 
REMARK       I    between atoms: C14_18  and  N2_20 
REMARK    5  A    between atoms: N2_20  and  C15_21 
REMARK    6  A    between atoms: C15_21  and  C16_22 
REMARK    7  A    between atoms: C15_21  and  C27_38 
REMARK       I    between atoms: C16_22  and  N3_24 
REMARK    8  A    between atoms: N3_24  and  C17_25 
REMARK    9  A    between atoms: C17_25  and  C18_26 
REMARK   10  A    between atoms: C17_25  and  C20_30 
REMARK   11  A    between atoms: C18_26  and  C19_27 
REMARK   12  A    between atoms: C19_27  and  O6_29 
ROOT
HETATM    1  C1  UNL     1       0.013  55.560 -27.024  1.00  0.00     0.015 C 
HETATM    2  C2  UNL     1      -0.371  54.422 -27.039  1.00  0.00    -0.078 C 
HETATM    3  C3  UNL     1      -0.840  53.027 -27.073  1.00  0.00     0.128 C 
HETATM    4  C4  UNL     1       0.274  52.069 -27.506  1.00  0.00     0.052 C 
HETATM    5  C5  UNL     1      -0.296  50.707 -27.131  1.00  0.00     0.010 C 
HETATM    6  C6  UNL     1      -0.874  50.941 -25.733  1.00  0.00     0.002 C 
HETATM    7  C7  UNL     1      -1.888  49.888 -25.221  1.00  0.00    -0.004 C 
HETATM    8  C8  UNL     1      -2.883  49.326 -26.252  1.00  0.00     0.010 C 
HETATM    9  C9  UNL     1      -3.797  48.260 -25.641  1.00  0.00     0.035 C 
HETATM   10  C10 UNL     1      -4.455  48.679 -24.344  1.00  0.00    -0.069 C 
HETATM   11  C11 UNL     1      -5.763  48.428 -24.144  1.00  0.00     0.030 C 
HETATM   12  C12 UNL     1      -6.420  48.690 -22.829  1.00  0.00     0.032 C 
HETATM   13  N1  UNL     1      -7.687  48.578 -22.571  1.00  0.00    -0.271 N 
ATOM     14  H1  UNL     1      -8.101  48.763 -21.656  1.00  0.00     0.194 HD
HETATM   15  C30 UNL     1      -5.519  49.067 -21.670  1.00  0.00     0.060 C 
HETATM   16  C31 UNL     1      -4.387  49.964 -22.148  1.00  0.00     0.020 C 
HETATM   17  C32 UNL     1      -3.551  49.332 -23.300  1.00  0.00    -0.016 C 
HETATM   18  C33 UNL     1      -2.656  48.230 -22.674  1.00  0.00     0.020 C 
HETATM   19  C34 UNL     1      -2.640  50.429 -23.979  1.00  0.00     0.002 C 
HETATM   20  C35 UNL     1      -3.399  51.743 -24.321  1.00  0.00     0.007 C 
HETATM   21  C36 UNL     1      -2.844  52.557 -25.493  1.00  0.00     0.014 C 
HETATM   22  C37 UNL     1      -1.322  52.442 -25.690  1.00  0.00     0.003 C 
HETATM   23  C38 UNL     1      -0.608  53.132 -24.495  1.00  0.00     0.020 C 
ENDROOT
BRANCH   3  24
HETATM   24  O1  UNL     1      -1.876  52.932 -28.054  1.00  0.00    -0.377 OA
HETATM   25  H2  UNL     1      -1.565  53.400 -28.847  1.00  0.00     0.211 HD
ENDBRANCH   3  24
BRANCH  13  26
HETATM   26  O2  UNL     1      -8.421  48.172 -23.698  1.00  0.00    -0.271 OA
BRANCH  26  27
HETATM   27  C13 UNL     1      -9.449  47.291 -23.271  1.00  0.00     0.303 C 
BRANCH  27  28
HETATM   28  C14 UNL     1     -10.223  46.751 -24.476  1.00  0.00     0.244 C 
HETATM   29  O3  UNL     1      -9.718  46.657 -25.590  1.00  0.00    -0.271 OA
HETATM   30  N2  UNL     1     -11.533  46.395 -24.186  1.00  0.00    -0.346 N 
HETATM   31  H16 UNL     1     -11.757  46.329 -23.201  1.00  0.00     0.163 HD
BRANCH  30  32
HETATM   32  C15 UNL     1     -12.369  45.550 -25.054  1.00  0.00     0.180 C 
BRANCH  32  33
HETATM   33  C16 UNL     1     -13.728  46.286 -25.224  1.00  0.00     0.241 C 
HETATM   34  O4  UNL     1     -13.836  47.409 -25.712  1.00  0.00    -0.271 OA
HETATM   35  N3  UNL     1     -14.831  45.547 -24.847  1.00  0.00    -0.354 N 
HETATM   36  H18 UNL     1     -14.692  44.602 -24.490  1.00  0.00     0.162 HD
BRANCH  35  37
HETATM   37  C17 UNL     1     -16.198  46.002 -25.043  1.00  0.00     0.098 C 
BRANCH  37  38
HETATM   38  C18 UNL     1     -16.822  46.631 -23.786  1.00  0.00     0.135 C 
BRANCH  38  39
HETATM   39  C19 UNL     1     -18.296  46.917 -23.839  1.00  0.00     0.141 C 
HETATM   40  O5  UNL     1     -18.943  47.407 -24.746  1.00  0.00    -0.650 OA
BRANCH  39  41
HETATM   41  O6  UNL     1     -18.913  46.545 -22.695  1.00  0.00    -0.776 OA
HETATM   42  H22 UNL     1     -19.859  46.729 -22.862  1.00  0.00     0.167 HD
ENDBRANCH  39  41
ENDBRANCH  38  39
ENDBRANCH  37  38
BRANCH  37  43
HETATM   43  C20 UNL     1     -17.108  44.977 -25.794  1.00  0.00     0.014 C 
HETATM   44  C21 UNL     1     -17.020  43.509 -25.374  1.00  0.00     0.033 C 
HETATM   45  C22 UNL     1     -15.733  42.821 -25.819  1.00  0.00     0.169 C 
HETATM   46  O7  UNL     1     -15.018  43.569 -26.805  1.00  0.00    -0.381 OA
HETATM   47  C23 UNL     1     -15.825  44.090 -27.874  1.00  0.00     0.054 C 
HETATM   48  C24 UNL     1     -16.445  42.944 -28.690  1.00  0.00     0.045 C 
HETATM   49  C25 UNL     1     -14.867  44.859 -28.795  1.00  0.00     0.045 C 
HETATM   50  C26 UNL     1     -16.909  45.054 -27.326  1.00  0.00     0.044 C 
ENDBRANCH  37  43
ENDBRANCH  35  37
ENDBRANCH  32  33
BRANCH  32  51
HETATM   51  C27 UNL     1     -12.501  44.060 -24.655  1.00  0.00     0.009 C 
HETATM   52  C28 UNL     1     -11.634  43.149 -25.530  1.00  0.00     0.012 C 
HETATM   53  C29 UNL     1     -12.107  43.842 -23.187  1.00  0.00     0.012 C 
ENDBRANCH  32  51
ENDBRANCH  30  32
ENDBRANCH  27  28
ENDBRANCH  26  27
ENDBRANCH  13  26
TORSDOF 12
ENDMDL
