MODEL 1
REMARK minimizedAffinity -9.31959534
REMARK CNNscore 0.616476417
REMARK CNNaffinity 6.85338926
REMARK  10 active torsions:
REMARK  status: ('A' for Active; 'I' for Inactive)
REMARK    1  A    between atoms: C19_21  and  O3_22 
REMARK    2  A    between atoms: C19_21  and  C20_23 
REMARK    3  A    between atoms: C20_23  and  C21_25 
REMARK    4  A    between atoms: C21_25  and  O5_26 
REMARK    5  A    between atoms: O5_26  and  C22_27 
REMARK    6  A    between atoms: C22_27  and  C23_29 
REMARK    7  A    between atoms: C23_29  and  C24_30 
REMARK    8  A    between atoms: C24_30  and  C25_31 
REMARK       I    between atoms: C25_31  and  N1_33 
REMARK    9  A    between atoms: N1_33  and  C26_34 
REMARK   10  A    between atoms: C26_34  and  C27_35 
ROOT
HETATM    1  C1  UNL     1       0.653  49.280 -15.594  1.00  0.00     0.021 C 
HETATM    2  C2  UNL     1      -0.023  50.545 -16.195  1.00  0.00    -0.009 C 
HETATM    3  C3  UNL     1       0.676  51.794 -15.587  1.00  0.00     0.022 C 
HETATM    4  C4  UNL     1       0.483  51.928 -14.078  1.00  0.00     0.084 C 
HETATM    5  C5  UNL     1      -0.976  51.813 -13.699  1.00  0.00     0.149 C 
HETATM    6  O1  UNL     1      -1.406  52.246 -12.629  1.00  0.00    -0.293 OA
HETATM    7  C6  UNL     1      -1.905  51.127 -14.631  1.00  0.00     0.053 C 
HETATM    8  C7  UNL     1      -1.483  50.547 -15.771  1.00  0.00    -0.067 C 
HETATM    9  C8  UNL     1      -2.495  49.923 -16.697  1.00  0.00     0.035 C 
HETATM   10  C9  UNL     1      -1.947  48.916 -17.712  1.00  0.00     0.010 C 
HETATM   11  C10 UNL     1      -0.580  49.241 -18.362  1.00  0.00     0.003 C 
HETATM   12  C11 UNL     1       0.111  50.495 -17.756  1.00  0.00     0.072 C 
HETATM   13  C12 UNL     1      -0.314  51.768 -18.505  1.00  0.00     0.133 C 
HETATM   14  O2  UNL     1       0.233  52.854 -18.305  1.00  0.00    -0.297 OA
HETATM   15  C13 UNL     1      -1.386  51.657 -19.566  1.00  0.00     0.091 C 
HETATM   16  C14 UNL     1      -1.017  50.581 -20.598  1.00  0.00     0.005 C 
HETATM   17  C15 UNL     1       0.147  51.123 -21.465  1.00  0.00     0.019 C 
HETATM   18  C16 UNL     1      -0.513  49.264 -19.914  1.00  0.00     0.002 C 
HETATM   19  C17 UNL     1      -1.193  48.090 -20.645  1.00  0.00     0.009 C 
HETATM   20  C18 UNL     1      -1.832  48.701 -21.895  1.00  0.00     0.047 C 
HETATM   21  C19 UNL     1      -2.236  50.103 -21.441  1.00  0.00     0.128 C 
ENDROOT
BRANCH  21  22
HETATM   22  O3  UNL     1      -3.346  49.889 -20.523  1.00  0.00    -0.381 OA
HETATM   23  H25 UNL     1      -4.059  50.512 -20.790  1.00  0.00     0.211 HD
ENDBRANCH  21  22
BRANCH  21  24
HETATM   24  C20 UNL     1      -2.815  51.040 -22.528  1.00  0.00     0.185 C 
HETATM   25  O4  UNL     1      -2.363  52.195 -22.602  1.00  0.00    -0.292 OA
BRANCH  24  26
HETATM   26  C21 UNL     1      -3.854  50.578 -23.538  1.00  0.00     0.260 C 
BRANCH  26  27
HETATM   27  O5  UNL     1      -4.332  49.258 -23.334  1.00  0.00    -0.314 OA
BRANCH  27  28
HETATM   28  C22 UNL     1      -4.663  48.616 -24.490  1.00  0.00     0.259 C 
HETATM   29  O6  UNL     1      -5.791  48.232 -24.767  1.00  0.00    -0.265 OA
BRANCH  28  30
HETATM   30  C23 UNL     1      -3.500  48.527 -25.448  1.00  0.00     0.120 C 
BRANCH  30  31
HETATM   31  C24 UNL     1      -3.872  48.628 -26.922  1.00  0.00     0.112 C 
BRANCH  31  32
HETATM   32  C25 UNL     1      -3.318  49.883 -27.565  1.00  0.00     0.218 C 
HETATM   33  O7  UNL     1      -3.424  50.122 -28.762  1.00  0.00    -0.274 OA
HETATM   34  N1  UNL     1      -2.656  50.695 -26.676  1.00  0.00    -0.356 N 
HETATM   35  H32 UNL     1      -2.642  50.458 -25.695  1.00  0.00     0.162 HD
BRANCH  34  36
HETATM   36  C26 UNL     1      -2.139  51.991 -27.060  1.00  0.00     0.168 C 
BRANCH  36  37
HETATM   37  C27 UNL     1      -0.646  51.896 -27.104  1.00  0.00     0.000 A 
HETATM   38  C28 UNL     1       0.183  51.872 -28.211  1.00  0.00     0.017 A 
HETATM   39  C29 UNL     1       1.559  51.769 -27.855  1.00  0.00     0.008 A 
HETATM   40  C30 UNL     1       1.737  51.729 -26.490  1.00  0.00     0.050 A 
HETATM   41  S1  UNL     1       0.252  51.801 -25.645  1.00  0.00    -0.105 SA
ENDBRANCH  36  37
ENDBRANCH  34  36
ENDBRANCH  31  32
ENDBRANCH  30  31
ENDBRANCH  28  30
ENDBRANCH  27  28
ENDBRANCH  26  27
ENDBRANCH  24  26
ENDBRANCH  21  24
TORSDOF 10
ENDMDL
