MODEL 1
REMARK minimizedAffinity -9.0825243
REMARK  8 active torsions:
REMARK  status: ('A' for Active; 'I' for Inactive)
REMARK    1  A    between atoms: C4_4  and  C5_5 
REMARK    2  A    between atoms: C5_5  and  C6_6 
REMARK    3  A    between atoms: C6_6  and  C7_7 
REMARK    4  A    between atoms: C7_7  and  C9_9 
REMARK    5  A    between atoms: C25_26  and  C27_28 
REMARK    6  A    between atoms: C27_28  and  O3_30 
REMARK    7  A    between atoms: C28_31  and  O4_32 
REMARK    8  A    between atoms: C30_34  and  O5_35 
ROOT
HETATM    1  C9  UNL     1      -2.207   6.123  13.551  1.00  0.00    -0.002 C 
HETATM    2  C10 UNL     1      -2.309   5.610  12.088  1.00  0.00     0.007 C 
HETATM    3  C11 UNL     1      -0.903   5.739  11.462  1.00  0.00     0.015 C 
HETATM    4  C12 UNL     1       0.044   6.031  12.647  1.00  0.00    -0.005 C 
HETATM    5  C13 UNL     1       0.409   4.652  13.282  1.00  0.00     0.021 C 
HETATM    6  C14 UNL     1       1.392   6.706  12.426  1.00  0.00    -0.000 C 
HETATM    7  C15 UNL     1       1.963   7.484  13.384  1.00  0.00    -0.058 C 
HETATM    8  C16 UNL     1       1.207   7.802  14.686  1.00  0.00     0.036 C 
HETATM    9  C17 UNL     1      -0.198   7.198  14.861  1.00  0.00     0.015 C 
HETATM   10  C18 UNL     1      -0.895   6.963  13.521  1.00  0.00    -0.028 C 
HETATM   11  C19 UNL     1      -1.133   8.354  12.858  1.00  0.00     0.016 C 
HETATM   12  C20 UNL     1       3.373   8.153  13.227  1.00  0.00     0.011 C 
HETATM   13  C21 UNL     1       3.056   9.618  12.832  1.00  0.00     0.023 C 
HETATM   14  C22 UNL     1       4.184   7.387  12.133  1.00  0.00     0.029 C 
HETATM   15  C23 UNL     1       3.380   7.194  10.846  1.00  0.00     0.090 C 
HETATM   16  C24 UNL     1       2.103   6.445  11.134  1.00  0.00     0.157 C 
HETATM   17  O1  UNL     1       1.650   5.667  10.296  1.00  0.00    -0.293 OA
HETATM   18  C25 UNL     1       5.670   7.857  11.899  1.00  0.00     0.072 C 
HETATM   19  C26 UNL     1       6.481   6.569  11.546  1.00  0.00     0.030 C 
HETATM   20  C28 UNL     1       6.312   8.453  13.183  1.00  0.00     0.139 C 
HETATM   21  C29 UNL     1       5.715   7.848  14.448  1.00  0.00     0.065 C 
HETATM   22  C30 UNL     1       4.193   8.050  14.572  1.00  0.00     0.133 C 
ENDROOT
BRANCH   1  23
HETATM   23  C7  UNL     1      -3.572   6.632  14.107  1.00  0.00    -0.014 C 
HETATM   24  C8  UNL     1      -3.915   6.209  15.543  1.00  0.00     0.010 C 
BRANCH  23  25
HETATM   25  C6  UNL     1      -4.802   6.349  13.206  1.00  0.00     0.008 C 
BRANCH  25  26
HETATM   26  C5  UNL     1      -5.631   5.109  13.581  1.00  0.00     0.028 C 
BRANCH  26  27
HETATM   27  C4  UNL     1      -5.438   3.936  12.659  1.00  0.00    -0.025 C 
HETATM   28  C2  UNL     1      -6.319   2.964  12.346  1.00  0.00    -0.091 C 
HETATM   29  C1  UNL     1      -7.714   2.853  12.899  1.00  0.00     0.042 C 
HETATM   30  C3  UNL     1      -5.947   1.867  11.377  1.00  0.00     0.042 C 
ENDBRANCH  26  27
ENDBRANCH  25  26
ENDBRANCH  23  25
ENDBRANCH   1  23
BRANCH  22  31
HETATM   31  O5  UNL     1       3.961   9.182  15.415  1.00  0.00    -0.394 OA
HETATM   32  H46 UNL     1       4.368   9.953  14.975  1.00  0.00     0.210 HD
ENDBRANCH  22  31
BRANCH  18  33
HETATM   33  C27 UNL     1       5.901   8.811  10.724  1.00  0.00     0.151 C 
HETATM   34  O2  UNL     1       5.036   9.263   9.986  1.00  0.00    -0.649 OA
BRANCH  33  35
HETATM   35  O3  UNL     1       7.186   9.133  10.512  1.00  0.00    -0.776 OA
HETATM   36  H40 UNL     1       7.158   9.694   9.706  1.00  0.00     0.167 HD
ENDBRANCH  33  35
ENDBRANCH  18  33
BRANCH  20  37
HETATM   37  O4  UNL     1       6.187   9.874  13.298  1.00  0.00    -0.394 OA
HETATM   38  H42 UNL     1       6.887  10.157  13.912  1.00  0.00     0.210 HD
ENDBRANCH  20  37
TORSDOF 8
ENDMDL
