MODEL 1
REMARK minimizedAffinity -8.35443878
REMARK CNNscore 0.431440383
REMARK CNNaffinity 7.73135996
REMARK  11 active torsions:
REMARK  status: ('A' for Active; 'I' for Inactive)
REMARK    1  A    between atoms: N1_2  and  C2_3 
REMARK    2  A    between atoms: C2_3  and  C3_4 
REMARK    3  A    between atoms: C3_4  and  C4_5 
REMARK    4  A    between atoms: C7_8  and  C8_9 
REMARK    5  A    between atoms: C8_9  and  O1_10 
REMARK    6  A    between atoms: C9_12  and  C10_13 
REMARK    7  A    between atoms: C10_13  and  O3_14 
REMARK    8  A    between atoms: C10_13  and  C11_15 
REMARK    9  A    between atoms: C11_15  and  O4_17 
REMARK   10  A    between atoms: C11_15  and  C13_18 
REMARK   11  A    between atoms: C20_26  and  C21_27 
ROOT
HETATM    1  C13 UNL     1      -9.090   7.565  14.358  1.00  0.00     0.034 C 
HETATM    2  C14 UNL     1     -10.281   6.550  14.201  1.00  0.00     0.012 C 
HETATM    3  C15 UNL     1     -11.516   7.169  14.861  1.00  0.00     0.044 C 
HETATM    4  C16 UNL     1     -11.193   8.667  14.918  1.00  0.00     0.093 C 
HETATM    5  O5  UNL     1     -11.168   9.299  13.615  1.00  0.00    -0.363 OA
HETATM    6  C17 UNL     1     -12.113   8.953  12.615  1.00  0.00     0.263 C 
HETATM    7  C18 UNL     1     -13.144   9.986  12.471  1.00  0.00    -0.080 C 
HETATM    8  C19 UNL     1     -13.998  10.812  12.284  1.00  0.00    -0.093 C 
HETATM    9  C20 UNL     1     -15.052  11.831  12.045  1.00  0.00     0.121 C 
HETATM   10  C27 UNL     1     -14.715  13.195  12.698  1.00  0.00     0.190 C 
HETATM   11  O6  UNL     1     -14.994  13.296  14.101  1.00  0.00    -0.384 OA
HETATM   12  C28 UNL     1     -14.018  12.713  14.959  1.00  0.00     0.122 C 
HETATM   13  C29 UNL     1     -12.868  13.687  15.224  1.00  0.00     0.033 C 
HETATM   14  C30 UNL     1     -12.123  13.408  16.539  1.00  0.00     0.013 C 
HETATM   15  C31 UNL     1     -12.211  11.926  17.016  1.00  0.00    -0.026 C 
HETATM   16  C32 UNL     1     -11.562  11.855  18.424  1.00  0.00     0.016 C 
HETATM   17  C33 UNL     1     -13.723  11.569  17.201  1.00  0.00     0.071 C 
HETATM   18  C34 UNL     1     -14.690  12.305  16.263  1.00  0.00     0.045 C 
HETATM   19  C35 UNL     1     -14.008  10.080  17.182  1.00  0.00     0.154 C 
HETATM   20  O7  UNL     1     -14.978   9.590  17.766  1.00  0.00    -0.293 OA
HETATM   21  C36 UNL     1     -13.146   9.179  16.400  1.00  0.00     0.057 C 
HETATM   22  C37 UNL     1     -12.006   9.581  15.827  1.00  0.00    -0.036 C 
HETATM   23  C38 UNL     1     -11.446  10.990  15.981  1.00  0.00     0.026 C 
HETATM   24  C39 UNL     1      -9.900  11.002  16.200  1.00  0.00     0.011 C 
HETATM   25  C40 UNL     1      -9.116  10.021  15.315  1.00  0.00     0.014 C 
HETATM   26  C41 UNL     1      -9.683   8.592  15.402  1.00  0.00    -0.002 C 
HETATM   27  C42 UNL     1      -9.544   8.084  16.862  1.00  0.00     0.019 C 
ENDROOT
BRANCH   1  28
HETATM   28  C11 UNL     1      -7.729   6.803  14.532  1.00  0.00     0.087 C 
HETATM   29  C12 UNL     1      -7.860   5.771  15.679  1.00  0.00     0.049 C 
BRANCH  28  30
HETATM   30  C10 UNL     1      -7.088   6.067  13.306  1.00  0.00     0.181 C 
BRANCH  30  31
HETATM   31  C9  UNL     1      -6.198   4.837  13.592  1.00  0.00     0.158 C 
HETATM   32  C4  UNL     1      -4.672   4.949  13.341  1.00  0.00     0.025 C 
HETATM   33  C5  UNL     1      -4.484   4.211  12.022  1.00  0.00     0.019 C 
HETATM   34  C6  UNL     1      -3.066   3.714  11.769  1.00  0.00     0.013 C 
HETATM   35  C7  UNL     1      -5.496   3.077  12.200  1.00  0.00     0.149 C 
HETATM   36  O2  UNL     1      -6.640   3.701  12.816  1.00  0.00    -0.375 OA
BRANCH  32  37
HETATM   37  C3  UNL     1      -3.947   6.295  13.551  1.00  0.00     0.037 C 
BRANCH  37  38
HETATM   38  C2  UNL     1      -3.279   6.589  14.905  1.00  0.00     0.269 C 
BRANCH  38  39
HETATM   39  N1  UNL     1      -2.195   5.674  15.272  1.00  0.00     0.079 N 
HETATM   40  C1  UNL     1      -1.080   5.746  14.320  1.00  0.00     0.306 C 
HETATM   41  H4  UNL     1      -1.818   5.985  16.172  1.00  0.00     0.315 HD
ENDBRANCH  38  39
ENDBRANCH  37  38
ENDBRANCH  32  37
BRANCH  35  42
HETATM   42  C8  UNL     1      -5.894   2.386  10.895  1.00  0.00     0.196 C 
BRANCH  42  43
HETATM   43  O1  UNL     1      -6.477   1.112  11.171  1.00  0.00    -0.398 OA
HETATM   44  H17 UNL     1      -7.227   1.002  10.559  1.00  0.00     0.209 HD
ENDBRANCH  42  43
ENDBRANCH  35  42
ENDBRANCH  30  31
BRANCH  30  45
HETATM   45  O3  UNL     1      -8.111   5.794  12.340  1.00  0.00    -0.390 OA
HETATM   46  H20 UNL     1      -7.649   5.760  11.473  1.00  0.00     0.210 HD
ENDBRANCH  30  45
ENDBRANCH  28  30
BRANCH  28  47
HETATM   47  O4  UNL     1      -6.732   7.743  14.995  1.00  0.00    -0.387 OA
HETATM   48  H24 UNL     1      -6.331   8.107  14.183  1.00  0.00     0.210 HD
ENDBRANCH  28  47
ENDBRANCH   1  28
BRANCH   9  49
HETATM   49  C21 UNL     1     -16.456  11.341  12.371  1.00  0.00    -0.040 A 
HETATM   50  C22 UNL     1     -16.812  10.007  12.100  1.00  0.00     0.008 A 
HETATM   51  C23 UNL     1     -18.098   9.543  12.381  1.00  0.00     0.001 A 
HETATM   52  C24 UNL     1     -19.053  10.402  12.925  1.00  0.00     0.000 A 
HETATM   53  C25 UNL     1     -18.715  11.728  13.192  1.00  0.00     0.001 A 
HETATM   54  C26 UNL     1     -17.430  12.192  12.918  1.00  0.00     0.008 A 
ENDBRANCH   9  49
TORSDOF 11
ENDMDL
