MODEL 1
REMARK minimizedAffinity -8.46842098
REMARK CNNscore 0.391494602
REMARK CNNaffinity 7.55362844
REMARK  19 active torsions:
REMARK  status: ('A' for Active; 'I' for Inactive)
REMARK    1  A    between atoms: C2_2  and  C3_3 
REMARK    2  A    between atoms: C3_3  and  C4_4 
REMARK    3  A    between atoms: C4_4  and  S1_5 
REMARK    4  A    between atoms: C4_4  and  C15_25 
REMARK    5  A    between atoms: S1_5  and  C5_6 
REMARK    6  A    between atoms: C5_6  and  C6_7 
REMARK    7  A    between atoms: C6_7  and  N1_8 
REMARK    8  A    between atoms: C6_7  and  C12_18 
REMARK       I    between atoms: N1_8  and  C7_9 
REMARK    9  A    between atoms: C7_9  and  C8_11 
REMARK   10  A    between atoms: C8_11  and  C9_12 
REMARK   11  A    between atoms: C9_12  and  C10_13 
REMARK   12  A    between atoms: C10_13  and  N2_14 
REMARK   13  A    between atoms: C10_13  and  C11_15 
REMARK   14  A    between atoms: C11_15  and  O3_17 
REMARK       I    between atoms: C12_18  and  N3_20 
REMARK   15  A    between atoms: N3_20  and  C13_21 
REMARK   16  A    between atoms: C13_21  and  C14_22 
REMARK   17  A    between atoms: C14_22  and  O6_24 
REMARK   18  A    between atoms: C19_29  and  C20_30 
REMARK   19  A    between atoms: C20_30  and  C21_31 
ROOT
HETATM    1  S1  UNL     1      -2.913   5.906  15.036  1.00  0.00    -0.154 SA
ENDROOT
BRANCH   1   2
HETATM    2  C4  UNL     1      -2.034   7.487  15.449  1.00  0.00     0.113 C 
BRANCH   2   3
HETATM    3  C3  UNL     1      -2.630   8.873  14.958  1.00  0.00    -0.022 C 
HETATM    4  C30 UNL     1      -1.829  10.121  15.426  1.00  0.00     0.011 C 
HETATM    5  C31 UNL     1      -2.839  11.081  16.042  1.00  0.00     0.001 C 
HETATM    6  C32 UNL     1      -3.870  10.161  16.658  1.00  0.00     0.001 C 
HETATM    7  C33 UNL     1      -4.042   9.074  15.606  1.00  0.00     0.011 C 
BRANCH   3   8
HETATM    8  C2  UNL     1      -2.757   8.844  13.401  1.00  0.00     0.006 C 
HETATM    9  C1  UNL     1      -4.146   8.592  12.814  1.00  0.00     0.006 C 
ENDBRANCH   3   8
ENDBRANCH   2   3
BRANCH   2  10
HETATM   10  C15 UNL     1      -0.543   7.263  15.268  1.00  0.00     0.075 C 
HETATM   11  C16 UNL     1       0.096   6.758  14.213  1.00  0.00    -0.031 C 
HETATM   12  C17 UNL     1      -0.363   6.341  12.858  1.00  0.00     0.042 C 
HETATM   13  C28 UNL     1       1.561   6.805  14.436  1.00  0.00     0.140 C 
HETATM   14  C18 UNL     1       0.271   7.262  11.799  1.00  0.00     0.038 C 
HETATM   15  C19 UNL     1       1.703   7.694  12.094  1.00  0.00    -0.078 C 
HETATM   16  C27 UNL     1       2.276   7.474  13.297  1.00  0.00    -0.005 C 
HETATM   17  C29 UNL     1       1.586   7.570  15.753  1.00  0.00     0.275 C 
HETATM   18  O7  UNL     1       2.592   7.979  16.322  1.00  0.00    -0.264 OA
HETATM   19  O8  UNL     1       0.319   7.706  16.280  1.00  0.00    -0.281 OA
BRANCH  15  20
HETATM   20  C20 UNL     1       2.448   8.389  10.972  1.00  0.00     0.072 C 
BRANCH  20  21
HETATM   21  C21 UNL     1       2.430   7.621   9.670  1.00  0.00    -0.054 A 
HETATM   22  C22 UNL     1       1.875   8.190   8.514  1.00  0.00     0.007 A 
HETATM   23  C23 UNL     1       1.889   7.494   7.304  1.00  0.00     0.001 A 
HETATM   24  C24 UNL     1       2.455   6.224   7.239  1.00  0.00     0.000 A 
HETATM   25  C25 UNL     1       3.008   5.645   8.381  1.00  0.00     0.001 A 
HETATM   26  C26 UNL     1       2.993   6.339   9.591  1.00  0.00     0.007 A 
ENDBRANCH  20  21
ENDBRANCH  15  20
ENDBRANCH   2  10
ENDBRANCH   1   2
BRANCH   1  27
HETATM   27  C5  UNL     1      -4.670   6.321  15.318  1.00  0.00     0.109 C 
BRANCH  27  28
HETATM   28  C6  UNL     1      -5.636   5.431  14.509  1.00  0.00     0.185 C 
BRANCH  28  29
HETATM   29  N1  UNL     1      -4.936   4.899  13.323  1.00  0.00    -0.347 N 
HETATM   30  C7  UNL     1      -5.413   3.808  12.629  1.00  0.00     0.218 C 
HETATM   31  O1  UNL     1      -6.409   3.176  12.952  1.00  0.00    -0.274 OA
HETATM   32  H10 UNL     1      -4.212   5.473  12.902  1.00  0.00     0.163 HD
BRANCH  30  33
HETATM   33  C8  UNL     1      -4.585   3.444  11.413  1.00  0.00     0.105 C 
BRANCH  33  34
HETATM   34  C9  UNL     1      -3.082   3.448  11.712  1.00  0.00     0.056 C 
BRANCH  34  35
HETATM   35  C10 UNL     1      -2.300   2.323  11.020  1.00  0.00     0.315 C 
BRANCH  35  36
HETATM   36  N2  UNL     1      -2.839   1.003  11.403  1.00  0.00     0.093 N 
HETATM   37  H16 UNL     1      -3.861   1.035  11.383  1.00  0.00     0.314 HD
HETATM   38  H17 UNL     1      -2.571   0.813  12.372  1.00  0.00     0.314 HD
ENDBRANCH  35  36
BRANCH  35  39
HETATM   39  C11 UNL     1      -0.808   2.409  11.359  1.00  0.00     0.173 C 
HETATM   40  O2  UNL     1      -0.301   3.237  12.106  1.00  0.00    -0.648 OA
BRANCH  39  41
HETATM   41  O3  UNL     1      -0.069   1.414  10.826  1.00  0.00    -0.775 OA
HETATM   42  H18 UNL     1       0.855   1.613  11.087  1.00  0.00     0.167 HD
ENDBRANCH  39  41
ENDBRANCH  35  39
ENDBRANCH  34  35
ENDBRANCH  33  34
ENDBRANCH  30  33
ENDBRANCH  28  29
BRANCH  28  43
HETATM   43  C12 UNL     1      -6.897   6.237  14.108  1.00  0.00     0.241 C 
HETATM   44  O4  UNL     1      -6.965   6.898  13.072  1.00  0.00    -0.271 OA
HETATM   45  N3  UNL     1      -7.931   6.232  15.022  1.00  0.00    -0.349 N 
HETATM   46  H19 UNL     1      -7.968   5.491  15.711  1.00  0.00     0.163 HD
BRANCH  45  47
HETATM   47  C13 UNL     1      -9.192   6.879  14.700  1.00  0.00     0.232 C 
BRANCH  47  48
HETATM   48  C14 UNL     1      -9.728   7.771  15.816  1.00  0.00     0.158 C 
HETATM   49  O5  UNL     1     -10.603   8.616  15.689  1.00  0.00    -0.649 OA
BRANCH  48  50
HETATM   50  O6  UNL     1      -9.143   7.594  17.021  1.00  0.00    -0.775 OA
HETATM   51  H22 UNL     1      -9.669   8.181  17.606  1.00  0.00     0.167 HD
ENDBRANCH  48  50
ENDBRANCH  47  48
ENDBRANCH  45  47
ENDBRANCH  28  43
ENDBRANCH  27  28
ENDBRANCH   1  27
TORSDOF 19
ENDMDL
