MODEL 1
REMARK minimizedAffinity -9.00675488
REMARK  5 active torsions:
REMARK  status: ('A' for Active; 'I' for Inactive)
REMARK    1  A    between atoms: C2_2  and  C4_4 
REMARK    2  A    between atoms: C7_7  and  C8_8 
REMARK    3  A    between atoms: C8_8  and  O2_10 
REMARK    4  A    between atoms: C22_25  and  C24_27 
REMARK    5  A    between atoms: C24_27  and  O4_28 
ROOT
HETATM    1  C4  UNL     1      -5.668   4.932  12.544  1.00  0.00     0.019 C 
HETATM    2  C5  UNL     1      -4.128   4.770  12.662  1.00  0.00     0.011 C 
HETATM    3  C6  UNL     1      -3.709   5.495  13.955  1.00  0.00     0.021 C 
HETATM    4  C7  UNL     1      -4.810   6.544  14.158  1.00  0.00     0.050 C 
HETATM    5  C9  UNL     1      -4.944   7.073  15.590  1.00  0.00     0.022 C 
HETATM    6  C10 UNL     1      -6.236   7.902  15.738  1.00  0.00     0.011 C 
HETATM    7  C11 UNL     1      -7.573   7.175  15.324  1.00  0.00    -0.032 C 
HETATM    8  C12 UNL     1      -7.786   6.063  16.403  1.00  0.00     0.016 C 
HETATM    9  C13 UNL     1      -7.365   6.516  13.912  1.00  0.00     0.000 C 
HETATM   10  C14 UNL     1      -8.584   5.682  13.513  1.00  0.00     0.006 C 
HETATM   11  C15 UNL     1      -9.922   6.336  13.840  1.00  0.00     0.006 C 
HETATM   12  C16 UNL     1      -9.836   7.872  14.011  1.00  0.00     0.003 C 
HETATM   13  C17 UNL     1     -11.281   8.588  14.011  1.00  0.00    -0.035 C 
HETATM   14  C18 UNL     1     -11.131  10.075  13.584  1.00  0.00     0.016 C 
HETATM   15  C19 UNL     1     -12.237   7.907  12.999  1.00  0.00     0.017 C 
HETATM   16  C20 UNL     1     -13.606   8.551  12.882  1.00  0.00     0.080 C 
HETATM   17  C21 UNL     1     -14.208   9.035  14.178  1.00  0.00     0.137 C 
HETATM   18  O3  UNL     1     -15.368   9.465  14.162  1.00  0.00    -0.297 OA
HETATM   19  C22 UNL     1     -13.432   8.993  15.502  1.00  0.00     0.042 C 
HETATM   20  C23 UNL     1     -13.490  10.415  16.099  1.00  0.00     0.026 C 
HETATM   21  C25 UNL     1     -11.965   8.431  15.397  1.00  0.00     0.012 C 
HETATM   22  C26 UNL     1     -11.044   8.904  16.537  1.00  0.00     0.007 C 
HETATM   23  C27 UNL     1      -9.717   8.146  16.560  1.00  0.00     0.011 C 
HETATM   24  C28 UNL     1      -8.878   8.208  15.252  1.00  0.00    -0.032 C 
HETATM   25  C29 UNL     1      -8.357   9.663  15.102  1.00  0.00     0.016 C 
HETATM   26  C30 UNL     1      -6.055   5.699  13.834  1.00  0.00     0.017 C 
ENDROOT
BRANCH   4  27
HETATM   27  C8  UNL     1      -4.441   7.721  13.246  1.00  0.00     0.149 C 
HETATM   28  O1  UNL     1      -5.236   8.514  12.766  1.00  0.00    -0.649 OA
BRANCH  27  29
HETATM   29  O2  UNL     1      -3.130   7.908  13.025  1.00  0.00    -0.776 OA
HETATM   30  H11 UNL     1      -3.104   8.717  12.474  1.00  0.00     0.167 HD
ENDBRANCH  27  29
ENDBRANCH   4  27
BRANCH   1  31
HETATM   31  C2  UNL     1      -6.341   3.587  12.306  1.00  0.00    -0.088 C 
HETATM   32  C1  UNL     1      -7.234   3.037  13.149  1.00  0.00     0.014 C 
HETATM   33  C3  UNL     1      -5.930   2.868  11.047  1.00  0.00     0.043 C 
ENDBRANCH   1  31
BRANCH  19  34
HETATM   34  C24 UNL     1     -14.255   8.014  16.390  1.00  0.00     0.181 C 
BRANCH  34  35
HETATM   35  O4  UNL     1     -14.263   6.668  15.920  1.00  0.00    -0.400 OA
HETATM   36  H37 UNL     1     -13.379   6.461  15.554  1.00  0.00     0.209 HD
ENDBRANCH  34  35
ENDBRANCH  19  34
TORSDOF 5
ENDMDL
