MODEL 1
REMARK minimizedAffinity -9.76434898
REMARK  8 active torsions:
REMARK  status: ('A' for Active; 'I' for Inactive)
REMARK    1  A    between atoms: C2_2  and  C3_3 
REMARK    2  A    between atoms: C2_2  and  C9_12 
REMARK    3  A    between atoms: C3_3  and  C4_4 
REMARK    4  A    between atoms: C4_4  and  O1_5 
REMARK    5  A    between atoms: C4_4  and  C5_6 
REMARK    6  A    between atoms: C5_6  and  O2_7 
REMARK    7  A    between atoms: C5_6  and  C6_8 
REMARK    8  A    between atoms: C6_8  and  O3_11 
ROOT
HETATM    1  C9  UNL     1      -3.711  48.708 -26.062  1.00  0.00    -0.002 C 
HETATM    2  C10 UNL     1      -3.118  49.718 -27.047  1.00  0.00     0.007 C 
HETATM    3  C11 UNL     1      -2.134  50.494 -26.184  1.00  0.00     0.015 C 
HETATM    4  C12 UNL     1      -2.917  50.809 -24.888  1.00  0.00    -0.005 C 
HETATM    5  C13 UNL     1      -3.835  52.037 -25.159  1.00  0.00     0.021 C 
HETATM    6  C14 UNL     1      -1.979  51.166 -23.714  1.00  0.00    -0.000 C 
HETATM    7  C15 UNL     1      -1.911  50.503 -22.531  1.00  0.00    -0.060 C 
HETATM    8  C16 UNL     1      -2.786  49.280 -22.326  1.00  0.00     0.036 C 
HETATM    9  C17 UNL     1      -3.084  48.564 -23.633  1.00  0.00     0.015 C 
HETATM   10  C18 UNL     1      -3.782  49.472 -24.677  1.00  0.00    -0.028 C 
HETATM   11  C19 UNL     1      -5.204  49.767 -24.159  1.00  0.00     0.016 C 
HETATM   12  C20 UNL     1      -1.025  50.923 -21.320  1.00  0.00    -0.014 C 
HETATM   13  C21 UNL     1      -0.248  49.683 -20.797  1.00  0.00     0.020 C 
HETATM   14  C22 UNL     1      -1.986  51.460 -20.231  1.00  0.00     0.021 C 
HETATM   15  C23 UNL     1      -1.337  52.163 -19.048  1.00  0.00     0.080 C 
HETATM   16  C24 UNL     1       0.165  52.229 -19.134  1.00  0.00     0.135 C 
HETATM   17  O4  UNL     1       0.848  52.022 -18.130  1.00  0.00    -0.297 OA
HETATM   18  C25 UNL     1       0.778  52.678 -20.468  1.00  0.00     0.018 C 
HETATM   19  C26 UNL     1       0.760  54.220 -20.423  1.00  0.00     0.023 C 
HETATM   20  C27 UNL     1       2.266  52.251 -20.508  1.00  0.00     0.023 C 
HETATM   21  C28 UNL     1       0.025  52.028 -21.697  1.00  0.00     0.020 C 
HETATM   22  C29 UNL     1      -0.614  53.059 -22.624  1.00  0.00     0.090 C 
HETATM   23  C30 UNL     1      -1.130  52.393 -23.871  1.00  0.00     0.157 C 
HETATM   24  O5  UNL     1      -0.895  52.879 -24.975  1.00  0.00    -0.293 OA
ENDROOT
BRANCH   1  25
HETATM   25  C2  UNL     1      -4.885  47.881 -26.654  1.00  0.00    -0.011 C 
HETATM   26  C1  UNL     1      -6.073  47.822 -25.683  1.00  0.00     0.010 C 
BRANCH  25  27
HETATM   27  C3  UNL     1      -5.346  48.262 -28.076  1.00  0.00     0.039 C 
BRANCH  27  28
HETATM   28  C4  UNL     1      -6.717  47.675 -28.472  1.00  0.00     0.150 C 
BRANCH  28  29
HETATM   29  O1  UNL     1      -7.702  48.239 -27.581  1.00  0.00    -0.393 OA
HETATM   30  H8  UNL     1      -7.610  49.208 -27.651  1.00  0.00     0.210 HD
ENDBRANCH  28  29
BRANCH  28  31
HETATM   31  C5  UNL     1      -7.127  48.000 -29.937  1.00  0.00     0.180 C 
BRANCH  31  32
HETATM   32  O2  UNL     1      -6.141  48.870 -30.524  1.00  0.00    -0.390 OA
HETATM   33  H10 UNL     1      -5.978  49.561 -29.847  1.00  0.00     0.210 HD
ENDBRANCH  31  32
BRANCH  31  34
HETATM   34  C6  UNL     1      -8.549  48.621 -30.073  1.00  0.00     0.079 C 
HETATM   35  C7  UNL     1      -8.733  49.385 -31.389  1.00  0.00     0.048 C 
HETATM   36  C8  UNL     1      -9.618  47.522 -29.991  1.00  0.00     0.048 C 
BRANCH  34  37
HETATM   37  O3  UNL     1      -8.774  49.538 -28.994  1.00  0.00    -0.388 OA
HETATM   38  H17 UNL     1      -8.947  49.014 -28.191  1.00  0.00     0.210 HD
ENDBRANCH  34  37
ENDBRANCH  31  34
ENDBRANCH  28  31
ENDBRANCH  27  28
ENDBRANCH  25  27
ENDBRANCH   1  25
TORSDOF 8
ENDMDL
