MODEL 1
REMARK minimizedAffinity -6.49419212
REMARK CNNscore 0.461146981
REMARK CNNaffinity 6.01396751
REMARK  1 active torsions:
REMARK  status: ('A' for Active; 'I' for Inactive)
REMARK    1  A    between atoms: C22_26  and  O5_27 
ROOT
HETATM    1  C1  UNL     1     -12.485  13.974   1.357  1.00  0.00     0.014 C 
HETATM    2  C2  UNL     1     -11.299  14.514   1.683  1.00  0.00    -0.085 C 
HETATM    3  C3  UNL     1     -10.289  14.830   0.598  1.00  0.00     0.035 C 
HETATM    4  C4  UNL     1      -9.917  16.313   0.619  1.00  0.00     0.025 C 
HETATM    5  C5  UNL     1      -9.468  16.763   2.011  1.00  0.00     0.055 C 
HETATM    6  C6  UNL     1      -8.044  16.276   2.366  1.00  0.00     0.021 C 
HETATM    7  C7  UNL     1      -7.504  16.866   3.686  1.00  0.00     0.014 C 
HETATM    8  C8  UNL     1      -8.559  16.875   4.841  1.00  0.00    -0.001 C 
HETATM    9  C9  UNL     1      -8.555  15.416   5.396  1.00  0.00     0.019 C 
HETATM   10  C10 UNL     1      -9.984  17.259   4.243  1.00  0.00     0.112 C 
HETATM   11  O1  UNL     1      -9.803  18.517   3.494  1.00  0.00    -0.305 OA
HETATM   12  C11 UNL     1      -9.490  18.258   2.184  1.00  0.00     0.269 C 
HETATM   13  O2  UNL     1      -9.233  19.106   1.350  1.00  0.00    -0.264 OA
HETATM   14  C12 UNL     1     -10.519  16.403   3.080  1.00  0.00     0.050 C 
HETATM   15  C13 UNL     1     -10.845  14.895   3.104  1.00  0.00     0.018 C 
HETATM   16  C14 UNL     1     -11.851  14.516   4.192  1.00  0.00     0.015 C 
HETATM   17  C15 UNL     1     -11.017  17.600   5.284  1.00  0.00     0.187 A 
HETATM   18  O3  UNL     1     -11.235  16.710   6.373  1.00  0.00    -0.372 OA
HETATM   19  C16 UNL     1     -10.598  17.956   6.700  1.00  0.00     0.160 A 
HETATM   20  C17 UNL     1      -9.178  17.764   7.200  1.00  0.00     0.035 C 
HETATM   21  C18 UNL     1      -8.856  18.504   8.553  1.00  0.00    -0.023 C 
HETATM   22  C19 UNL     1      -9.023  20.045   8.464  1.00  0.00     0.016 C 
HETATM   23  C20 UNL     1      -9.827  17.985   9.652  1.00  0.00     0.096 C 
HETATM   24  C21 UNL     1      -9.427  18.421  11.044  1.00  0.00     0.183 C 
HETATM   25  O4  UNL     1     -10.233  18.487  11.975  1.00  0.00    -0.290 OA
HETATM   26  C22 UNL     1      -7.998  18.752  11.327  1.00  0.00     0.114 C 
HETATM   27  C23 UNL     1      -7.051  18.611  10.382  1.00  0.00    -0.042 C 
HETATM   28  C24 UNL     1      -5.602  18.883  10.689  1.00  0.00     0.047 C 
HETATM   29  C25 UNL     1      -7.407  18.091   8.990  1.00  0.00     0.026 C 
HETATM   30  C26 UNL     1      -6.374  18.394   7.884  1.00  0.00     0.011 C 
HETATM   31  C27 UNL     1      -6.711  17.680   6.566  1.00  0.00     0.011 C 
HETATM   32  C28 UNL     1      -8.148  17.942   6.025  1.00  0.00    -0.027 C 
HETATM   33  C29 UNL     1      -8.154  19.410   5.502  1.00  0.00     0.016 C 
ENDROOT
BRANCH  26  34
HETATM   34  O5  UNL     1      -7.708  19.180  12.608  1.00  0.00    -0.357 OA
HETATM   35  H27 UNL     1      -8.566  19.150  13.085  1.00  0.00     0.218 HD
ENDBRANCH  26  34
TORSDOF 1
ENDMDL
