MODEL 1
REMARK minimizedAffinity -9.99672031
REMARK CNNscore 0.477292538
REMARK CNNaffinity 7.27777624
REMARK  11 active torsions:
REMARK  status: ('A' for Active; 'I' for Inactive)
REMARK    1  A    between atoms: C12_13  and  O2_14 
REMARK    2  A    between atoms: C19_21  and  O3_22 
REMARK    3  A    between atoms: C19_21  and  C20_23 
REMARK    4  A    between atoms: C20_23  and  C21_25 
REMARK    5  A    between atoms: C21_25  and  O5_26 
REMARK    6  A    between atoms: O5_26  and  C22_27 
REMARK    7  A    between atoms: C22_27  and  C23_29 
REMARK    8  A    between atoms: C23_29  and  C24_30 
REMARK    9  A    between atoms: C24_30  and  C25_31 
REMARK       I    between atoms: C25_31  and  N1_33 
REMARK   10  A    between atoms: N1_33  and  C26_34 
REMARK   11  A    between atoms: C26_34  and  C27_35 
ROOT
HETATM    1  C1  UNL     1       0.177  51.798 -14.434  1.00  0.00     0.025 C 
HETATM    2  C2  UNL     1       1.171  50.921 -15.228  1.00  0.00     0.004 A 
HETATM    3  C3  UNL     1       1.348  49.640 -14.419  1.00  0.00    -0.009 A 
HETATM    4  C4  UNL     1       2.493  49.232 -13.857  1.00  0.00     0.052 A 
HETATM    5  C5  UNL     1       3.728  50.026 -13.990  1.00  0.00     0.172 A 
HETATM    6  O1  UNL     1       4.778  49.661 -13.477  1.00  0.00    -0.289 OA
HETATM    7  C6  UNL     1       3.649  51.275 -14.775  1.00  0.00     0.058 A 
HETATM    8  C7  UNL     1       2.500  51.685 -15.341  1.00  0.00    -0.064 A 
HETATM    9  C8  UNL     1       2.471  52.932 -16.187  1.00  0.00     0.036 C 
HETATM   10  C9  UNL     1       2.005  52.600 -17.599  1.00  0.00     0.010 C 
HETATM   11  C10 UNL     1       0.657  51.855 -17.613  1.00  0.00    -0.002 C 
HETATM   12  C11 UNL     1       0.706  50.581 -16.697  1.00  0.00     0.035 C 
HETATM   13  C12 UNL     1      -0.590  49.724 -16.818  1.00  0.00     0.124 C 
HETATM   14  C13 UNL     1      -1.009  49.449 -18.280  1.00  0.00     0.045 C 
HETATM   15  C14 UNL     1      -1.077  50.724 -19.148  1.00  0.00     0.001 C 
HETATM   16  C15 UNL     1      -2.260  51.627 -18.704  1.00  0.00     0.019 C 
HETATM   17  C16 UNL     1       0.298  51.421 -19.041  1.00  0.00     0.002 C 
HETATM   18  C17 UNL     1       0.249  52.476 -20.142  1.00  0.00     0.009 C 
HETATM   19  C18 UNL     1      -0.580  51.823 -21.269  1.00  0.00     0.047 C 
HETATM   20  C19 UNL     1      -1.142  50.502 -20.692  1.00  0.00     0.128 C 
ENDROOT
BRANCH  20  21
HETATM   21  O3  UNL     1      -0.227  49.461 -21.077  1.00  0.00    -0.381 OA
HETATM   22  H25 UNL     1      -0.690  48.611 -20.929  1.00  0.00     0.211 HD
ENDBRANCH  20  21
BRANCH  20  23
HETATM   23  C20 UNL     1      -2.524  50.037 -21.189  1.00  0.00     0.185 C 
HETATM   24  O4  UNL     1      -2.956  48.937 -20.820  1.00  0.00    -0.292 OA
BRANCH  23  25
HETATM   25  C21 UNL     1      -3.326  50.949 -22.114  1.00  0.00     0.260 C 
BRANCH  25  26
HETATM   26  O5  UNL     1      -3.076  50.683 -23.494  1.00  0.00    -0.314 OA
BRANCH  26  27
HETATM   27  C22 UNL     1      -3.932  49.779 -24.047  1.00  0.00     0.259 C 
HETATM   28  O6  UNL     1      -5.153  49.834 -23.979  1.00  0.00    -0.265 OA
BRANCH  27  29
HETATM   29  C23 UNL     1      -3.159  48.716 -24.790  1.00  0.00     0.120 C 
BRANCH  29  30
HETATM   30  C24 UNL     1      -3.743  48.498 -26.181  1.00  0.00     0.112 C 
BRANCH  30  31
HETATM   31  C25 UNL     1      -3.261  49.553 -27.158  1.00  0.00     0.218 C 
HETATM   32  O7  UNL     1      -3.574  49.563 -28.344  1.00  0.00    -0.274 OA
HETATM   33  N1  UNL     1      -2.421  50.479 -26.583  1.00  0.00    -0.357 N 
HETATM   34  H32 UNL     1      -2.123  50.350 -25.625  1.00  0.00     0.162 HD
BRANCH  33  35
HETATM   35  C26 UNL     1      -1.821  51.549 -27.347  1.00  0.00     0.162 C 
BRANCH  35  36
HETATM   36  C27 UNL     1      -0.337  51.603 -27.137  1.00  0.00    -0.025 A 
HETATM   37  C28 UNL     1       0.549  51.633 -28.219  1.00  0.00     0.011 A 
HETATM   38  C29 UNL     1       1.921  51.676 -27.988  1.00  0.00     0.018 A 
HETATM   39  C30 UNL     1       2.364  51.684 -26.676  1.00  0.00     0.087 A 
HETATM   40  N2  UNL     1       1.543  51.647 -25.605  1.00  0.00    -0.375 N 
HETATM   41  C31 UNL     1       0.215  51.608 -25.860  1.00  0.00     0.096 A 
ATOM     42  H2  UNL     1       1.906  51.649 -24.652  1.00  0.00     0.164 HD
ENDBRANCH  35  36
ENDBRANCH  33  35
ENDBRANCH  30  31
ENDBRANCH  29  30
ENDBRANCH  27  29
ENDBRANCH  26  27
ENDBRANCH  25  26
ENDBRANCH  23  25
ENDBRANCH  20  23
BRANCH  13  43
HETATM   43  O2  UNL     1      -1.676  50.326 -16.124  1.00  0.00    -0.395 OA
HETATM   44  H14 UNL     1      -2.434  49.718 -16.178  1.00  0.00     0.210 HD
ENDBRANCH  13  43
TORSDOF 11
ENDMDL
