MODEL 1
REMARK minimizedAffinity -6.9611907
REMARK CNNscore 0.573842585
REMARK CNNaffinity 6.79895639
REMARK  10 active torsions:
REMARK  status: ('A' for Active; 'I' for Inactive)
REMARK    1  A    between atoms: C2_2  and  C4_4 
REMARK    2  A    between atoms: C7_7  and  C8_8 
REMARK    3  A    between atoms: C8_8  and  O2_10 
REMARK    4  A    between atoms: C21_23  and  O3_24 
REMARK    5  A    between atoms: O3_24  and  C22_25 
REMARK    6  A    between atoms: C24_28  and  O5_29 
REMARK    7  A    between atoms: C25_30  and  O6_31 
REMARK    8  A    between atoms: C26_32  and  O7_33 
REMARK    9  A    between atoms: C27_34  and  C29_36 
REMARK   10  A    between atoms: C29_36  and  O8_37 
ROOT
HETATM    1  C4  UNL     1       2.533  56.064  -9.095  1.00  0.00     0.019 C 
HETATM    2  C5  UNL     1       2.898  56.793  -7.774  1.00  0.00     0.011 C 
HETATM    3  C6  UNL     1       2.249  55.995  -6.630  1.00  0.00     0.021 C 
HETATM    4  C7  UNL     1       1.088  55.256  -7.300  1.00  0.00     0.050 C 
HETATM    5  C9  UNL     1       0.595  53.997  -6.567  1.00  0.00     0.022 C 
HETATM    6  C10 UNL     1      -0.404  53.205  -7.443  1.00  0.00     0.011 C 
HETATM    7  C11 UNL     1       0.122  52.828  -8.877  1.00  0.00    -0.032 C 
HETATM    8  C12 UNL     1       1.222  51.737  -8.641  1.00  0.00     0.016 C 
HETATM    9  C13 UNL     1       0.753  54.111  -9.554  1.00  0.00     0.000 C 
HETATM   10  C14 UNL     1       1.310  53.800 -10.945  1.00  0.00     0.006 C 
HETATM   11  C15 UNL     1       0.240  53.215 -11.865  1.00  0.00     0.006 C 
HETATM   12  C16 UNL     1      -0.454  51.961 -11.279  1.00  0.00     0.003 C 
HETATM   13  C17 UNL     1      -1.361  51.192 -12.333  1.00  0.00    -0.035 C 
HETATM   14  C18 UNL     1      -2.361  52.137 -13.060  1.00  0.00     0.016 C 
HETATM   15  C19 UNL     1      -0.402  50.665 -13.455  1.00  0.00     0.012 C 
HETATM   16  C20 UNL     1      -0.968  49.542 -14.301  1.00  0.00     0.034 C 
HETATM   17  C21 UNL     1      -1.549  48.352 -13.529  1.00  0.00     0.135 C 
HETATM   18  C27 UNL     1      -1.639  48.559 -11.972  1.00  0.00     0.008 C 
HETATM   19  C28 UNL     1      -2.619  47.470 -11.428  1.00  0.00     0.020 C 
HETATM   20  C30 UNL     1      -2.202  50.009 -11.697  1.00  0.00     0.007 C 
HETATM   21  C31 UNL     1      -2.661  50.277 -10.246  1.00  0.00     0.007 C 
HETATM   22  C32 UNL     1      -1.632  50.920  -9.324  1.00  0.00     0.011 C 
HETATM   23  C33 UNL     1      -1.056  52.256  -9.853  1.00  0.00    -0.032 C 
HETATM   24  C34 UNL     1      -2.226  53.280  -9.921  1.00  0.00     0.016 C 
HETATM   25  C35 UNL     1       1.760  54.811  -8.617  1.00  0.00     0.017 C 
ENDROOT
BRANCH  17  26
HETATM   26  O3  UNL     1      -2.886  48.117 -14.030  1.00  0.00    -0.352 OA
BRANCH  26  27
HETATM   27  C22 UNL     1      -2.987  47.065 -14.998  1.00  0.00     0.291 C 
HETATM   28  O4  UNL     1      -2.659  47.498 -16.321  1.00  0.00    -0.356 OA
HETATM   29  C23 UNL     1      -3.754  48.153 -16.965  1.00  0.00     0.205 C 
HETATM   30  C24 UNL     1      -4.878  47.160 -17.272  1.00  0.00     0.173 C 
HETATM   31  C25 UNL     1      -4.873  45.996 -16.271  1.00  0.00     0.182 C 
HETATM   32  C26 UNL     1      -4.426  46.494 -14.898  1.00  0.00     0.204 C 
BRANCH  30  33
HETATM   33  O5  UNL     1      -6.136  47.843 -17.226  1.00  0.00    -0.391 OA
HETATM   34  H37 UNL     1      -6.796  47.133 -17.076  1.00  0.00     0.210 HD
ENDBRANCH  30  33
BRANCH  31  35
HETATM   35  O6  UNL     1      -6.191  45.426 -16.195  1.00  0.00    -0.390 OA
HETATM   36  H39 UNL     1      -6.155  44.830 -15.415  1.00  0.00     0.210 HD
ENDBRANCH  31  35
BRANCH  32  37
HETATM   37  O7  UNL     1      -4.504  45.409 -13.952  1.00  0.00    -0.388 OA
HETATM   38  H41 UNL     1      -4.146  45.765 -13.115  1.00  0.00     0.210 HD
ENDBRANCH  32  37
ENDBRANCH  26  27
ENDBRANCH  17  26
BRANCH  18  39
HETATM   39  C29 UNL     1      -0.281  48.295 -11.273  1.00  0.00     0.176 C 
BRANCH  39  40
HETATM   40  O8  UNL     1       0.456  47.290 -11.966  1.00  0.00    -0.400 OA
HETATM   41  H47 UNL     1       1.234  47.077 -11.419  1.00  0.00     0.209 HD
ENDBRANCH  39  40
ENDBRANCH  18  39
BRANCH   1  42
HETATM   42  C2  UNL     1       3.770  55.875  -9.965  1.00  0.00    -0.088 C 
HETATM   43  C1  UNL     1       4.863  55.179  -9.619  1.00  0.00     0.014 C 
HETATM   44  C3  UNL     1       3.702  56.553 -11.310  1.00  0.00     0.043 C 
ENDBRANCH   1  42
BRANCH   4  45
HETATM   45  C8  UNL     1      -0.086  56.249  -7.353  1.00  0.00     0.149 C 
HETATM   46  O1  UNL     1      -0.731  56.522  -8.356  1.00  0.00    -0.649 OA
BRANCH  45  47
HETATM   47  O2  UNL     1      -0.426  56.814  -6.188  1.00  0.00    -0.776 OA
HETATM   48  H11 UNL     1      -1.179  57.403  -6.413  1.00  0.00     0.167 HD
ENDBRANCH  45  47
ENDBRANCH   4  45
TORSDOF 10
ENDMDL
