MODEL 1
REMARK minimizedAffinity -9.37336731
REMARK  11 active torsions:
REMARK  status: ('A' for Active; 'I' for Inactive)
REMARK    1  A    between atoms: C2_2  and  C3_3 
REMARK    2  A    between atoms: C2_2  and  C4_5 
REMARK    3  A    between atoms: C3_3  and  O1_4 
REMARK    4  A    between atoms: C13_14  and  C14_15 
REMARK    5  A    between atoms: C14_15  and  C16_17 
REMARK    6  A    between atoms: C16_17  and  C17_18 
REMARK    7  A    between atoms: C17_18  and  C18_19 
REMARK    8  A    between atoms: C27_28  and  C28_29 
REMARK    9  A    between atoms: C28_29  and  C29_30 
REMARK   10  A    between atoms: C29_30  and  C30_31 
REMARK   11  A    between atoms: C30_31  and  O3_33 
ROOT
HETATM    1  C4  UNL     1      -0.795  51.723 -18.473  1.00  0.00     0.025 C 
HETATM    2  C5  UNL     1      -1.995  50.834 -18.104  1.00  0.00     0.010 C 
HETATM    3  C6  UNL     1      -3.150  51.035 -19.072  1.00  0.00     0.007 C 
HETATM    4  C7  UNL     1      -2.773  50.448 -20.436  1.00  0.00     0.004 C 
HETATM    5  C8  UNL     1      -1.501  51.127 -21.007  1.00  0.00    -0.027 A 
HETATM    6  C9  UNL     1      -1.613  51.727 -22.424  1.00  0.00     0.011 C 
HETATM    7  C10 UNL     1      -2.550  51.049 -23.440  1.00  0.00     0.011 C 
HETATM    8  C11 UNL     1      -3.427  49.942 -22.850  1.00  0.00    -0.032 C 
HETATM    9  C12 UNL     1      -2.573  48.650 -22.788  1.00  0.00     0.016 C 
HETATM   10  C13 UNL     1      -4.766  49.682 -23.610  1.00  0.00    -0.002 C 
HETATM   11  C22 UNL     1      -5.722  49.134 -22.524  1.00  0.00     0.006 C 
HETATM   12  C23 UNL     1      -5.035  49.374 -21.166  1.00  0.00     0.011 C 
HETATM   13  C24 UNL     1      -3.949  50.431 -21.450  1.00  0.00    -0.032 C 
HETATM   14  C25 UNL     1      -4.666  51.819 -21.460  1.00  0.00     0.016 C 
HETATM   15  C26 UNL     1      -0.180  50.447 -20.700  1.00  0.00     0.022 A 
HETATM   16  C27 UNL     1      -0.462  51.746 -19.992  1.00  0.00    -0.024 A 
ENDROOT
BRANCH  10  17
HETATM   17  C14 UNL     1      -4.802  49.006 -25.012  1.00  0.00    -0.014 C 
HETATM   18  C15 UNL     1      -5.970  47.998 -25.057  1.00  0.00     0.010 C 
BRANCH  17  19
HETATM   19  C16 UNL     1      -3.550  48.345 -25.635  1.00  0.00     0.008 C 
BRANCH  19  20
HETATM   20  C17 UNL     1      -3.213  48.677 -27.089  1.00  0.00     0.028 C 
BRANCH  20  21
HETATM   21  C18 UNL     1      -3.140  50.167 -27.295  1.00  0.00    -0.025 C 
HETATM   22  C19 UNL     1      -2.095  50.986 -27.060  1.00  0.00    -0.091 C 
HETATM   23  C20 UNL     1      -2.215  52.469 -27.303  1.00  0.00     0.042 C 
HETATM   24  C21 UNL     1      -0.744  50.549 -26.568  1.00  0.00     0.042 C 
ENDBRANCH  20  21
ENDBRANCH  19  20
ENDBRANCH  17  19
ENDBRANCH  10  17
BRANCH  16  25
HETATM   25  C28 UNL     1       0.254  53.038 -20.441  1.00  0.00     0.021 C 
BRANCH  25  26
HETATM   26  C29 UNL     1       1.386  52.878 -21.447  1.00  0.00     0.111 C 
BRANCH  26  27
HETATM   27  C30 UNL     1       1.450  54.012 -22.429  1.00  0.00     0.139 C 
HETATM   28  O2  UNL     1       1.060  54.008 -23.583  1.00  0.00    -0.650 OA
BRANCH  27  29
HETATM   29  O3  UNL     1       1.977  55.130 -21.886  1.00  0.00    -0.776 OA
HETATM   30  H48 UNL     1       1.983  55.763 -22.637  1.00  0.00     0.167 HD
ENDBRANCH  27  29
ENDBRANCH  26  27
ENDBRANCH  25  26
ENDBRANCH  16  25
BRANCH   1  31
HETATM   31  C2  UNL     1       0.358  51.453 -17.497  1.00  0.00    -0.061 C 
HETATM   32  C1  UNL     1       0.467  50.252 -16.893  1.00  0.00     0.017 C 
BRANCH  31  33
HETATM   33  C3  UNL     1       1.439  52.487 -17.298  1.00  0.00     0.198 C 
BRANCH  33  34
HETATM   34  O1  UNL     1       1.309  53.130 -16.045  1.00  0.00    -0.397 OA
HETATM   35  H5  UNL     1       1.188  52.435 -15.372  1.00  0.00     0.209 HD
ENDBRANCH  33  34
ENDBRANCH  31  33
ENDBRANCH   1  31
TORSDOF 11
ENDMDL
