MODEL 1
REMARK minimizedAffinity -10.3968697
REMARK CNNscore 0.339732438
REMARK CNNaffinity 7.3889823
REMARK  9 active torsions:
REMARK  status: ('A' for Active; 'I' for Inactive)
REMARK    1  A    between atoms: C2_2  and  O1_3 
REMARK    2  A    between atoms: O1_3  and  C3_4 
REMARK    3  A    between atoms: C3_4  and  C4_6 
REMARK    4  A    between atoms: C7_9  and  C8_10 
REMARK    5  A    between atoms: C8_10  and  N1_11 
REMARK    6  A    between atoms: C9_12  and  N2_13 
REMARK    7  A    between atoms: C13_22  and  N5_23 
REMARK    8  A    between atoms: C26_40  and  O5_42 
REMARK    9  A    between atoms: C29_44  and  O6_45 
ROOT
HETATM    1  C4  UNL     1      -1.115   7.953  14.589  1.00  0.00     0.151 C 
HETATM    2  C5  UNL     1      -1.608   7.193  13.594  1.00  0.00     0.055 C 
HETATM    3  C6  UNL     1      -0.689   6.446  12.757  1.00  0.00    -0.020 C 
HETATM    4  C7  UNL     1      -1.052   5.317  12.113  1.00  0.00     0.006 C 
HETATM    5  C17 UNL     1       0.735   6.897  12.762  1.00  0.00     0.042 C 
HETATM    6  C18 UNL     1       1.138   7.622  13.912  1.00  0.00     0.092 C 
HETATM    7  C19 UNL     1       2.473   7.958  14.133  1.00  0.00     0.075 C 
HETATM    8  C20 UNL     1       3.390   7.583  13.178  1.00  0.00     0.081 C 
HETATM    9  O4  UNL     1       4.733   7.810  13.288  1.00  0.00    -0.341 OA
HETATM   10  C21 UNL     1       5.319   6.956  12.256  1.00  0.00     0.171 C 
HETATM   11  C22 UNL     1       4.248   6.787  11.149  1.00  0.00     0.057 C 
HETATM   12  C23 UNL     1       4.382   7.815  10.015  1.00  0.00     0.012 C 
HETATM   13  C24 UNL     1       5.030   9.126  10.453  1.00  0.00     0.004 C 
HETATM   14  C25 UNL     1       6.403   8.952  11.110  1.00  0.00     0.040 C 
HETATM   15  C26 UNL     1       6.641   7.573  11.755  1.00  0.00     0.081 C 
HETATM   16  C27 UNL     1       7.370   6.615  10.802  1.00  0.00     0.049 C 
HETATM   17  C28 UNL     1       3.025   6.974  11.988  1.00  0.00     0.016 C 
HETATM   18  C29 UNL     1       1.691   6.660  11.749  1.00  0.00     0.091 C 
HETATM   19  O7  UNL     1       0.241   8.060  14.869  1.00  0.00    -0.303 OA
ENDROOT
BRANCH   4  20
HETATM   20  C8  UNL     1      -2.381   4.637  12.108  1.00  0.00     0.175 C 
BRANCH  20  21
HETATM   21  N1  UNL     1      -2.173   3.243  11.684  1.00  0.00    -0.188 N 
HETATM   22  C9  UNL     1      -3.080   2.248  11.519  1.00  0.00     0.693 A 
HETATM   23  N7  UNL     1      -2.355   1.186  11.115  1.00  0.00    -0.200 N 
HETATM   24  C15 UNL     1      -1.014   1.467  11.020  1.00  0.00     0.124 A 
HETATM   25  H13 UNL     1      -2.738   0.262  10.899  1.00  0.00     0.183 HD
HETATM   26  C16 UNL     1      -0.886   2.770  11.376  1.00  0.00     0.127 A 
BRANCH  22  27
HETATM   27  N2  UNL     1      -4.521   2.187  11.693  1.00  0.00    -0.125 N 
HETATM   28  C10 UNL     1      -5.375   1.305  11.317  1.00  0.00     0.209 A 
HETATM   29  N3  UNL     1      -6.709   1.579  11.626  1.00  0.00    -0.344 N 
HETATM   30  C11 UNL     1      -6.738   2.728  12.242  1.00  0.00     0.148 A 
ATOM     31  H3  UNL     1      -7.513   0.989  11.410  1.00  0.00     0.167 HD
HETATM   32  C12 UNL     1      -7.779   3.580  12.827  1.00  0.00     0.290 A 
HETATM   33  C14 UNL     1      -5.388   3.240  12.359  1.00  0.00     0.177 A 
HETATM   34  O3  UNL     1      -8.925   3.169  12.794  1.00  0.00    -0.265 OA
HETATM   35  N4  UNL     1      -7.361   4.769  13.367  1.00  0.00    -0.154 N 
HETATM   36  C13 UNL     1      -6.109   5.107  13.397  1.00  0.00     0.680 A 
ATOM     37  H4  UNL     1      -8.055   5.406  13.758  1.00  0.00     0.187 HD
HETATM   38  N6  UNL     1      -5.063   4.346  12.915  1.00  0.00    -0.173 N 
ATOM     39  H6  UNL     1      -4.091   4.646  12.997  1.00  0.00     0.186 HD
BRANCH  36  40
HETATM   40  N5  UNL     1      -5.790   6.307  13.922  1.00  0.00    -0.234 N 
HETATM   41  H11 UNL     1      -4.896   6.423  14.380  1.00  0.00     0.174 HD
HETATM   42  H12 UNL     1      -6.550   6.763  14.426  1.00  0.00     0.174 HD
ENDBRANCH  36  40
ENDBRANCH  22  27
ENDBRANCH  20  21
ENDBRANCH   4  20
BRANCH   1  43
HETATM   43  C3  UNL     1      -2.094   8.665  15.459  1.00  0.00     0.317 C 
HETATM   44  O2  UNL     1      -2.225   8.427  16.653  1.00  0.00    -0.257 OA
BRANCH  43  45
HETATM   45  O1  UNL     1      -2.785   9.575  14.736  1.00  0.00    -0.316 OA
BRANCH  45  46
HETATM   46  C2  UNL     1      -3.810  10.264  15.463  1.00  0.00     0.175 C 
HETATM   47  C1  UNL     1      -5.078   9.435  15.393  1.00  0.00     0.034 C 
ENDBRANCH  45  46
ENDBRANCH  43  45
ENDBRANCH   1  43
BRANCH  18  48
HETATM   48  O6  UNL     1       1.345   6.127  10.532  1.00  0.00    -0.354 OA
HETATM   49  C30 UNL     1       0.914   7.174   9.653  1.00  0.00     0.210 C 
ENDBRANCH  18  48
BRANCH  15  50
HETATM   50  O5  UNL     1       7.521   7.738  12.877  1.00  0.00    -0.388 OA
HETATM   51  H28 UNL     1       8.294   8.259  12.593  1.00  0.00     0.210 HD
ENDBRANCH  15  50
TORSDOF 9
ENDMDL
