MODEL 1
REMARK minimizedAffinity -8.43512249
REMARK CNNscore 0.426091462
REMARK CNNaffinity 6.47193766
REMARK  14 active torsions:
REMARK  status: ('A' for Active; 'I' for Inactive)
REMARK    1  A    between atoms: C19_20  and  O2_21 
REMARK    2  A    between atoms: C19_20  and  C20_22 
REMARK    3  A    between atoms: C20_22  and  C21_24 
REMARK    4  A    between atoms: C21_24  and  O4_25 
REMARK    5  A    between atoms: O4_25  and  C22_26 
REMARK    6  A    between atoms: C22_26  and  C23_28 
REMARK    7  A    between atoms: C23_28  and  C24_29 
REMARK    8  A    between atoms: C24_29  and  C25_30 
REMARK       I    between atoms: C25_30  and  N1_32 
REMARK    9  A    between atoms: N1_32  and  C26_33 
REMARK   10  A    between atoms: C26_33  and  C27_34 
REMARK   11  A    between atoms: C27_34  and  C28_35 
REMARK   12  A    between atoms: C27_34  and  C30_39 
REMARK   13  A    between atoms: C28_35  and  C29_36 
REMARK   14  A    between atoms: C29_36  and  O8_38 
ROOT
HETATM    1  C20 UNL     1      -2.581  50.249 -17.891  1.00  0.00     0.185 C 
HETATM    2  O3  UNL     1      -2.704  51.481 -17.865  1.00  0.00    -0.292 OA
ENDROOT
BRANCH   1   3
HETATM    3  C19 UNL     1      -2.289  49.557 -19.237  1.00  0.00     0.128 C 
HETATM    4  C14 UNL     1      -2.546  50.458 -20.483  1.00  0.00    -0.002 C 
HETATM    5  C13 UNL     1      -1.509  51.559 -20.766  1.00  0.00     0.013 C 
HETATM    6  C15 UNL     1      -3.960  51.095 -20.403  1.00  0.00     0.019 C 
HETATM    7  C16 UNL     1      -2.412  49.398 -21.604  1.00  0.00     0.002 C 
HETATM    8  C12 UNL     1      -1.681  52.175 -22.168  1.00  0.00     0.007 C 
HETATM    9  C11 UNL     1      -1.692  51.120 -23.302  1.00  0.00     0.002 C 
HETATM   10  C2  UNL     1      -1.903  51.709 -24.745  1.00  0.00    -0.016 C 
HETATM   11  C10 UNL     1      -2.706  49.957 -23.001  1.00  0.00    -0.004 C 
HETATM   12  C1  UNL     1      -3.293  52.375 -24.902  1.00  0.00     0.020 C 
HETATM   13  C3  UNL     1      -0.874  52.814 -25.120  1.00  0.00     0.022 C 
HETATM   14  C7  UNL     1      -1.767  50.515 -25.699  1.00  0.00    -0.068 C 
HETATM   15  C4  UNL     1       0.509  52.278 -25.444  1.00  0.00     0.084 C 
HETATM   16  C5  UNL     1       0.406  51.283 -26.572  1.00  0.00     0.149 C 
HETATM   17  O1  UNL     1       1.277  51.163 -27.428  1.00  0.00    -0.293 OA
HETATM   18  C6  UNL     1      -0.751  50.355 -26.566  1.00  0.00     0.053 C 
HETATM   19  C8  UNL     1      -2.770  49.406 -25.500  1.00  0.00     0.035 C 
HETATM   20  C9  UNL     1      -2.636  48.855 -24.079  1.00  0.00     0.010 C 
HETATM   21  C17 UNL     1      -3.246  48.229 -21.093  1.00  0.00     0.009 C 
HETATM   22  C18 UNL     1      -3.080  48.268 -19.559  1.00  0.00     0.047 C 
BRANCH   3  23
HETATM   23  O2  UNL     1      -0.898  49.185 -19.181  1.00  0.00    -0.381 OA
HETATM   24  H27 UNL     1      -0.430  49.931 -18.757  1.00  0.00     0.211 HD
ENDBRANCH   3  23
ENDBRANCH   1   3
BRANCH   1  25
HETATM   25  C21 UNL     1      -2.722  49.398 -16.636  1.00  0.00     0.260 C 
BRANCH  25  26
HETATM   26  O4  UNL     1      -2.805  50.186 -15.448  1.00  0.00    -0.314 OA
BRANCH  26  27
HETATM   27  C22 UNL     1      -1.656  50.221 -14.716  1.00  0.00     0.259 C 
HETATM   28  O5  UNL     1      -0.621  49.631 -15.002  1.00  0.00    -0.265 OA
BRANCH  27  29
HETATM   29  C23 UNL     1      -1.831  51.108 -13.508  1.00  0.00     0.120 C 
BRANCH  29  30
HETATM   30  C24 UNL     1      -0.756  52.189 -13.481  1.00  0.00     0.112 C 
BRANCH  30  31
HETATM   31  C25 UNL     1       0.207  51.981 -12.330  1.00  0.00     0.218 C 
HETATM   32  O6  UNL     1       0.171  51.004 -11.586  1.00  0.00    -0.274 OA
HETATM   33  N1  UNL     1       1.115  53.002 -12.191  1.00  0.00    -0.360 N 
HETATM   34  H34 UNL     1       1.156  53.722 -12.911  1.00  0.00     0.162 HD
BRANCH  33  35
HETATM   35  C26 UNL     1       2.183  52.934 -11.216  1.00  0.00     0.132 C 
BRANCH  35  36
HETATM   36  C27 UNL     1       2.867  54.290 -10.919  1.00  0.00     0.046 C 
BRANCH  36  37
HETATM   37  C28 UNL     1       1.862  55.318 -10.352  1.00  0.00     0.120 C 
BRANCH  37  38
HETATM   38  C29 UNL     1       1.394  55.058  -8.941  1.00  0.00     0.140 C 
HETATM   39  O7  UNL     1       1.953  54.391  -8.086  1.00  0.00    -0.650 OA
BRANCH  38  40
HETATM   40  O8  UNL     1       0.234  55.689  -8.669  1.00  0.00    -0.776 OA
HETATM   41  H40 UNL     1       0.012  55.422  -7.749  1.00  0.00     0.167 HD
ENDBRANCH  38  40
ENDBRANCH  37  38
ENDBRANCH  36  37
BRANCH  36  42
HETATM   42  C30 UNL     1       4.212  54.148 -10.210  1.00  0.00    -0.052 A 
HETATM   43  C31 UNL     1       4.599  52.879  -9.736  1.00  0.00     0.007 A 
HETATM   44  C32 UNL     1       5.822  52.685  -9.090  1.00  0.00     0.001 A 
HETATM   45  C33 UNL     1       6.692  53.757  -8.911  1.00  0.00     0.000 A 
HETATM   46  C34 UNL     1       6.338  55.018  -9.385  1.00  0.00     0.001 A 
HETATM   47  C35 UNL     1       5.112  55.209 -10.033  1.00  0.00     0.007 A 
ENDBRANCH  36  42
ENDBRANCH  35  36
ENDBRANCH  33  35
ENDBRANCH  30  31
ENDBRANCH  29  30
ENDBRANCH  27  29
ENDBRANCH  26  27
ENDBRANCH  25  26
ENDBRANCH   1  25
TORSDOF 14
ENDMDL
