MODEL 1
REMARK minimizedAffinity -11.1106777
REMARK CNNscore 0.370214134
REMARK CNNaffinity 7.15822744
REMARK  10 active torsions:
REMARK  status: ('A' for Active; 'I' for Inactive)
REMARK    1  A    between atoms: C3_3  and  C4_4 
REMARK    2  A    between atoms: C4_4  and  O1_5 
REMARK    3  A    between atoms: O1_5  and  C5_6 
REMARK    4  A    between atoms: C6_8  and  C7_9 
REMARK    5  A    between atoms: C7_9  and  O3_10 
REMARK    6  A    between atoms: C8_11  and  O4_12 
REMARK    7  A    between atoms: C9_13  and  O5_14 
REMARK    8  A    between atoms: C10_15  and  O6_16 
REMARK    9  A    between atoms: C12_20  and  C13_21 
REMARK   10  A    between atoms: C13_21  and  C15_23 
ROOT
HETATM    1  C1  UNL     1      -3.039  49.010 -26.980  1.00  0.00     0.044 C 
HETATM    2  C2  UNL     1      -4.358  48.824 -26.289  1.00  0.00    -0.067 C 
HETATM    3  C3  UNL     1      -5.404  48.134 -26.797  1.00  0.00     0.043 C 
HETATM    4  C11 UNL     1      -6.687  48.087 -26.040  1.00  0.00     0.292 C 
HETATM    5  O7  UNL     1      -7.743  47.765 -26.576  1.00  0.00    -0.260 OA
HETATM    6  O8  UNL     1      -6.649  48.445 -24.729  1.00  0.00    -0.311 OA
HETATM    7  C12 UNL     1      -5.378  48.587 -24.048  1.00  0.00     0.140 C 
HETATM    8  C34 UNL     1      -4.458  49.446 -24.919  1.00  0.00     0.067 C 
ENDROOT
BRANCH   7   9
HETATM    9  C13 UNL     1      -5.663  49.185 -22.629  1.00  0.00     0.016 C 
HETATM   10  C14 UNL     1      -6.046  50.663 -22.719  1.00  0.00     0.013 C 
BRANCH   9  11
HETATM   11  C15 UNL     1      -4.448  48.907 -21.683  1.00  0.00     0.000 C 
HETATM   12  C16 UNL     1      -3.650  47.646 -22.054  1.00  0.00     0.006 C 
HETATM   13  C17 UNL     1      -2.379  48.160 -22.694  1.00  0.00     0.006 C 
HETATM   14  C18 UNL     1      -2.002  49.371 -21.835  1.00  0.00    -0.002 C 
HETATM   15  C19 UNL     1      -0.969  50.288 -22.517  1.00  0.00    -0.004 C 
HETATM   16  C32 UNL     1      -3.351  50.023 -21.433  1.00  0.00    -0.036 C 
HETATM   17  C20 UNL     1      -0.282  51.222 -21.505  1.00  0.00     0.006 C 
HETATM   18  C29 UNL     1      -1.561  51.055 -23.729  1.00  0.00     0.006 C 
HETATM   19  C21 UNL     1       0.742  52.152 -22.157  1.00  0.00     0.006 C 
HETATM   20  C22 UNL     1       0.094  52.941 -23.298  1.00  0.00     0.001 C 
HETATM   21  C23 UNL     1       1.051  54.003 -23.859  1.00  0.00     0.006 C 
HETATM   22  C27 UNL     1      -0.485  52.001 -24.390  1.00  0.00     0.024 C 
HETATM   23  C24 UNL     1       0.319  54.862 -24.885  1.00  0.00     0.008 C 
HETATM   24  C25 UNL     1      -0.253  54.035 -26.023  1.00  0.00     0.079 C 
HETATM   25  C26 UNL     1      -1.066  52.846 -25.542  1.00  0.00     0.136 C 
HETATM   26  O9  UNL     1      -2.070  52.499 -26.166  1.00  0.00    -0.297 OA
HETATM   27  C28 UNL     1       0.608  51.134 -25.070  1.00  0.00     0.024 C 
HETATM   28  C30 UNL     1      -2.887  51.766 -23.385  1.00  0.00     0.007 C 
HETATM   29  C31 UNL     1      -3.568  51.423 -22.053  1.00  0.00     0.010 C 
HETATM   30  C33 UNL     1      -3.332  50.240 -19.891  1.00  0.00     0.016 C 
ENDBRANCH   9  11
ENDBRANCH   7   9
BRANCH   3  31
HETATM   31  C4  UNL     1      -5.424  47.443 -28.136  1.00  0.00     0.216 C 
BRANCH  31  32
HETATM   32  O1  UNL     1      -4.632  48.207 -29.049  1.00  0.00    -0.354 OA
BRANCH  32  33
HETATM   33  C5  UNL     1      -5.310  48.572 -30.254  1.00  0.00     0.291 C 
HETATM   34  O2  UNL     1      -4.576  47.962 -31.319  1.00  0.00    -0.348 OA
HETATM   35  C6  UNL     1      -5.133  48.168 -32.622  1.00  0.00     0.179 C 
HETATM   36  C8  UNL     1      -6.537  47.562 -32.706  1.00  0.00     0.180 C 
HETATM   37  C9  UNL     1      -7.404  48.201 -31.626  1.00  0.00     0.183 C 
HETATM   38  C10 UNL     1      -6.777  48.087 -30.241  1.00  0.00     0.204 C 
BRANCH  35  39
HETATM   39  C7  UNL     1      -4.192  47.517 -33.645  1.00  0.00     0.198 C 
BRANCH  39  40
HETATM   40  O3  UNL     1      -3.230  48.442 -34.151  1.00  0.00    -0.398 OA
HETATM   41  H10 UNL     1      -3.469  49.334 -33.824  1.00  0.00     0.209 HD
ENDBRANCH  39  40
ENDBRANCH  35  39
BRANCH  36  42
HETATM   42  O4  UNL     1      -7.146  47.828 -33.975  1.00  0.00    -0.390 OA
HETATM   43  H12 UNL     1      -6.949  47.076 -34.561  1.00  0.00     0.210 HD
ENDBRANCH  36  42
BRANCH  37  44
HETATM   44  O5  UNL     1      -8.695  47.572 -31.600  1.00  0.00    -0.390 OA
HETATM   45  H14 UNL     1      -9.120  47.808 -32.444  1.00  0.00     0.210 HD
ENDBRANCH  37  44
BRANCH  38  46
HETATM   46  O6  UNL     1      -7.589  48.867 -29.347  1.00  0.00    -0.388 OA
HETATM   47  H16 UNL     1      -8.486  48.479 -29.413  1.00  0.00     0.210 HD
ENDBRANCH  38  46
ENDBRANCH  32  33
ENDBRANCH  31  32
ENDBRANCH   3  31
TORSDOF 10
ENDMDL
