MODEL 1
REMARK minimizedAffinity -9.43418789
REMARK  5 active torsions:
REMARK  status: ('A' for Active; 'I' for Inactive)
REMARK    1  A    between atoms: C2_2  and  C25_28 
REMARK    2  A    between atoms: C3_3  and  C4_4 
REMARK    3  A    between atoms: C4_4  and  C6_6 
REMARK    4  A    between atoms: C20_20  and  O1_21 
REMARK    5  A    between atoms: C25_28  and  C27_30 
ROOT
HETATM    1  C6  UNL     1      -0.043  51.390 -20.832  1.00  0.00     0.001 C 
HETATM    2  C7  UNL     1      -0.415  52.246 -19.577  1.00  0.00     0.006 C 
HETATM    3  C8  UNL     1      -1.785  51.755 -19.080  1.00  0.00     0.009 C 
HETATM    4  C9  UNL     1      -2.028  50.511 -19.919  1.00  0.00     0.036 C 
HETATM    5  C10 UNL     1      -1.434  50.857 -21.316  1.00  0.00    -0.033 C 
HETATM    6  C11 UNL     1      -2.178  51.973 -22.094  1.00  0.00     0.016 C 
HETATM    7  C12 UNL     1      -1.428  49.598 -22.216  1.00  0.00     0.010 C 
HETATM    8  C13 UNL     1      -2.018  48.320 -21.607  1.00  0.00     0.010 C 
HETATM    9  C14 UNL     1      -3.225  48.463 -20.657  1.00  0.00     0.039 C 
HETATM   10  C15 UNL     1      -3.404  49.861 -19.962  1.00  0.00     0.123 C 
HETATM   11  C16 UNL     1      -4.542  50.734 -20.455  1.00  0.00     0.014 C 
HETATM   12  C17 UNL     1      -5.731  50.113 -20.502  1.00  0.00     0.014 C 
HETATM   13  C18 UNL     1      -5.635  48.655 -20.138  1.00  0.00     0.124 C 
HETATM   14  C19 UNL     1      -6.974  47.927 -20.097  1.00  0.00     0.078 C 
HETATM   15  C20 UNL     1      -6.819  46.484 -19.593  1.00  0.00     0.121 C 
HETATM   16  C21 UNL     1      -5.415  45.893 -19.763  1.00  0.00     0.033 C 
HETATM   17  C22 UNL     1      -4.727  46.394 -21.031  1.00  0.00     0.015 C 
HETATM   18  C23 UNL     1      -4.623  47.946 -21.124  1.00  0.00     0.001 C 
HETATM   19  C24 UNL     1      -4.881  48.310 -22.612  1.00  0.00     0.019 C 
HETATM   20  O2  UNL     1      -5.084  48.612 -18.773  1.00  0.00    -0.223 OA
HETATM   21  O3  UNL     1      -3.875  49.513 -18.635  1.00  0.00    -0.224 OA
ENDROOT
BRANCH   1  22
HETATM   22  C4  UNL     1       0.862  52.180 -21.817  1.00  0.00     0.009 C 
HETATM   23  C5  UNL     1       0.971  53.681 -21.534  1.00  0.00     0.014 C 
BRANCH  22  24
HETATM   24  C3  UNL     1       0.523  51.934 -23.278  1.00  0.00    -0.019 C 
HETATM   25  C2  UNL     1       0.527  52.769 -24.340  1.00  0.00    -0.083 C 
HETATM   26  C1  UNL     1       0.918  54.222 -24.303  1.00  0.00     0.043 C 
BRANCH  25  27
HETATM   27  C25 UNL     1       0.095  52.282 -25.731  1.00  0.00     0.013 C 
HETATM   28  C26 UNL     1      -0.596  50.913 -25.604  1.00  0.00     0.015 C 
BRANCH  27  29
HETATM   29  C27 UNL     1       1.252  52.278 -26.777  1.00  0.00    -0.015 C 
HETATM   30  C28 UNL     1       2.379  51.314 -26.385  1.00  0.00     0.010 C 
HETATM   31  C29 UNL     1       0.746  51.902 -28.177  1.00  0.00     0.010 C 
ENDBRANCH  27  29
ENDBRANCH  25  27
ENDBRANCH  22  24
ENDBRANCH   1  22
BRANCH  15  32
HETATM   32  O1  UNL     1      -7.748  45.659 -20.301  1.00  0.00    -0.395 OA
HETATM   33  H28 UNL     1      -8.642  45.937 -20.036  1.00  0.00     0.210 HD
ENDBRANCH  15  32
TORSDOF 5
ENDMDL
