MODEL 1
REMARK minimizedAffinity -7.51579285
REMARK CNNscore 0.403574646
REMARK CNNaffinity 6.54966402
REMARK  6 active torsions:
REMARK  status: ('A' for Active; 'I' for Inactive)
REMARK    1  A    between atoms: C2_2  and  O2_4 
REMARK    2  A    between atoms: O2_4  and  C3_5 
REMARK    3  A    between atoms: C13_15  and  C14_16 
REMARK    4  A    between atoms: C14_16  and  C16_18 
REMARK    5  A    between atoms: C17_19  and  C18_20 
REMARK    6  A    between atoms: C18_20  and  C20_22 
ROOT
HETATM    1  C3  UNL     1      -5.364   4.360  12.599  1.00  0.00     0.135 C 
HETATM    2  C4  UNL     1      -6.581   5.148  13.098  1.00  0.00     0.034 C 
HETATM    3  C5  UNL     1      -6.229   6.600  13.425  1.00  0.00     0.015 C 
HETATM    4  C6  UNL     1      -5.058   6.730  14.438  1.00  0.00     0.001 C 
HETATM    5  C7  UNL     1      -5.552   6.220  15.817  1.00  0.00     0.019 C 
HETATM    6  C8  UNL     1      -4.567   8.238  14.489  1.00  0.00     0.039 C 
HETATM    7  C9  UNL     1      -5.083   9.081  15.679  1.00  0.00     0.010 C 
HETATM    8  C10 UNL     1      -4.504  10.509  15.705  1.00  0.00     0.010 C 
HETATM    9  C11 UNL     1      -2.964  10.499  15.678  1.00  0.00    -0.033 C 
HETATM   10  C12 UNL     1      -2.435   9.906  16.998  1.00  0.00     0.016 C 
HETATM   11  C13 UNL     1      -2.316  11.877  15.343  1.00  0.00     0.001 C 
HETATM   12  C23 UNL     1      -0.920  11.494  14.780  1.00  0.00     0.006 C 
HETATM   13  C24 UNL     1      -1.042  10.048  14.261  1.00  0.00     0.009 C 
HETATM   14  C25 UNL     1      -2.528   9.726  14.409  1.00  0.00     0.036 C 
HETATM   15  C26 UNL     1      -3.009   8.275  14.306  1.00  0.00     0.123 C 
HETATM   16  C27 UNL     1      -2.292   7.246  15.144  1.00  0.00     0.014 C 
HETATM   17  C28 UNL     1      -2.697   5.989  14.917  1.00  0.00     0.014 C 
HETATM   18  C29 UNL     1      -3.835   5.892  13.926  1.00  0.00     0.124 C 
HETATM   19  C30 UNL     1      -4.199   4.444  13.593  1.00  0.00     0.079 C 
HETATM   20  O3  UNL     1      -3.389   6.511  12.687  1.00  0.00    -0.223 OA
HETATM   21  O4  UNL     1      -2.759   7.840  12.939  1.00  0.00    -0.224 OA
ENDROOT
BRANCH  11  22
HETATM   22  C14 UNL     1      -2.325  13.017  16.399  1.00  0.00     0.008 C 
HETATM   23  C15 UNL     1      -1.087  12.888  17.305  1.00  0.00     0.014 C 
BRANCH  22  24
HETATM   24  C16 UNL     1      -3.606  13.167  17.196  1.00  0.00    -0.026 C 
HETATM   25  C17 UNL     1      -3.773  12.968  18.516  1.00  0.00    -0.026 C 
BRANCH  25  26
HETATM   26  C18 UNL     1      -5.097  13.155  19.230  1.00  0.00     0.007 C 
HETATM   27  C19 UNL     1      -6.084  13.846  18.285  1.00  0.00     0.014 C 
BRANCH  26  28
HETATM   28  C20 UNL     1      -4.906  13.878  20.593  1.00  0.00    -0.015 C 
HETATM   29  C21 UNL     1      -5.037  15.403  20.523  1.00  0.00     0.010 C 
HETATM   30  C22 UNL     1      -5.870  13.333  21.654  1.00  0.00     0.010 C 
ENDBRANCH  26  28
ENDBRANCH  25  26
ENDBRANCH  22  24
ENDBRANCH  11  22
BRANCH   1  31
HETATM   31  O2  UNL     1      -5.703   2.965  12.465  1.00  0.00    -0.316 OA
BRANCH  31  32
HETATM   32  C2  UNL     1      -5.604   2.439  11.214  1.00  0.00     0.255 C 
HETATM   33  C1  UNL     1      -4.800   3.351  10.340  1.00  0.00     0.126 C 
HETATM   34  O1  UNL     1      -6.111   1.394  10.835  1.00  0.00    -0.266 OA
ENDBRANCH  31  32
ENDBRANCH   1  31
TORSDOF 6
ENDMDL
