MODEL 1
REMARK minimizedAffinity -6.79765654
REMARK CNNscore 0.675195336
REMARK CNNaffinity 5.89053583
REMARK  7 active torsions:
REMARK  status: ('A' for Active; 'I' for Inactive)
REMARK    1  A    between atoms: C2_2  and  C30_32 
REMARK    2  A    between atoms: C3_3  and  C4_4 
REMARK    3  A    between atoms: C4_4  and  O1_5 
REMARK    4  A    between atoms: C4_4  and  C5_6 
REMARK    5  A    between atoms: C5_6  and  C6_7 
REMARK    6  A    between atoms: C6_7  and  C8_9 
REMARK    7  A    between atoms: C30_32  and  O3_33 
ROOT
HETATM    1  C8  UNL     1     -10.140  -7.778  -4.432  1.00  0.00    -0.002 C 
HETATM    2  C9  UNL     1     -11.202  -7.420  -3.350  1.00  0.00     0.007 C 
HETATM    3  C10 UNL     1     -10.665  -7.944  -2.003  1.00  0.00     0.015 C 
HETATM    4  C11 UNL     1      -9.542  -8.929  -2.385  1.00  0.00    -0.013 C 
HETATM    5  C12 UNL     1     -10.251 -10.276  -2.753  1.00  0.00     0.021 C 
HETATM    6  C13 UNL     1      -8.500  -9.289  -1.329  1.00  0.00    -0.070 C 
HETATM    7  C14 UNL     1      -8.799  -9.351  -0.019  1.00  0.00    -0.022 C 
HETATM    8  C15 UNL     1      -7.866  -9.853   1.040  1.00  0.00     0.034 C 
HETATM    9  C16 UNL     1      -6.409 -10.084   0.572  1.00  0.00     0.013 C 
HETATM   10  C17 UNL     1      -5.512 -10.797   1.649  1.00  0.00     0.018 C 
HETATM   11  C18 UNL     1      -6.292 -11.777   2.555  1.00  0.00     0.023 C 
HETATM   12  C19 UNL     1      -4.906  -9.709   2.573  1.00  0.00     0.023 C 
HETATM   13  C20 UNL     1      -4.314 -11.580   1.091  1.00  0.00     0.135 C 
HETATM   14  O2  UNL     1      -3.567 -12.219   1.851  1.00  0.00    -0.297 OA
HETATM   15  C21 UNL     1      -4.011 -11.612  -0.388  1.00  0.00     0.080 C 
HETATM   16  C22 UNL     1      -4.859 -10.722  -1.272  1.00  0.00     0.017 C 
HETATM   17  C23 UNL     1      -6.350 -10.671  -0.877  1.00  0.00    -0.031 C 
HETATM   18  C24 UNL     1      -6.972 -12.081  -0.967  1.00  0.00     0.016 C 
HETATM   19  C25 UNL     1      -7.101  -9.652  -1.834  1.00  0.00     0.024 C 
HETATM   20  C26 UNL     1      -7.082 -10.040  -3.334  1.00  0.00     0.010 C 
HETATM   21  C27 UNL     1      -7.880  -9.121  -4.288  1.00  0.00     0.011 C 
HETATM   22  C28 UNL     1      -8.879  -8.172  -3.592  1.00  0.00    -0.029 C 
HETATM   23  C29 UNL     1      -8.129  -6.874  -3.171  1.00  0.00     0.016 C 
ENDROOT
BRANCH   1  24
HETATM   24  C6  UNL     1     -10.086  -6.783  -5.636  1.00  0.00    -0.011 C 
HETATM   25  C7  UNL     1     -10.502  -7.330  -7.008  1.00  0.00     0.010 C 
BRANCH  24  26
HETATM   26  C5  UNL     1     -10.847  -5.470  -5.320  1.00  0.00     0.040 C 
BRANCH  26  27
HETATM   27  C4  UNL     1     -10.143  -4.189  -5.790  1.00  0.00     0.141 C 
BRANCH  27  28
HETATM   28  C3  UNL     1     -10.680  -2.959  -5.104  1.00  0.00     0.009 C 
HETATM   29  C2  UNL     1     -10.087  -1.760  -4.909  1.00  0.00    -0.062 C 
HETATM   30  C1  UNL     1     -10.847  -0.653  -4.224  1.00  0.00     0.045 C 
BRANCH  29  31
HETATM   31  C30 UNL     1      -8.678  -1.416  -5.329  1.00  0.00     0.198 C 
BRANCH  31  32
HETATM   32  O3  UNL     1      -7.767  -1.818  -4.311  1.00  0.00    -0.397 OA
HETATM   33  H48 UNL     1      -7.814  -1.150  -3.607  1.00  0.00     0.209 HD
ENDBRANCH  31  32
ENDBRANCH  29  31
ENDBRANCH  27  28
BRANCH  27  34
HETATM   34  O1  UNL     1      -8.740  -4.283  -5.582  1.00  0.00    -0.392 OA
HETATM   35  H6  UNL     1      -8.361  -3.423  -5.831  1.00  0.00     0.210 HD
ENDBRANCH  27  34
ENDBRANCH  26  27
ENDBRANCH  24  26
ENDBRANCH   1  24
TORSDOF 7
ENDMDL
