MODEL 1
REMARK minimizedAffinity -8.4664917
REMARK CNNscore 0.774676561
REMARK CNNaffinity 6.82117891
REMARK  13 active torsions:
REMARK  status: ('A' for Active; 'I' for Inactive)
REMARK    1  A    between atoms: C19_21  and  O3_22 
REMARK    2  A    between atoms: C19_21  and  C20_23 
REMARK    3  A    between atoms: C20_23  and  C21_25 
REMARK    4  A    between atoms: C21_25  and  O5_26 
REMARK    5  A    between atoms: O5_26  and  C22_27 
REMARK    6  A    between atoms: C22_27  and  C23_29 
REMARK    7  A    between atoms: C23_29  and  C24_30 
REMARK    8  A    between atoms: C24_30  and  C25_31 
REMARK       I    between atoms: C25_31  and  N1_33 
REMARK    9  A    between atoms: N1_33  and  C26_34 
REMARK   10  A    between atoms: C26_34  and  C27_35 
REMARK   11  A    between atoms: C27_35  and  C28_36 
REMARK   12  A    between atoms: C31_39  and  O8_40 
REMARK   13  A    between atoms: C32_41  and  O9_42 
ROOT
HETATM    1  C20 UNL     1      -1.034  52.200 -12.147  1.00  0.00     0.185 C 
HETATM    2  O4  UNL     1      -0.327  52.588 -13.085  1.00  0.00    -0.292 OA
ENDROOT
BRANCH   1   3
HETATM    3  C19 UNL     1      -0.546  52.298 -10.663  1.00  0.00     0.128 C 
HETATM    4  C14 UNL     1      -0.425  53.763 -10.127  1.00  0.00     0.005 C 
HETATM    5  C13 UNL     1      -0.326  53.774  -8.584  1.00  0.00     0.091 C 
HETATM    6  C15 UNL     1      -1.610  54.658 -10.533  1.00  0.00     0.019 C 
HETATM    7  C16 UNL     1       0.894  54.236 -10.774  1.00  0.00     0.002 C 
HETATM    8  C12 UNL     1       0.177  55.088  -8.033  1.00  0.00     0.133 C 
HETATM    9  C11 UNL     1       1.420  55.712  -8.651  1.00  0.00     0.072 C 
HETATM   10  O2  UNL     1      -0.347  55.590  -7.037  1.00  0.00    -0.297 OA
HETATM   11  C2  UNL     1       2.735  55.448  -7.827  1.00  0.00    -0.009 C 
HETATM   12  C10 UNL     1       1.465  55.547 -10.194  1.00  0.00     0.003 C 
HETATM   13  C1  UNL     1       2.843  56.543  -6.728  1.00  0.00     0.021 C 
HETATM   14  C3  UNL     1       2.756  54.064  -7.125  1.00  0.00     0.022 C 
HETATM   15  C7  UNL     1       3.962  55.579  -8.724  1.00  0.00    -0.067 C 
HETATM   16  C4  UNL     1       4.098  53.731  -6.476  1.00  0.00     0.084 C 
HETATM   17  C5  UNL     1       5.234  53.884  -7.457  1.00  0.00     0.149 C 
HETATM   18  O1  UNL     1       6.282  53.249  -7.353  1.00  0.00    -0.293 OA
HETATM   19  C6  UNL     1       5.088  54.862  -8.561  1.00  0.00     0.053 C 
HETATM   20  C8  UNL     1       3.818  56.532  -9.877  1.00  0.00     0.035 C 
HETATM   21  C9  UNL     1       2.808  55.942 -10.851  1.00  0.00     0.010 C 
HETATM   22  C17 UNL     1       1.813  53.005 -10.743  1.00  0.00     0.009 C 
HETATM   23  C18 UNL     1       0.906  51.781 -10.575  1.00  0.00     0.047 C 
BRANCH   3  24
HETATM   24  O3  UNL     1      -1.348  51.524  -9.781  1.00  0.00    -0.381 OA
HETATM   25  H25 UNL     1      -1.302  50.596 -10.078  1.00  0.00     0.211 HD
ENDBRANCH   3  24
ENDBRANCH   1   3
BRANCH   1  26
HETATM   26  C21 UNL     1      -2.452  51.716 -12.421  1.00  0.00     0.260 C 
BRANCH  26  27
HETATM   27  O5  UNL     1      -2.493  50.749 -13.470  1.00  0.00    -0.314 OA
BRANCH  27  28
HETATM   28  C22 UNL     1      -2.874  51.246 -14.681  1.00  0.00     0.259 C 
HETATM   29  O6  UNL     1      -3.767  52.064 -14.857  1.00  0.00    -0.265 OA
BRANCH  28  30
HETATM   30  C23 UNL     1      -2.071  50.606 -15.786  1.00  0.00     0.120 C 
BRANCH  30  31
HETATM   31  C24 UNL     1      -2.632  50.990 -17.151  1.00  0.00     0.112 C 
BRANCH  31  32
HETATM   32  C25 UNL     1      -2.000  50.164 -18.254  1.00  0.00     0.218 C 
HETATM   33  O7  UNL     1      -1.138  49.317 -18.045  1.00  0.00    -0.274 OA
HETATM   34  N1  UNL     1      -2.515  50.428 -19.505  1.00  0.00    -0.361 N 
HETATM   35  H32 UNL     1      -3.033  51.287 -19.636  1.00  0.00     0.162 HD
BRANCH  34  36
HETATM   36  C26 UNL     1      -1.945  49.817 -20.693  1.00  0.00     0.127 C 
BRANCH  36  37
HETATM   37  C27 UNL     1      -0.412  49.871 -20.721  1.00  0.00     0.058 C 
BRANCH  37  38
HETATM   38  C28 UNL     1       0.118  51.236 -21.102  1.00  0.00    -0.054 A 
HETATM   39  C29 UNL     1       0.082  51.657 -22.443  1.00  0.00     0.010 A 
HETATM   40  C30 UNL     1       0.585  52.907 -22.813  1.00  0.00     0.040 A 
HETATM   41  C31 UNL     1       1.120  53.735 -21.839  1.00  0.00     0.098 A 
HETATM   42  C32 UNL     1       1.160  53.334 -20.506  1.00  0.00     0.099 A 
HETATM   43  C33 UNL     1       0.665  52.088 -20.128  1.00  0.00     0.046 A 
BRANCH  41  44
HETATM   44  O8  UNL     1       1.610  54.959 -22.199  1.00  0.00    -0.358 OA
HETATM   45  H39 UNL     1       1.920  55.355 -21.360  1.00  0.00     0.217 HD
ENDBRANCH  41  44
BRANCH  42  46
HETATM   46  O9  UNL     1       1.698  54.205 -19.597  1.00  0.00    -0.358 OA
HETATM   47  H40 UNL     1       1.644  53.795 -18.718  1.00  0.00     0.217 HD
ENDBRANCH  42  46
ENDBRANCH  37  38
ENDBRANCH  36  37
ENDBRANCH  34  36
ENDBRANCH  31  32
ENDBRANCH  30  31
ENDBRANCH  28  30
ENDBRANCH  27  28
ENDBRANCH  26  27
ENDBRANCH   1  26
TORSDOF 13
ENDMDL
