MODEL 1
REMARK minimizedAffinity -6.79245901
REMARK CNNscore 0.219337538
REMARK CNNaffinity 5.32254982
REMARK  14 active torsions:
REMARK  status: ('A' for Active; 'I' for Inactive)
REMARK    1  A    between atoms: C2_2  and  C4_4 
REMARK    2  A    between atoms: C7_7  and  C8_8 
REMARK    3  A    between atoms: C8_8  and  O2_10 
REMARK    4  A    between atoms: C21_23  and  O3_24 
REMARK    5  A    between atoms: O3_24  and  C22_25 
REMARK    6  A    between atoms: C22_25  and  C23_27 
REMARK    7  A    between atoms: C23_27  and  N1_28 
REMARK    8  A    between atoms: N1_28  and  O5_29 
REMARK    9  A    between atoms: N1_28  and  C25_31 
REMARK   10  A    between atoms: C26_33  and  C27_34 
REMARK   11  A    between atoms: C27_34  and  O7_35 
REMARK   12  A    between atoms: C28_36  and  O8_37 
REMARK   13  A    between atoms: C29_38  and  O9_39 
REMARK   14  A    between atoms: C30_40  and  O10_41 
ROOT
HETATM    1  C4  UNL     1       6.527  15.285  22.692  1.00  0.00     0.019 C 
HETATM    2  C5  UNL     1       7.635  15.399  23.760  1.00  0.00     0.011 C 
HETATM    3  C6  UNL     1       8.936  15.099  23.023  1.00  0.00     0.021 C 
HETATM    4  C7  UNL     1       8.586  14.022  21.969  1.00  0.00     0.050 C 
HETATM    5  C9  UNL     1       9.373  14.293  20.672  1.00  0.00     0.022 C 
HETATM    6  C10 UNL     1       8.707  13.767  19.394  1.00  0.00     0.011 C 
HETATM    7  C11 UNL     1       7.239  14.262  19.178  1.00  0.00    -0.032 C 
HETATM    8  C12 UNL     1       7.304  15.807  19.133  1.00  0.00     0.016 C 
HETATM    9  C13 UNL     1       6.437  13.758  20.432  1.00  0.00     0.000 C 
HETATM   10  C14 UNL     1       6.239  12.203  20.389  1.00  0.00     0.006 C 
HETATM   11  C15 UNL     1       6.003  11.587  19.013  1.00  0.00     0.006 C 
HETATM   12  C16 UNL     1       5.441  12.637  18.063  1.00  0.00     0.003 C 
HETATM   13  C17 UNL     1       4.596  12.065  16.848  1.00  0.00    -0.035 C 
HETATM   14  C18 UNL     1       5.454  11.148  15.949  1.00  0.00     0.016 C 
HETATM   15  C19 UNL     1       3.416  11.202  17.420  1.00  0.00     0.012 C 
HETATM   16  C20 UNL     1       2.056  11.398  16.740  1.00  0.00     0.034 C 
HETATM   17  C21 UNL     1       2.138  11.646  15.234  1.00  0.00     0.140 C 
HETATM   18  C31 UNL     1       2.989  12.921  14.901  1.00  0.00    -0.017 C 
HETATM   19  C32 UNL     1       3.703  12.798  13.538  1.00  0.00     0.018 C 
HETATM   20  C33 UNL     1       1.986  14.105  14.745  1.00  0.00     0.018 C 
HETATM   21  C34 UNL     1       3.974  13.284  16.084  1.00  0.00     0.004 C 
HETATM   22  C35 UNL     1       5.026  14.351  15.732  1.00  0.00     0.007 C 
HETATM   23  C36 UNL     1       5.797  14.839  16.968  1.00  0.00     0.011 C 
HETATM   24  C37 UNL     1       6.550  13.718  17.758  1.00  0.00    -0.032 C 
HETATM   25  C38 UNL     1       7.682  13.215  16.825  1.00  0.00     0.016 C 
HETATM   26  C39 UNL     1       7.033  14.075  21.840  1.00  0.00     0.017 C 
ENDROOT
BRANCH  17  27
HETATM   27  O3  UNL     1       2.673  10.449  14.635  1.00  0.00    -0.314 OA
BRANCH  27  28
HETATM   28  C22 UNL     1       1.875   9.789  13.735  1.00  0.00     0.274 C 
HETATM   29  O4  UNL     1       2.289   9.216  12.737  1.00  0.00    -0.264 OA
BRANCH  28  30
HETATM   30  C23 UNL     1       0.438   9.799  14.275  1.00  0.00     0.234 C 
BRANCH  30  31
HETATM   31  N1  UNL     1      -0.606   9.270  13.368  1.00  0.00    -0.156 NA
BRANCH  31  32
HETATM   32  O5  UNL     1      -1.615  10.307  13.220  1.00  0.00    -0.305 OA
HETATM   33  C24 UNL     1      -1.674  11.067  14.427  1.00  0.00     0.230 C 
ENDBRANCH  31  32
BRANCH  31  34
HETATM   34  C25 UNL     1      -1.211   8.010  13.863  1.00  0.00     0.253 C 
HETATM   35  O6  UNL     1      -2.587   7.891  13.496  1.00  0.00    -0.356 OA
HETATM   36  C26 UNL     1      -3.276   6.779  14.104  1.00  0.00     0.178 C 
HETATM   37  C28 UNL     1      -2.574   5.431  13.824  1.00  0.00     0.180 C 
HETATM   38  C29 UNL     1      -1.057   5.498  14.088  1.00  0.00     0.182 C 
HETATM   39  C30 UNL     1      -0.445   6.734  13.412  1.00  0.00     0.195 C 
BRANCH  36  40
HETATM   40  C27 UNL     1      -3.543   7.041  15.598  1.00  0.00     0.198 C 
BRANCH  40  41
HETATM   41  O7  UNL     1      -3.633   5.825  16.328  1.00  0.00    -0.398 OA
HETATM   42  H42 UNL     1      -3.766   6.061  17.264  1.00  0.00     0.209 HD
ENDBRANCH  40  41
ENDBRANCH  36  40
BRANCH  37  43
HETATM   43  O8  UNL     1      -2.800   5.054  12.456  1.00  0.00    -0.390 OA
HETATM   44  H44 UNL     1      -2.216   5.617  11.904  1.00  0.00     0.210 HD
ENDBRANCH  37  43
BRANCH  38  45
HETATM   45  O9  UNL     1      -0.781   5.518  15.491  1.00  0.00    -0.390 OA
HETATM   46  H46 UNL     1      -1.066   4.655  15.845  1.00  0.00     0.210 HD
ENDBRANCH  38  45
BRANCH  39  47
HETATM   47  O10 UNL     1      -0.549   6.547  11.982  1.00  0.00    -0.389 OA
HETATM   48  H48 UNL     1      -0.788   7.432  11.628  1.00  0.00     0.210 HD
ENDBRANCH  39  47
ENDBRANCH  31  34
ENDBRANCH  30  31
ENDBRANCH  28  30
ENDBRANCH  27  28
ENDBRANCH  17  27
BRANCH   1  49
HETATM   49  C2  UNL     1       6.101  16.600  22.049  1.00  0.00    -0.088 C 
HETATM   50  C1  UNL     1       6.821  17.737  22.068  1.00  0.00     0.014 C 
HETATM   51  C3  UNL     1       4.697  16.642  21.492  1.00  0.00     0.043 C 
ENDBRANCH   1  49
BRANCH   4  52
HETATM   52  C8  UNL     1       9.014  12.643  22.501  1.00  0.00     0.149 C 
HETATM   53  O1  UNL     1       8.994  12.267  23.662  1.00  0.00    -0.649 OA
BRANCH  52  54
HETATM   54  O2  UNL     1       9.492  11.814  21.552  1.00  0.00    -0.776 OA
HETATM   55  H11 UNL     1       9.739  11.009  22.051  1.00  0.00     0.167 HD
ENDBRANCH  52  54
ENDBRANCH   4  52
TORSDOF 14
ENDMDL
