MODEL 1
REMARK minimizedAffinity -8.80304623
REMARK CNNscore 0.831089854
REMARK CNNaffinity 6.87195444
REMARK  5 active torsions:
REMARK  status: ('A' for Active; 'I' for Inactive)
REMARK    1  A    between atoms: C2_2  and  C4_4 
REMARK    2  A    between atoms: C10_11  and  O2_12 
REMARK    3  A    between atoms: C13_15  and  O3_16 
REMARK    4  A    between atoms: C32_37  and  O5_38 
REMARK    5  A    between atoms: C37_44  and  O7_45 
ROOT
HETATM    1  C4  UNL     1      -0.666  49.150 -16.916  1.00  0.00     0.181 C 
HETATM    2  O1  UNL     1       0.449  50.023 -16.690  1.00  0.00    -0.370 OA
HETATM    3  C5  UNL     1       1.094  49.864 -15.405  1.00  0.00     0.163 C 
HETATM    4  C6  UNL     1       1.985  51.110 -15.281  1.00  0.00     0.036 C 
HETATM    5  C7  UNL     1       2.463  51.445 -13.867  1.00  0.00     0.016 C 
HETATM    6  C8  UNL     1       1.325  51.412 -12.801  1.00  0.00     0.006 C 
HETATM    7  C9  UNL     1       0.257  52.468 -13.225  1.00  0.00     0.020 C 
HETATM    8  C10 UNL     1       0.691  49.956 -12.843  1.00  0.00     0.102 C 
HETATM    9  C11 UNL     1      -0.286  49.658 -11.665  1.00  0.00     0.045 C 
HETATM   10  C12 UNL     1       0.274  49.999 -10.256  1.00  0.00     0.045 C 
HETATM   11  C13 UNL     1       0.730  51.447 -10.247  1.00  0.00     0.102 C 
HETATM   12  C14 UNL     1       1.289  52.135  -8.906  1.00  0.00     0.194 C 
HETATM   13  O4  UNL     1       0.134  52.534  -8.153  1.00  0.00    -0.367 OA
HETATM   14  C15 UNL     1       0.257  52.776  -6.741  1.00  0.00     0.061 C 
HETATM   15  C16 UNL     1      -1.213  52.898  -6.275  1.00  0.00     0.046 C 
HETATM   16  C17 UNL     1       0.867  51.590  -5.992  1.00  0.00     0.046 C 
HETATM   17  C18 UNL     1       0.920  54.141  -6.470  1.00  0.00     0.060 C 
HETATM   18  C19 UNL     1       1.078  54.638  -5.011  1.00  0.00     0.023 C 
HETATM   19  C20 UNL     1       2.402  55.338  -5.387  1.00  0.00     0.054 C 
HETATM   20  C21 UNL     1       2.432  56.812  -5.683  1.00  0.00    -0.078 C 
HETATM   21  C22 UNL     1       1.671  57.668  -4.982  1.00  0.00     0.015 C 
HETATM   22  C23 UNL     1       3.417  57.272  -6.747  1.00  0.00     0.073 C 
HETATM   23  C24 UNL     1       3.296  56.509  -8.049  1.00  0.00    -0.044 A 
HETATM   24  C25 UNL     1       3.705  57.073  -9.262  1.00  0.00     0.010 A 
HETATM   25  C26 UNL     1       3.612  56.359 -10.463  1.00  0.00     0.031 A 
HETATM   26  C27 UNL     1       3.052  55.076 -10.418  1.00  0.00     0.044 A 
HETATM   27  N1  UNL     1       2.850  54.152 -11.436  1.00  0.00    -0.358 N 
HETATM   28  C28 UNL     1       2.256  53.061 -10.898  1.00  0.00     0.032 A 
HETATM   29  C29 UNL     1       2.022  53.276  -9.557  1.00  0.00     0.010 A 
HETATM   30  C30 UNL     1       2.603  54.504  -9.217  1.00  0.00     0.011 A 
HETATM   31  C31 UNL     1       2.801  55.191  -8.006  1.00  0.00    -0.003 A 
HETATM   32  C32 UNL     1       2.453  54.419  -6.680  1.00  0.00     0.100 C 
HETATM   33  C33 UNL     1       1.883  51.677 -11.346  1.00  0.00     0.043 C 
HETATM   34  C34 UNL     1       3.157  50.822 -11.004  1.00  0.00     0.026 C 
HETATM   35  C35 UNL     1       0.117  49.686 -14.241  1.00  0.00     0.147 A 
HETATM   36  O6  UNL     1      -0.526  48.372 -14.259  1.00  0.00    -0.360 OA
HETATM   37  C36 UNL     1      -1.354  49.498 -14.542  1.00  0.00     0.194 A 
HETATM   38  C37 UNL     1      -1.812  49.590 -15.962  1.00  0.00     0.183 C 
HETATM   39  H38 UNL     1       3.123  54.281 -12.401  1.00  0.00     0.166 HD
ENDROOT
BRANCH   1  40
HETATM   40  C2  UNL     1      -1.064  49.201 -18.390  1.00  0.00    -0.062 C 
HETATM   41  C1  UNL     1      -1.877  48.309 -18.985  1.00  0.00     0.016 C 
HETATM   42  C3  UNL     1      -0.511  50.360 -19.175  1.00  0.00     0.045 C 
ENDBRANCH   1  40
BRANCH  38  43
HETATM   43  O7  UNL     1      -2.213  50.945 -16.181  1.00  0.00    -0.390 OA
HETATM   44  H45 UNL     1      -1.815  51.228 -17.027  1.00  0.00     0.210 HD
ENDBRANCH  38  43
BRANCH   8  45
HETATM   45  O2  UNL     1       1.732  48.968 -12.696  1.00  0.00    -0.386 OA
HETATM   46  H15 UNL     1       1.316  48.104 -12.882  1.00  0.00     0.210 HD
ENDBRANCH   8  45
BRANCH  11  47
HETATM   47  O3  UNL     1      -0.484  52.192 -10.577  1.00  0.00    -0.386 OA
HETATM   48  H20 UNL     1      -0.749  52.633  -9.741  1.00  0.00     0.210 HD
ENDBRANCH  11  47
BRANCH  32  49
HETATM   49  O5  UNL     1       3.331  53.277  -6.489  1.00  0.00    -0.384 OA
HETATM   50  H39 UNL     1       4.213  53.609  -6.738  1.00  0.00     0.211 HD
ENDBRANCH  32  49
TORSDOF 5
ENDMDL
