MODEL 1
REMARK minimizedAffinity -9.32526207
REMARK CNNscore 0.716231883
REMARK CNNaffinity 7.23069239
REMARK  13 active torsions:
REMARK  status: ('A' for Active; 'I' for Inactive)
REMARK    1  A    between atoms: C19_21  and  O3_22 
REMARK    2  A    between atoms: C19_21  and  C20_23 
REMARK    3  A    between atoms: C20_23  and  C21_25 
REMARK    4  A    between atoms: C21_25  and  O5_26 
REMARK    5  A    between atoms: O5_26  and  C22_27 
REMARK    6  A    between atoms: C22_27  and  C23_29 
REMARK    7  A    between atoms: C23_29  and  C24_30 
REMARK    8  A    between atoms: C24_30  and  C25_31 
REMARK       I    between atoms: C25_31  and  N1_33 
REMARK    9  A    between atoms: N1_33  and  C26_34 
REMARK   10  A    between atoms: C26_34  and  C27_35 
REMARK   11  A    between atoms: C27_35  and  C28_36 
REMARK   12  A    between atoms: C27_35  and  C29_39 
REMARK   13  A    between atoms: C28_36  and  O9_38 
ROOT
HETATM    1  C20 UNL     1      -1.819  49.488 -21.061  1.00  0.00     0.185 C 
HETATM    2  O4  UNL     1      -0.609  49.255 -21.029  1.00  0.00    -0.292 OA
ENDROOT
BRANCH   1   3
HETATM    3  C19 UNL     1      -2.879  48.412 -21.415  1.00  0.00     0.128 C 
HETATM    4  C14 UNL     1      -4.298  48.594 -20.779  1.00  0.00     0.005 C 
HETATM    5  C13 UNL     1      -5.142  49.719 -21.416  1.00  0.00     0.091 C 
HETATM    6  C15 UNL     1      -4.257  48.845 -19.244  1.00  0.00     0.019 C 
HETATM    7  C16 UNL     1      -4.915  47.171 -21.001  1.00  0.00     0.002 C 
HETATM    8  C12 UNL     1      -6.396  49.139 -22.038  1.00  0.00     0.133 C 
HETATM    9  C11 UNL     1      -6.124  48.113 -23.127  1.00  0.00     0.072 C 
HETATM   10  O2  UNL     1      -7.511  49.436 -21.621  1.00  0.00    -0.297 OA
HETATM   11  C2  UNL     1      -7.201  47.866 -24.250  1.00  0.00    -0.009 C 
HETATM   12  C10 UNL     1      -5.563  46.859 -22.398  1.00  0.00     0.003 C 
HETATM   13  C1  UNL     1      -8.234  49.011 -24.341  1.00  0.00     0.021 C 
HETATM   14  C3  UNL     1      -6.448  47.773 -25.613  1.00  0.00     0.022 C 
HETATM   15  C7  UNL     1      -7.941  46.552 -24.053  1.00  0.00    -0.067 C 
HETATM   16  C4  UNL     1      -7.339  47.381 -26.790  1.00  0.00     0.084 C 
HETATM   17  C5  UNL     1      -8.203  46.183 -26.479  1.00  0.00     0.149 C 
HETATM   18  O1  UNL     1      -8.741  45.524 -27.366  1.00  0.00    -0.293 OA
HETATM   19  C6  UNL     1      -8.410  45.799 -25.063  1.00  0.00     0.053 C 
HETATM   20  C8  UNL     1      -8.010  46.065 -22.637  1.00  0.00     0.035 C 
HETATM   21  C9  UNL     1      -6.590  45.706 -22.219  1.00  0.00     0.010 C 
HETATM   22  C17 UNL     1      -3.745  46.215 -20.706  1.00  0.00     0.009 C 
HETATM   23  C18 UNL     1      -2.452  47.013 -20.934  1.00  0.00     0.047 C 
BRANCH   3  24
HETATM   24  O3  UNL     1      -3.022  48.372 -22.842  1.00  0.00    -0.381 OA
HETATM   25  H25 UNL     1      -2.242  47.923 -23.216  1.00  0.00     0.211 HD
ENDBRANCH   3  24
ENDBRANCH   1   3
BRANCH   1  26
HETATM   26  C21 UNL     1      -2.329  50.882 -20.702  1.00  0.00     0.260 C 
BRANCH  26  27
HETATM   27  O5  UNL     1      -1.246  51.806 -20.619  1.00  0.00    -0.314 OA
BRANCH  27  28
HETATM   28  C22 UNL     1      -0.969  52.225 -19.353  1.00  0.00     0.259 C 
HETATM   29  O6  UNL     1      -1.499  51.791 -18.341  1.00  0.00    -0.265 OA
BRANCH  28  30
HETATM   30  C23 UNL     1       0.026  53.359 -19.397  1.00  0.00     0.120 C 
BRANCH  30  31
HETATM   31  C24 UNL     1       1.280  52.963 -20.166  1.00  0.00     0.112 C 
BRANCH  31  32
HETATM   32  C25 UNL     1       1.422  53.760 -21.447  1.00  0.00     0.218 C 
HETATM   33  O7  UNL     1       2.047  54.813 -21.520  1.00  0.00    -0.274 OA
HETATM   34  N1  UNL     1       0.791  53.169 -22.520  1.00  0.00    -0.360 N 
HETATM   35  H32 UNL     1       0.064  52.490 -22.321  1.00  0.00     0.162 HD
BRANCH  34  36
HETATM   36  C26 UNL     1       0.691  53.854 -23.803  1.00  0.00     0.142 C 
BRANCH  36  37
HETATM   37  C27 UNL     1      -0.279  53.170 -24.786  1.00  0.00     0.134 C 
BRANCH  37  38
HETATM   38  C28 UNL     1      -1.110  52.098 -24.088  1.00  0.00     0.150 C 
HETATM   39  O8  UNL     1      -0.917  50.893 -24.068  1.00  0.00    -0.649 OA
BRANCH  38  40
HETATM   40  O9  UNL     1      -2.216  52.582 -23.476  1.00  0.00    -0.776 OA
HETATM   41  H36 UNL     1      -2.661  51.764 -23.162  1.00  0.00     0.167 HD
ENDBRANCH  38  40
ENDBRANCH  37  38
BRANCH  37  42
HETATM   42  C29 UNL     1       0.502  52.630 -25.980  1.00  0.00    -0.042 A 
HETATM   43  C30 UNL     1       1.763  52.048 -25.777  1.00  0.00     0.008 A 
HETATM   44  C31 UNL     1       2.486  51.525 -26.852  1.00  0.00     0.001 A 
HETATM   45  C32 UNL     1       1.956  51.571 -28.140  1.00  0.00     0.000 A 
HETATM   46  C33 UNL     1       0.701  52.137 -28.353  1.00  0.00     0.001 A 
HETATM   47  C34 UNL     1      -0.025  52.660 -27.281  1.00  0.00     0.008 A 
ENDBRANCH  37  42
ENDBRANCH  36  37
ENDBRANCH  34  36
ENDBRANCH  31  32
ENDBRANCH  30  31
ENDBRANCH  28  30
ENDBRANCH  27  28
ENDBRANCH  26  27
ENDBRANCH   1  26
TORSDOF 13
ENDMDL
