MODEL 1
REMARK minimizedAffinity -6.77959871
REMARK CNNscore 0.435370803
REMARK CNNaffinity 6.46182013
REMARK  10 active torsions:
REMARK  status: ('A' for Active; 'I' for Inactive)
REMARK    1  A    between atoms: C3_3  and  O1_4 
REMARK    2  A    between atoms: N1_14  and  O2_16 
REMARK    3  A    between atoms: O2_16  and  C13_17 
REMARK    4  A    between atoms: C13_17  and  C14_18 
REMARK       I    between atoms: C14_18  and  N2_20 
REMARK    5  A    between atoms: N2_20  and  C15_21 
REMARK    6  A    between atoms: C15_21  and  C16_22 
REMARK       I    between atoms: C16_22  and  N3_24 
REMARK    7  A    between atoms: N3_24  and  C17_25 
REMARK    8  A    between atoms: C17_25  and  C18_26 
REMARK    9  A    between atoms: C17_25  and  C19_29 
REMARK   10  A    between atoms: C18_26  and  O6_28 
ROOT
HETATM    1  C1  UNL     1      -4.067  15.330  23.151  1.00  0.00     0.015 C 
HETATM    2  C2  UNL     1      -5.261  15.340  23.009  1.00  0.00    -0.078 C 
HETATM    3  C3  UNL     1      -6.733  15.358  22.899  1.00  0.00     0.128 C 
HETATM    4  C4  UNL     1      -7.311  14.011  23.344  1.00  0.00     0.052 C 
HETATM    5  C5  UNL     1      -7.172  13.135  22.109  1.00  0.00     0.010 C 
HETATM    6  C6  UNL     1      -7.483  14.059  20.911  1.00  0.00     0.002 C 
HETATM    7  C7  UNL     1      -6.648  13.686  19.669  1.00  0.00    -0.004 C 
HETATM    8  C8  UNL     1      -7.351  14.081  18.349  1.00  0.00     0.010 C 
HETATM    9  C9  UNL     1      -6.399  14.204  17.153  1.00  0.00     0.035 C 
HETATM   10  C10 UNL     1      -5.166  13.357  17.334  1.00  0.00    -0.069 C 
HETATM   11  C11 UNL     1      -4.885  12.360  16.478  1.00  0.00     0.030 C 
HETATM   12  C12 UNL     1      -3.709  11.473  16.675  1.00  0.00     0.032 C 
HETATM   13  N1  UNL     1      -3.365  10.693  15.689  1.00  0.00    -0.271 N 
ATOM     14  H1  UNL     1      -3.875  10.623  14.809  1.00  0.00     0.194 HD
HETATM   15  C22 UNL     1      -2.957  11.540  17.993  1.00  0.00     0.060 C 
HETATM   16  C23 UNL     1      -3.725  12.304  19.069  1.00  0.00     0.020 C 
HETATM   17  C24 UNL     1      -4.320  13.655  18.573  1.00  0.00    -0.016 C 
HETATM   18  C25 UNL     1      -3.156  14.599  18.192  1.00  0.00     0.020 C 
HETATM   19  C26 UNL     1      -5.216  14.254  19.734  1.00  0.00     0.002 C 
HETATM   20  C27 UNL     1      -5.238  15.795  19.824  1.00  0.00     0.007 C 
HETATM   21  C28 UNL     1      -6.456  16.418  20.516  1.00  0.00     0.014 C 
HETATM   22  C29 UNL     1      -7.299  15.518  21.443  1.00  0.00     0.003 C 
HETATM   23  C30 UNL     1      -8.710  16.177  21.508  1.00  0.00     0.020 C 
ENDROOT
BRANCH   3  24
HETATM   24  O1  UNL     1      -7.211  16.383  23.762  1.00  0.00    -0.377 OA
HETATM   25  H2  UNL     1      -6.754  16.273  24.613  1.00  0.00     0.211 HD
ENDBRANCH   3  24
BRANCH  13  26
HETATM   26  O2  UNL     1      -2.206   9.959  15.990  1.00  0.00    -0.271 OA
BRANCH  26  27
HETATM   27  C13 UNL     1      -2.589   8.740  16.617  1.00  0.00     0.303 C 
BRANCH  27  28
HETATM   28  C14 UNL     1      -2.785   7.634  15.585  1.00  0.00     0.244 C 
HETATM   29  O3  UNL     1      -3.760   7.594  14.837  1.00  0.00    -0.271 OA
HETATM   30  N2  UNL     1      -1.749   6.727  15.509  1.00  0.00    -0.350 N 
HETATM   31  H16 UNL     1      -1.183   6.636  16.348  1.00  0.00     0.163 HD
BRANCH  30  32
HETATM   32  C15 UNL     1      -1.843   5.568  14.644  1.00  0.00     0.225 C 
BRANCH  32  33
HETATM   33  C16 UNL     1      -1.053   5.792  13.350  1.00  0.00     0.236 C 
HETATM   34  O4  UNL     1      -1.553   6.306  12.352  1.00  0.00    -0.272 OA
HETATM   35  N3  UNL     1       0.236   5.306  13.391  1.00  0.00    -0.345 N 
HETATM   36  H19 UNL     1       0.663   5.205  14.308  1.00  0.00     0.163 HD
BRANCH  35  37
HETATM   37  C17 UNL     1       1.193   5.546  12.304  1.00  0.00     0.185 C 
BRANCH  37  38
HETATM   38  C18 UNL     1       1.034   4.465  11.223  1.00  0.00     0.163 C 
HETATM   39  O5  UNL     1       0.006   3.876  10.926  1.00  0.00    -0.648 OA
BRANCH  38  40
HETATM   40  O6  UNL     1       2.197   4.154  10.601  1.00  0.00    -0.775 OA
HETATM   41  H21 UNL     1       1.939   3.469   9.944  1.00  0.00     0.167 HD
ENDBRANCH  38  40
ENDBRANCH  37  38
BRANCH  37  42
HETATM   42  C19 UNL     1       1.036   6.952  11.680  1.00  0.00     0.010 C 
HETATM   43  C20 UNL     1       1.580   8.069  12.576  1.00  0.00     0.012 C 
HETATM   44  C21 UNL     1       1.686   7.029  10.296  1.00  0.00     0.012 C 
ENDBRANCH  37  42
ENDBRANCH  35  37
ENDBRANCH  32  33
ENDBRANCH  30  32
ENDBRANCH  27  28
ENDBRANCH  26  27
ENDBRANCH  13  26
TORSDOF 10
ENDMDL
