MODEL 1
REMARK minimizedAffinity -9.98592663
REMARK CNNscore 0.851121068
REMARK CNNaffinity 8.72266769
REMARK  16 active torsions:
REMARK  status: ('A' for Active; 'I' for Inactive)
REMARK    1  A    between atoms: C2_2  and  C3_3 
REMARK    2  A    between atoms: C2_2  and  C29_35 
REMARK    3  A    between atoms: C3_3  and  C4_4 
REMARK    4  A    between atoms: C4_4  and  O1_5 
REMARK    5  A    between atoms: C4_4  and  C5_6 
REMARK    6  A    between atoms: C5_6  and  C7_8 
REMARK    7  A    between atoms: C9_10  and  C10_11 
REMARK    8  A    between atoms: C10_11  and  C11_12 
REMARK    9  A    between atoms: C11_12  and  C12_13 
REMARK   10  A    between atoms: C12_13  and  O2_14 
REMARK   11  A    between atoms: C13_15  and  O3_16 
REMARK   12  A    between atoms: C19_23  and  O5_24 
REMARK   13  A    between atoms: C20_25  and  O6_26 
REMARK   14  A    between atoms: C29_35  and  C32_38 
REMARK   15  A    between atoms: C32_38  and  C33_39 
REMARK   16  A    between atoms: C33_39  and  N1_40 
ROOT
HETATM    1  C7  UNL     1      -1.822   7.071  13.684  1.00  0.00     0.003 C 
HETATM    2  C8  UNL     1      -2.097   5.893  12.718  1.00  0.00     0.014 C 
HETATM    3  C9  UNL     1      -0.788   5.658  11.896  1.00  0.00     0.026 C 
HETATM    4  C13 UNL     1       0.271   6.511  12.646  1.00  0.00     0.093 C 
HETATM    5  C14 UNL     1       1.540   7.039  12.012  1.00  0.00    -0.036 C 
HETATM    6  C15 UNL     1       1.779   7.006  10.692  1.00  0.00     0.057 C 
HETATM    7  C16 UNL     1       2.916   7.733  10.092  1.00  0.00     0.154 C 
HETATM    8  O4  UNL     1       3.122   7.602   8.887  1.00  0.00    -0.293 OA
HETATM    9  C17 UNL     1       3.746   8.658  10.981  1.00  0.00     0.071 C 
HETATM   10  C18 UNL     1       5.120   8.934  10.337  1.00  0.00     0.047 C 
HETATM   11  C19 UNL     1       6.127   7.794  10.513  1.00  0.00     0.147 C 
HETATM   12  C20 UNL     1       5.533   6.523  11.132  1.00  0.00     0.147 C 
HETATM   13  C21 UNL     1       4.748   6.792  12.423  1.00  0.00     0.044 C 
HETATM   14  C22 UNL     1       3.871   8.093  12.419  1.00  0.00    -0.023 C 
HETATM   15  C23 UNL     1       4.579   9.128  13.331  1.00  0.00     0.016 C 
HETATM   16  C24 UNL     1       2.446   7.768  13.007  1.00  0.00     0.027 C 
HETATM   17  C25 UNL     1       1.661   8.974  13.595  1.00  0.00     0.011 C 
HETATM   18  C26 UNL     1       0.249   8.608  14.118  1.00  0.00     0.013 C 
HETATM   19  C27 UNL     1      -0.562   7.770  13.097  1.00  0.00    -0.004 C 
HETATM   20  C28 UNL     1      -0.919   8.710  11.913  1.00  0.00     0.019 C 
ENDROOT
BRANCH   1  21
HETATM   21  C5  UNL     1      -3.042   7.938  14.140  1.00  0.00     0.015 C 
HETATM   22  C6  UNL     1      -2.519   9.374  14.366  1.00  0.00     0.013 C 
BRANCH  21  23
HETATM   23  C4  UNL     1      -3.847   7.490  15.401  1.00  0.00     0.126 C 
BRANCH  23  24
HETATM   24  C3  UNL     1      -4.998   6.488  15.103  1.00  0.00     0.066 C 
BRANCH  24  25
HETATM   25  C2  UNL     1      -6.408   7.029  14.904  1.00  0.00    -0.079 C 
HETATM   26  C1  UNL     1      -6.549   8.363  14.775  1.00  0.00     0.015 C 
BRANCH  25  27
HETATM   27  C29 UNL     1      -7.593   6.043  14.678  1.00  0.00    -0.023 C 
HETATM   28  C30 UNL     1      -8.976   6.723  14.796  1.00  0.00     0.019 C 
HETATM   29  C31 UNL     1      -7.507   4.970  15.786  1.00  0.00     0.019 C 
BRANCH  27  30
HETATM   30  C32 UNL     1      -7.487   5.365  13.271  1.00  0.00     0.033 C 
BRANCH  30  31
HETATM   31  C33 UNL     1      -6.144   4.703  12.942  1.00  0.00     0.130 C 
BRANCH  31  32
HETATM   32  N1  UNL     1      -6.322   3.368  12.400  1.00  0.00    -0.352 N 
HETATM   33  C34 UNL     1      -5.490   2.734  11.522  1.00  0.00     0.108 A 
HETATM   34  C35 UNL     1      -6.063   1.499  11.325  1.00  0.00     0.106 A 
HETATM   35  N2  UNL     1      -7.212   1.371  12.061  1.00  0.00    -0.361 N 
HETATM   36  C36 UNL     1      -7.341   2.512  12.701  1.00  0.00     0.182 A 
ATOM     37  H2  UNL     1      -7.833   0.563  12.104  1.00  0.00     0.166 HD
ENDBRANCH  31  32
ENDBRANCH  30  31
ENDBRANCH  27  30
ENDBRANCH  25  27
ENDBRANCH  24  25
ENDBRANCH  23  24
BRANCH  23  38
HETATM   38  O1  UNL     1      -2.999   6.838  16.345  1.00  0.00    -0.395 OA
HETATM   39  H6  UNL     1      -3.503   6.719  17.169  1.00  0.00     0.210 HD
ENDBRANCH  23  38
ENDBRANCH  21  23
ENDBRANCH   1  21
BRANCH   3  40
HETATM   40  C10 UNL     1      -0.529   4.141  11.774  1.00  0.00     0.010 C 
BRANCH  40  41
HETATM   41  C11 UNL     1      -1.638   3.357  11.080  1.00  0.00     0.027 C 
BRANCH  41  42
HETATM   42  C12 UNL     1      -1.318   1.868  11.024  1.00  0.00     0.164 C 
BRANCH  42  43
HETATM   43  O2  UNL     1       0.089   1.704  10.913  1.00  0.00    -0.401 OA
HETATM   44  H21 UNL     1       0.265   0.748  10.908  1.00  0.00     0.209 HD
ENDBRANCH  42  43
ENDBRANCH  41  42
ENDBRANCH  40  41
ENDBRANCH   3  40
BRANCH   4  45
HETATM   45  O3  UNL     1       0.700   5.682  13.739  1.00  0.00    -0.384 OA
HETATM   46  H22 UNL     1       0.636   6.170  14.573  1.00  0.00     0.211 HD
ENDBRANCH   4  45
BRANCH  12  47
HETATM   47  O6  UNL     1       6.603   5.618  11.437  1.00  0.00    -0.393 OA
HETATM   48  H30 UNL     1       6.871   5.206  10.596  1.00  0.00     0.210 HD
ENDBRANCH  12  47
BRANCH  11  49
HETATM   49  O5  UNL     1       7.203   8.254  11.343  1.00  0.00    -0.393 OA
HETATM   50  H28 UNL     1       7.623   7.443  11.694  1.00  0.00     0.210 HD
ENDBRANCH  11  49
TORSDOF 16
ENDMDL
