MODEL 1
REMARK minimizedAffinity -8.58467388
REMARK  5 active torsions:
REMARK  status: ('A' for Active; 'I' for Inactive)
REMARK    1  A    between atoms: C2_2  and  C4_4 
REMARK    2  A    between atoms: C7_7  and  C8_8 
REMARK    3  A    between atoms: C8_8  and  O2_10 
REMARK    4  A    between atoms: C11_13  and  C12_14 
REMARK    5  A    between atoms: C12_14  and  O4_16 
ROOT
HETATM    1  C4  UNL     1       3.417   8.506  10.210  1.00  0.00     0.019 C 
HETATM    2  C5  UNL     1       4.957   8.625  10.396  1.00  0.00     0.011 C 
HETATM    3  C6  UNL     1       5.248   8.400  11.895  1.00  0.00     0.021 C 
HETATM    4  C7  UNL     1       3.910   8.721  12.578  1.00  0.00     0.050 C 
HETATM    5  C9  UNL     1       3.722   8.194  14.016  1.00  0.00     0.022 C 
HETATM    6  C10 UNL     1       2.654   7.098  14.188  1.00  0.00     0.023 C 
HETATM    7  C11 UNL     1       1.303   7.230  13.376  1.00  0.00     0.057 C 
HETATM    8  C13 UNL     1       1.522   8.119  12.100  1.00  0.00     0.011 C 
HETATM    9  C14 UNL     1       0.379   8.004  11.099  1.00  0.00     0.007 C 
HETATM   10  C15 UNL     1      -0.979   7.822  11.799  1.00  0.00     0.006 C 
HETATM   11  C16 UNL     1      -1.054   8.497  13.199  1.00  0.00     0.003 C 
HETATM   12  C17 UNL     1      -2.550   8.698  13.783  1.00  0.00    -0.035 C 
HETATM   13  C18 UNL     1      -2.628  10.190  14.267  1.00  0.00     0.016 C 
HETATM   14  C19 UNL     1      -3.635   8.581  12.668  1.00  0.00     0.017 C 
HETATM   15  C20 UNL     1      -5.051   8.471  13.209  1.00  0.00     0.080 C 
HETATM   16  C21 UNL     1      -5.204   7.177  13.967  1.00  0.00     0.135 C 
HETATM   17  O5  UNL     1      -6.294   6.597  13.969  1.00  0.00    -0.297 OA
HETATM   18  C22 UNL     1      -3.981   6.632  14.733  1.00  0.00     0.017 C 
HETATM   19  C23 UNL     1      -4.534   6.046  16.058  1.00  0.00     0.023 C 
HETATM   20  C24 UNL     1      -3.401   5.467  13.921  1.00  0.00     0.023 C 
HETATM   21  C25 UNL     1      -2.973   7.814  15.026  1.00  0.00     0.009 C 
HETATM   22  C26 UNL     1      -1.786   7.459  15.931  1.00  0.00     0.007 C 
HETATM   23  C27 UNL     1      -0.589   6.918  15.174  1.00  0.00     0.011 C 
HETATM   24  C28 UNL     1       0.060   7.912  14.191  1.00  0.00    -0.022 C 
HETATM   25  C29 UNL     1       0.628   9.094  15.038  1.00  0.00     0.017 C 
HETATM   26  C30 UNL     1       2.959   7.995  11.590  1.00  0.00     0.018 C 
ENDROOT
BRANCH   4  27
HETATM   27  C8  UNL     1       3.872  10.257  12.678  1.00  0.00     0.149 C 
HETATM   28  O1  UNL     1       4.835  10.994  12.514  1.00  0.00    -0.649 OA
BRANCH  27  29
HETATM   29  O2  UNL     1       2.686  10.806  12.979  1.00  0.00    -0.776 OA
HETATM   30  H11 UNL     1       2.872  11.769  12.988  1.00  0.00     0.167 HD
ENDBRANCH  27  29
ENDBRANCH   4  27
BRANCH   1  31
HETATM   31  C2  UNL     1       3.093   7.708   8.957  1.00  0.00    -0.088 C 
HETATM   32  C1  UNL     1       2.731   8.237   7.778  1.00  0.00     0.014 C 
HETATM   33  C3  UNL     1       3.182   6.212   9.119  1.00  0.00     0.043 C 
ENDBRANCH   1  31
BRANCH   7  34
HETATM   34  C12 UNL     1       1.032   5.733  13.040  1.00  0.00     0.149 C 
HETATM   35  O3  UNL     1       1.263   5.174  11.978  1.00  0.00    -0.649 OA
BRANCH  34  36
HETATM   36  O4  UNL     1       0.384   5.027  13.978  1.00  0.00    -0.776 OA
HETATM   37  H16 UNL     1       0.275   4.144  13.568  1.00  0.00     0.167 HD
ENDBRANCH  34  36
ENDBRANCH   7  34
TORSDOF 5
ENDMDL
