MODEL 1
REMARK minimizedAffinity -7.98969936
REMARK  7 active torsions:
REMARK  status: ('A' for Active; 'I' for Inactive)
REMARK    1  A    between atoms: O1_2  and  C2_3 
REMARK    2  A    between atoms: C2_3  and  C3_5 
REMARK    3  A    between atoms: C17_20  and  C18_21 
REMARK    4  A    between atoms: C18_21  and  O5_23 
REMARK    5  A    between atoms: O5_23  and  C19_24 
REMARK    6  A    between atoms: C19_24  and  C20_25 
REMARK    7  A    between atoms: C20_25  and  N1_26 
ROOT
HETATM    1  C3  UNL     1       0.663  50.737 -16.091  1.00  0.00     0.049 C 
HETATM    2  C4  UNL     1       2.064  51.196 -15.622  1.00  0.00     0.026 C 
HETATM    3  C5  UNL     1       0.633  49.190 -15.984  1.00  0.00     0.020 C 
HETATM    4  C6  UNL     1      -0.642  48.578 -16.547  1.00  0.00     0.002 C 
HETATM    5  C7  UNL     1      -0.838  48.955 -18.011  1.00  0.00     0.010 C 
HETATM    6  C8  UNL     1      -0.845  50.487 -18.277  1.00  0.00    -0.034 C 
HETATM    7  C9  UNL     1      -2.172  51.069 -17.735  1.00  0.00     0.016 C 
HETATM    8  C10 UNL     1       0.424  51.130 -17.597  1.00  0.00     0.019 C 
HETATM    9  C11 UNL     1       0.514  52.636 -17.891  1.00  0.00     0.085 C 
HETATM   10  C12 UNL     1       0.545  52.893 -19.379  1.00  0.00     0.132 C 
HETATM   11  O3  UNL     1       1.335  53.714 -19.848  1.00  0.00    -0.298 OA
HETATM   12  C13 UNL     1      -0.531  52.219 -20.218  1.00  0.00     0.068 C 
HETATM   13  C14 UNL     1      -0.289  52.406 -21.739  1.00  0.00     0.022 C 
HETATM   14  C15 UNL     1       1.035  51.822 -22.260  1.00  0.00     0.015 C 
HETATM   15  C16 UNL     1      -1.453  51.795 -22.518  1.00  0.00    -0.070 C 
HETATM   16  C17 UNL     1      -2.134  52.549 -23.404  1.00  0.00     0.085 C 
HETATM   17  C23 UNL     1      -1.749  50.355 -22.170  1.00  0.00     0.035 C 
HETATM   18  C24 UNL     1      -1.905  50.156 -20.658  1.00  0.00     0.010 C 
HETATM   19  C25 UNL     1      -0.725  50.731 -19.838  1.00  0.00     0.006 C 
ENDROOT
BRANCH  16  20
HETATM   20  C18 UNL     1      -3.263  52.160 -24.276  1.00  0.00     0.283 C 
HETATM   21  O4  UNL     1      -4.196  51.484 -23.869  1.00  0.00    -0.260 OA
BRANCH  20  22
HETATM   22  O5  UNL     1      -3.158  52.723 -25.501  1.00  0.00    -0.316 OA
BRANCH  22  23
HETATM   23  C19 UNL     1      -2.517  51.908 -26.500  1.00  0.00     0.209 C 
BRANCH  23  24
HETATM   24  C20 UNL     1      -1.249  52.597 -27.028  1.00  0.00     0.298 C 
BRANCH  24  25
HETATM   25  N1  UNL     1      -0.045  51.746 -26.972  1.00  0.00     0.082 N 
HETATM   26  C21 UNL     1       0.680  51.762 -28.247  1.00  0.00     0.309 C 
HETATM   27  C22 UNL     1       0.843  52.208 -25.900  1.00  0.00     0.309 C 
ENDBRANCH  24  25
ENDBRANCH  23  24
ENDBRANCH  22  23
ENDBRANCH  20  22
ENDBRANCH  16  20
BRANCH   1  28
HETATM   28  C2  UNL     1      -0.314  51.415 -15.112  1.00  0.00     0.267 C 
HETATM   29  O2  UNL     1      -1.481  51.076 -14.955  1.00  0.00    -0.264 OA
BRANCH  28  30
HETATM   30  O1  UNL     1       0.250  52.482 -14.483  1.00  0.00    -0.326 OA
HETATM   31  C1  UNL     1       0.015  52.531 -13.075  1.00  0.00     0.213 C 
ENDBRANCH  28  30
ENDBRANCH   1  28
TORSDOF 7
ENDMDL
