MODEL 1
REMARK minimizedAffinity -10.1024246
REMARK  6 active torsions:
REMARK  status: ('A' for Active; 'I' for Inactive)
REMARK    1  A    between atoms: C3_3  and  C4_4 
REMARK    2  A    between atoms: C4_4  and  O2_6 
REMARK    3  A    between atoms: O2_6  and  C5_7 
REMARK    4  A    between atoms: C5_7  and  C6_8 
REMARK    5  A    between atoms: C6_8  and  C7_9 
REMARK    6  A    between atoms: C13_15  and  C14_16 
ROOT
HETATM    1  C1  UNL     1       0.969  54.051 -20.631  1.00  0.00     0.069 C 
HETATM    2  C2  UNL     1       0.327  52.742 -20.250  1.00  0.00     0.018 C 
HETATM    3  C3  UNL     1      -0.175  51.847 -21.133  1.00  0.00     0.052 C 
HETATM    4  C13 UNL     1      -0.827  50.542 -20.685  1.00  0.00     0.104 C 
HETATM    5  C23 UNL     1      -0.620  50.290 -19.191  1.00  0.00     0.024 C 
HETATM    6  C24 UNL     1      -0.092  51.230 -18.376  1.00  0.00     0.020 C 
HETATM    7  C25 UNL     1       0.140  51.005 -16.902  1.00  0.00     0.058 C 
HETATM    8  C26 UNL     1       0.227  49.525 -16.549  1.00  0.00     0.014 C 
HETATM    9  C27 UNL     1      -0.938  48.753 -17.144  1.00  0.00     0.084 C 
HETATM   10  C28 UNL     1      -1.025  48.967 -18.639  1.00  0.00     0.158 C 
HETATM   11  O5  UNL     1      -1.481  48.096 -19.378  1.00  0.00    -0.293 OA
HETATM   12  N1  UNL     1       0.295  52.452 -18.893  1.00  0.00    -0.362 N 
HETATM   13  H24 UNL     1       0.764  53.106 -18.269  1.00  0.00     0.165 HD
ENDROOT
BRANCH   4  14
HETATM   14  C14 UNL     1      -2.303  50.540 -21.057  1.00  0.00     0.029 A 
HETATM   15  C15 UNL     1      -3.209  51.451 -20.665  1.00  0.00     0.154 A 
HETATM   16  O3  UNL     1      -4.550  51.463 -20.960  1.00  0.00    -0.321 OA
HETATM   17  C16 UNL     1      -5.049  50.415 -21.690  1.00  0.00     0.089 A 
HETATM   18  C17 UNL     1      -6.421  50.403 -21.937  1.00  0.00     0.040 A 
HETATM   19  C21 UNL     1      -4.242  49.393 -22.187  1.00  0.00     0.050 A 
HETATM   20  C18 UNL     1      -6.982  49.363 -22.683  1.00  0.00     0.026 A 
HETATM   21  C19 UNL     1      -6.167  48.341 -23.179  1.00  0.00     0.035 A 
HETATM   22 CL1  UNL     1      -6.865  47.066 -24.100  1.00  0.00    -0.084 Cl
HETATM   23  C20 UNL     1      -4.796  48.349 -22.935  1.00  0.00     0.042 A 
HETATM   24  C22 UNL     1      -2.794  49.439 -21.924  1.00  0.00     0.194 A 
HETATM   25  O4  UNL     1      -2.042  48.618 -22.430  1.00  0.00    -0.287 OA
ENDBRANCH   4  14
BRANCH   3  26
HETATM   26  C4  UNL     1      -0.135  52.103 -22.584  1.00  0.00     0.292 C 
HETATM   27  O1  UNL     1       0.586  52.932 -23.111  1.00  0.00    -0.259 OA
BRANCH  26  28
HETATM   28  O2  UNL     1      -1.016  51.276 -23.194  1.00  0.00    -0.317 OA
BRANCH  28  29
HETATM   29  C5  UNL     1      -1.487  51.739 -24.468  1.00  0.00     0.183 C 
BRANCH  29  30
HETATM   30  C6  UNL     1      -1.124  50.693 -25.519  1.00  0.00     0.065 C 
BRANCH  30  31
HETATM   31  C7  UNL     1       0.060  51.110 -26.352  1.00  0.00    -0.056 A 
HETATM   32  C8  UNL     1       1.358  51.038 -25.825  1.00  0.00     0.007 A 
HETATM   33  C9  UNL     1       2.458  51.405 -26.601  1.00  0.00     0.001 A 
HETATM   34  C10 UNL     1       2.271  51.846 -27.911  1.00  0.00     0.000 A 
HETATM   35  C11 UNL     1       0.985  51.923 -28.443  1.00  0.00     0.001 A 
HETATM   36  C12 UNL     1      -0.117  51.555 -27.669  1.00  0.00     0.007 A 
ENDBRANCH  30  31
ENDBRANCH  29  30
ENDBRANCH  28  29
ENDBRANCH  26  28
ENDBRANCH   3  26
TORSDOF 6
ENDMDL
