MODEL 1
REMARK minimizedAffinity -9.65743256
REMARK  7 active torsions:
REMARK  status: ('A' for Active; 'I' for Inactive)
REMARK    1  A    between atoms: C2_2  and  C30_32 
REMARK    2  A    between atoms: C3_3  and  C4_4 
REMARK    3  A    between atoms: C4_4  and  O1_5 
REMARK    4  A    between atoms: C4_4  and  C5_6 
REMARK    5  A    between atoms: C5_6  and  C6_7 
REMARK    6  A    between atoms: C6_7  and  C8_9 
REMARK    7  A    between atoms: C30_32  and  O4_34 
ROOT
HETATM    1  C8  UNL     1      -3.107   8.460  15.214  1.00  0.00    -0.002 C 
HETATM    2  C9  UNL     1      -2.076   8.181  16.346  1.00  0.00     0.006 C 
HETATM    3  C10 UNL     1      -0.695   8.012  15.690  1.00  0.00     0.011 C 
HETATM    4  C11 UNL     1      -0.879   8.498  14.239  1.00  0.00    -0.032 C 
HETATM    5  C12 UNL     1      -0.722  10.051  14.272  1.00  0.00     0.016 C 
HETATM    6  C13 UNL     1       0.119   7.869  13.230  1.00  0.00     0.004 C 
HETATM    7  C14 UNL     1       1.556   8.398  13.360  1.00  0.00     0.007 C 
HETATM    8  C15 UNL     1       2.475   7.647  12.402  1.00  0.00     0.007 C 
HETATM    9  C16 UNL     1       2.148   8.003  10.944  1.00  0.00     0.010 C 
HETATM   10  C17 UNL     1       3.016   7.271   9.865  1.00  0.00     0.018 C 
HETATM   11  C18 UNL     1       4.172   8.191   9.418  1.00  0.00     0.023 C 
HETATM   12  C19 UNL     1       3.629   5.949  10.377  1.00  0.00     0.023 C 
HETATM   13  C20 UNL     1       2.201   6.947   8.598  1.00  0.00     0.135 C 
HETATM   14  O2  UNL     1       2.490   5.987   7.875  1.00  0.00    -0.297 OA
HETATM   15  C21 UNL     1       1.105   7.894   8.152  1.00  0.00     0.080 C 
HETATM   16  C22 UNL     1       0.383   8.600   9.292  1.00  0.00     0.018 C 
HETATM   17  C23 UNL     1       0.657   7.925  10.618  1.00  0.00    -0.026 A 
HETATM   18  C24 UNL     1      -0.150   6.695  10.933  1.00  0.00     0.021 A 
HETATM   19  C25 UNL     1      -0.386   7.950  11.766  1.00  0.00    -0.027 A 
HETATM   20  C26 UNL     1      -1.685   8.727  11.530  1.00  0.00     0.011 C 
HETATM   21  C27 UNL     1      -2.785   8.613  12.598  1.00  0.00     0.011 C 
HETATM   22  C28 UNL     1      -2.338   7.995  13.931  1.00  0.00    -0.032 C 
HETATM   23  C29 UNL     1      -2.463   6.447  13.803  1.00  0.00     0.016 C 
ENDROOT
BRANCH   1  24
HETATM   24  C6  UNL     1      -4.518   7.877  15.542  1.00  0.00    -0.011 C 
HETATM   25  C7  UNL     1      -4.476   6.355  15.736  1.00  0.00     0.010 C 
BRANCH  24  26
HETATM   26  C5  UNL     1      -5.522   8.237  14.412  1.00  0.00     0.040 C 
BRANCH  26  27
HETATM   27  C4  UNL     1      -6.908   7.573  14.489  1.00  0.00     0.142 C 
BRANCH  27  28
HETATM   28  C3  UNL     1      -6.945   6.183  13.921  1.00  0.00     0.018 C 
HETATM   29  C2  UNL     1      -7.950   5.556  13.270  1.00  0.00     0.010 C 
HETATM   30  C1  UNL     1      -9.319   6.122  13.026  1.00  0.00     0.055 C 
BRANCH  29  31
HETATM   31  C30 UNL     1      -7.767   4.178  12.739  1.00  0.00     0.171 C 
HETATM   32  O3  UNL     1      -6.857   3.814  12.015  1.00  0.00    -0.646 OA
BRANCH  31  33
HETATM   33  O4  UNL     1      -8.721   3.312  13.123  1.00  0.00    -0.773 OA
HETATM   34  H46 UNL     1      -8.448   2.473  12.698  1.00  0.00     0.167 HD
ENDBRANCH  31  33
ENDBRANCH  29  31
ENDBRANCH  27  28
BRANCH  27  35
HETATM   35  O1  UNL     1      -7.338   7.539  15.848  1.00  0.00    -0.392 OA
HETATM   36  H6  UNL     1      -7.361   8.458  16.166  1.00  0.00     0.210 HD
ENDBRANCH  27  35
ENDBRANCH  26  27
ENDBRANCH  24  26
ENDBRANCH   1  24
TORSDOF 7
ENDMDL
