MODEL 1
REMARK minimizedAffinity -10.5487823
REMARK  4 active torsions:
REMARK  status: ('A' for Active; 'I' for Inactive)
REMARK    1  A    between atoms: C3_3  and  C4_4 
REMARK    2  A    between atoms: C4_4  and  O1_5 
REMARK    3  A    between atoms: C6_9  and  C7_10 
REMARK    4  A    between atoms: C7_10  and  C9_12 
ROOT
HETATM    1  C9  UNL     1      -1.530   5.938  12.572  1.00  0.00     0.000 C 
HETATM    2  C10 UNL     1      -1.849   4.610  11.825  1.00  0.00     0.006 C 
HETATM    3  C11 UNL     1      -3.330   4.287  12.076  1.00  0.00     0.006 C 
HETATM    4  C12 UNL     1      -3.858   5.531  12.774  1.00  0.00    -0.001 C 
HETATM    5  C13 UNL     1      -5.180   5.432  13.550  1.00  0.00     0.000 C 
HETATM    6  C14 UNL     1      -6.320   4.823  12.719  1.00  0.00     0.010 C 
HETATM    7  C15 UNL     1      -7.603   4.690  13.540  1.00  0.00     0.036 C 
HETATM    8  C16 UNL     1      -7.981   5.980  14.232  1.00  0.00    -0.063 A 
HETATM    9  C17 UNL     1      -9.211   6.498  14.067  1.00  0.00     0.058 A 
HETATM   10  C18 UNL     1      -9.615   7.775  14.694  1.00  0.00     0.172 A 
HETATM   11  O4  UNL     1     -10.751   8.218  14.569  1.00  0.00    -0.289 OA
HETATM   12  C19 UNL     1      -8.593   8.501  15.469  1.00  0.00     0.052 A 
HETATM   13  C20 UNL     1      -7.365   7.992  15.636  1.00  0.00    -0.008 A 
HETATM   14  C21 UNL     1      -6.885   6.653  15.077  1.00  0.00     0.005 A 
HETATM   15  C22 UNL     1      -6.644   5.772  16.328  1.00  0.00     0.025 C 
HETATM   16  C23 UNL     1      -5.583   6.833  14.162  1.00  0.00    -0.025 C 
HETATM   17  C24 UNL     1      -5.900   7.867  13.031  1.00  0.00     0.017 C 
HETATM   18  C25 UNL     1      -4.362   7.400  14.960  1.00  0.00     0.012 C 
HETATM   19  C26 UNL     1      -3.022   7.392  14.192  1.00  0.00     0.011 C 
HETATM   20  C27 UNL     1      -2.662   5.996  13.652  1.00  0.00    -0.036 C 
HETATM   21  C28 UNL     1      -2.338   5.044  14.831  1.00  0.00     0.016 C 
ENDROOT
BRANCH   1  22
HETATM   22  C7  UNL     1      -0.031   6.045  12.999  1.00  0.00     0.016 C 
HETATM   23  C8  UNL     1       0.137   7.012  14.183  1.00  0.00     0.013 C 
BRANCH  22  24
HETATM   24  C6  UNL     1       0.927   6.531  11.864  1.00  0.00     0.140 C 
HETATM   25  O3  UNL     1       0.232   7.447  11.001  1.00  0.00    -0.311 OA
HETATM   26  C5  UNL     1       0.828   7.903   9.872  1.00  0.00     0.292 C 
HETATM   27  C3  UNL     1       2.083   7.224   9.440  1.00  0.00     0.042 C 
HETATM   28  O2  UNL     1       0.337   8.824   9.231  1.00  0.00    -0.260 OA
HETATM   29  C2  UNL     1       2.422   6.027   9.970  1.00  0.00    -0.067 C 
HETATM   30  C1  UNL     1       3.625   5.220   9.571  1.00  0.00     0.044 C 
HETATM   31  C29 UNL     1       1.564   5.409  11.045  1.00  0.00     0.067 C 
BRANCH  27  32
HETATM   32  C4  UNL     1       2.882   7.972   8.412  1.00  0.00     0.209 C 
BRANCH  32  33
HETATM   33  O1  UNL     1       2.211   8.026   7.158  1.00  0.00    -0.396 OA
HETATM   34  H6  UNL     1       1.378   7.526   7.228  1.00  0.00     0.209 HD
ENDBRANCH  32  33
ENDBRANCH  27  32
ENDBRANCH  22  24
ENDBRANCH   1  22
TORSDOF 4
ENDMDL
