MODEL 1
REMARK minimizedAffinity -7.83947229
REMARK CNNscore 0.508408129
REMARK CNNaffinity 6.09797239
REMARK  10 active torsions:
REMARK  status: ('A' for Active; 'I' for Inactive)
REMARK    1  A    between atoms: C2_2  and  N1_3 
REMARK    2  A    between atoms: N1_3  and  C3_4 
REMARK    3  A    between atoms: C3_4  and  C4_5 
REMARK    4  A    between atoms: C4_5  and  C5_6 
REMARK    5  A    between atoms: C8_9  and  C9_10 
REMARK    6  A    between atoms: C13_14  and  C14_15 
REMARK    7  A    between atoms: C14_15  and  O1_16 
REMARK    8  A    between atoms: C23_27  and  O4_28 
REMARK    9  A    between atoms: C28_33  and  C29_34 
REMARK   10  A    between atoms: C29_34  and  O5_35 
ROOT
HETATM    1  C5  UNL     1       0.433  54.569  -9.922  1.00  0.00    -0.012 C 
HETATM    2  C6  UNL     1       0.973  54.712  -8.687  1.00  0.00     0.015 C 
HETATM    3  C7  UNL     1       2.258  53.960  -8.363  1.00  0.00     0.066 C 
HETATM    4  C8  UNL     1       3.521  54.477  -9.106  1.00  0.00     0.102 C 
HETATM    5  C16 UNL     1       4.150  55.604  -8.383  1.00  0.00    -0.096 C 
HETATM    6  C17 UNL     1       4.628  56.501  -7.741  1.00  0.00    -0.096 C 
HETATM    7  C18 UNL     1       5.079  57.586  -6.840  1.00  0.00     0.110 C 
HETATM    8  C19 UNL     1       6.399  57.192  -6.194  1.00  0.00     0.133 C 
HETATM    9  C20 UNL     1       6.832  58.225  -5.193  1.00  0.00     0.265 C 
HETATM   10  O2  UNL     1       7.992  58.604  -5.092  1.00  0.00    -0.265 OA
HETATM   11  O3  UNL     1       5.852  58.649  -4.305  1.00  0.00    -0.278 OA
HETATM   12  C21 UNL     1       4.501  58.329  -4.520  1.00  0.00     0.089 A 
HETATM   13  C22 UNL     1       3.614  58.551  -3.468  1.00  0.00     0.075 A 
HETATM   14  C23 UNL     1       2.264  58.244  -3.643  1.00  0.00     0.074 A 
HETATM   15  C24 UNL     1       1.791  57.749  -4.863  1.00  0.00    -0.022 A 
HETATM   16  C25 UNL     1       2.699  57.617  -5.921  1.00  0.00     0.021 A 
HETATM   17  C26 UNL     1       4.069  57.844  -5.749  1.00  0.00    -0.007 A 
HETATM   18  C27 UNL     1       0.358  57.329  -5.081  1.00  0.00     0.077 C 
HETATM   19  C28 UNL     1       0.093  55.801  -5.251  1.00  0.00     0.171 C 
HETATM   20  O7  UNL     1       0.793  55.255  -6.403  1.00  0.00    -0.309 OA
HETATM   21  C39 UNL     1       0.247  55.482  -7.623  1.00  0.00     0.289 C 
HETATM   22  O8  UNL     1      -0.745  56.171  -7.809  1.00  0.00    -0.260 OA
ENDROOT
BRANCH  19  23
HETATM   23  C29 UNL     1       0.364  54.895  -3.990  1.00  0.00     0.089 C 
HETATM   24  C30 UNL     1      -0.068  53.426  -4.211  1.00  0.00     0.041 C 
HETATM   25  C31 UNL     1       0.180  52.537  -2.990  1.00  0.00     0.004 C 
HETATM   26  C32 UNL     1      -0.478  53.095  -1.734  1.00  0.00     0.005 C 
HETATM   27  C33 UNL     1      -0.046  54.546  -1.472  1.00  0.00    -0.001 C 
HETATM   28  C34 UNL     1      -0.678  55.084  -0.186  1.00  0.00     0.083 C 
HETATM   29  C38 UNL     1      -0.327  55.464  -2.696  1.00  0.00     0.027 C 
HETATM   30  C35 UNL     1      -2.138  55.404  -0.384  1.00  0.00     0.127 C 
HETATM   31  O6  UNL     1      -2.994  55.050   0.424  1.00  0.00    -0.298 OA
HETATM   32  C36 UNL     1      -2.471  56.283  -1.561  1.00  0.00     0.079 C 
HETATM   33  C37 UNL     1      -1.837  55.753  -2.841  1.00  0.00     0.015 C 
BRANCH  23  34
HETATM   34  O5  UNL     1       1.774  54.880  -3.697  1.00  0.00    -0.387 OA
HETATM   35  H31 UNL     1       2.105  55.795  -3.691  1.00  0.00     0.210 HD
ENDBRANCH  23  34
ENDBRANCH  19  23
BRANCH  14  36
HETATM   36  O4  UNL     1       1.382  58.432  -2.618  1.00  0.00    -0.360 OA
HETATM   37  H26 UNL     1       1.883  58.614  -1.805  1.00  0.00     0.217 HD
ENDBRANCH  14  36
BRANCH   1  38
HETATM   38  C4  UNL     1      -0.838  55.168 -10.478  1.00  0.00     0.058 C 
BRANCH  38  39
HETATM   39  C3  UNL     1      -2.042  54.225 -10.282  1.00  0.00     0.273 C 
BRANCH  39  40
HETATM   40  N1  UNL     1      -2.379  53.422 -11.461  1.00  0.00     0.083 N 
HETATM   41  H6  UNL     1      -1.912  52.519 -11.380  1.00  0.00     0.315 HD
BRANCH  40  42
HETATM   42  C2  UNL     1      -3.820  53.199 -11.600  1.00  0.00     0.265 C 
HETATM   43  C1  UNL     1      -4.238  51.990 -10.774  1.00  0.00     0.037 C 
ENDBRANCH  40  42
ENDBRANCH  39  40
ENDBRANCH  38  39
ENDBRANCH   1  38
BRANCH   4  44
HETATM   44  C9  UNL     1       4.540  53.363  -9.316  1.00  0.00    -0.042 A 
HETATM   45  C10 UNL     1       5.875  53.494  -8.902  1.00  0.00     0.008 A 
HETATM   46  C11 UNL     1       6.786  52.456  -9.101  1.00  0.00     0.001 A 
HETATM   47  C12 UNL     1       6.381  51.277  -9.728  1.00  0.00     0.009 A 
HETATM   48  C13 UNL     1       5.060  51.123 -10.164  1.00  0.00    -0.034 A 
HETATM   49  C15 UNL     1       4.150  52.172  -9.953  1.00  0.00     0.017 A 
BRANCH  48  50
HETATM   50  C14 UNL     1       4.616  49.871 -10.868  1.00  0.00     0.202 C 
BRANCH  50  51
HETATM   51  O1  UNL     1       5.370  49.710 -12.061  1.00  0.00    -0.396 OA
HETATM   52  H20 UNL     1       5.129  48.842 -12.429  1.00  0.00     0.209 HD
ENDBRANCH  50  51
ENDBRANCH  48  50
ENDBRANCH   4  44
TORSDOF 10
ENDMDL
