MODEL 1
REMARK minimizedAffinity -8.86250782
REMARK CNNscore 0.441150188
REMARK CNNaffinity 6.1038475
REMARK  11 active torsions:
REMARK  status: ('A' for Active; 'I' for Inactive)
REMARK    1  A    between atoms: C2_2  and  C4_4 
REMARK    2  A    between atoms: C4_4  and  C6_6 
REMARK    3  A    between atoms: C7_7  and  C8_8 
REMARK    4  A    between atoms: C8_8  and  C10_10 
REMARK    5  A    between atoms: C24_24  and  O1_25 
REMARK    6  A    between atoms: O1_25  and  C25_26 
REMARK    7  A    between atoms: C26_28  and  C27_29 
REMARK    8  A    between atoms: C27_29  and  O3_30 
REMARK    9  A    between atoms: C28_31  and  O4_32 
REMARK   10  A    between atoms: C29_33  and  O5_34 
REMARK   11  A    between atoms: C30_35  and  O6_36 
ROOT
HETATM    1  C10 UNL     1      -6.701  47.256 -27.906  1.00  0.00     0.002 C 
HETATM    2  C11 UNL     1      -6.623  47.575 -26.390  1.00  0.00     0.006 C 
HETATM    3  C12 UNL     1      -8.006  47.239 -25.802  1.00  0.00     0.009 C 
HETATM    4  C13 UNL     1      -8.753  46.580 -26.957  1.00  0.00     0.041 C 
HETATM    5  C14 UNL     1      -8.225  47.295 -28.224  1.00  0.00    -0.029 C 
HETATM    6  C15 UNL     1      -8.758  48.730 -28.401  1.00  0.00     0.016 C 
HETATM    7  C16 UNL     1      -8.640  46.440 -29.446  1.00  0.00     0.037 C 
HETATM    8  C17 UNL     1     -10.082  45.980 -29.376  1.00  0.00    -0.019 C 
HETATM    9  C18 UNL     1     -10.827  45.985 -28.248  1.00  0.00    -0.030 C 
HETATM   10  C19 UNL     1     -10.277  46.427 -26.878  1.00  0.00     0.142 C 
HETATM   11  C20 UNL     1     -11.087  47.603 -26.374  1.00  0.00     0.018 C 
HETATM   12  C21 UNL     1     -12.404  47.358 -26.283  1.00  0.00     0.014 C 
HETATM   13  C22 UNL     1     -12.770  45.939 -26.684  1.00  0.00     0.127 C 
HETATM   14  C23 UNL     1     -14.246  45.609 -26.425  1.00  0.00     0.078 C 
HETATM   15  C24 UNL     1     -14.693  44.263 -27.038  1.00  0.00     0.128 C 
HETATM   16  C31 UNL     1     -13.525  43.398 -27.522  1.00  0.00     0.033 C 
HETATM   17  C32 UNL     1     -12.557  44.114 -28.478  1.00  0.00     0.020 C 
HETATM   18  C33 UNL     1     -12.324  45.616 -28.158  1.00  0.00     0.021 C 
HETATM   19  C34 UNL     1     -13.098  46.491 -29.174  1.00  0.00     0.024 C 
HETATM   20  O7  UNL     1     -11.997  45.101 -25.775  1.00  0.00    -0.223 OA
HETATM   21  O8  UNL     1     -10.530  45.326 -25.965  1.00  0.00    -0.219 OA
ENDROOT
BRANCH  15  22
HETATM   22  O1  UNL     1     -15.610  44.573 -28.099  1.00  0.00    -0.353 OA
BRANCH  22  23
HETATM   23  C25 UNL     1     -16.984  44.278 -27.800  1.00  0.00     0.292 C 
HETATM   24  O2  UNL     1     -17.443  45.052 -26.697  1.00  0.00    -0.348 OA
HETATM   25  C26 UNL     1     -18.878  44.978 -26.570  1.00  0.00     0.179 C 
HETATM   26  C28 UNL     1     -19.431  43.556 -26.856  1.00  0.00     0.180 C 
HETATM   27  C29 UNL     1     -18.355  42.475 -26.638  1.00  0.00     0.183 C 
HETATM   28  C30 UNL     1     -17.046  42.790 -27.395  1.00  0.00     0.204 C 
BRANCH  25  29
HETATM   29  C27 UNL     1     -19.240  45.484 -25.168  1.00  0.00     0.198 C 
BRANCH  29  30
HETATM   30  O3  UNL     1     -19.964  46.708 -25.232  1.00  0.00    -0.398 OA
HETATM   31  H39 UNL     1     -19.685  47.238 -24.462  1.00  0.00     0.209 HD
ENDBRANCH  29  30
ENDBRANCH  25  29
BRANCH  26  32
HETATM   32  O4  UNL     1     -19.850  43.513 -28.234  1.00  0.00    -0.390 OA
HETATM   33  H41 UNL     1     -20.259  42.641 -28.385  1.00  0.00     0.210 HD
ENDBRANCH  26  32
BRANCH  27  34
HETATM   34  O5  UNL     1     -18.104  42.315 -25.233  1.00  0.00    -0.390 OA
HETATM   35  H43 UNL     1     -17.505  43.026 -24.941  1.00  0.00     0.210 HD
ENDBRANCH  27  34
BRANCH  28  36
HETATM   36  O6  UNL     1     -16.911  41.958 -28.557  1.00  0.00    -0.388 OA
HETATM   37  H45 UNL     1     -16.059  42.211 -28.961  1.00  0.00     0.210 HD
ENDBRANCH  28  36
ENDBRANCH  22  23
ENDBRANCH  15  22
BRANCH   1  38
HETATM   38  C8  UNL     1      -5.714  48.020 -28.826  1.00  0.00     0.008 C 
HETATM   39  C9  UNL     1      -5.552  47.263 -30.151  1.00  0.00     0.014 C 
BRANCH  38  40
HETATM   40  C7  UNL     1      -4.327  48.268 -28.274  1.00  0.00    -0.026 C 
HETATM   41  C6  UNL     1      -4.078  48.681 -27.018  1.00  0.00    -0.026 C 
BRANCH  41  42
HETATM   42  C4  UNL     1      -2.734  48.995 -26.379  1.00  0.00     0.007 C 
HETATM   43  C5  UNL     1      -2.889  48.901 -24.854  1.00  0.00     0.014 C 
BRANCH  42  44
HETATM   44  C2  UNL     1      -2.047  50.320 -26.835  1.00  0.00    -0.015 C 
HETATM   45  C1  UNL     1      -0.790  50.613 -25.999  1.00  0.00     0.010 C 
HETATM   46  C3  UNL     1      -2.969  51.547 -26.803  1.00  0.00     0.010 C 
ENDBRANCH  42  44
ENDBRANCH  41  42
ENDBRANCH  38  40
ENDBRANCH   1  38
TORSDOF 11
ENDMDL
