MODEL 1
REMARK minimizedAffinity -8.07219982
REMARK CNNscore 0.765765667
REMARK CNNaffinity 7.24218512
REMARK  5 active torsions:
REMARK  status: ('A' for Active; 'I' for Inactive)
REMARK    1  A    between atoms: C2_2  and  C3_3 
REMARK    2  A    between atoms: C4_5  and  C5_6 
REMARK    3  A    between atoms: C5_6  and  C6_7 
REMARK    4  A    between atoms: C6_7  and  C7_8 
REMARK    5  A    between atoms: C7_8  and  C9_10 
ROOT
HETATM    1  C9  UNL     1      -0.869  11.317  18.240  1.00  0.00    -0.002 C 
HETATM    2  C10 UNL     1      -2.315  11.820  18.461  1.00  0.00     0.007 C 
HETATM    3  C11 UNL     1      -3.199  11.094  17.419  1.00  0.00     0.015 C 
HETATM    4  C12 UNL     1      -2.324   9.941  16.878  1.00  0.00    -0.005 C 
HETATM    5  C13 UNL     1      -2.441   8.760  17.891  1.00  0.00     0.021 C 
HETATM    6  C14 UNL     1      -2.607   9.303  15.526  1.00  0.00    -0.000 C 
HETATM    7  C15 UNL     1      -1.613   8.765  14.771  1.00  0.00    -0.060 C 
HETATM    8  C16 UNL     1      -0.142   8.876  15.221  1.00  0.00     0.036 C 
HETATM    9  C17 UNL     1       0.151   9.628  16.536  1.00  0.00     0.015 C 
HETATM   10  C18 UNL     1      -0.926  10.675  16.827  1.00  0.00    -0.028 C 
HETATM   11  C19 UNL     1      -0.870  11.761  15.711  1.00  0.00     0.016 C 
HETATM   12  C20 UNL     1      -1.858   8.055  13.417  1.00  0.00    -0.014 C 
HETATM   13  C21 UNL     1      -1.394   9.027  12.296  1.00  0.00     0.020 C 
HETATM   14  C22 UNL     1      -1.003   6.756  13.314  1.00  0.00     0.021 C 
HETATM   15  C23 UNL     1      -1.602   5.723  12.377  1.00  0.00     0.080 C 
HETATM   16  C24 UNL     1      -2.914   5.240  12.949  1.00  0.00     0.135 C 
HETATM   17  O2  UNL     1      -3.229   4.052  12.853  1.00  0.00    -0.297 OA
HETATM   18  C25 UNL     1      -3.824   6.281  13.629  1.00  0.00     0.018 C 
HETATM   19  C26 UNL     1      -5.268   5.984  13.161  1.00  0.00     0.023 C 
HETATM   20  C27 UNL     1      -3.759   6.042  15.144  1.00  0.00     0.023 C 
HETATM   21  C28 UNL     1      -3.376   7.714  13.160  1.00  0.00     0.020 C 
HETATM   22  C29 UNL     1      -4.273   8.866  13.622  1.00  0.00     0.090 C 
HETATM   23  C30 UNL     1      -4.023   9.246  15.053  1.00  0.00     0.157 C 
HETATM   24  O3  UNL     1      -4.958   9.540  15.794  1.00  0.00    -0.293 OA
ENDROOT
BRANCH   1  25
HETATM   25  C7  UNL     1       0.300  12.240  18.677  1.00  0.00    -0.014 C 
HETATM   26  C8  UNL     1       1.471  12.089  17.685  1.00  0.00     0.010 C 
BRANCH  25  27
HETATM   27  C6  UNL     1       0.845  12.229  20.121  1.00  0.00     0.008 C 
BRANCH  27  28
HETATM   28  C5  UNL     1       2.198  11.559  20.369  1.00  0.00     0.028 C 
BRANCH  28  29
HETATM   29  C4  UNL     1       2.026  10.282  21.147  1.00  0.00    -0.017 C 
HETATM   30  C2  UNL     1       2.752   9.864  22.200  1.00  0.00    -0.028 C 
HETATM   31  C1  UNL     1       3.875  10.592  22.868  1.00  0.00     0.051 C 
BRANCH  30  32
HETATM   32  C3  UNL     1       2.407   8.541  22.804  1.00  0.00     0.265 C 
HETATM   33  O1  UNL     1       1.668   7.718  22.278  1.00  0.00    -0.302 OA
ENDBRANCH  30  32
ENDBRANCH  28  29
ENDBRANCH  27  28
ENDBRANCH  25  27
ENDBRANCH   1  25
TORSDOF 5
ENDMDL
