MODEL 1
REMARK minimizedAffinity -8.64610672
REMARK CNNscore 0.71746999
REMARK CNNaffinity 6.8669486
REMARK  18 active torsions:
REMARK  status: ('A' for Active; 'I' for Inactive)
REMARK    1  A    between atoms: C14_15  and  O2_16 
REMARK    2  A    between atoms: C14_15  and  C15_17 
REMARK    3  A    between atoms: C15_17  and  C16_19 
REMARK    4  A    between atoms: C16_19  and  O4_20 
REMARK    5  A    between atoms: O4_20  and  C17_21 
REMARK    6  A    between atoms: C17_21  and  C18_23 
REMARK    7  A    between atoms: C18_23  and  C19_24 
REMARK    8  A    between atoms: C19_24  and  C20_25 
REMARK       I    between atoms: C20_25  and  N1_27 
REMARK    9  A    between atoms: N1_27  and  C21_28 
REMARK   10  A    between atoms: C21_28  and  C22_29 
REMARK   11  A    between atoms: C22_29  and  C23_30 
REMARK   12  A    between atoms: C23_30  and  C24_31 
REMARK   13  A    between atoms: C24_31  and  C25_32 
REMARK   14  A    between atoms: C25_32  and  C26_33 
REMARK       I    between atoms: C26_33  and  N2_35 
REMARK   15  A    between atoms: N2_35  and  C27_36 
REMARK   16  A    between atoms: C27_36  and  C28_37 
REMARK   17  A    between atoms: C31_40  and  C32_41 
REMARK   18  A    between atoms: C32_41  and  O9_43 
ROOT
HETATM    1  C17 UNL     1      -2.075  50.600 -15.298  1.00  0.00     0.259 C 
HETATM    2  O5  UNL     1      -0.860  50.708 -15.199  1.00  0.00    -0.265 OA
ENDROOT
BRANCH   1   3
HETATM    3  O4  UNL     1      -2.737  50.150 -16.389  1.00  0.00    -0.314 OA
BRANCH   3   4
HETATM    4  C16 UNL     1      -2.575  48.801 -16.821  1.00  0.00     0.260 C 
BRANCH   4   5
HETATM    5  C15 UNL     1      -2.465  48.309 -18.281  1.00  0.00     0.185 C 
HETATM    6  O3  UNL     1      -2.966  47.224 -18.597  1.00  0.00    -0.292 OA
BRANCH   5   7
HETATM    7  C14 UNL     1      -1.800  49.252 -19.329  1.00  0.00     0.128 C 
HETATM    8  C13 UNL     1      -0.865  48.431 -20.228  1.00  0.00     0.047 C 
HETATM    9  C12 UNL     1      -1.736  47.928 -21.365  1.00  0.00     0.009 C 
HETATM   10  C11 UNL     1      -2.831  48.983 -21.582  1.00  0.00     0.002 C 
HETATM   11  C10 UNL     1      -2.728  49.758 -22.920  1.00  0.00    -0.004 C 
HETATM   12  C35 UNL     1      -2.798  49.931 -20.336  1.00  0.00    -0.002 C 
HETATM   13  C9  UNL     1      -2.854  48.836 -24.145  1.00  0.00     0.010 C 
HETATM   14  C39 UNL     1      -1.434  50.606 -23.008  1.00  0.00     0.002 C 
HETATM   15  C8  UNL     1      -2.858  49.643 -25.437  1.00  0.00     0.035 C 
HETATM   16  C7  UNL     1      -1.643  50.535 -25.550  1.00  0.00    -0.068 C 
HETATM   17  C2  UNL     1      -1.329  51.437 -24.346  1.00  0.00    -0.016 C 
HETATM   18  C6  UNL     1      -0.914  50.528 -26.681  1.00  0.00     0.053 C 
HETATM   19  C1  UNL     1      -2.323  52.621 -24.373  1.00  0.00     0.020 C 
HETATM   20  C3  UNL     1       0.128  51.978 -24.460  1.00  0.00     0.022 C 
HETATM   21  C4  UNL     1       0.476  52.512 -25.843  1.00  0.00     0.084 C 
HETATM   22  C5  UNL     1       0.212  51.467 -26.894  1.00  0.00     0.149 C 
HETATM   23  O1  UNL     1       0.851  51.419 -27.944  1.00  0.00    -0.293 OA
HETATM   24  C38 UNL     1      -1.212  51.447 -21.728  1.00  0.00     0.007 C 
HETATM   25  C37 UNL     1      -2.373  51.374 -20.740  1.00  0.00     0.013 C 
HETATM   26  C36 UNL     1      -4.230  50.064 -19.771  1.00  0.00     0.019 C 
BRANCH   7  27
HETATM   27  O2  UNL     1      -1.000  50.222 -18.655  1.00  0.00    -0.381 OA
HETATM   28  H19 UNL     1      -0.244  49.727 -18.278  1.00  0.00     0.211 HD
ENDBRANCH   7  27
ENDBRANCH   5   7
ENDBRANCH   4   5
ENDBRANCH   3   4
ENDBRANCH   1   3
BRANCH   1  29
HETATM   29  C18 UNL     1      -3.065  51.003 -14.235  1.00  0.00     0.120 C 
BRANCH  29  30
HETATM   30  C19 UNL     1      -2.571  50.609 -12.847  1.00  0.00     0.112 C 
BRANCH  30  31
HETATM   31  C20 UNL     1      -3.545  51.034 -11.770  1.00  0.00     0.217 C 
HETATM   32  O6  UNL     1      -3.651  52.191 -11.375  1.00  0.00    -0.274 OA
HETATM   33  N1  UNL     1      -4.308  49.989 -11.293  1.00  0.00    -0.361 N 
HETATM   34  H26 UNL     1      -4.002  49.048 -11.516  1.00  0.00     0.162 HD
BRANCH  33  35
HETATM   35  C21 UNL     1      -5.169  50.154 -10.138  1.00  0.00     0.122 C 
BRANCH  35  36
HETATM   36  C22 UNL     1      -6.611  49.765 -10.440  1.00  0.00     0.020 C 
BRANCH  36  37
HETATM   37  C23 UNL     1      -7.116  48.506  -9.722  1.00  0.00     0.002 C 
BRANCH  37  38
HETATM   38  C24 UNL     1      -7.719  48.758  -8.336  1.00  0.00     0.009 C 
BRANCH  38  39
HETATM   39  C25 UNL     1      -9.024  49.552  -8.373  1.00  0.00     0.103 C 
BRANCH  39  40
HETATM   40  C26 UNL     1     -10.190  48.749  -7.826  1.00  0.00     0.217 C 
HETATM   41  O7  UNL     1     -10.330  47.545  -8.000  1.00  0.00    -0.274 OA
HETATM   42  N2  UNL     1     -11.077  49.524  -7.112  1.00  0.00    -0.357 N 
HETATM   43  H37 UNL     1     -10.963  50.528  -7.122  1.00  0.00     0.162 HD
BRANCH  42  44
HETATM   44  C27 UNL     1     -12.313  48.987  -6.594  1.00  0.00     0.161 C 
BRANCH  44  45
HETATM   45  C28 UNL     1     -13.497  49.581  -7.314  1.00  0.00    -0.040 A 
HETATM   46  C29 UNL     1     -14.440  48.741  -7.923  1.00  0.00     0.010 A 
HETATM   47  C30 UNL     1     -15.528  49.278  -8.613  1.00  0.00     0.019 A 
HETATM   48  C31 UNL     1     -15.687  50.666  -8.704  1.00  0.00     0.037 A 
HETATM   49  C33 UNL     1     -14.743  51.511  -8.109  1.00  0.00     0.019 A 
HETATM   50  C34 UNL     1     -13.652  50.970  -7.421  1.00  0.00     0.010 A 
BRANCH  48  51
HETATM   51  C32 UNL     1     -16.858  51.191  -9.446  1.00  0.00     0.176 C 
HETATM   52  O8  UNL     1     -17.703  50.523 -10.013  1.00  0.00    -0.646 OA
BRANCH  51  53
HETATM   53  O9  UNL     1     -16.920  52.534  -9.445  1.00  0.00    -0.773 OA
HETATM   54  H42 UNL     1     -17.732  52.726  -9.958  1.00  0.00     0.167 HD
ENDBRANCH  51  53
ENDBRANCH  48  51
ENDBRANCH  44  45
ENDBRANCH  42  44
ENDBRANCH  39  40
ENDBRANCH  38  39
ENDBRANCH  37  38
ENDBRANCH  36  37
ENDBRANCH  35  36
ENDBRANCH  33  35
ENDBRANCH  30  31
ENDBRANCH  29  30
ENDBRANCH   1  29
TORSDOF 18
ENDMDL
