MODEL 1
REMARK minimizedAffinity -10.5677977
REMARK  5 active torsions:
REMARK  status: ('A' for Active; 'I' for Inactive)
REMARK    1  A    between atoms: C3_3  and  C4_4 
REMARK    2  A    between atoms: C4_4  and  C5_5 
REMARK       I    between atoms: C5_5  and  N1_7 
REMARK    3  A    between atoms: N1_7  and  C6_8 
REMARK    4  A    between atoms: C6_8  and  C7_9 
REMARK    5  A    between atoms: C7_9  and  C8_10 
ROOT
HETATM    1  C1  UNL     1      -5.196   5.896  14.386  1.00  0.00     0.050 C 
HETATM    2  C2  UNL     1      -4.894   4.886  13.308  1.00  0.00    -0.036 A 
HETATM    3  C3  UNL     1      -5.780   3.962  12.877  1.00  0.00     0.033 A 
HETATM    4  C16 UNL     1      -5.454   3.022  11.768  1.00  0.00     0.295 A 
HETATM    5  O2  UNL     1      -6.284   2.223  11.341  1.00  0.00    -0.259 OA
HETATM    6  O3  UNL     1      -4.183   3.080  11.231  1.00  0.00    -0.274 OA
HETATM    7  C17 UNL     1      -3.248   4.026  11.676  1.00  0.00     0.093 A 
HETATM    8  C18 UNL     1      -2.004   4.005  11.043  1.00  0.00     0.075 A 
HETATM    9  C19 UNL     1      -1.028   4.922  11.416  1.00  0.00     0.079 A 
HETATM   10  C20 UNL     1      -1.289   5.839  12.437  1.00  0.00    -0.024 A 
HETATM   11  C21 UNL     1      -2.554   5.844  13.055  1.00  0.00     0.024 A 
HETATM   12  C22 UNL     1      -3.556   4.935  12.684  1.00  0.00     0.005 A 
HETATM   13  C23 UNL     1      -0.251   6.838  12.853  1.00  0.00     0.044 C 
HETATM   14  C24 UNL     1       1.127   6.405  12.377  1.00  0.00     0.042 C 
HETATM   15  C25 UNL     1       1.086   5.925  10.919  1.00  0.00     0.061 C 
HETATM   16  C26 UNL     1       2.466   5.363  10.545  1.00  0.00     0.046 C 
HETATM   17  C27 UNL     1       0.734   7.048   9.930  1.00  0.00     0.046 C 
HETATM   18  O4  UNL     1       0.157   4.839  10.743  1.00  0.00    -0.340 OA
ENDROOT
BRANCH   3  19
HETATM   19  C4  UNL     1      -7.164   3.751  13.437  1.00  0.00     0.148 C 
BRANCH  19  20
HETATM   20  C5  UNL     1      -8.067   4.900  13.021  1.00  0.00     0.222 C 
HETATM   21  O1  UNL     1      -8.378   5.094  11.847  1.00  0.00    -0.273 OA
HETATM   22  N1  UNL     1      -8.500   5.685  14.060  1.00  0.00    -0.360 N 
HETATM   23  H6  UNL     1      -8.177   5.474  15.003  1.00  0.00     0.162 HD
BRANCH  22  24
HETATM   24  C6  UNL     1      -9.286   6.887  13.856  1.00  0.00     0.127 C 
BRANCH  24  25
HETATM   25  C7  UNL     1     -10.606   6.890  14.637  1.00  0.00     0.060 C 
BRANCH  25  26
HETATM   26  C8  UNL     1     -11.753   7.443  13.844  1.00  0.00    -0.029 A 
HETATM   27  C9  UNL     1     -11.716   8.530  12.993  1.00  0.00     0.096 A 
HETATM   28  N2  UNL     1     -12.959   8.692  12.446  1.00  0.00    -0.365 N 
HETATM   29  C10 UNL     1     -13.818   7.730  12.921  1.00  0.00     0.043 A 
HETATM   30  H12 UNL     1     -13.214   9.411  11.782  1.00  0.00     0.165 HD
HETATM   31  C11 UNL     1     -15.169   7.505  12.631  1.00  0.00     0.032 A 
HETATM   32  C15 UNL     1     -13.094   6.938  13.812  1.00  0.00    -0.000 A 
HETATM   33  C12 UNL     1     -15.799   6.432  13.271  1.00  0.00     0.026 A 
HETATM   34  C13 UNL     1     -15.099   5.630  14.169  1.00  0.00     0.035 A 
HETATM   35 CL1  UNL     1     -15.901   4.311  14.933  1.00  0.00    -0.084 Cl
HETATM   36  C14 UNL     1     -13.753   5.870  14.456  1.00  0.00     0.038 A 
ENDBRANCH  25  26
ENDBRANCH  24  25
ENDBRANCH  22  24
ENDBRANCH  19  20
ENDBRANCH   3  19
TORSDOF 5
ENDMDL
