MODEL 1
REMARK minimizedAffinity -7.29680395
REMARK CNNscore 0.787548542
REMARK CNNaffinity 6.99143744
REMARK  6 active torsions:
REMARK  status: ('A' for Active; 'I' for Inactive)
REMARK    1  A    between atoms: C2_2  and  C30_32 
REMARK    2  A    between atoms: C3_3  and  C4_4 
REMARK    3  A    between atoms: C4_4  and  C5_5 
REMARK    4  A    between atoms: C5_5  and  C6_6 
REMARK    5  A    between atoms: C6_6  and  C8_8 
REMARK    6  A    between atoms: C30_32  and  O4_34 
ROOT
HETATM    1  C8  UNL     1       4.569  56.561  -8.182  1.00  0.00    -0.002 C 
HETATM    2  C9  UNL     1       5.530  55.560  -8.882  1.00  0.00     0.007 C 
HETATM    3  C10 UNL     1       4.670  54.621  -9.750  1.00  0.00     0.015 C 
HETATM    4  C11 UNL     1       3.272  55.269  -9.785  1.00  0.00    -0.005 C 
HETATM    5  C12 UNL     1       3.292  56.346 -10.913  1.00  0.00     0.021 C 
HETATM    6  C13 UNL     1       2.041  54.419 -10.080  1.00  0.00    -0.000 C 
HETATM    7  C14 UNL     1       0.827  54.730  -9.559  1.00  0.00    -0.060 C 
HETATM    8  C15 UNL     1       0.671  55.937  -8.620  1.00  0.00     0.036 C 
HETATM    9  C16 UNL     1       1.943  56.716  -8.226  1.00  0.00     0.015 C 
HETATM   10  C17 UNL     1       3.193  55.838  -8.313  1.00  0.00    -0.028 C 
HETATM   11  C18 UNL     1       3.090  54.723  -7.223  1.00  0.00     0.016 C 
HETATM   12  C19 UNL     1      -0.458  53.898  -9.829  1.00  0.00    -0.014 C 
HETATM   13  C20 UNL     1      -0.702  53.016  -8.583  1.00  0.00     0.020 C 
HETATM   14  C21 UNL     1      -1.668  54.834 -10.067  1.00  0.00     0.021 C 
HETATM   15  C22 UNL     1      -2.954  54.159 -10.521  1.00  0.00     0.080 C 
HETATM   16  C23 UNL     1      -2.843  52.708 -10.921  1.00  0.00     0.135 C 
HETATM   17  O1  UNL     1      -3.845  51.994 -10.831  1.00  0.00    -0.297 OA
HETATM   18  C24 UNL     1      -1.536  52.185 -11.529  1.00  0.00     0.018 C 
HETATM   19  C25 UNL     1      -1.377  50.705 -11.108  1.00  0.00     0.023 C 
HETATM   20  C26 UNL     1      -1.731  52.218 -13.059  1.00  0.00     0.023 C 
HETATM   21  C27 UNL     1      -0.301  53.070 -11.142  1.00  0.00     0.020 C 
HETATM   22  C28 UNL     1       1.024  52.305 -11.149  1.00  0.00     0.090 C 
HETATM   23  C29 UNL     1       2.189  53.249 -10.999  1.00  0.00     0.157 C 
HETATM   24  O2  UNL     1       3.241  53.034 -11.600  1.00  0.00    -0.293 OA
ENDROOT
BRANCH   1  25
HETATM   25  C6  UNL     1       5.083  56.993  -6.781  1.00  0.00    -0.014 C 
HETATM   26  C7  UNL     1       6.446  56.387  -6.429  1.00  0.00     0.010 C 
BRANCH  25  27
HETATM   27  C5  UNL     1       4.058  56.739  -5.639  1.00  0.00     0.008 C 
BRANCH  27  28
HETATM   28  C4  UNL     1       3.268  57.930  -5.078  1.00  0.00     0.028 C 
BRANCH  28  29
HETATM   29  C3  UNL     1       1.814  57.674  -4.804  1.00  0.00    -0.013 C 
HETATM   30  C2  UNL     1       1.060  58.106  -3.771  1.00  0.00     0.008 C 
HETATM   31  C1  UNL     1      -0.422  57.852  -3.723  1.00  0.00     0.055 C 
BRANCH  30  32
HETATM   32  C30 UNL     1       1.562  58.886  -2.617  1.00  0.00     0.171 C 
HETATM   33  O3  UNL     1       1.708  60.095  -2.594  1.00  0.00    -0.646 OA
BRANCH  32  34
HETATM   34  O4  UNL     1       1.775  58.146  -1.517  1.00  0.00    -0.773 OA
HETATM   35  H44 UNL     1       2.052  58.802  -0.847  1.00  0.00     0.167 HD
ENDBRANCH  32  34
ENDBRANCH  30  32
ENDBRANCH  28  29
ENDBRANCH  27  28
ENDBRANCH  25  27
ENDBRANCH   1  25
TORSDOF 6
ENDMDL
