MODEL 1
REMARK minimizedAffinity -7.22531509
REMARK CNNscore 0.606013775
REMARK CNNaffinity 6.7460804
REMARK  7 active torsions:
REMARK  status: ('A' for Active; 'I' for Inactive)
REMARK    1  A    between atoms: C2_2  and  C3_3 
REMARK    2  A    between atoms: C2_2  and  C4_6 
REMARK    3  A    between atoms: C3_3  and  O2_5 
REMARK    4  A    between atoms: C4_6  and  C6_8 
REMARK    5  A    between atoms: C6_8  and  C7_10 
REMARK    6  A    between atoms: C7_10  and  C8_11 
REMARK    7  A    between atoms: C8_11  and  C10_13 
ROOT
HETATM    1  C10 UNL     1       5.354  56.056  -8.089  1.00  0.00    -0.001 C 
HETATM    2  C11 UNL     1       6.225  55.192  -9.047  1.00  0.00     0.007 C 
HETATM    3  C12 UNL     1       5.271  54.293  -9.856  1.00  0.00     0.015 C 
HETATM    4  C13 UNL     1       3.872  54.883  -9.613  1.00  0.00    -0.013 C 
HETATM    5  C14 UNL     1       3.695  56.067 -10.615  1.00  0.00     0.021 C 
HETATM    6  C15 UNL     1       2.650  53.997  -9.826  1.00  0.00    -0.068 C 
HETATM    7  C16 UNL     1       1.505  54.249  -9.134  1.00  0.00    -0.068 C 
HETATM    8  C17 UNL     1       1.439  55.351  -8.078  1.00  0.00     0.036 C 
HETATM    9  C18 UNL     1       2.740  56.117  -7.750  1.00  0.00     0.015 C 
HETATM   10  C19 UNL     1       3.990  55.298  -8.097  1.00  0.00    -0.029 C 
HETATM   11  C20 UNL     1       4.068  54.079  -7.125  1.00  0.00     0.016 C 
HETATM   12  C21 UNL     1       0.257  53.352  -9.333  1.00  0.00    -0.015 C 
HETATM   13  C22 UNL     1       0.460  52.181  -8.333  1.00  0.00     0.020 C 
HETATM   14  C23 UNL     1      -1.115  54.009  -8.985  1.00  0.00     0.021 C 
HETATM   15  C24 UNL     1      -1.848  54.564 -10.196  1.00  0.00     0.080 C 
HETATM   16  C25 UNL     1      -2.192  53.419 -11.126  1.00  0.00     0.135 C 
HETATM   17  O4  UNL     1      -3.310  53.346 -11.640  1.00  0.00    -0.297 OA
HETATM   18  C26 UNL     1      -1.096  52.373 -11.404  1.00  0.00     0.018 C 
HETATM   19  C27 UNL     1      -1.539  51.041 -10.790  1.00  0.00     0.023 C 
HETATM   20  C28 UNL     1      -1.019  52.198 -12.937  1.00  0.00     0.023 C 
HETATM   21  C29 UNL     1       0.256  52.927 -10.852  1.00  0.00     0.013 C 
HETATM   22  C30 UNL     1       1.505  52.094 -11.165  1.00  0.00     0.011 C 
HETATM   23  C31 UNL     1       2.778  52.898 -10.863  1.00  0.00     0.036 C 
ENDROOT
BRANCH   1  24
HETATM   24  C8  UNL     1       6.067  56.342  -6.737  1.00  0.00    -0.007 C 
HETATM   25  C9  UNL     1       5.934  57.799  -6.279  1.00  0.00     0.011 C 
BRANCH  24  26
HETATM   26  C7  UNL     1       7.556  55.917  -6.718  1.00  0.00     0.083 C 
BRANCH  26  27
HETATM   27  C6  UNL     1       8.218  55.777  -5.349  1.00  0.00     0.135 C 
HETATM   28  O3  UNL     1       7.570  55.643  -4.312  1.00  0.00    -0.297 OA
BRANCH  27  29
HETATM   29  C4  UNL     1       9.749  55.866  -5.319  1.00  0.00     0.090 C 
HETATM   30  C5  UNL     1      10.316  54.716  -4.478  1.00  0.00     0.023 C 
BRANCH  29  31
HETATM   31  C2  UNL     1      10.142  57.254  -4.852  1.00  0.00     0.017 C 
HETATM   32  C1  UNL     1       9.405  58.367  -5.036  1.00  0.00     0.026 C 
BRANCH  31  33
HETATM   33  C3  UNL     1      11.435  57.326  -4.123  1.00  0.00     0.172 C 
HETATM   34  O1  UNL     1      11.549  57.371  -2.911  1.00  0.00    -0.646 OA
BRANCH  33  35
HETATM   35  O2  UNL     1      12.517  57.344  -4.919  1.00  0.00    -0.773 OA
HETATM   36  H3  UNL     1      13.272  57.396  -4.297  1.00  0.00     0.167 HD
ENDBRANCH  33  35
ENDBRANCH  31  33
ENDBRANCH  29  31
ENDBRANCH  27  29
ENDBRANCH  26  27
ENDBRANCH  24  26
ENDBRANCH   1  24
TORSDOF 7
ENDMDL
