MODEL 1
REMARK minimizedAffinity -8.27061749
REMARK CNNscore 0.467278332
REMARK CNNaffinity 6.9511447
REMARK  6 active torsions:
REMARK  status: ('A' for Active; 'I' for Inactive)
REMARK    1  A    between atoms: C5_6  and  O2_7 
REMARK    2  A    between atoms: C6_8  and  O3_10 
REMARK    3  A    between atoms: C15_19  and  C16_20 
REMARK    4  A    between atoms: C43_49  and  O7_50 
REMARK    5  A    between atoms: C44_51  and  C45_52 
REMARK    6  A    between atoms: C45_52  and  O8_53 
ROOT
HETATM    1  C1  UNL     1       8.530  57.938  -2.356  1.00  0.00     0.013 C 
HETATM    2  C2  UNL     1       7.689  57.833  -3.638  1.00  0.00     0.023 C 
HETATM    3  C3  UNL     1       6.395  57.048  -3.356  1.00  0.00     0.167 C 
HETATM    4  O1  UNL     1       6.553  55.717  -3.905  1.00  0.00    -0.373 OA
HETATM    5  C4  UNL     1       7.881  55.592  -4.452  1.00  0.00     0.160 C 
HETATM    6  C5  UNL     1       7.981  54.476  -5.533  1.00  0.00     0.181 C 
HETATM    7  C6  UNL     1       7.038  54.435  -6.809  1.00  0.00     0.087 C 
HETATM    8  C7  UNL     1       7.438  55.594  -7.725  1.00  0.00     0.049 C 
HETATM    9  C8  UNL     1       5.489  54.322  -6.522  1.00  0.00     0.034 C 
HETATM   10  C9  UNL     1       5.114  53.022  -5.787  1.00  0.00     0.012 C 
HETATM   11  C10 UNL     1       3.600  53.043  -5.688  1.00  0.00     0.044 C 
HETATM   12  C11 UNL     1       3.118  53.398  -7.097  1.00  0.00     0.094 C 
HETATM   13  O4  UNL     1       3.131  52.244  -7.963  1.00  0.00    -0.363 OA
HETATM   14  C12 UNL     1       2.382  51.082  -7.646  1.00  0.00     0.263 C 
HETATM   15  C13 UNL     1       1.427  50.788  -8.723  1.00  0.00    -0.080 C 
HETATM   16  C14 UNL     1       0.644  50.562  -9.605  1.00  0.00    -0.093 C 
HETATM   17  C15 UNL     1      -0.318  50.307 -10.713  1.00  0.00     0.121 C 
HETATM   18  C22 UNL     1      -1.548  51.249 -10.639  1.00  0.00     0.190 C 
HETATM   19  O5  UNL     1      -1.154  52.607 -10.809  1.00  0.00    -0.384 OA
HETATM   20  C23 UNL     1      -2.093  53.605 -10.406  1.00  0.00     0.122 C 
HETATM   21  C24 UNL     1      -1.496  54.921 -10.914  1.00  0.00     0.033 C 
HETATM   22  C25 UNL     1      -0.115  55.218 -10.276  1.00  0.00     0.013 C 
HETATM   23  C26 UNL     1      -0.131  55.196  -8.729  1.00  0.00    -0.025 C 
HETATM   24  C27 UNL     1      -0.927  56.442  -8.251  1.00  0.00     0.016 C 
HETATM   25  C28 UNL     1      -0.842  53.902  -8.277  1.00  0.00     0.071 C 
HETATM   26  C29 UNL     1      -2.224  53.691  -8.878  1.00  0.00     0.045 C 
HETATM   27  C30 UNL     1      -0.738  53.748  -6.773  1.00  0.00     0.154 C 
HETATM   28  O6  UNL     1      -1.686  53.737  -6.000  1.00  0.00    -0.293 OA
HETATM   29  C31 UNL     1       0.650  53.509  -6.302  1.00  0.00     0.057 C 
HETATM   30  C32 UNL     1       1.627  54.009  -7.086  1.00  0.00    -0.036 C 
HETATM   31  C33 UNL     1       1.276  55.250  -8.041  1.00  0.00     0.031 C 
HETATM   32  C34 UNL     1       2.567  55.413  -8.808  1.00  0.00     0.000 C 
HETATM   33  C35 UNL     1       3.093  55.866 -10.142  1.00  0.00     0.006 C 
HETATM   34  C36 UNL     1       4.480  55.143 -10.283  1.00  0.00     0.001 C 
HETATM   35  C37 UNL     1       4.842  54.080  -9.159  1.00  0.00     0.014 C 
HETATM   36  C38 UNL     1       4.377  54.409  -7.664  1.00  0.00     0.006 C 
HETATM   37  C39 UNL     1       3.636  55.746  -7.703  1.00  0.00     0.014 C 
HETATM   38  C40 UNL     1       4.369  57.103  -7.833  1.00  0.00     0.100 C 
HETATM   39  C41 UNL     1       4.758  57.582  -6.489  1.00  0.00    -0.103 C 
HETATM   40  C42 UNL     1       4.973  57.767  -5.321  1.00  0.00    -0.072 C 
HETATM   41  C43 UNL     1       5.098  57.734  -3.856  1.00  0.00     0.226 C 
HETATM   42  C44 UNL     1       8.337  57.020  -4.764  1.00  0.00     0.047 C 
ENDROOT
BRANCH  17  43
HETATM   43  C16 UNL     1       0.375  50.325 -12.073  1.00  0.00    -0.040 A 
HETATM   44  C17 UNL     1      -0.064  49.503 -13.127  1.00  0.00     0.008 A 
HETATM   45  C18 UNL     1       0.587  49.502 -14.360  1.00  0.00     0.001 A 
HETATM   46  C19 UNL     1       1.686  50.331 -14.563  1.00  0.00     0.000 A 
HETATM   47  C20 UNL     1       2.135  51.152 -13.529  1.00  0.00     0.001 A 
HETATM   48  C21 UNL     1       1.485  51.152 -12.292  1.00  0.00     0.008 A 
ENDBRANCH  17  43
BRANCH   7  49
HETATM   49  O3  UNL     1       7.427  53.228  -7.518  1.00  0.00    -0.387 OA
HETATM   50  H12 UNL     1       7.723  52.609  -6.821  1.00  0.00     0.210 HD
ENDBRANCH   7  49
BRANCH   6  51
HETATM   51  O2  UNL     1       7.890  53.191  -4.874  1.00  0.00    -0.390 OA
HETATM   52  H8  UNL     1       7.360  53.318  -4.065  1.00  0.00     0.210 HD
ENDBRANCH   6  51
BRANCH  42  53
HETATM   53  C45 UNL     1       9.848  57.178  -4.895  1.00  0.00     0.172 C 
BRANCH  53  54
HETATM   54  O8  UNL     1      10.188  58.498  -5.271  1.00  0.00    -0.400 OA
HETATM   55  H56 UNL     1      10.106  59.065  -4.485  1.00  0.00     0.209 HD
ENDBRANCH  53  54
ENDBRANCH  42  53
BRANCH  41  56
HETATM   56  O7  UNL     1       5.003  59.065  -3.363  1.00  0.00    -0.381 OA
HETATM   57  H52 UNL     1       4.662  59.004  -2.460  1.00  0.00     0.211 HD
ENDBRANCH  41  56
TORSDOF 6
ENDMDL
