MODEL 1
REMARK minimizedAffinity -6.86673355
REMARK CNNscore 0.400322318
REMARK CNNaffinity 6.41095495
REMARK  8 active torsions:
REMARK  status: ('A' for Active; 'I' for Inactive)
REMARK    1  A    between atoms: C2_2  and  C3_3 
REMARK    2  A    between atoms: C2_2  and  C9_12 
REMARK    3  A    between atoms: C3_3  and  C4_4 
REMARK    4  A    between atoms: C4_4  and  O1_5 
REMARK    5  A    between atoms: C4_4  and  C5_6 
REMARK    6  A    between atoms: C5_6  and  O2_7 
REMARK    7  A    between atoms: C5_6  and  C6_8 
REMARK    8  A    between atoms: C6_8  and  O3_11 
ROOT
HETATM    1  C9  UNL     1       6.582  11.272  14.866  1.00  0.00    -0.002 C 
HETATM    2  C10 UNL     1       7.344  11.745  13.626  1.00  0.00     0.007 C 
HETATM    3  C11 UNL     1       6.486  11.223  12.483  1.00  0.00     0.015 C 
HETATM    4  C12 UNL     1       6.161   9.762  12.876  1.00  0.00    -0.005 C 
HETATM    5  C13 UNL     1       7.391   8.876  12.518  1.00  0.00     0.021 C 
HETATM    6  C14 UNL     1       4.939   9.211  12.108  1.00  0.00    -0.000 C 
HETATM    7  C15 UNL     1       3.798   8.747  12.676  1.00  0.00    -0.060 C 
HETATM    8  C16 UNL     1       3.659   8.796  14.186  1.00  0.00     0.036 C 
HETATM    9  C17 UNL     1       4.454   9.938  14.798  1.00  0.00     0.015 C 
HETATM   10  C18 UNL     1       5.966   9.870  14.466  1.00  0.00    -0.028 C 
HETATM   11  C19 UNL     1       6.551   8.655  15.214  1.00  0.00     0.016 C 
HETATM   12  C20 UNL     1       2.605   8.112  11.898  1.00  0.00    -0.014 C 
HETATM   13  C21 UNL     1       1.275   8.756  12.380  1.00  0.00     0.020 C 
HETATM   14  C22 UNL     1       2.622   6.597  12.219  1.00  0.00     0.021 C 
HETATM   15  C23 UNL     1       1.704   5.722  11.378  1.00  0.00     0.080 C 
HETATM   16  C24 UNL     1       0.918   6.487  10.347  1.00  0.00     0.135 C 
HETATM   17  O4  UNL     1      -0.269   6.218  10.154  1.00  0.00    -0.297 OA
HETATM   18  C25 UNL     1       1.682   7.501   9.484  1.00  0.00     0.018 C 
HETATM   19  C26 UNL     1       2.295   6.674   8.335  1.00  0.00     0.023 C 
HETATM   20  C27 UNL     1       0.668   8.477   8.837  1.00  0.00     0.023 C 
HETATM   21  C28 UNL     1       2.714   8.330  10.347  1.00  0.00     0.020 C 
HETATM   22  C29 UNL     1       4.161   8.146   9.896  1.00  0.00     0.090 C 
HETATM   23  C30 UNL     1       5.061   9.113  10.616  1.00  0.00     0.157 C 
HETATM   24  O5  UNL     1       5.899   9.760   9.992  1.00  0.00    -0.293 OA
ENDROOT
BRANCH   1  25
HETATM   25  C2  UNL     1       7.339  11.537  16.196  1.00  0.00    -0.011 C 
HETATM   26  C1  UNL     1       6.472  11.181  17.412  1.00  0.00     0.010 C 
BRANCH  25  27
HETATM   27  C3  UNL     1       8.749  10.923  16.319  1.00  0.00     0.039 C 
BRANCH  27  28
HETATM   28  C4  UNL     1       9.769  11.829  17.039  1.00  0.00     0.150 C 
BRANCH  28  29
HETATM   29  O1  UNL     1       9.202  13.154  17.103  1.00  0.00    -0.393 OA
HETATM   30  H8  UNL     1       8.331  13.057  17.533  1.00  0.00     0.210 HD
ENDBRANCH  28  29
BRANCH  28  31
HETATM   31  C5  UNL     1      10.098  11.358  18.485  1.00  0.00     0.180 C 
BRANCH  31  32
HETATM   32  O2  UNL     1       9.240  12.045  19.415  1.00  0.00    -0.390 OA
HETATM   33  H10 UNL     1       9.270  12.986  19.138  1.00  0.00     0.210 HD
ENDBRANCH  31  32
BRANCH  31  34
HETATM   34  C6  UNL     1      11.592  11.541  18.886  1.00  0.00     0.079 C 
HETATM   35  C7  UNL     1      12.539  11.446  17.686  1.00  0.00     0.048 C 
HETATM   36  C8  UNL     1      11.796  12.904  19.564  1.00  0.00     0.048 C 
BRANCH  34  37
HETATM   37  O3  UNL     1      11.962  10.521  19.823  1.00  0.00    -0.388 OA
HETATM   38  H17 UNL     1      11.576  10.757  20.686  1.00  0.00     0.210 HD
ENDBRANCH  34  37
ENDBRANCH  31  34
ENDBRANCH  28  31
ENDBRANCH  27  28
ENDBRANCH  25  27
ENDBRANCH   1  25
TORSDOF 8
ENDMDL
