MODEL 1
REMARK minimizedAffinity -9.55994892
REMARK CNNscore 0.264893681
REMARK CNNaffinity 6.49682426
REMARK  14 active torsions:
REMARK  status: ('A' for Active; 'I' for Inactive)
REMARK    1  A    between atoms: C2_2  and  C3_3 
REMARK    2  A    between atoms: C2_2  and  C35_44 
REMARK    3  A    between atoms: C3_3  and  C4_4 
REMARK    4  A    between atoms: C4_4  and  C5_5 
REMARK    5  A    between atoms: C5_5  and  C6_6 
REMARK    6  A    between atoms: C5_5  and  C7_9 
REMARK    7  A    between atoms: C6_6  and  O2_8 
REMARK    8  A    between atoms: C28_31  and  O4_32 
REMARK    9  A    between atoms: O4_32  and  C29_33 
REMARK   10  A    between atoms: C30_35  and  C31_36 
REMARK   11  A    between atoms: C31_36  and  O6_37 
REMARK   12  A    between atoms: C32_38  and  O7_39 
REMARK   13  A    between atoms: C33_40  and  O8_41 
REMARK   14  A    between atoms: C34_42  and  O9_43 
ROOT
HETATM    1  C7  UNL     1      -5.895   7.268  14.942  1.00  0.00     0.009 C 
HETATM    2  C8  UNL     1      -5.639   8.744  15.329  1.00  0.00     0.007 C 
HETATM    3  C9  UNL     1      -4.215   9.089  14.831  1.00  0.00     0.015 C 
HETATM    4  C10 UNL     1      -3.803   7.927  13.905  1.00  0.00    -0.010 C 
HETATM    5  C11 UNL     1      -4.415   8.239  12.500  1.00  0.00     0.021 C 
HETATM    6  C12 UNL     1      -2.328   7.625  13.612  1.00  0.00    -0.039 C 
HETATM    7  C13 UNL     1      -1.971   6.355  13.267  1.00  0.00    -0.066 C 
HETATM    8  C14 UNL     1      -2.963   5.184  13.327  1.00  0.00     0.036 C 
HETATM    9  C15 UNL     1      -4.404   5.488  13.775  1.00  0.00     0.015 C 
HETATM   10  C16 UNL     1      -4.464   6.723  14.673  1.00  0.00    -0.028 C 
HETATM   11  C17 UNL     1      -3.751   6.388  16.014  1.00  0.00     0.016 C 
HETATM   12  C18 UNL     1      -0.526   6.016  12.810  1.00  0.00    -0.015 C 
HETATM   13  C19 UNL     1       0.221   5.582  14.089  1.00  0.00     0.020 C 
HETATM   14  C20 UNL     1      -0.501   4.853  11.780  1.00  0.00     0.021 C 
HETATM   15  C21 UNL     1       0.874   4.592  11.189  1.00  0.00     0.080 C 
HETATM   16  C22 UNL     1       1.386   5.831  10.503  1.00  0.00     0.135 C 
HETATM   17  O3  UNL     1       1.809   5.768   9.347  1.00  0.00    -0.297 OA
HETATM   18  C23 UNL     1       1.428   7.124  11.329  1.00  0.00     0.018 C 
HETATM   19  C24 UNL     1       2.686   7.087  12.208  1.00  0.00     0.023 C 
HETATM   20  C25 UNL     1       1.604   8.308  10.344  1.00  0.00     0.023 C 
HETATM   21  C26 UNL     1       0.066   7.286  12.097  1.00  0.00     0.016 C 
HETATM   22  C27 UNL     1       0.050   8.468  13.068  1.00  0.00     0.043 C 
HETATM   23  C28 UNL     1      -1.361   8.805  13.576  1.00  0.00     0.155 C 
ENDROOT
BRANCH  23  24
HETATM   24  O4  UNL     1      -1.211   9.328  14.900  1.00  0.00    -0.349 OA
BRANCH  24  25
HETATM   25  C29 UNL     1      -0.116  10.253  15.025  1.00  0.00     0.292 C 
HETATM   26  O5  UNL     1       0.679   9.983  16.171  1.00  0.00    -0.348 OA
HETATM   27  C30 UNL     1       1.858  10.799  16.259  1.00  0.00     0.179 C 
HETATM   28  C32 UNL     1       1.769  12.142  15.491  1.00  0.00     0.180 C 
HETATM   29  C33 UNL     1       0.345  12.722  15.505  1.00  0.00     0.183 C 
HETATM   30  C34 UNL     1      -0.726  11.662  15.175  1.00  0.00     0.204 C 
BRANCH  27  31
HETATM   31  C31 UNL     1       2.159  11.003  17.750  1.00  0.00     0.198 C 
BRANCH  31  32
HETATM   32  O6  UNL     1       2.505   9.779  18.389  1.00  0.00    -0.398 OA
HETATM   33  H45 UNL     1       1.696   9.233  18.421  1.00  0.00     0.209 HD
ENDBRANCH  31  32
ENDBRANCH  27  31
BRANCH  28  34
HETATM   34  O7  UNL     1       2.177  11.911  14.130  1.00  0.00    -0.390 OA
HETATM   35  H47 UNL     1       2.076  12.747  13.637  1.00  0.00     0.210 HD
ENDBRANCH  28  34
BRANCH  29  36
HETATM   36  O8  UNL     1       0.067  13.308  16.785  1.00  0.00    -0.390 OA
HETATM   37  H49 UNL     1       0.652  14.076  16.895  1.00  0.00     0.210 HD
ENDBRANCH  29  36
BRANCH  30  38
HETATM   38  O9  UNL     1      -1.430  12.032  13.974  1.00  0.00    -0.388 OA
HETATM   39  H51 UNL     1      -2.142  11.367  13.886  1.00  0.00     0.210 HD
ENDBRANCH  30  38
ENDBRANCH  24  25
ENDBRANCH  23  24
BRANCH   1  40
HETATM   40  C5  UNL     1      -6.850   6.447  15.852  1.00  0.00     0.089 C 
BRANCH  40  41
HETATM   41  C4  UNL     1      -7.863   7.232  16.712  1.00  0.00     0.020 C 
BRANCH  41  42
HETATM   42  C3  UNL     1      -9.298   7.266  16.143  1.00  0.00     0.034 C 
BRANCH  42  43
HETATM   43  C2  UNL     1      -9.737   8.495  15.366  1.00  0.00    -0.086 C 
HETATM   44  C1  UNL     1      -9.031   9.640  15.342  1.00  0.00     0.014 C 
BRANCH  43  45
HETATM   45  C35 UNL     1     -11.020   8.387  14.546  1.00  0.00     0.005 C 
HETATM   46  C36 UNL     1     -11.432   9.729  13.934  1.00  0.00     0.014 C 
HETATM   47  C37 UNL     1     -10.916   7.306  13.468  1.00  0.00     0.014 C 
ENDBRANCH  43  45
ENDBRANCH  42  43
ENDBRANCH  41  42
ENDBRANCH  40  41
BRANCH  40  48
HETATM   48  C6  UNL     1      -7.573   5.444  14.968  1.00  0.00     0.144 C 
HETATM   49  O1  UNL     1      -7.897   5.619  13.806  1.00  0.00    -0.650 OA
BRANCH  48  50
HETATM   50  O2  UNL     1      -7.902   4.303  15.598  1.00  0.00    -0.776 OA
HETATM   51  H8  UNL     1      -8.378   3.785  14.915  1.00  0.00     0.167 HD
ENDBRANCH  48  50
ENDBRANCH  40  48
ENDBRANCH   1  40
TORSDOF 14
ENDMDL
