MODEL 1
REMARK minimizedAffinity -8.2935276
REMARK CNNscore 0.95340544
REMARK CNNaffinity 7.16039515
REMARK  12 active torsions:
REMARK  status: ('A' for Active; 'I' for Inactive)
REMARK    1  A    between atoms: O1_2  and  C2_3 
REMARK    2  A    between atoms: C2_3  and  C3_4 
REMARK    3  A    between atoms: C3_4  and  C4_5 
REMARK    4  A    between atoms: C4_5  and  O2_6 
REMARK    5  A    between atoms: O2_6  and  C5_7 
REMARK    6  A    between atoms: C20_23  and  C21_24 
REMARK    7  A    between atoms: C21_24  and  O4_26 
REMARK    8  A    between atoms: C21_24  and  C23_27 
REMARK    9  A    between atoms: C23_27  and  O5_28 
REMARK   10  A    between atoms: C23_27  and  C24_29 
REMARK   11  A    between atoms: C33_40  and  O7_41 
REMARK   12  A    between atoms: C38_46  and  O8_47 
ROOT
HETATM    1  C5  UNL     1       9.226  16.524  23.801  1.00  0.00     0.122 C 
HETATM    2  C6  UNL     1       8.012  16.171  24.656  1.00  0.00     0.033 C 
HETATM    3  C7  UNL     1       6.668  16.242  23.920  1.00  0.00     0.013 C 
HETATM    4  C8  UNL     1       6.683  15.769  22.425  1.00  0.00    -0.026 C 
HETATM    5  C9  UNL     1       6.609  17.039  21.540  1.00  0.00     0.016 C 
HETATM    6  C10 UNL     1       7.988  14.994  22.128  1.00  0.00     0.071 C 
HETATM    7  C11 UNL     1       9.243  15.834  22.425  1.00  0.00     0.045 C 
HETATM    8  C12 UNL     1       8.033  13.672  22.891  1.00  0.00     0.154 C 
HETATM    9  O3  UNL     1       9.074  13.162  23.299  1.00  0.00    -0.293 OA
HETATM   10  C13 UNL     1       6.773  12.921  23.070  1.00  0.00     0.057 C 
HETATM   11  C14 UNL     1       5.598  13.431  22.672  1.00  0.00    -0.037 C 
HETATM   12  C15 UNL     1       5.427  14.859  22.142  1.00  0.00     0.026 C 
HETATM   13  C16 UNL     1       4.947  14.788  20.667  1.00  0.00     0.011 C 
HETATM   14  C17 UNL     1       3.730  13.850  20.455  1.00  0.00     0.014 C 
HETATM   15  C18 UNL     1       3.956  12.444  21.059  1.00  0.00    -0.002 C 
HETATM   16  C19 UNL     1       5.080  11.743  20.250  1.00  0.00     0.019 C 
HETATM   17  C20 UNL     1       2.679  11.542  21.187  1.00  0.00     0.034 C 
HETATM   18  C36 UNL     1       3.039  10.576  22.355  1.00  0.00     0.012 C 
HETATM   19  C37 UNL     1       4.251  11.179  23.097  1.00  0.00     0.044 C 
HETATM   20  C38 UNL     1       4.330  12.614  22.574  1.00  0.00     0.089 C 
ENDROOT
BRANCH  17  21
HETATM   21  C21 UNL     1       1.998  10.863  19.944  1.00  0.00     0.087 C 
HETATM   22  C22 UNL     1       0.473  10.673  20.077  1.00  0.00     0.049 C 
BRANCH  21  23
HETATM   23  O4  UNL     1       2.574   9.565  19.760  1.00  0.00    -0.387 OA
HETATM   24  H34 UNL     1       2.206   8.962  20.429  1.00  0.00     0.210 HD
ENDBRANCH  21  23
BRANCH  21  25
HETATM   25  C23 UNL     1       2.314  11.711  18.651  1.00  0.00     0.181 C 
BRANCH  25  26
HETATM   26  O5  UNL     1       1.421  12.840  18.587  1.00  0.00    -0.390 OA
HETATM   27  H36 UNL     1       1.412  13.096  17.638  1.00  0.00     0.210 HD
ENDBRANCH  25  26
BRANCH  25  28
HETATM   28  C24 UNL     1       2.196  10.951  17.313  1.00  0.00     0.158 C 
HETATM   29  O6  UNL     1       2.383   9.516  17.564  1.00  0.00    -0.373 OA
HETATM   30  C25 UNL     1       2.017   8.911  16.314  1.00  0.00     0.185 C 
HETATM   31  C26 UNL     1       0.686   9.570  16.052  1.00  0.00     0.028 C 
HETATM   32  C33 UNL     1       1.829   7.385  16.325  1.00  0.00     0.384 C 
HETATM   33  C27 UNL     1       0.207   9.243  14.640  1.00  0.00     0.049 C 
HETATM   34  C34 UNL     1       0.918  11.037  16.437  1.00  0.00     0.020 C 
HETATM   35  C28 UNL     1       0.580   7.776  14.228  1.00  0.00     0.161 C 
HETATM   36  C29 UNL     1      -0.533   7.167  13.351  1.00  0.00     0.041 C 
HETATM   37  C32 UNL     1       1.752   7.736  13.226  1.00  0.00     0.041 C 
HETATM   38  N1  UNL     1       0.809   6.896  15.391  1.00  0.00     0.124 N 
HETATM   39  C30 UNL     1      -0.348   7.825  11.986  1.00  0.00     0.003 C 
HETATM   40  C31 UNL     1       1.146   8.111  11.873  1.00  0.00     0.003 C 
HETATM   41  H50 UNL     1      -0.070   6.822  15.906  1.00  0.00     0.320 HD
HETATM   42  C35 UNL     1      -0.349  11.590  17.083  1.00  0.00     0.013 C 
BRANCH  32  43
HETATM   43  O7  UNL     1       3.039   6.743  15.981  1.00  0.00    -0.366 OA
HETATM   44  H52 UNL     1       2.733   5.963  15.488  1.00  0.00     0.212 HD
ENDBRANCH  32  43
ENDBRANCH  25  28
ENDBRANCH  21  25
ENDBRANCH  17  21
BRANCH  20  45
HETATM   45  O8  UNL     1       3.338  13.381  23.279  1.00  0.00    -0.384 OA
HETATM   46  H61 UNL     1       2.630  12.795  23.593  1.00  0.00     0.211 HD
ENDBRANCH  20  45
BRANCH   1  47
HETATM   47  O2  UNL     1       9.226  17.950  23.646  1.00  0.00    -0.386 OA
BRANCH  47  48
HETATM   48  C4  UNL     1      10.458  18.572  24.010  1.00  0.00     0.170 C 
BRANCH  48  49
HETATM   49  C3  UNL     1      10.335  19.232  25.379  1.00  0.00     0.052 C 
BRANCH  49  50
HETATM   50  C2  UNL     1      11.298  20.403  25.571  1.00  0.00     0.169 C 
BRANCH  50  51
HETATM   51  O1  UNL     1      11.858  20.850  24.337  1.00  0.00    -0.396 OA
HETATM   52  C1  UNL     1      13.208  21.280  24.455  1.00  0.00     0.201 C 
ENDBRANCH  50  51
ENDBRANCH  49  50
ENDBRANCH  48  49
ENDBRANCH  47  48
ENDBRANCH   1  47
TORSDOF 12
ENDMDL
