MODEL 1
REMARK minimizedAffinity -8.6616497
REMARK CNNscore 0.366962194
REMARK CNNaffinity 6.79250288
REMARK  2 active torsions:
REMARK  status: ('A' for Active; 'I' for Inactive)
REMARK    1  A    between atoms: C3_4  and  C4_5 
REMARK       I    between atoms: N3_16  and  C13_17 
REMARK       I    between atoms: C13_17  and  N4_19 
REMARK    2  A    between atoms: N4_19  and  C14_20 
ROOT
HETATM    1  C4  UNL     1      -8.131   5.500  12.755  1.00  0.00    -0.020 A 
HETATM    2  C5  UNL     1      -8.921   5.776  11.627  1.00  0.00     0.015 A 
HETATM    3  C6  UNL     1     -10.046   6.606  11.717  1.00  0.00     0.033 A 
HETATM    4  C7  UNL     1     -10.408   7.159  12.943  1.00  0.00     0.068 A 
HETATM    5  N2  UNL     1     -11.556   7.974  13.001  1.00  0.00    -0.325 N 
HETATM    6  C8  UNL     1     -12.318   8.080  14.146  1.00  0.00     0.222 C 
HETATM    7  O1  UNL     1     -12.648   7.132  14.850  1.00  0.00    -0.273 OA
HETATM    8  C9  UNL     1     -12.696   9.511  14.461  1.00  0.00     0.108 C 
HETATM    9  C10 UNL     1     -12.782   9.750  15.976  1.00  0.00     0.001 C 
HETATM   10  C11 UNL     1     -13.289  11.177  16.280  1.00  0.00     0.025 C 
HETATM   11  C12 UNL     1     -12.373  12.010  17.165  1.00  0.00     0.128 C 
HETATM   12  N3  UNL     1     -11.905  11.304  18.351  1.00  0.00    -0.334 N 
HETATM   13  C13 UNL     1     -11.415  12.081  19.402  1.00  0.00     0.322 C 
HETATM   14  O2  UNL     1     -11.271  13.296  19.279  1.00  0.00    -0.247 OA
HETATM   15  N4  UNL     1     -11.140  11.373  20.549  1.00  0.00    -0.309 N 
HETATM   16  C20 UNL     1     -11.782   9.845  18.270  1.00  0.00     0.132 C 
HETATM   17  C21 UNL     1     -11.549   9.332  16.832  1.00  0.00     0.010 C 
HETATM   18  C22 UNL     1     -10.126   9.739  16.365  1.00  0.00     0.033 C 
HETATM   19  C23 UNL     1      -9.505   8.987  15.182  1.00  0.00     0.176 C 
HETATM   20  O3  UNL     1      -9.770   7.583  15.268  1.00  0.00    -0.349 OA
HETATM   21  C24 UNL     1      -9.577   6.953  14.060  1.00  0.00     0.096 A 
HETATM   22  C25 UNL     1      -8.473   6.100  13.974  1.00  0.00     0.051 A 
HETATM   23  H7  UNL     1     -11.940   8.348  12.145  1.00  0.00     0.169 HD
HETATM   24  H15 UNL     1     -11.616  10.489  20.629  1.00  0.00     0.170 HD
ENDROOT
BRANCH  15  25
HETATM   25  C14 UNL     1     -10.492  11.836  21.712  1.00  0.00     0.037 A 
HETATM   26  C15 UNL     1     -11.052  11.770  22.989  1.00  0.00     0.029 A 
HETATM   27  C16 UNL     1     -10.360  12.271  24.097  1.00  0.00     0.004 A 
HETATM   28  C17 UNL     1      -9.101  12.844  23.936  1.00  0.00     0.024 A 
HETATM   29  C18 UNL     1      -8.541  12.918  22.664  1.00  0.00     0.036 A 
HETATM   30 CL1  UNL     1      -6.992  13.639  22.455  1.00  0.00    -0.084 Cl
HETATM   31  C19 UNL     1      -9.228  12.421  21.557  1.00  0.00     0.053 A 
ENDBRANCH  15  25
BRANCH   1  32
HETATM   32  C3  UNL     1      -6.981   4.615  12.642  1.00  0.00     0.008 A 
HETATM   33  C2  UNL     1      -5.685   4.927  13.000  1.00  0.00     0.123 A 
HETATM   34  N1  UNL     1      -4.930   3.823  12.729  1.00  0.00    -0.307 N 
HETATM   35  C1  UNL     1      -3.513   3.666  12.945  1.00  0.00     0.177 C 
HETATM   36  N5  UNL     1      -5.634   2.809  12.201  1.00  0.00    -0.310 N 
HETATM   37  C26 UNL     1      -6.880   3.287  12.157  1.00  0.00     0.120 A 
ATOM     38  H5  UNL     1      -5.298   1.893  11.905  1.00  0.00     0.186 HD
ENDBRANCH   1  32
TORSDOF 2
ENDMDL
