MODEL 1
REMARK minimizedAffinity -11.2473249
REMARK CNNscore 0.833694637
REMARK CNNaffinity 7.42401648
REMARK  5 active torsions:
REMARK  status: ('A' for Active; 'I' for Inactive)
REMARK    1  A    between atoms: C2_2  and  C3_3 
REMARK    2  A    between atoms: C6_6  and  C7_7 
REMARK    3  A    between atoms: C7_7  and  O1_9 
REMARK    4  A    between atoms: C14_17  and  O4_18 
REMARK    5  A    between atoms: C23_30  and  O6_31 
ROOT
HETATM    1  C3  UNL     1      -0.182  51.670 -26.689  1.00  0.00     0.008 C 
HETATM    2  C4  UNL     1      -1.499  50.974 -26.454  1.00  0.00    -0.023 C 
HETATM    3  C5  UNL     1      -1.660  49.641 -26.495  1.00  0.00     0.004 C 
HETATM    4  C6  UNL     1      -2.919  48.893 -26.118  1.00  0.00     0.182 C 
HETATM    5  O2  UNL     1      -3.750  49.702 -25.261  1.00  0.00    -0.308 OA
HETATM    6  C9  UNL     1      -3.386  49.733 -23.945  1.00  0.00     0.276 C 
HETATM    7  O3  UNL     1      -2.404  49.158 -23.480  1.00  0.00    -0.264 OA
HETATM    8  C10 UNL     1      -4.453  50.449 -23.066  1.00  0.00     0.095 C 
HETATM    9  C11 UNL     1      -5.236  51.536 -23.820  1.00  0.00     0.036 C 
HETATM   10  C12 UNL     1      -5.407  49.287 -22.806  1.00  0.00     0.002 C 
HETATM   11  C13 UNL     1      -6.031  48.906 -21.690  1.00  0.00     0.053 C 
HETATM   12  C14 UNL     1      -5.959  49.663 -20.455  1.00  0.00     0.140 C 
HETATM   13  N1  UNL     1      -5.156  50.509 -19.960  1.00  0.00    -0.333 N 
ATOM     14  H1  UNL     1      -5.393  50.903 -19.050  1.00  0.00     0.168 HD
HETATM   15  C15 UNL     1      -3.993  50.936 -20.549  1.00  0.00     0.097 C 
HETATM   16  C16 UNL     1      -3.693  51.025 -21.860  1.00  0.00     0.045 C 
HETATM   17  C17 UNL     1      -2.476  51.837 -22.240  1.00  0.00     0.194 C 
HETATM   18  O5  UNL     1      -2.425  52.394 -23.328  1.00  0.00    -0.287 OA
HETATM   19  C18 UNL     1      -1.359  51.986 -21.292  1.00  0.00     0.046 A 
HETATM   20  C19 UNL     1      -1.637  51.755 -19.950  1.00  0.00     0.032 A 
HETATM   21  C20 UNL     1      -0.648  51.908 -18.964  1.00  0.00     0.026 A 
HETATM   22  C21 UNL     1       0.637  52.332 -19.303  1.00  0.00    -0.027 A 
HETATM   23  C22 UNL     1       1.676  52.533 -18.237  1.00  0.00     0.051 C 
HETATM   24  C23 UNL     1       0.898  52.636 -20.641  1.00  0.00     0.086 A 
HETATM   25  C24 UNL     1      -0.075  52.442 -21.649  1.00  0.00     0.059 A 
HETATM   26  C25 UNL     1       0.349  52.833 -23.017  1.00  0.00     0.163 C 
HETATM   27  O7  UNL     1       0.896  53.933 -23.128  1.00  0.00    -0.292 OA
HETATM   28  C26 UNL     1       0.306  51.835 -24.156  1.00  0.00     0.084 C 
HETATM   29  C27 UNL     1       0.129  52.583 -25.486  1.00  0.00     0.016 C 
HETATM   30  C28 UNL     1      -3.002  51.429 -19.521  1.00  0.00     0.210 C 
HETATM   31  O8  UNL     1      -3.291  51.528 -18.331  1.00  0.00    -0.285 OA
ENDROOT
BRANCH   4  32
HETATM   32  C7  UNL     1      -3.720  48.496 -27.383  1.00  0.00     0.147 C 
HETATM   33  C8  UNL     1      -3.730  49.608 -28.428  1.00  0.00     0.042 C 
BRANCH  32  34
HETATM   34  O1  UNL     1      -5.079  48.207 -27.035  1.00  0.00    -0.393 OA
HETATM   35  H14 UNL     1      -5.506  47.829 -27.823  1.00  0.00     0.210 HD
ENDBRANCH  32  34
ENDBRANCH   4  32
BRANCH   1  36
HETATM   36  C2  UNL     1      -0.214  52.503 -27.984  1.00  0.00     0.004 C 
HETATM   37  C1  UNL     1      -0.326  54.002 -27.735  1.00  0.00     0.006 C 
ENDBRANCH   1  36
BRANCH  12  38
HETATM   38  O4  UNL     1      -7.023  49.347 -19.699  1.00  0.00    -0.346 OA
HETATM   39  H20 UNL     1      -6.941  49.857 -18.873  1.00  0.00     0.219 HD
ENDBRANCH  12  38
BRANCH  24  40
HETATM   40  O6  UNL     1       2.138  53.159 -20.924  1.00  0.00    -0.359 OA
HETATM   41  H25 UNL     1       2.062  53.702 -21.740  1.00  0.00     0.217 HD
ENDBRANCH  24  40
TORSDOF 5
ENDMDL
