MODEL 1
REMARK minimizedAffinity -9.03804588
REMARK  12 active torsions:
REMARK  status: ('A' for Active; 'I' for Inactive)
REMARK    1  A    between atoms: C2_2  and  C4_4 
REMARK    2  A    between atoms: C13_13  and  C14_14 
REMARK    3  A    between atoms: C14_14  and  C16_16 
REMARK    4  A    between atoms: C16_16  and  C17_17 
REMARK    5  A    between atoms: C17_17  and  C18_18 
REMARK    6  A    between atoms: C19_19  and  C21_21 
REMARK    7  A    between atoms: C21_21  and  O2_23 
REMARK    8  A    between atoms: C27_29  and  C28_30 
REMARK    9  A    between atoms: C28_30  and  C29_31 
REMARK   10  A    between atoms: C29_31  and  C30_32 
REMARK   11  A    between atoms: C30_32  and  O4_34 
REMARK   12  A    between atoms: O4_34  and  C31_35 
ROOT
HETATM    1  C4  UNL     1      -0.881  51.484 -18.683  1.00  0.00     0.022 C 
HETATM    2  C5  UNL     1      -2.249  51.006 -18.170  1.00  0.00     0.010 C 
HETATM    3  C6  UNL     1      -3.308  51.253 -19.230  1.00  0.00     0.007 C 
HETATM    4  C7  UNL     1      -3.118  50.328 -20.446  1.00  0.00     0.004 C 
HETATM    5  C8  UNL     1      -1.668  50.367 -21.012  1.00  0.00    -0.027 A 
HETATM    6  C9  UNL     1      -1.475  50.315 -22.555  1.00  0.00     0.011 C 
HETATM    7  C10 UNL     1      -2.699  50.178 -23.475  1.00  0.00     0.011 C 
HETATM    8  C11 UNL     1      -3.930  49.629 -22.764  1.00  0.00    -0.032 C 
HETATM    9  C12 UNL     1      -3.654  48.150 -22.397  1.00  0.00     0.016 C 
HETATM   10  C13 UNL     1      -5.267  49.766 -23.559  1.00  0.00    -0.002 C 
HETATM   11  C22 UNL     1      -6.346  49.817 -22.451  1.00  0.00     0.006 C 
HETATM   12  C23 UNL     1      -5.617  50.132 -21.132  1.00  0.00     0.011 C 
HETATM   13  C24 UNL     1      -4.195  50.566 -21.534  1.00  0.00    -0.032 C 
HETATM   14  C25 UNL     1      -4.252  52.090 -21.880  1.00  0.00     0.016 C 
HETATM   15  C26 UNL     1      -0.689  49.444 -20.297  1.00  0.00     0.022 A 
HETATM   16  C27 UNL     1      -0.523  50.926 -20.082  1.00  0.00    -0.024 A 
ENDROOT
BRANCH  10  17
HETATM   17  C14 UNL     1      -5.577  48.839 -24.774  1.00  0.00    -0.014 C 
HETATM   18  C15 UNL     1      -6.601  47.780 -24.322  1.00  0.00     0.010 C 
BRANCH  17  19
HETATM   19  C16 UNL     1      -4.362  48.142 -25.440  1.00  0.00     0.008 C 
BRANCH  19  20
HETATM   20  C17 UNL     1      -3.916  48.794 -26.757  1.00  0.00     0.028 C 
BRANCH  20  21
HETATM   21  C18 UNL     1      -2.474  49.226 -26.693  1.00  0.00    -0.013 C 
HETATM   22  C19 UNL     1      -1.949  50.449 -26.910  1.00  0.00     0.008 C 
HETATM   23  C20 UNL     1      -0.487  50.726 -26.707  1.00  0.00     0.055 C 
BRANCH  22  24
HETATM   24  C21 UNL     1      -2.726  51.635 -27.336  1.00  0.00     0.171 C 
HETATM   25  O1  UNL     1      -2.809  52.682 -26.721  1.00  0.00    -0.646 OA
BRANCH  24  26
HETATM   26  O2  UNL     1      -3.276  51.504 -28.553  1.00  0.00    -0.773 OA
HETATM   27  H32 UNL     1      -3.713  52.366 -28.702  1.00  0.00     0.167 HD
ENDBRANCH  24  26
ENDBRANCH  22  24
ENDBRANCH  20  21
ENDBRANCH  19  20
ENDBRANCH  17  19
ENDBRANCH  10  17
BRANCH  16  28
HETATM   28  C28 UNL     1       0.601  51.743 -20.749  1.00  0.00     0.020 C 
BRANCH  28  29
HETATM   29  C29 UNL     1       0.385  53.243 -20.886  1.00  0.00     0.112 C 
BRANCH  29  30
HETATM   30  C30 UNL     1       1.229  53.823 -21.993  1.00  0.00     0.258 C 
HETATM   31  O3  UNL     1       1.916  54.828 -21.875  1.00  0.00    -0.265 OA
BRANCH  30  32
HETATM   32  O4  UNL     1       1.095  53.090 -23.132  1.00  0.00    -0.322 OA
BRANCH  32  33
HETATM   33  C31 UNL     1      -0.121  53.297 -23.866  1.00  0.00     0.174 C 
HETATM   34  C32 UNL     1       0.163  53.997 -25.182  1.00  0.00     0.034 C 
ENDBRANCH  32  33
ENDBRANCH  30  32
ENDBRANCH  29  30
ENDBRANCH  28  29
ENDBRANCH  16  28
BRANCH   1  35
HETATM   35  C2  UNL     1       0.190  51.281 -17.610  1.00  0.00    -0.088 C 
HETATM   36  C1  UNL     1       1.069  52.254 -17.312  1.00  0.00     0.014 C 
HETATM   37  C3  UNL     1       0.239  49.966 -16.880  1.00  0.00     0.043 C 
ENDBRANCH   1  35
TORSDOF 12
ENDMDL
