MODEL 1
REMARK minimizedAffinity -8.93463707
REMARK CNNscore 0.76451683
REMARK CNNaffinity 7.40646982
REMARK  12 active torsions:
REMARK  status: ('A' for Active; 'I' for Inactive)
REMARK    1  A    between atoms: N1_6  and  O1_8 
REMARK    2  A    between atoms: O1_8  and  C6_9 
REMARK    3  A    between atoms: C6_9  and  C7_10 
REMARK       I    between atoms: C7_10  and  N2_12 
REMARK    4  A    between atoms: N2_12  and  C8_13 
REMARK    5  A    between atoms: C8_13  and  C9_14 
REMARK    6  A    between atoms: C12_17  and  C13_18 
REMARK    7  A    between atoms: C13_18  and  O4_20 
REMARK    8  A    between atoms: C22_29  and  O5_30 
REMARK    9  A    between atoms: C29_37  and  O6_38 
REMARK   10  A    between atoms: C29_37  and  C30_39 
REMARK   11  A    between atoms: C30_39  and  C31_41 
REMARK   12  A    between atoms: C31_41  and  O8_42 
ROOT
HETATM    1  C1  UNL     1      -7.451   6.945  16.654  1.00  0.00     0.020 C 
HETATM    2  C2  UNL     1      -7.562   7.721  15.322  1.00  0.00    -0.014 C 
HETATM    3  C3  UNL     1      -8.275   9.083  15.568  1.00  0.00     0.020 C 
HETATM    4  C4  UNL     1      -9.757   8.948  15.886  1.00  0.00     0.060 C 
HETATM    5  C5  UNL     1     -10.483   8.160  14.816  1.00  0.00     0.032 C 
HETATM    6  N1  UNL     1     -11.744   8.422  14.654  1.00  0.00    -0.271 N 
ATOM      7  H1  UNL     1     -12.249   9.139  15.176  1.00  0.00     0.194 HD
HETATM    8  C16 UNL     1      -9.707   7.109  14.097  1.00  0.00     0.030 C 
HETATM    9  C17 UNL     1      -8.405   6.881  14.349  1.00  0.00    -0.069 C 
HETATM   10  C18 UNL     1      -7.721   5.712  13.673  1.00  0.00     0.035 C 
HETATM   11  C19 UNL     1      -6.362   6.083  13.087  1.00  0.00     0.010 C 
HETATM   12  C20 UNL     1      -5.472   6.721  14.160  1.00  0.00    -0.002 C 
HETATM   13  C21 UNL     1      -6.145   8.013  14.686  1.00  0.00     0.031 C 
HETATM   14  C22 UNL     1      -5.189   8.844  15.580  1.00  0.00     0.124 C 
HETATM   15  C23 UNL     1      -3.869   8.152  15.945  1.00  0.00     0.045 C 
HETATM   16  C24 UNL     1      -3.090   7.402  14.813  1.00  0.00     0.001 C 
HETATM   17  C25 UNL     1      -2.475   6.154  15.495  1.00  0.00     0.019 C 
HETATM   18  C26 UNL     1      -4.034   6.958  13.662  1.00  0.00     0.002 C 
HETATM   19  C27 UNL     1      -3.887   8.002  12.539  1.00  0.00     0.009 C 
HETATM   20  C28 UNL     1      -2.768   8.953  12.949  1.00  0.00     0.047 C 
HETATM   21  C29 UNL     1      -1.996   8.246  14.071  1.00  0.00     0.128 C 
ENDROOT
BRANCH   6  22
HETATM   22  O1  UNL     1     -12.333   7.605  13.676  1.00  0.00    -0.271 OA
BRANCH  22  23
HETATM   23  C6  UNL     1     -12.618   6.339  14.259  1.00  0.00     0.303 C 
BRANCH  23  24
HETATM   24  C7  UNL     1     -14.083   6.000  14.026  1.00  0.00     0.244 C 
HETATM   25  O2  UNL     1     -14.796   6.637  13.253  1.00  0.00    -0.271 OA
HETATM   26  N2  UNL     1     -14.526   4.902  14.735  1.00  0.00    -0.355 N 
HETATM   27  H10 UNL     1     -13.850   4.361  15.259  1.00  0.00     0.162 HD
BRANCH  26  28
HETATM   28  C8  UNL     1     -15.846   4.351  14.540  1.00  0.00     0.161 C 
BRANCH  28  29
HETATM   29  C9  UNL     1     -15.957   2.978  15.155  1.00  0.00    -0.040 A 
HETATM   30  C10 UNL     1     -17.037   2.646  15.985  1.00  0.00     0.010 A 
HETATM   31  C11 UNL     1     -17.114   1.379  16.571  1.00  0.00     0.019 A 
HETATM   32  C12 UNL     1     -16.106   0.432  16.344  1.00  0.00     0.037 A 
HETATM   33  C14 UNL     1     -15.021   0.761  15.523  1.00  0.00     0.019 A 
HETATM   34  C15 UNL     1     -14.949   2.026  14.935  1.00  0.00     0.010 A 
BRANCH  32  35
HETATM   35  C13 UNL     1     -16.229  -0.894  16.994  1.00  0.00     0.176 C 
HETATM   36  O3  UNL     1     -16.453  -1.091  18.175  1.00  0.00    -0.646 OA
BRANCH  35  37
HETATM   37  O4  UNL     1     -16.057  -1.915  16.137  1.00  0.00    -0.773 OA
HETATM   38  H15 UNL     1     -16.157  -2.712  16.699  1.00  0.00     0.167 HD
ENDBRANCH  35  37
ENDBRANCH  32  35
ENDBRANCH  28  29
ENDBRANCH  26  28
ENDBRANCH  23  24
ENDBRANCH  22  23
ENDBRANCH   6  22
BRANCH  14  39
HETATM   39  O5  UNL     1      -4.890  10.079  14.935  1.00  0.00    -0.395 OA
HETATM   40  H26 UNL     1      -5.716  10.588  14.854  1.00  0.00     0.210 HD
ENDBRANCH  14  39
BRANCH  21  41
HETATM   41  O6  UNL     1      -1.434   9.262  14.892  1.00  0.00    -0.381 OA
HETATM   42  H37 UNL     1      -0.916   8.827  15.598  1.00  0.00     0.211 HD
ENDBRANCH  21  41
BRANCH  21  43
HETATM   43  C30 UNL     1      -0.868   7.387  13.408  1.00  0.00     0.184 C 
HETATM   44  O7  UNL     1      -1.107   6.550  12.529  1.00  0.00    -0.292 OA
BRANCH  43  45
HETATM   45  C31 UNL     1       0.564   7.506  13.951  1.00  0.00     0.245 C 
BRANCH  45  46
HETATM   46  O8  UNL     1       0.976   6.546  14.905  1.00  0.00    -0.393 OA
HETATM   47  H40 UNL     1       0.485   6.740  15.727  1.00  0.00     0.209 HD
ENDBRANCH  45  46
ENDBRANCH  43  45
ENDBRANCH  21  43
TORSDOF 12
ENDMDL
