MODEL 1
REMARK minimizedAffinity -7.71718788
REMARK CNNscore 0.530298412
REMARK CNNaffinity 6.60384417
REMARK  6 active torsions:
REMARK  status: ('A' for Active; 'I' for Inactive)
REMARK    1  A    between atoms: C2_2  and  O2_4 
REMARK    2  A    between atoms: O2_4  and  C3_5 
REMARK    3  A    between atoms: C13_15  and  C14_16 
REMARK    4  A    between atoms: C14_16  and  C16_18 
REMARK    5  A    between atoms: C17_19  and  C18_20 
REMARK    6  A    between atoms: C18_20  and  C20_22 
ROOT
HETATM    1  C3  UNL     1      -0.505  52.257 -21.640  1.00  0.00     0.135 C 
HETATM    2  C4  UNL     1      -1.296  52.308 -22.952  1.00  0.00     0.034 C 
HETATM    3  C5  UNL     1      -2.722  51.784 -22.783  1.00  0.00     0.015 C 
HETATM    4  C6  UNL     1      -2.779  50.352 -22.182  1.00  0.00     0.001 C 
HETATM    5  C7  UNL     1      -2.216  49.363 -23.237  1.00  0.00     0.019 C 
HETATM    6  C8  UNL     1      -4.271  50.011 -21.766  1.00  0.00     0.039 C 
HETATM    7  C9  UNL     1      -5.069  49.131 -22.757  1.00  0.00     0.010 C 
HETATM    8  C10 UNL     1      -6.481  48.777 -22.250  1.00  0.00     0.010 C 
HETATM    9  C11 UNL     1      -6.438  48.119 -20.858  1.00  0.00    -0.033 C 
HETATM   10  C12 UNL     1      -5.772  46.734 -20.970  1.00  0.00     0.016 C 
HETATM   11  C13 UNL     1      -7.816  48.061 -20.129  1.00  0.00     0.001 C 
HETATM   12  C23 UNL     1      -7.428  47.966 -18.628  1.00  0.00     0.006 C 
HETATM   13  C24 UNL     1      -6.011  48.560 -18.507  1.00  0.00     0.009 C 
HETATM   14  C25 UNL     1      -5.716  49.102 -19.905  1.00  0.00     0.036 C 
HETATM   15  C26 UNL     1      -4.282  49.482 -20.289  1.00  0.00     0.123 C 
HETATM   16  C27 UNL     1      -3.199  48.468 -20.017  1.00  0.00     0.014 C 
HETATM   17  C28 UNL     1      -1.963  48.916 -20.278  1.00  0.00     0.014 C 
HETATM   18  C29 UNL     1      -1.938  50.313 -20.859  1.00  0.00     0.124 C 
HETATM   19  C30 UNL     1      -0.516  50.846 -21.036  1.00  0.00     0.079 C 
HETATM   20  O3  UNL     1      -2.604  51.191 -19.910  1.00  0.00    -0.223 OA
HETATM   21  O4  UNL     1      -3.906  50.617 -19.458  1.00  0.00    -0.224 OA
ENDROOT
BRANCH  11  22
HETATM   22  C14 UNL     1      -8.904  47.061 -20.607  1.00  0.00     0.008 C 
HETATM   23  C15 UNL     1      -9.173  47.273 -22.109  1.00  0.00     0.014 C 
BRANCH  22  24
HETATM   24  C16 UNL     1     -10.183  47.038 -19.794  1.00  0.00    -0.026 C 
HETATM   25  C17 UNL     1     -11.126  47.995 -19.730  1.00  0.00    -0.026 C 
BRANCH  25  26
HETATM   26  C18 UNL     1     -12.384  47.877 -18.892  1.00  0.00     0.007 C 
HETATM   27  C19 UNL     1     -12.550  46.425 -18.438  1.00  0.00     0.014 C 
BRANCH  26  28
HETATM   28  C20 UNL     1     -13.617  48.457 -19.641  1.00  0.00    -0.015 C 
HETATM   29  C21 UNL     1     -13.959  47.734 -20.949  1.00  0.00     0.010 C 
HETATM   30  C22 UNL     1     -14.856  48.486 -18.737  1.00  0.00     0.010 C 
ENDBRANCH  26  28
ENDBRANCH  25  26
ENDBRANCH  22  24
ENDBRANCH  11  22
BRANCH   1  31
HETATM   31  O2  UNL     1       0.874  52.599 -21.883  1.00  0.00    -0.316 OA
BRANCH  31  32
HETATM   32  C2  UNL     1       1.327  53.736 -21.287  1.00  0.00     0.255 C 
HETATM   33  C1  UNL     1       1.154  53.636 -19.803  1.00  0.00     0.126 C 
HETATM   34  O1  UNL     1       1.784  54.712 -21.862  1.00  0.00    -0.266 OA
ENDBRANCH  31  32
ENDBRANCH   1  31
TORSDOF 6
ENDMDL
