MODEL 1
REMARK minimizedAffinity -7.60094738
REMARK CNNscore 0.556267619
REMARK CNNaffinity 7.31449747
REMARK  11 active torsions:
REMARK  status: ('A' for Active; 'I' for Inactive)
REMARK    1  A    between atoms: C2_2  and  C4_4 
REMARK    2  A    between atoms: C5_5  and  C6_6 
REMARK    3  A    between atoms: C6_6  and  C7_7 
REMARK    4  A    between atoms: C7_7  and  C9_9 
REMARK    5  A    between atoms: C27_28  and  O2_29 
REMARK    6  A    between atoms: O2_29  and  C28_30 
REMARK    7  A    between atoms: C29_32  and  C30_33 
REMARK    8  A    between atoms: C30_33  and  O4_34 
REMARK    9  A    between atoms: C31_35  and  O5_36 
REMARK   10  A    between atoms: C32_37  and  O6_38 
REMARK   11  A    between atoms: C33_39  and  O7_40 
ROOT
HETATM    1  C9  UNL     1       6.290  54.702  -5.282  1.00  0.00    -0.002 C 
HETATM    2  C10 UNL     1       5.739  56.034  -4.676  1.00  0.00     0.006 C 
HETATM    3  C11 UNL     1       4.649  56.566  -5.627  1.00  0.00     0.011 C 
HETATM    4  C12 UNL     1       4.324  55.376  -6.545  1.00  0.00    -0.029 C 
HETATM    5  C13 UNL     1       3.355  54.455  -5.732  1.00  0.00     0.016 C 
HETATM    6  C14 UNL     1       3.696  55.756  -7.926  1.00  0.00     0.028 C 
HETATM    7  C15 UNL     1       2.348  56.451  -7.808  1.00  0.00    -0.021 C 
HETATM    8  C16 UNL     1       1.283  56.068  -8.534  1.00  0.00     0.008 C 
HETATM    9  C17 UNL     1       1.371  54.901  -9.508  1.00  0.00     0.092 C 
HETATM   10  O1  UNL     1       2.165  55.428 -10.598  1.00  0.00    -0.374 OA
HETATM   11  C18 UNL     1       3.531  55.054 -10.374  1.00  0.00     0.179 C 
HETATM   12  C19 UNL     1       3.656  54.519  -8.928  1.00  0.00    -0.004 C 
HETATM   13  C20 UNL     1       4.918  53.614  -8.860  1.00  0.00     0.014 C 
HETATM   14  C21 UNL     1       5.588  53.419  -7.489  1.00  0.00     0.011 C 
HETATM   15  C22 UNL     1       5.762  54.759  -6.752  1.00  0.00    -0.032 C 
HETATM   16  C23 UNL     1       6.722  55.658  -7.595  1.00  0.00     0.016 C 
HETATM   17  C24 UNL     1       2.272  53.833  -8.815  1.00  0.00     0.036 C 
HETATM   18  C25 UNL     1       2.124  52.443  -9.424  1.00  0.00     0.011 C 
HETATM   19  C26 UNL     1       0.674  51.948  -9.339  1.00  0.00     0.033 C 
HETATM   20  C27 UNL     1      -0.371  53.071  -9.220  1.00  0.00     0.136 C 
HETATM   21  C34 UNL     1       0.013  54.317 -10.070  1.00  0.00     0.014 C 
HETATM   22  C35 UNL     1      -1.153  55.341 -10.021  1.00  0.00     0.021 C 
HETATM   23  C36 UNL     1       0.132  53.935 -11.571  1.00  0.00     0.021 C 
ENDROOT
BRANCH  20  24
HETATM   24  O2  UNL     1      -1.663  52.600  -9.619  1.00  0.00    -0.352 OA
BRANCH  24  25
HETATM   25  C28 UNL     1      -1.669  51.346 -10.289  1.00  0.00     0.292 C 
HETATM   26  O3  UNL     1      -2.041  51.464 -11.662  1.00  0.00    -0.348 OA
HETATM   27  C29 UNL     1      -3.433  51.705 -11.954  1.00  0.00     0.179 C 
HETATM   28  C31 UNL     1      -4.397  50.795 -11.182  1.00  0.00     0.180 C 
HETATM   29  C32 UNL     1      -4.041  50.686  -9.698  1.00  0.00     0.183 C 
HETATM   30  C33 UNL     1      -2.557  50.352  -9.516  1.00  0.00     0.204 C 
BRANCH  27  31
HETATM   31  C30 UNL     1      -3.828  53.193 -11.878  1.00  0.00     0.198 C 
BRANCH  31  32
HETATM   32  O4  UNL     1      -4.266  53.711 -13.131  1.00  0.00    -0.398 OA
HETATM   33  H44 UNL     1      -4.386  54.673 -13.017  1.00  0.00     0.209 HD
ENDBRANCH  31  32
ENDBRANCH  27  31
BRANCH  28  34
HETATM   34  O5  UNL     1      -4.343  49.461 -11.747  1.00  0.00    -0.390 OA
HETATM   35  H46 UNL     1      -4.907  48.937 -11.134  1.00  0.00     0.210 HD
ENDBRANCH  28  34
BRANCH  29  36
HETATM   36  O6  UNL     1      -4.863  49.640  -9.129  1.00  0.00    -0.390 OA
HETATM   37  H48 UNL     1      -4.249  48.965  -8.771  1.00  0.00     0.210 HD
ENDBRANCH  29  36
BRANCH  30  38
HETATM   38  O7  UNL     1      -2.326  48.992  -9.941  1.00  0.00    -0.388 OA
HETATM   39  H50 UNL     1      -2.587  48.956 -10.887  1.00  0.00     0.210 HD
ENDBRANCH  30  38
ENDBRANCH  24  25
ENDBRANCH  20  24
BRANCH   1  40
HETATM   40  C7  UNL     1       7.820  54.538  -5.011  1.00  0.00    -0.010 C 
HETATM   41  C8  UNL     1       8.250  53.073  -4.888  1.00  0.00     0.010 C 
BRANCH  40  42
HETATM   42  C6  UNL     1       8.307  55.335  -3.768  1.00  0.00     0.031 C 
BRANCH  42  43
HETATM   43  C5  UNL     1       9.328  56.408  -4.054  1.00  0.00    -0.026 C 
HETATM   44  C4  UNL     1       8.996  57.622  -4.526  1.00  0.00     0.002 C 
BRANCH  44  45
HETATM   45  C2  UNL     1       9.917  58.709  -4.831  1.00  0.00    -0.072 C 
HETATM   46  C1  UNL     1       9.436  59.879  -5.292  1.00  0.00     0.018 C 
HETATM   47  C3  UNL     1      11.398  58.508  -4.640  1.00  0.00     0.047 C 
ENDBRANCH  44  45
ENDBRANCH  42  43
ENDBRANCH  40  42
ENDBRANCH   1  40
TORSDOF 11
ENDMDL
