MODEL 1
REMARK minimizedAffinity -8.10428333
REMARK CNNscore 0.350201756
REMARK CNNaffinity 5.58472443
REMARK  9 active torsions:
REMARK  status: ('A' for Active; 'I' for Inactive)
REMARK    1  A    between atoms: C3_3  and  O1_4 
REMARK    2  A    between atoms: N1_14  and  O2_16 
REMARK    3  A    between atoms: O2_16  and  C13_17 
REMARK    4  A    between atoms: C13_17  and  C14_18 
REMARK       I    between atoms: C14_18  and  N2_20 
REMARK    5  A    between atoms: N2_20  and  C15_21 
REMARK    6  A    between atoms: C15_21  and  C16_22 
REMARK    7  A    between atoms: C15_21  and  C18_26 
REMARK    8  A    between atoms: C16_22  and  C17_23 
REMARK    9  A    between atoms: C17_23  and  O5_25 
ROOT
HETATM    1  C1  UNL     1      -5.503  47.185 -33.230  1.00  0.00     0.015 C 
HETATM    2  C2  UNL     1      -5.763  47.593 -32.129  1.00  0.00    -0.078 C 
HETATM    3  C3  UNL     1      -6.093  48.117 -30.794  1.00  0.00     0.128 C 
HETATM    4  C4  UNL     1      -5.516  47.258 -29.661  1.00  0.00     0.052 C 
HETATM    5  C5  UNL     1      -6.486  47.415 -28.479  1.00  0.00     0.010 C 
HETATM    6  C6  UNL     1      -7.611  48.353 -28.956  1.00  0.00     0.002 C 
HETATM    7  C7  UNL     1      -8.987  48.153 -28.287  1.00  0.00    -0.004 C 
HETATM    8  C8  UNL     1      -8.880  48.252 -26.759  1.00  0.00     0.010 C 
HETATM    9  C9  UNL     1     -10.258  48.205 -26.117  1.00  0.00     0.035 C 
HETATM   10  C10 UNL     1     -11.025  46.965 -26.509  1.00  0.00    -0.069 C 
HETATM   11  C11 UNL     1     -11.646  46.247 -25.558  1.00  0.00     0.030 C 
HETATM   12  C12 UNL     1     -12.526  45.096 -25.881  1.00  0.00     0.032 C 
HETATM   13  N1  UNL     1     -13.162  44.527 -24.897  1.00  0.00    -0.271 N 
ATOM     14  H1  UNL     1     -13.103  44.829 -23.925  1.00  0.00     0.194 HD
HETATM   15  C25 UNL     1     -12.694  44.712 -27.337  1.00  0.00     0.060 C 
HETATM   16  C26 UNL     1     -11.498  45.138 -28.174  1.00  0.00     0.020 C 
HETATM   17  C27 UNL     1     -11.093  46.631 -28.002  1.00  0.00    -0.016 C 
HETATM   18  C28 UNL     1     -12.178  47.534 -28.631  1.00  0.00     0.020 C 
HETATM   19  C29 UNL     1      -9.684  46.833 -28.694  1.00  0.00     0.002 C 
HETATM   20  C30 UNL     1      -9.736  46.721 -30.232  1.00  0.00     0.007 C 
HETATM   21  C31 UNL     1      -8.355  46.862 -30.875  1.00  0.00     0.014 C 
HETATM   22  C32 UNL     1      -7.622  48.174 -30.493  1.00  0.00     0.003 C 
HETATM   23  C33 UNL     1      -8.299  49.374 -31.184  1.00  0.00     0.020 C 
ENDROOT
BRANCH   3  24
HETATM   24  O1  UNL     1      -5.522  49.424 -30.672  1.00  0.00    -0.377 OA
HETATM   25  H2  UNL     1      -4.606  49.362 -30.990  1.00  0.00     0.211 HD
ENDBRANCH   3  24
BRANCH  13  26
HETATM   26  O2  UNL     1     -13.939  43.445 -25.340  1.00  0.00    -0.271 OA
BRANCH  26  27
HETATM   27  C13 UNL     1     -14.758  42.987 -24.274  1.00  0.00     0.303 C 
BRANCH  27  28
HETATM   28  C14 UNL     1     -15.776  44.039 -23.834  1.00  0.00     0.244 C 
HETATM   29  O3  UNL     1     -15.482  45.092 -23.277  1.00  0.00    -0.271 OA
HETATM   30  N2  UNL     1     -17.087  43.694 -24.139  1.00  0.00    -0.354 N 
HETATM   31  H16 UNL     1     -17.263  42.701 -24.247  1.00  0.00     0.162 HD
BRANCH  30  32
HETATM   32  C15 UNL     1     -18.206  44.509 -23.671  1.00  0.00     0.098 C 
BRANCH  32  33
HETATM   33  C16 UNL     1     -18.268  45.888 -24.350  1.00  0.00     0.135 C 
BRANCH  33  34
HETATM   34  C17 UNL     1     -19.373  46.102 -25.343  1.00  0.00     0.141 C 
HETATM   35  O4  UNL     1     -20.432  46.663 -25.113  1.00  0.00    -0.650 OA
BRANCH  34  36
HETATM   36  O5  UNL     1     -19.150  45.565 -26.554  1.00  0.00    -0.776 OA
HETATM   37  H20 UNL     1     -19.998  45.711 -27.027  1.00  0.00     0.167 HD
ENDBRANCH  34  36
ENDBRANCH  33  34
ENDBRANCH  32  33
BRANCH  32  38
HETATM   38  C18 UNL     1     -18.311  44.553 -22.118  1.00  0.00     0.014 C 
HETATM   39  C19 UNL     1     -19.417  43.682 -21.507  1.00  0.00     0.033 C 
HETATM   40  C20 UNL     1     -19.480  43.850 -19.993  1.00  0.00     0.169 C 
HETATM   41  O6  UNL     1     -19.650  45.214 -19.627  1.00  0.00    -0.381 OA
HETATM   42  C21 UNL     1     -18.629  46.105 -20.094  1.00  0.00     0.054 C 
HETATM   43  C22 UNL     1     -19.101  47.517 -19.718  1.00  0.00     0.045 C 
HETATM   44  C23 UNL     1     -17.298  45.840 -19.374  1.00  0.00     0.045 C 
HETATM   45  C24 UNL     1     -18.496  46.005 -21.625  1.00  0.00     0.044 C 
ENDBRANCH  32  38
ENDBRANCH  30  32
ENDBRANCH  27  28
ENDBRANCH  26  27
ENDBRANCH  13  26
TORSDOF 9
ENDMDL
