MODEL 1
REMARK minimizedAffinity -10.4569216
REMARK CNNscore 0.557901025
REMARK CNNaffinity 7.4426713
REMARK  6 active torsions:
REMARK  status: ('A' for Active; 'I' for Inactive)
REMARK    1  A    between atoms: C3_3  and  O1_4 
REMARK    2  A    between atoms: N1_14  and  O2_16 
REMARK    3  A    between atoms: O2_16  and  C13_17 
REMARK    4  A    between atoms: C13_17  and  C14_18 
REMARK       I    between atoms: C14_18  and  N2_20 
REMARK    5  A    between atoms: N2_20  and  C15_21 
REMARK    6  A    between atoms: C15_21  and  C17_23 
ROOT
HETATM    1  C1  UNL     1       0.056   8.468   8.696  1.00  0.00     0.015 C 
HETATM    2  C2  UNL     1       0.476   8.008   9.723  1.00  0.00    -0.078 C 
HETATM    3  C3  UNL     1       1.012   7.444  10.981  1.00  0.00     0.128 C 
HETATM    4  C4  UNL     1       1.493   5.987  10.735  1.00  0.00     0.052 C 
HETATM    5  C5  UNL     1       0.365   5.059  11.234  1.00  0.00     0.010 C 
HETATM    6  C6  UNL     1      -0.781   5.997  11.604  1.00  0.00     0.002 C 
HETATM    7  C7  UNL     1      -1.856   5.494  12.576  1.00  0.00    -0.004 C 
HETATM    8  C8  UNL     1      -2.536   4.225  12.046  1.00  0.00     0.010 C 
HETATM    9  C9  UNL     1      -3.620   3.740  12.998  1.00  0.00     0.035 C 
HETATM   10  C10 UNL     1      -4.638   4.816  13.301  1.00  0.00    -0.069 C 
HETATM   11  C11 UNL     1      -5.948   4.538  13.190  1.00  0.00     0.030 C 
HETATM   12  C12 UNL     1      -6.997   5.504  13.606  1.00  0.00     0.032 C 
HETATM   13  N1  UNL     1      -8.242   5.158  13.439  1.00  0.00    -0.271 N 
ATOM     14  H1  UNL     1      -8.541   4.290  12.997  1.00  0.00     0.194 HD
HETATM   15  C23 UNL     1      -6.544   6.793  14.260  1.00  0.00     0.060 C 
HETATM   16  C24 UNL     1      -5.214   7.249  13.678  1.00  0.00     0.020 C 
HETATM   17  C25 UNL     1      -4.089   6.175  13.752  1.00  0.00    -0.016 C 
HETATM   18  C26 UNL     1      -3.617   6.045  15.218  1.00  0.00     0.020 C 
HETATM   19  C27 UNL     1      -2.919   6.617  12.790  1.00  0.00     0.002 C 
HETATM   20  C28 UNL     1      -2.265   7.972  13.178  1.00  0.00     0.007 C 
HETATM   21  C29 UNL     1      -1.114   8.386  12.244  1.00  0.00     0.014 C 
HETATM   22  C30 UNL     1      -0.063   7.270  12.101  1.00  0.00     0.003 C 
HETATM   23  C31 UNL     1       0.643   7.085  13.477  1.00  0.00     0.020 C 
ENDROOT
BRANCH   3  24
HETATM   24  O1  UNL     1       2.084   8.282  11.388  1.00  0.00    -0.377 OA
HETATM   25  H2  UNL     1       2.662   7.779  11.982  1.00  0.00     0.211 HD
ENDBRANCH   3  24
BRANCH  13  26
HETATM   26  O2  UNL     1      -9.118   6.128  13.944  1.00  0.00    -0.271 OA
BRANCH  26  27
HETATM   27  C13 UNL     1      -9.973   6.572  12.893  1.00  0.00     0.303 C 
BRANCH  27  28
HETATM   28  C14 UNL     1     -11.202   7.271  13.466  1.00  0.00     0.244 C 
HETATM   29  O3  UNL     1     -11.467   8.443  13.216  1.00  0.00    -0.271 OA
HETATM   30  N2  UNL     1     -12.004   6.464  14.242  1.00  0.00    -0.351 N 
HETATM   31  H16 UNL     1     -11.627   5.560  14.506  1.00  0.00     0.163 HD
BRANCH  30  32
HETATM   32  C15 UNL     1     -13.184   6.953  14.931  1.00  0.00     0.113 C 
HETATM   33  C16 UNL     1     -13.061   8.442  15.271  1.00  0.00     0.037 C 
BRANCH  32  34
HETATM   34  C17 UNL     1     -14.417   6.656  14.094  1.00  0.00    -0.036 A 
HETATM   35  C18 UNL     1     -15.362   5.723  14.548  1.00  0.00     0.009 A 
HETATM   36  C19 UNL     1     -16.487   5.418  13.781  1.00  0.00     0.001 A 
HETATM   37  C20 UNL     1     -16.681   6.035  12.548  1.00  0.00     0.000 A 
HETATM   38  C21 UNL     1     -15.748   6.956  12.078  1.00  0.00     0.001 A 
HETATM   39  C22 UNL     1     -14.621   7.263  12.843  1.00  0.00     0.009 A 
ENDBRANCH  32  34
ENDBRANCH  30  32
ENDBRANCH  27  28
ENDBRANCH  26  27
ENDBRANCH  13  26
TORSDOF 6
ENDMDL
