MODEL 1
REMARK minimizedAffinity -8.07888699
REMARK CNNscore 0.341472179
REMARK CNNaffinity 6.247715
REMARK  14 active torsions:
REMARK  status: ('A' for Active; 'I' for Inactive)
REMARK    1  A    between atoms: C2_2  and  O2_4 
REMARK    2  A    between atoms: O2_4  and  C3_5 
REMARK    3  A    between atoms: C3_5  and  C4_6 
REMARK    4  A    between atoms: C4_6  and  C5_8 
REMARK    5  A    between atoms: C5_8  and  O4_9 
REMARK    6  A    between atoms: O4_9  and  C6_10 
REMARK    7  A    between atoms: C6_10  and  C7_12 
REMARK    8  A    between atoms: C7_12  and  C8_13 
REMARK    9  A    between atoms: C8_13  and  C9_14 
REMARK       I    between atoms: C9_14  and  N1_16 
REMARK   10  A    between atoms: N1_16  and  C10_17 
REMARK   11  A    between atoms: C10_17  and  C11_18 
REMARK   12  A    between atoms: C10_17  and  C18_25 
REMARK   13  A    between atoms: C11_18  and  C12_19 
REMARK   14  A    between atoms: C18_25  and  O8_27 
ROOT
HETATM    1  C3  UNL     1      -7.235  47.265 -22.754  1.00  0.00     0.140 C 
HETATM    2  C19 UNL     1      -7.564  46.641 -24.164  1.00  0.00     0.048 C 
HETATM    3  C20 UNL     1      -6.654  47.342 -25.204  1.00  0.00     0.009 C 
HETATM    4  C21 UNL     1      -5.712  48.155 -24.337  1.00  0.00     0.002 C 
HETATM    5  C22 UNL     1      -4.830  49.284 -24.862  1.00  0.00    -0.004 C 
HETATM    6  C23 UNL     1      -4.276  49.115 -26.283  1.00  0.00     0.010 C 
HETATM    7  C24 UNL     1      -2.752  49.101 -26.373  1.00  0.00     0.035 C 
HETATM    8  C25 UNL     1      -2.048  50.145 -25.532  1.00  0.00    -0.068 C 
HETATM    9  C26 UNL     1      -0.825  50.562 -25.905  1.00  0.00     0.053 C 
HETATM   10  C27 UNL     1       0.003  51.424 -25.030  1.00  0.00     0.149 C 
HETATM   11  O9  UNL     1       1.030  51.925 -25.483  1.00  0.00    -0.293 OA
HETATM   12  C28 UNL     1      -0.441  51.660 -23.606  1.00  0.00     0.084 C 
HETATM   13  C29 UNL     1      -1.554  50.710 -23.162  1.00  0.00     0.022 C 
HETATM   14  C30 UNL     1      -2.693  50.572 -24.207  1.00  0.00    -0.016 C 
HETATM   15  C31 UNL     1      -3.403  51.933 -24.390  1.00  0.00     0.020 C 
HETATM   16  C32 UNL     1      -3.714  49.463 -23.790  1.00  0.00     0.002 C 
HETATM   17  C33 UNL     1      -4.282  49.523 -22.341  1.00  0.00     0.007 C 
HETATM   18  C34 UNL     1      -5.812  49.486 -22.171  1.00  0.00     0.013 C 
HETATM   19  C35 UNL     1      -6.633  48.656 -23.186  1.00  0.00    -0.001 C 
HETATM   20  C36 UNL     1      -7.766  49.603 -23.713  1.00  0.00     0.019 C 
ENDROOT
BRANCH   1  21
HETATM   21  O2  UNL     1      -6.198  46.396 -22.221  1.00  0.00    -0.301 OA
BRANCH  21  22
HETATM   22  C2  UNL     1      -5.756  46.539 -20.946  1.00  0.00     0.256 C 
HETATM   23  C1  UNL     1      -4.279  46.298 -20.890  1.00  0.00     0.126 C 
HETATM   24  O1  UNL     1      -6.451  46.801 -19.979  1.00  0.00    -0.266 OA
ENDBRANCH  21  22
ENDBRANCH   1  21
BRANCH   1  25
HETATM   25  C4  UNL     1      -8.535  47.276 -21.895  1.00  0.00     0.186 C 
HETATM   26  O3  UNL     1      -8.722  48.083 -20.985  1.00  0.00    -0.292 OA
BRANCH  25  27
HETATM   27  C5  UNL     1      -9.584  46.221 -22.254  1.00  0.00     0.260 C 
BRANCH  27  28
HETATM   28  O4  UNL     1     -10.875  46.613 -21.789  1.00  0.00    -0.314 OA
BRANCH  28  29
HETATM   29  C6  UNL     1     -11.826  46.639 -22.755  1.00  0.00     0.259 C 
HETATM   30  O5  UNL     1     -11.608  46.452 -23.946  1.00  0.00    -0.265 OA
BRANCH  29  31
HETATM   31  C7  UNL     1     -13.200  46.862 -22.178  1.00  0.00     0.120 C 
BRANCH  31  32
HETATM   32  C8  UNL     1     -14.245  45.921 -22.766  1.00  0.00     0.112 C 
BRANCH  32  33
HETATM   33  C9  UNL     1     -15.207  46.650 -23.676  1.00  0.00     0.218 C 
HETATM   34  O6  UNL     1     -15.119  47.843 -23.946  1.00  0.00    -0.274 OA
HETATM   35  N1  UNL     1     -16.207  45.846 -24.161  1.00  0.00    -0.346 N 
HETATM   36  H10 UNL     1     -16.225  44.854 -23.938  1.00  0.00     0.163 HD
BRANCH  35  37
HETATM   37  C10 UNL     1     -17.257  46.351 -25.049  1.00  0.00     0.186 C 
BRANCH  37  38
HETATM   38  C11 UNL     1     -18.485  46.883 -24.291  1.00  0.00     0.074 C 
BRANCH  38  39
HETATM   39  C12 UNL     1     -18.868  46.081 -23.065  1.00  0.00    -0.056 A 
HETATM   40  C13 UNL     1     -18.483  46.509 -21.787  1.00  0.00     0.007 A 
HETATM   41  C14 UNL     1     -18.815  45.757 -20.659  1.00  0.00     0.001 A 
HETATM   42  C15 UNL     1     -19.534  44.572 -20.799  1.00  0.00     0.000 A 
HETATM   43  C16 UNL     1     -19.929  44.140 -22.064  1.00  0.00     0.001 A 
HETATM   44  C17 UNL     1     -19.600  44.892 -23.192  1.00  0.00     0.007 A 
ENDBRANCH  38  39
ENDBRANCH  37  38
BRANCH  37  45
HETATM   45  C18 UNL     1     -17.629  45.248 -26.037  1.00  0.00     0.163 C 
HETATM   46  O7  UNL     1     -17.166  44.114 -26.065  1.00  0.00    -0.648 OA
BRANCH  45  47
HETATM   47  O8  UNL     1     -18.533  45.631 -26.963  1.00  0.00    -0.775 OA
HETATM   48  H19 UNL     1     -18.637  44.836 -27.526  1.00  0.00     0.167 HD
ENDBRANCH  45  47
ENDBRANCH  37  45
ENDBRANCH  35  37
ENDBRANCH  32  33
ENDBRANCH  31  32
ENDBRANCH  29  31
ENDBRANCH  28  29
ENDBRANCH  27  28
ENDBRANCH  25  27
ENDBRANCH   1  25
TORSDOF 14
ENDMDL
