MODEL 1
REMARK minimizedAffinity -9.58527088
REMARK CNNscore 0.655089796
REMARK CNNaffinity 7.65104818
REMARK  14 active torsions:
REMARK  status: ('A' for Active; 'I' for Inactive)
REMARK    1  A    between atoms: C2_2  and  O2_4 
REMARK    2  A    between atoms: O2_4  and  C3_5 
REMARK    3  A    between atoms: C3_5  and  C4_6 
REMARK    4  A    between atoms: C4_6  and  C5_8 
REMARK    5  A    between atoms: C5_8  and  O4_9 
REMARK    6  A    between atoms: O4_9  and  C6_10 
REMARK    7  A    between atoms: C6_10  and  C7_12 
REMARK    8  A    between atoms: C7_12  and  C8_13 
REMARK    9  A    between atoms: C8_13  and  C9_14 
REMARK       I    between atoms: C9_14  and  N1_16 
REMARK   10  A    between atoms: N1_16  and  C10_17 
REMARK   11  A    between atoms: C10_17  and  C11_18 
REMARK   12  A    between atoms: C10_17  and  C18_25 
REMARK   13  A    between atoms: C11_18  and  C12_19 
REMARK   14  A    between atoms: C18_25  and  O8_27 
ROOT
HETATM    1  C3  UNL     1      -0.714   8.658  13.417  1.00  0.00     0.140 C 
HETATM    2  C19 UNL     1       0.334   7.484  13.251  1.00  0.00     0.048 C 
HETATM    3  C20 UNL     1      -0.436   6.149  13.397  1.00  0.00     0.009 C 
HETATM    4  C21 UNL     1      -1.882   6.602  13.353  1.00  0.00     0.002 C 
HETATM    5  C22 UNL     1      -3.070   5.724  13.745  1.00  0.00    -0.004 C 
HETATM    6  C23 UNL     1      -2.949   4.225  13.451  1.00  0.00     0.010 C 
HETATM    7  C24 UNL     1      -4.092   3.650  12.615  1.00  0.00     0.035 C 
HETATM    8  C25 UNL     1      -5.477   4.168  12.944  1.00  0.00    -0.068 C 
HETATM    9  C26 UNL     1      -6.542   3.398  12.656  1.00  0.00     0.053 C 
HETATM   10  C27 UNL     1      -7.925   3.919  12.749  1.00  0.00     0.149 C 
HETATM   11  O9  UNL     1      -8.867   3.133  12.671  1.00  0.00    -0.293 OA
HETATM   12  C28 UNL     1      -8.139   5.403  12.927  1.00  0.00     0.084 C 
HETATM   13  C29 UNL     1      -6.861   6.220  12.726  1.00  0.00     0.022 C 
HETATM   14  C30 UNL     1      -5.625   5.612  13.441  1.00  0.00    -0.016 C 
HETATM   15  C31 UNL     1      -5.857   5.616  14.971  1.00  0.00     0.020 C 
HETATM   16  C32 UNL     1      -4.315   6.382  13.073  1.00  0.00     0.002 C 
HETATM   17  C33 UNL     1      -4.319   7.930  13.243  1.00  0.00     0.007 C 
HETATM   18  C34 UNL     1      -3.296   8.515  14.229  1.00  0.00     0.013 C 
HETATM   19  C35 UNL     1      -1.863   7.922  14.191  1.00  0.00    -0.001 C 
HETATM   20  C36 UNL     1      -1.447   7.649  15.675  1.00  0.00     0.019 C 
ENDROOT
BRANCH   1  21
HETATM   21  O2  UNL     1      -1.125   8.957  12.045  1.00  0.00    -0.301 OA
BRANCH  21  22
HETATM   22  C2  UNL     1      -0.238   8.828  11.026  1.00  0.00     0.256 C 
HETATM   23  C1  UNL     1      -0.962   8.700   9.722  1.00  0.00     0.126 C 
HETATM   24  O1  UNL     1       0.978   8.857  11.140  1.00  0.00    -0.266 OA
ENDBRANCH  21  22
ENDBRANCH   1  21
BRANCH   1  25
HETATM   25  C4  UNL     1       0.071   9.871  13.984  1.00  0.00     0.186 C 
HETATM   26  O3  UNL     1      -0.534  10.929  14.215  1.00  0.00    -0.292 OA
BRANCH  25  27
HETATM   27  C5  UNL     1       1.548   9.727  14.331  1.00  0.00     0.260 C 
BRANCH  27  28
HETATM   28  O4  UNL     1       1.746   8.844  15.442  1.00  0.00    -0.314 OA
BRANCH  28  29
HETATM   29  C6  UNL     1       2.769   9.192  16.269  1.00  0.00     0.259 C 
HETATM   30  O5  UNL     1       2.709   9.188  17.491  1.00  0.00    -0.265 OA
BRANCH  29  31
HETATM   31  C7  UNL     1       4.011   9.523  15.478  1.00  0.00     0.120 C 
BRANCH  31  32
HETATM   32  C8  UNL     1       4.777   8.281  15.035  1.00  0.00     0.112 C 
BRANCH  32  33
HETATM   33  C9  UNL     1       5.069   8.297  13.549  1.00  0.00     0.218 C 
HETATM   34  O6  UNL     1       5.381   9.309  12.932  1.00  0.00    -0.274 OA
HETATM   35  N1  UNL     1       4.988   7.062  12.962  1.00  0.00    -0.346 N 
HETATM   36  H10 UNL     1       4.666   6.256  13.488  1.00  0.00     0.163 HD
BRANCH  35  37
HETATM   37  C10 UNL     1       5.236   6.853  11.533  1.00  0.00     0.186 C 
BRANCH  37  38
HETATM   38  C11 UNL     1       4.699   8.004  10.664  1.00  0.00     0.074 C 
BRANCH  38  39
HETATM   39  C12 UNL     1       3.806   7.557   9.524  1.00  0.00    -0.056 A 
HETATM   40  C13 UNL     1       3.308   8.492   8.606  1.00  0.00     0.007 A 
HETATM   41  C14 UNL     1       2.509   8.080   7.538  1.00  0.00     0.001 A 
HETATM   42  C15 UNL     1       2.199   6.730   7.378  1.00  0.00     0.000 A 
HETATM   43  C16 UNL     1       2.684   5.792   8.288  1.00  0.00     0.001 A 
HETATM   44  C17 UNL     1       3.479   6.203   9.360  1.00  0.00     0.007 A 
ENDBRANCH  38  39
ENDBRANCH  37  38
BRANCH  37  45
HETATM   45  C18 UNL     1       6.723   6.616  11.261  1.00  0.00     0.163 C 
HETATM   46  O7  UNL     1       7.656   7.209  11.779  1.00  0.00    -0.648 OA
BRANCH  45  47
HETATM   47  O8  UNL     1       6.964   5.637  10.356  1.00  0.00    -0.775 OA
HETATM   48  H19 UNL     1       7.942   5.598  10.311  1.00  0.00     0.167 HD
ENDBRANCH  45  47
ENDBRANCH  37  45
ENDBRANCH  35  37
ENDBRANCH  32  33
ENDBRANCH  31  32
ENDBRANCH  29  31
ENDBRANCH  28  29
ENDBRANCH  27  28
ENDBRANCH  25  27
ENDBRANCH   1  25
TORSDOF 14
ENDMDL
