MODEL 1
REMARK minimizedAffinity -9.5834446
REMARK CNNscore 0.766926646
REMARK CNNaffinity 6.60199881
REMARK  12 active torsions:
REMARK  status: ('A' for Active; 'I' for Inactive)
REMARK    1  A    between atoms: C2_2  and  C3_3 
REMARK    2  A    between atoms: C2_2  and  C26_31 
REMARK    3  A    between atoms: C3_3  and  C4_4 
REMARK    4  A    between atoms: C4_4  and  C5_5 
REMARK    5  A    between atoms: C5_5  and  C7_7 
REMARK    6  A    between atoms: C8_8  and  O1_9 
REMARK    7  A    between atoms: C9_10  and  O2_11 
REMARK    8  A    between atoms: C11_13  and  O3_14 
REMARK    9  A    between atoms: C13_16  and  O4_17 
REMARK   10  A    between atoms: C16_20  and  O5_21 
REMARK   11  A    between atoms: C26_31  and  C28_33 
REMARK   12  A    between atoms: C28_33  and  O6_34 
ROOT
HETATM    1  C7  UNL     1      -0.681  50.421 -19.022  1.00  0.00     0.029 C 
HETATM    2  C8  UNL     1      -2.099  49.875 -18.800  1.00  0.00     0.152 C 
HETATM    3  C9  UNL     1      -3.005  50.840 -19.571  1.00  0.00     0.155 C 
HETATM    4  C10 UNL     1      -2.159  51.357 -20.761  1.00  0.00     0.060 C 
HETATM    5  C11 UNL     1      -2.747  51.299 -22.196  1.00  0.00     0.071 C 
HETATM    6  C12 UNL     1      -4.090  52.033 -22.334  1.00  0.00     0.071 C 
HETATM    7  C13 UNL     1      -4.674  51.869 -23.736  1.00  0.00     0.126 C 
HETATM    8  C14 UNL     1      -5.109  50.419 -23.983  1.00  0.00     0.025 C 
HETATM    9  C15 UNL     1      -6.501  50.194 -23.342  1.00  0.00     0.039 C 
HETATM   10  C16 UNL     1      -7.042  48.795 -23.600  1.00  0.00     0.118 C 
HETATM   11  C17 UNL     1      -6.054  47.702 -23.215  1.00  0.00     0.032 C 
HETATM   12  C18 UNL     1      -4.733  48.244 -22.671  1.00  0.00     0.012 C 
HETATM   13  C19 UNL     1      -4.049  49.330 -23.557  1.00  0.00    -0.031 C 
HETATM   14  C20 UNL     1      -3.594  48.611 -24.868  1.00  0.00     0.016 C 
HETATM   15  C21 UNL     1      -2.704  49.899 -22.885  1.00  0.00     0.029 C 
HETATM   16  C22 UNL     1      -1.975  48.854 -22.011  1.00  0.00     0.009 C 
HETATM   17  C23 UNL     1      -0.661  49.352 -21.411  1.00  0.00     0.011 C 
HETATM   18  C24 UNL     1      -0.744  50.681 -20.594  1.00  0.00    -0.029 C 
HETATM   19  C25 UNL     1       0.416  51.565 -21.101  1.00  0.00     0.016 C 
ENDROOT
BRANCH   1  20
HETATM   20  C5  UNL     1      -0.234  51.678 -18.171  1.00  0.00    -0.011 C 
HETATM   21  C6  UNL     1       0.494  52.681 -19.088  1.00  0.00     0.010 C 
BRANCH  20  22
HETATM   22  C4  UNL     1       0.641  51.400 -16.925  1.00  0.00     0.009 C 
BRANCH  22  23
HETATM   23  C3  UNL     1       1.651  52.519 -16.597  1.00  0.00     0.034 C 
BRANCH  23  24
HETATM   24  C2  UNL     1       2.882  52.111 -15.793  1.00  0.00    -0.083 C 
HETATM   25  C1  UNL     1       4.124  52.543 -16.083  1.00  0.00     0.015 C 
BRANCH  24  26
HETATM   26  C26 UNL     1       2.583  51.141 -14.637  1.00  0.00     0.033 C 
HETATM   27  C27 UNL     1       3.814  50.423 -14.067  1.00  0.00     0.017 C 
BRANCH  26  28
HETATM   28  C28 UNL     1       1.795  51.825 -13.503  1.00  0.00     0.172 C 
BRANCH  28  29
HETATM   29  O6  UNL     1       2.641  52.589 -12.650  1.00  0.00    -0.400 OA
HETATM   30  H48 UNL     1       3.094  53.239 -13.216  1.00  0.00     0.209 HD
ENDBRANCH  28  29
ENDBRANCH  26  28
ENDBRANCH  24  26
ENDBRANCH  23  24
ENDBRANCH  22  23
ENDBRANCH  20  22
ENDBRANCH   1  20
BRANCH   2  31
HETATM   31  O1  UNL     1      -2.505  49.710 -17.451  1.00  0.00    -0.393 OA
HETATM   32  H13 UNL     1      -3.143  48.973 -17.433  1.00  0.00     0.210 HD
ENDBRANCH   2  31
BRANCH   3  33
HETATM   33  O2  UNL     1      -4.214  50.187 -19.918  1.00  0.00    -0.392 OA
HETATM   34  H15 UNL     1      -4.747  50.160 -19.103  1.00  0.00     0.210 HD
ENDBRANCH   3  33
BRANCH   5  35
HETATM   35  O3  UNL     1      -1.808  52.121 -22.953  1.00  0.00    -0.389 OA
HETATM   36  H17 UNL     1      -2.254  52.346 -23.798  1.00  0.00     0.210 HD
ENDBRANCH   5  35
BRANCH   7  37
HETATM   37  O4  UNL     1      -3.703  52.272 -24.702  1.00  0.00    -0.395 OA
HETATM   38  H21 UNL     1      -3.928  51.878 -25.573  1.00  0.00     0.210 HD
ENDBRANCH   7  37
BRANCH  10  39
HETATM   39  O5  UNL     1      -7.366  48.651 -24.981  1.00  0.00    -0.396 OA
HETATM   40  H26 UNL     1      -8.067  49.295 -25.188  1.00  0.00     0.210 HD
ENDBRANCH  10  39
TORSDOF 12
ENDMDL
