MODEL 1
REMARK minimizedAffinity -8.12101746
REMARK CNNscore 0.303959072
REMARK CNNaffinity 6.9036355
REMARK  13 active torsions:
REMARK  status: ('A' for Active; 'I' for Inactive)
REMARK    1  A    between atoms: C2_2  and  C3_3 
REMARK    2  A    between atoms: C2_2  and  C11_12 
REMARK    3  A    between atoms: C3_3  and  C4_4 
REMARK    4  A    between atoms: C4_4  and  C5_5 
REMARK    5  A    between atoms: C5_5  and  O1_7 
REMARK    6  A    between atoms: C5_5  and  C7_8 
REMARK    7  A    between atoms: C28_32  and  O5_33 
REMARK    8  A    between atoms: O5_33  and  C29_34 
REMARK    9  A    between atoms: C30_36  and  C31_37 
REMARK   10  A    between atoms: C31_37  and  O7_38 
REMARK   11  A    between atoms: C32_39  and  O8_40 
REMARK   12  A    between atoms: C33_41  and  O9_42 
REMARK   13  A    between atoms: C34_43  and  O10_44 
ROOT
HETATM    1  C11 UNL     1       4.644  50.371 -10.212  1.00  0.00    -0.001 C 
HETATM    2  C12 UNL     1       4.493  48.827 -10.141  1.00  0.00     0.007 C 
HETATM    3  C13 UNL     1       3.457  48.420 -11.206  1.00  0.00     0.024 C 
HETATM    4  C14 UNL     1       3.121  49.702 -11.942  1.00  0.00     0.092 C 
HETATM    5  C15 UNL     1       4.038  49.925 -13.187  1.00  0.00     0.272 C 
HETATM    6  O2  UNL     1       5.188  49.557 -13.341  1.00  0.00    -0.264 OA
HETATM    7  O3  UNL     1       3.331  50.654 -14.132  1.00  0.00    -0.305 OA
HETATM    8  C16 UNL     1       2.046  50.999 -13.578  1.00  0.00     0.113 C 
HETATM    9  C17 UNL     1       2.289  52.290 -12.709  1.00  0.00     0.043 C 
HETATM   10  C18 UNL     1       3.391  52.173 -11.644  1.00  0.00     0.014 C 
HETATM   11  C19 UNL     1       3.314  50.831 -10.884  1.00  0.00    -0.020 C 
HETATM   12  C20 UNL     1       2.134  50.856  -9.890  1.00  0.00     0.017 C 
HETATM   13  C21 UNL     1       1.804  49.828 -12.648  1.00  0.00     0.137 A 
HETATM   14  O4  UNL     1       1.610  48.514 -13.257  1.00  0.00    -0.364 OA
HETATM   15  C22 UNL     1       0.472  49.087 -12.665  1.00  0.00     0.162 A 
HETATM   16  C23 UNL     1      -0.553  49.357 -13.733  1.00  0.00     0.041 C 
HETATM   17  C24 UNL     1       0.131  49.900 -15.023  1.00  0.00     0.009 C 
HETATM   18  C25 UNL     1      -0.798  49.880 -16.299  1.00  0.00    -0.017 C 
HETATM   19  C26 UNL     1      -1.021  48.400 -16.751  1.00  0.00     0.018 C 
HETATM   20  C27 UNL     1      -2.219  50.425 -16.044  1.00  0.00     0.018 C 
HETATM   21  C28 UNL     1      -0.080  50.582 -17.510  1.00  0.00     0.133 C 
HETATM   22  C35 UNL     1       0.598  51.901 -17.152  1.00  0.00     0.034 C 
HETATM   23  C36 UNL     1       1.570  51.741 -15.995  1.00  0.00     0.015 C 
HETATM   24  C37 UNL     1       0.906  51.242 -14.692  1.00  0.00    -0.004 C 
HETATM   25  C38 UNL     1      -0.075  52.354 -14.212  1.00  0.00     0.019 C 
ENDROOT
BRANCH  21  26
HETATM   26  O5  UNL     1      -1.020  50.789 -18.573  1.00  0.00    -0.352 OA
BRANCH  26  27
HETATM   27  C29 UNL     1      -0.783  49.995 -19.743  1.00  0.00     0.292 C 
HETATM   28  O6  UNL     1       0.360  50.426 -20.487  1.00  0.00    -0.348 OA
HETATM   29  C30 UNL     1       0.119  51.378 -21.543  1.00  0.00     0.179 C 
HETATM   30  C32 UNL     1      -0.963  50.925 -22.546  1.00  0.00     0.180 C 
HETATM   31  C33 UNL     1      -1.764  49.728 -22.028  1.00  0.00     0.183 C 
HETATM   32  C34 UNL     1      -2.094  49.957 -20.560  1.00  0.00     0.204 C 
BRANCH  29  33
HETATM   33  C31 UNL     1      -0.075  52.792 -20.968  1.00  0.00     0.198 C 
BRANCH  33  34
HETATM   34  O7  UNL     1       1.082  53.177 -20.215  1.00  0.00    -0.398 OA
HETATM   35  H49 UNL     1       1.466  52.355 -19.862  1.00  0.00     0.209 HD
ENDBRANCH  33  34
ENDBRANCH  29  33
BRANCH  30  36
HETATM   36  O8  UNL     1      -1.874  51.989 -22.854  1.00  0.00    -0.390 OA
HETATM   37  H51 UNL     1      -2.651  51.542 -23.246  1.00  0.00     0.210 HD
ENDBRANCH  30  36
BRANCH  31  38
HETATM   38  O9  UNL     1      -2.980  49.621 -22.783  1.00  0.00    -0.390 OA
HETATM   39  H53 UNL     1      -3.527  48.996 -22.254  1.00  0.00     0.210 HD
ENDBRANCH  31  38
BRANCH  32  40
HETATM   40  O10 UNL     1      -2.972  48.905 -20.113  1.00  0.00    -0.388 OA
HETATM   41  H55 UNL     1      -3.205  49.119 -19.188  1.00  0.00     0.210 HD
ENDBRANCH  32  40
ENDBRANCH  26  27
ENDBRANCH  21  26
BRANCH   1  42
HETATM   42  C2  UNL     1       5.214  50.999  -8.906  1.00  0.00    -0.014 C 
HETATM   43  C1  UNL     1       4.450  50.750  -7.600  1.00  0.00     0.010 C 
BRANCH  42  44
HETATM   44  C3  UNL     1       5.665  52.482  -9.065  1.00  0.00     0.007 C 
BRANCH  44  45
HETATM   45  C4  UNL     1       4.731  53.552  -8.469  1.00  0.00     0.038 C 
BRANCH  45  46
HETATM   46  C5  UNL     1       5.051  55.031  -8.845  1.00  0.00     0.061 C 
HETATM   47  C6  UNL     1       5.658  55.734  -7.613  1.00  0.00     0.046 C 
BRANCH  46  48
HETATM   48  O1  UNL     1       6.059  55.014  -9.862  1.00  0.00    -0.389 OA
HETATM   49  H12 UNL     1       6.425  55.914  -9.940  1.00  0.00     0.210 HD
ENDBRANCH  46  48
BRANCH  46  50
HETATM   50  C7  UNL     1       3.779  55.792  -9.423  1.00  0.00    -0.021 C 
HETATM   51  C8  UNL     1       3.858  55.945 -10.963  1.00  0.00     0.017 C 
HETATM   52  C9  UNL     1       3.664  57.229  -8.854  1.00  0.00     0.017 C 
HETATM   53  C10 UNL     1       2.466  55.054  -9.094  1.00  0.00     0.017 C 
ENDBRANCH  46  50
ENDBRANCH  45  46
ENDBRANCH  44  45
ENDBRANCH  42  44
ENDBRANCH   1  42
TORSDOF 13
ENDMDL
