MODEL 1
REMARK minimizedAffinity -7.70931149
REMARK  9 active torsions:
REMARK  status: ('A' for Active; 'I' for Inactive)
REMARK    1  A    between atoms: O1_2  and  C2_3 
REMARK    2  A    between atoms: C2_3  and  C3_4 
REMARK    3  A    between atoms: C3_4  and  N1_5 
REMARK       I    between atoms: N1_5  and  C4_6 
REMARK    4  A    between atoms: C4_6  and  C5_8 
REMARK    5  A    between atoms: C5_8  and  C7_10 
REMARK    6  A    between atoms: C14_17  and  N2_18 
REMARK       I    between atoms: N2_18  and  C15_19 
REMARK    7  A    between atoms: C15_19  and  C16_21 
REMARK    8  A    between atoms: C16_21  and  O4_22 
REMARK    9  A    between atoms: C21_27  and  O5_28 
ROOT
HETATM    1  C7  UNL     1      -6.018   3.434  12.709  1.00  0.00     0.027 C 
HETATM    2  C8  UNL     1      -7.377   3.223  13.388  1.00  0.00     0.009 C 
HETATM    3  C9  UNL     1      -7.480   3.978  14.707  1.00  0.00     0.010 C 
HETATM    4  C10 UNL     1      -7.209   5.492  14.564  1.00  0.00    -0.037 C 
HETATM    5  C11 UNL     1      -8.336   6.122  13.708  1.00  0.00     0.015 C 
HETATM    6  C12 UNL     1      -7.240   6.110  15.981  1.00  0.00     0.011 C 
HETATM    7  C13 UNL     1      -6.876   7.586  15.995  1.00  0.00     0.026 C 
HETATM    8  C14 UNL     1      -5.532   7.864  15.315  1.00  0.00     0.088 C 
HETATM    9  C18 UNL     1      -5.427   7.234  13.896  1.00  0.00     0.012 C 
HETATM   10  C19 UNL     1      -4.029   7.518  13.322  1.00  0.00     0.012 C 
HETATM   11  C20 UNL     1      -5.791   5.706  13.945  1.00  0.00     0.028 C 
HETATM   12  C21 UNL     1      -5.644   4.939  12.598  1.00  0.00     0.128 C 
ENDROOT
BRANCH   1  13
HETATM   13  C5  UNL     1      -5.886   2.688  11.345  1.00  0.00     0.080 C 
HETATM   14  C6  UNL     1      -6.186   1.188  11.393  1.00  0.00     0.020 C 
BRANCH  13  15
HETATM   15  C4  UNL     1      -4.554   2.997  10.656  1.00  0.00     0.222 C 
HETATM   16  N1  UNL     1      -3.432   2.433  11.217  1.00  0.00    -0.359 N 
HETATM   17  H8  UNL     1      -3.504   1.960  12.107  1.00  0.00     0.162 HD
HETATM   18  O2  UNL     1      -4.501   3.735   9.674  1.00  0.00    -0.273 OA
BRANCH  16  19
HETATM   19  C3  UNL     1      -2.099   2.755  10.740  1.00  0.00     0.148 C 
BRANCH  19  20
HETATM   20  C2  UNL     1      -1.086   1.625  10.927  1.00  0.00     0.186 C 
BRANCH  20  21
HETATM   21  O1  UNL     1       0.161   2.188  11.343  1.00  0.00    -0.394 OA
HETATM   22  C1  UNL     1       0.014   3.550  11.724  1.00  0.00     0.201 C 
ENDBRANCH  20  21
ENDBRANCH  19  20
ENDBRANCH  16  19
ENDBRANCH  13  15
ENDBRANCH   1  13
BRANCH  12  23
HETATM   23  O5  UNL     1      -4.282   4.997  12.177  1.00  0.00    -0.395 OA
HETATM   24  H38 UNL     1      -4.253   4.910  11.210  1.00  0.00     0.210 HD
ENDBRANCH  12  23
BRANCH   8  25
HETATM   25  N2  UNL     1      -5.320   9.305  15.266  1.00  0.00    -0.354 N 
HETATM   26  C15 UNL     1      -4.264   9.932  15.891  1.00  0.00     0.241 C 
HETATM   27  O3  UNL     1      -3.348   9.340  16.454  1.00  0.00    -0.271 OA
HETATM   28  H26 UNL     1      -6.084   9.921  14.997  1.00  0.00     0.162 HD
BRANCH  26  29
HETATM   29  C16 UNL     1      -4.323  11.459  15.802  1.00  0.00     0.269 C 
BRANCH  29  30
HETATM   30  O4  UNL     1      -3.066  12.062  16.121  1.00  0.00    -0.387 OA
HETATM   31  C17 UNL     1      -2.359  12.428  14.944  1.00  0.00     0.202 C 
ENDBRANCH  29  30
ENDBRANCH  26  29
ENDBRANCH   8  25
TORSDOF 9
ENDMDL
