MODEL 1
REMARK minimizedAffinity -10.7192583
REMARK  4 active torsions:
REMARK  status: ('A' for Active; 'I' for Inactive)
REMARK    1  A    between atoms: C14_16  and  C15_17 
REMARK    2  A    between atoms: C15_17  and  C17_19 
REMARK    3  A    between atoms: C17_19  and  C18_20 
REMARK    4  A    between atoms: C18_20  and  C19_22 
ROOT
HETATM    1  C1  UNL     1      -2.736  49.034 -27.018  1.00  0.00     0.017 C 
HETATM    2  C2  UNL     1      -2.819  50.237 -26.415  1.00  0.00    -0.060 C 
HETATM    3  C3  UNL     1      -3.126  51.472 -27.232  1.00  0.00     0.212 C 
HETATM    4  O1  UNL     1      -2.396  52.663 -26.887  1.00  0.00    -0.317 OA
HETATM    5  C4  UNL     1      -1.050  52.767 -26.979  1.00  0.00     0.259 C 
HETATM    6  O2  UNL     1      -0.510  53.852 -27.176  1.00  0.00    -0.265 OA
HETATM    7  C5  UNL     1      -0.239  51.525 -26.730  1.00  0.00     0.112 C 
HETATM    8  C6  UNL     1      -0.174  51.150 -25.246  1.00  0.00     0.020 C 
HETATM    9  C7  UNL     1      -1.478  51.292 -24.454  1.00  0.00    -0.024 A 
HETATM   10  C8  UNL     1      -1.806  52.672 -23.925  1.00  0.00     0.022 A 
HETATM   11  C9  UNL     1      -1.432  51.596 -22.927  1.00  0.00    -0.027 A 
HETATM   12  C10 UNL     1      -0.126  51.965 -22.181  1.00  0.00     0.011 C 
HETATM   13  C11 UNL     1       0.272  51.079 -20.991  1.00  0.00     0.011 C 
HETATM   14  C12 UNL     1      -0.920  50.807 -20.065  1.00  0.00    -0.032 C 
HETATM   15  C13 UNL     1      -1.376  52.156 -19.445  1.00  0.00     0.016 C 
HETATM   16  C14 UNL     1      -0.698  49.757 -18.931  1.00  0.00    -0.002 C 
HETATM   17  C23 UNL     1      -2.126  49.187 -18.682  1.00  0.00     0.006 C 
HETATM   18  C24 UNL     1      -3.009  49.636 -19.860  1.00  0.00     0.011 C 
HETATM   19  C25 UNL     1      -2.022  50.095 -20.946  1.00  0.00    -0.032 C 
HETATM   20  C26 UNL     1      -1.509  48.804 -21.679  1.00  0.00     0.016 C 
HETATM   21  C27 UNL     1      -2.590  51.085 -22.015  1.00  0.00     0.004 C 
HETATM   22  C28 UNL     1      -3.844  50.509 -22.722  1.00  0.00     0.007 C 
HETATM   23  C29 UNL     1      -3.940  50.678 -24.230  1.00  0.00     0.010 C 
HETATM   24  C30 UNL     1      -2.607  50.354 -24.913  1.00  0.00     0.025 C 
ENDROOT
BRANCH  16  25
HETATM   25  C15 UNL     1       0.084  50.063 -17.618  1.00  0.00    -0.007 C 
HETATM   26  C16 UNL     1       0.022  49.017 -16.496  1.00  0.00     0.011 C 
BRANCH  25  27
HETATM   27  C17 UNL     1      -0.262  51.457 -17.059  1.00  0.00     0.087 C 
BRANCH  27  28
HETATM   28  C18 UNL     1       0.674  51.875 -15.936  1.00  0.00     0.149 C 
HETATM   29  O3  UNL     1       0.351  51.811 -14.752  1.00  0.00    -0.293 OA
BRANCH  28  30
HETATM   30  C19 UNL     1       2.034  52.334 -16.345  1.00  0.00     0.052 C 
HETATM   31  C20 UNL     1       3.177  52.020 -15.705  1.00  0.00    -0.084 C 
HETATM   32  C21 UNL     1       3.273  51.189 -14.451  1.00  0.00     0.043 C 
HETATM   33  C22 UNL     1       4.502  52.520 -16.220  1.00  0.00     0.043 C 
ENDBRANCH  28  30
ENDBRANCH  27  28
ENDBRANCH  25  27
ENDBRANCH  16  25
TORSDOF 4
ENDMDL
