MODEL 1
REMARK minimizedAffinity -6.41327333
REMARK CNNscore 0.679447591
REMARK CNNaffinity 6.95410299
REMARK  6 active torsions:
REMARK  status: ('A' for Active; 'I' for Inactive)
REMARK    1  A    between atoms: C2_2  and  O2_4 
REMARK    2  A    between atoms: O2_4  and  C3_5 
REMARK    3  A    between atoms: C13_15  and  C14_16 
REMARK    4  A    between atoms: C14_16  and  C16_18 
REMARK    5  A    between atoms: C16_18  and  C17_19 
REMARK    6  A    between atoms: C17_19  and  C18_20 
ROOT
HETATM    1  C3  UNL     1       4.043  56.400  -7.890  1.00  0.00     0.136 C 
HETATM    2  C4  UNL     1       3.582  56.685  -9.326  1.00  0.00     0.034 C 
HETATM    3  C5  UNL     1       3.056  55.451 -10.057  1.00  0.00     0.013 C 
HETATM    4  C6  UNL     1       2.051  54.638  -9.233  1.00  0.00    -0.027 A 
HETATM    5  C7  UNL     1       2.213  53.143  -9.400  1.00  0.00     0.021 A 
HETATM    6  C8  UNL     1       0.932  53.783  -9.892  1.00  0.00    -0.027 A 
HETATM    7  C9  UNL     1       0.752  53.920 -11.405  1.00  0.00     0.011 C 
HETATM    8  C10 UNL     1      -0.277  53.002 -12.094  1.00  0.00     0.011 C 
HETATM    9  C11 UNL     1      -1.203  52.234 -11.142  1.00  0.00    -0.032 C 
HETATM   10  C12 UNL     1      -0.462  50.928 -10.711  1.00  0.00     0.016 C 
HETATM   11  C13 UNL     1      -2.619  51.856 -11.700  1.00  0.00    -0.002 C 
HETATM   12  C22 UNL     1      -3.459  51.692 -10.397  1.00  0.00     0.006 C 
HETATM   13  C23 UNL     1      -2.695  52.378  -9.256  1.00  0.00     0.011 C 
HETATM   14  C24 UNL     1      -1.575  53.181  -9.943  1.00  0.00    -0.032 C 
HETATM   15  C25 UNL     1      -2.200  54.547 -10.364  1.00  0.00     0.016 C 
HETATM   16  C26 UNL     1      -0.319  53.403  -9.057  1.00  0.00     0.004 C 
HETATM   17  C27 UNL     1      -0.541  54.355  -7.875  1.00  0.00     0.006 C 
HETATM   18  C28 UNL     1       0.732  54.481  -7.040  1.00  0.00     0.006 C 
HETATM   19  C29 UNL     1       1.801  55.232  -7.840  1.00  0.00     0.001 C 
HETATM   20  C30 UNL     1       3.173  55.356  -7.143  1.00  0.00     0.016 C 
HETATM   21  C31 UNL     1       3.091  55.717  -5.659  1.00  0.00     0.013 C 
ENDROOT
BRANCH  11  22
HETATM   22  C14 UNL     1      -2.770  50.632 -12.655  1.00  0.00    -0.014 C 
HETATM   23  C15 UNL     1      -2.596  49.306 -11.904  1.00  0.00     0.010 C 
BRANCH  22  24
HETATM   24  C16 UNL     1      -1.747  50.689 -13.825  1.00  0.00     0.008 C 
BRANCH  24  25
HETATM   25  C17 UNL     1      -2.118  49.787 -15.013  1.00  0.00     0.028 C 
BRANCH  25  26
HETATM   26  C18 UNL     1      -2.465  50.539 -16.267  1.00  0.00    -0.025 C 
HETATM   27  C19 UNL     1      -1.692  50.756 -17.350  1.00  0.00    -0.091 C 
HETATM   28  C20 UNL     1      -0.269  50.302 -17.510  1.00  0.00     0.042 C 
HETATM   29  C21 UNL     1      -2.231  51.520 -18.533  1.00  0.00     0.042 C 
ENDBRANCH  25  26
ENDBRANCH  24  25
ENDBRANCH  22  24
ENDBRANCH  11  22
BRANCH   1  30
HETATM   30  O2  UNL     1       5.401  55.900  -7.904  1.00  0.00    -0.316 OA
BRANCH  30  31
HETATM   31  C2  UNL     1       5.554  54.581  -8.205  1.00  0.00     0.255 C 
HETATM   32  C1  UNL     1       6.316  54.435  -9.485  1.00  0.00     0.126 C 
HETATM   33  O1  UNL     1       5.149  53.641  -7.535  1.00  0.00    -0.266 OA
ENDBRANCH  30  31
ENDBRANCH   1  30
TORSDOF 6
ENDMDL
