MODEL 1
REMARK minimizedAffinity -8.85838127
REMARK  8 active torsions:
REMARK  status: ('A' for Active; 'I' for Inactive)
REMARK    1  A    between atoms: C2_2  and  C3_3 
REMARK    2  A    between atoms: C2_2  and  C28_31 
REMARK    3  A    between atoms: C3_3  and  C4_4 
REMARK    4  A    between atoms: C4_4  and  O1_5 
REMARK    5  A    between atoms: C4_4  and  C5_6 
REMARK    6  A    between atoms: C5_6  and  C7_8 
REMARK    7  A    between atoms: C21_22  and  C23_24 
REMARK    8  A    between atoms: C23_24  and  O3_26 
ROOT
HETATM    1  C7  UNL     1       1.059   6.776  13.429  1.00  0.00     0.001 C 
HETATM    2  C8  UNL     1       1.262   7.643  14.715  1.00  0.00     0.007 C 
HETATM    3  C9  UNL     1      -0.130   7.917  15.312  1.00  0.00     0.015 C 
HETATM    4  C10 UNL     1      -1.040   6.870  14.653  1.00  0.00    -0.013 C 
HETATM    5  C11 UNL     1      -0.841   5.530  15.432  1.00  0.00     0.021 C 
HETATM    6  C12 UNL     1      -2.546   7.096  14.658  1.00  0.00    -0.068 C 
HETATM    7  C13 UNL     1      -3.302   6.554  13.665  1.00  0.00    -0.068 C 
HETATM    8  C14 UNL     1      -2.695   5.819  12.475  1.00  0.00     0.036 C 
HETATM    9  C15 UNL     1      -1.154   5.721  12.428  1.00  0.00     0.015 C 
HETATM   10  C16 UNL     1      -0.479   6.885  13.171  1.00  0.00    -0.029 C 
HETATM   11  C17 UNL     1      -0.810   8.204  12.415  1.00  0.00     0.016 C 
HETATM   12  C18 UNL     1      -4.815   6.738  13.670  1.00  0.00    -0.015 C 
HETATM   13  C19 UNL     1      -5.120   7.993  12.817  1.00  0.00     0.020 C 
HETATM   14  C20 UNL     1      -5.691   5.554  13.194  1.00  0.00     0.034 C 
HETATM   15  C21 UNL     1      -7.043   5.686  13.958  1.00  0.00     0.043 C 
HETATM   16  C22 UNL     1      -8.187   6.111  13.027  1.00  0.00     0.027 C 
HETATM   17  C24 UNL     1      -6.806   6.763  15.050  1.00  0.00     0.025 C 
HETATM   18  C25 UNL     1      -5.286   6.836  15.136  1.00  0.00    -0.001 C 
HETATM   19  C26 UNL     1      -4.665   8.022  15.846  1.00  0.00     0.010 C 
HETATM   20  C27 UNL     1      -3.134   7.868  15.835  1.00  0.00     0.036 C 
ENDROOT
BRANCH   1  21
HETATM   21  C5  UNL     1       2.172   7.048  12.364  1.00  0.00     0.015 C 
HETATM   22  C6  UNL     1       2.179   8.444  11.720  1.00  0.00     0.013 C 
BRANCH  21  23
HETATM   23  C4  UNL     1       2.346   5.975  11.254  1.00  0.00     0.126 C 
BRANCH  23  24
HETATM   24  C3  UNL     1       1.462   6.211  10.012  1.00  0.00     0.065 C 
BRANCH  24  25
HETATM   25  C2  UNL     1       2.265   6.293   8.719  1.00  0.00    -0.083 C 
HETATM   26  C1  UNL     1       3.115   5.306   8.388  1.00  0.00     0.015 C 
BRANCH  25  27
HETATM   27  C28 UNL     1       2.060   7.553   7.882  1.00  0.00     0.005 C 
HETATM   28  C29 UNL     1       1.860   7.188   6.409  1.00  0.00     0.014 C 
HETATM   29  C30 UNL     1       0.913   8.450   8.364  1.00  0.00     0.014 C 
ENDBRANCH  25  27
ENDBRANCH  24  25
ENDBRANCH  23  24
BRANCH  23  30
HETATM   30  O1  UNL     1       3.718   5.882  10.879  1.00  0.00    -0.395 OA
HETATM   31  H6  UNL     1       3.785   5.164  10.224  1.00  0.00     0.210 HD
ENDBRANCH  23  30
ENDBRANCH  21  23
ENDBRANCH   1  21
BRANCH  15  32
HETATM   32  C23 UNL     1      -7.410   4.335  14.571  1.00  0.00     0.148 C 
HETATM   33  O2  UNL     1      -7.291   3.241  14.043  1.00  0.00    -0.649 OA
BRANCH  32  34
HETATM   34  O3  UNL     1      -7.868   4.413  15.835  1.00  0.00    -0.776 OA
HETATM   35  H34 UNL     1      -8.037   3.480  16.084  1.00  0.00     0.167 HD
ENDBRANCH  32  34
ENDBRANCH  15  32
TORSDOF 8
ENDMDL
