MODEL 1
REMARK minimizedAffinity -9.92750072
REMARK CNNscore 0.792054355
REMARK CNNaffinity 7.89805651
REMARK  8 active torsions:
REMARK  status: ('A' for Active; 'I' for Inactive)
REMARK    1  A    between atoms: C4_4  and  C5_5 
REMARK    2  A    between atoms: C5_5  and  C6_6 
REMARK    3  A    between atoms: C12_14  and  O3_15 
REMARK    4  A    between atoms: C20_24  and  O5_25 
REMARK    5  A    between atoms: C27_33  and  C28_34 
REMARK    6  A    between atoms: C28_34  and  C29_35 
REMARK    7  A    between atoms: C30_36  and  C32_38 
REMARK    8  A    between atoms: C32_38  and  O8_40 
ROOT
HETATM    1  C6  UNL     1      -2.277  51.168 -24.108  1.00  0.00     0.014 A 
HETATM    2  C7  UNL     1      -2.157  51.039 -22.712  1.00  0.00     0.096 A 
HETATM    3  O1  UNL     1      -3.194  50.440 -22.040  1.00  0.00    -0.333 OA
HETATM    4  C8  UNL     1      -2.923  49.986 -20.703  1.00  0.00     0.126 C 
HETATM    5  C9  UNL     1      -2.284  51.134 -19.903  1.00  0.00     0.129 C 
HETATM    6  C10 UNL     1      -0.984  51.481 -20.593  1.00  0.00     0.174 C 
HETATM    7  O2  UNL     1       0.055  51.768 -20.005  1.00  0.00    -0.292 OA
HETATM    8  C11 UNL     1      -1.014  51.517 -22.066  1.00  0.00     0.078 A 
HETATM    9  C12 UNL     1       0.055  52.048 -22.801  1.00  0.00     0.095 A 
HETATM   10  C13 UNL     1      -0.026  52.140 -24.195  1.00  0.00     0.032 A 
HETATM   11  C14 UNL     1      -1.196  51.712 -24.839  1.00  0.00     0.092 A 
HETATM   12  O4  UNL     1      -1.349  51.761 -26.201  1.00  0.00    -0.335 OA
HETATM   13  C15 UNL     1      -0.410  52.510 -26.994  1.00  0.00     0.078 C 
HETATM   14  C16 UNL     1      -0.111  51.637 -28.219  1.00  0.00     0.051 C 
HETATM   15  C17 UNL     1      -1.113  53.799 -27.436  1.00  0.00     0.051 C 
HETATM   16  C18 UNL     1       0.885  52.850 -26.300  1.00  0.00     0.012 C 
HETATM   17  C19 UNL     1       1.074  52.673 -24.991  1.00  0.00     0.016 C 
HETATM   18  C20 UNL     1      -2.069  50.747 -18.434  1.00  0.00     0.144 C 
HETATM   19  C21 UNL     1      -2.362  49.259 -18.244  1.00  0.00     0.089 C 
HETATM   20  C22 UNL     1      -1.548  48.453 -19.266  1.00  0.00     0.025 C 
HETATM   21  C23 UNL     1      -2.126  48.646 -20.695  1.00  0.00     0.060 C 
HETATM   22  C24 UNL     1      -3.223  47.606 -21.092  1.00  0.00     0.062 C 
HETATM   23  C25 UNL     1      -3.322  47.412 -22.612  1.00  0.00     0.046 C 
HETATM   24  C26 UNL     1      -3.084  46.218 -20.457  1.00  0.00     0.046 C 
HETATM   25  O6  UNL     1      -4.475  48.166 -20.648  1.00  0.00    -0.358 OA
HETATM   26  C27 UNL     1      -4.214  49.442 -20.017  1.00  0.00     0.158 C 
HETATM   27  C33 UNL     1      -3.835  49.086 -18.559  1.00  0.00     0.171 C 
HETATM   28  O9  UNL     1      -4.620  48.665 -17.712  1.00  0.00    -0.294 OA
ENDROOT
BRANCH  26  29
HETATM   29  C28 UNL     1      -5.473  50.323 -20.010  1.00  0.00     0.077 C 
BRANCH  29  30
HETATM   30  C29 UNL     1      -6.790  49.601 -19.846  1.00  0.00    -0.010 C 
HETATM   31  C30 UNL     1      -7.602  49.129 -20.812  1.00  0.00     0.008 C 
HETATM   32  C31 UNL     1      -8.884  48.415 -20.499  1.00  0.00     0.055 C 
BRANCH  31  33
HETATM   33  C32 UNL     1      -7.271  49.264 -22.249  1.00  0.00     0.171 C 
HETATM   34  O7  UNL     1      -6.877  48.394 -23.003  1.00  0.00    -0.646 OA
BRANCH  33  35
HETATM   35  O8  UNL     1      -7.496  50.515 -22.688  1.00  0.00    -0.773 OA
HETATM   36  H38 UNL     1      -7.215  50.465 -23.626  1.00  0.00     0.167 HD
ENDBRANCH  33  35
ENDBRANCH  31  33
ENDBRANCH  29  30
ENDBRANCH  26  29
BRANCH  18  37
HETATM   37  O5  UNL     1      -2.944  51.535 -17.628  1.00  0.00    -0.394 OA
HETATM   38  H21 UNL     1      -2.814  51.288 -16.694  1.00  0.00     0.210 HD
ENDBRANCH  18  37
BRANCH   1  39
HETATM   39  C5  UNL     1      -3.559  50.794 -24.830  1.00  0.00     0.072 C 
BRANCH  39  40
HETATM   40  C4  UNL     1      -3.290  49.938 -26.042  1.00  0.00    -0.020 C 
HETATM   41  C2  UNL     1      -3.970  48.858 -26.472  1.00  0.00    -0.091 C 
HETATM   42  C1  UNL     1      -5.182  48.269 -25.805  1.00  0.00     0.042 C 
HETATM   43  C3  UNL     1      -3.540  48.132 -27.721  1.00  0.00     0.042 C 
ENDBRANCH  39  40
ENDBRANCH   1  39
BRANCH   9  44
HETATM   44  O3  UNL     1       1.201  52.495 -22.185  1.00  0.00    -0.359 OA
HETATM   45  H11 UNL     1       1.107  52.376 -21.214  1.00  0.00     0.217 HD
ENDBRANCH   9  44
TORSDOF 8
ENDMDL
