MODEL 1
REMARK minimizedAffinity -9.84634399
REMARK  12 active torsions:
REMARK  status: ('A' for Active; 'I' for Inactive)
REMARK    1  A    between atoms: C2_2  and  C3_3 
REMARK    2  A    between atoms: C2_2  and  C26_31 
REMARK    3  A    between atoms: C3_3  and  C4_4 
REMARK    4  A    between atoms: C4_4  and  C5_5 
REMARK    5  A    between atoms: C5_5  and  C7_7 
REMARK    6  A    between atoms: C8_8  and  O1_9 
REMARK    7  A    between atoms: C9_10  and  O2_11 
REMARK    8  A    between atoms: C20_22  and  O3_23 
REMARK    9  A    between atoms: C23_26  and  O4_27 
REMARK   10  A    between atoms: C25_29  and  O5_30 
REMARK   11  A    between atoms: C26_31  and  C28_33 
REMARK   12  A    between atoms: C28_33  and  O6_34 
ROOT
HETATM    1  C7  UNL     1      -5.462   5.739  13.246  1.00  0.00     0.029 C 
HETATM    2  C8  UNL     1      -6.343   4.548  12.722  1.00  0.00     0.152 C 
HETATM    3  C9  UNL     1      -7.816   4.901  13.053  1.00  0.00     0.155 C 
HETATM    4  C10 UNL     1      -7.747   6.334  13.566  1.00  0.00     0.060 C 
HETATM    5  C11 UNL     1      -6.382   6.406  14.329  1.00  0.00    -0.029 C 
HETATM    6  C12 UNL     1      -6.292   5.628  15.664  1.00  0.00     0.016 C 
HETATM    7  C13 UNL     1      -6.126   7.902  14.607  1.00  0.00     0.011 C 
HETATM    8  C14 UNL     1      -7.290   8.569  15.369  1.00  0.00     0.009 C 
HETATM    9  C15 UNL     1      -8.652   8.408  14.651  1.00  0.00     0.029 C 
HETATM   10  C16 UNL     1      -9.853   9.173  15.332  1.00  0.00    -0.031 C 
HETATM   11  C17 UNL     1     -10.121   8.670  16.772  1.00  0.00     0.016 C 
HETATM   12  C18 UNL     1      -9.543  10.700  15.410  1.00  0.00     0.012 C 
HETATM   13  C19 UNL     1     -10.740  11.556  15.832  1.00  0.00     0.032 C 
HETATM   14  C20 UNL     1     -11.985  11.286  14.994  1.00  0.00     0.118 C 
HETATM   15  C21 UNL     1     -12.316   9.797  14.903  1.00  0.00     0.039 C 
HETATM   16  C22 UNL     1     -11.101   8.998  14.407  1.00  0.00     0.025 C 
HETATM   17  C23 UNL     1     -11.434   7.520  14.137  1.00  0.00     0.126 C 
HETATM   18  C24 UNL     1     -10.245   6.794  13.498  1.00  0.00     0.071 C 
HETATM   19  C25 UNL     1      -8.958   6.907  14.331  1.00  0.00     0.071 C 
ENDROOT
BRANCH   1  20
HETATM   20  C5  UNL     1      -4.001   5.336  13.605  1.00  0.00    -0.011 C 
HETATM   21  C6  UNL     1      -2.973   6.399  13.198  1.00  0.00     0.010 C 
BRANCH  20  22
HETATM   22  C4  UNL     1      -3.630   3.993  12.915  1.00  0.00     0.009 C 
BRANCH  22  23
HETATM   23  C3  UNL     1      -2.740   4.184  11.672  1.00  0.00     0.034 C 
BRANCH  23  24
HETATM   24  C2  UNL     1      -1.585   3.204  11.490  1.00  0.00    -0.083 C 
HETATM   25  C1  UNL     1      -0.320   3.483  11.858  1.00  0.00     0.015 C 
BRANCH  24  26
HETATM   26  C26 UNL     1      -1.999   1.859  10.869  1.00  0.00     0.033 C 
HETATM   27  C27 UNL     1      -3.107   1.110  11.627  1.00  0.00     0.017 C 
BRANCH  26  28
HETATM   28  C28 UNL     1      -0.792   0.923  10.631  1.00  0.00     0.172 C 
BRANCH  28  29
HETATM   29  O6  UNL     1      -0.592   0.609   9.256  1.00  0.00    -0.400 OA
HETATM   30  H48 UNL     1      -0.590   1.441   8.755  1.00  0.00     0.209 HD
ENDBRANCH  28  29
ENDBRANCH  26  28
ENDBRANCH  24  26
ENDBRANCH  23  24
ENDBRANCH  22  23
ENDBRANCH  20  22
ENDBRANCH   1  20
BRANCH   2  31
HETATM   31  O1  UNL     1      -6.041   3.291  13.330  1.00  0.00    -0.393 OA
HETATM   32  H13 UNL     1      -5.218   2.955  12.933  1.00  0.00     0.210 HD
ENDBRANCH   2  31
BRANCH   3  33
HETATM   33  O2  UNL     1      -8.367   4.027  14.038  1.00  0.00    -0.392 OA
HETATM   34  H15 UNL     1      -7.737   3.270  14.069  1.00  0.00     0.210 HD
ENDBRANCH   3  33
BRANCH  19  35
HETATM   35  O5  UNL     1      -9.166   6.164  15.524  1.00  0.00    -0.389 OA
HETATM   36  H41 UNL     1      -9.112   5.213  15.275  1.00  0.00     0.210 HD
ENDBRANCH  19  35
BRANCH  17  37
HETATM   37  O4  UNL     1     -12.544   7.431  13.237  1.00  0.00    -0.395 OA
HETATM   38  H38 UNL     1     -12.288   7.845  12.396  1.00  0.00     0.210 HD
ENDBRANCH  17  37
BRANCH  14  39
HETATM   39  O3  UNL     1     -13.080  11.993  15.565  1.00  0.00    -0.396 OA
HETATM   40  H33 UNL     1     -13.876  11.763  15.057  1.00  0.00     0.210 HD
ENDBRANCH  14  39
TORSDOF 12
ENDMDL
