MODEL 1
REMARK minimizedAffinity -9.01530266
REMARK CNNscore 0.201657832
REMARK CNNaffinity 6.49534607
REMARK  7 active torsions:
REMARK  status: ('A' for Active; 'I' for Inactive)
REMARK    1  A    between atoms: C2_2  and  C3_3 
REMARK    2  A    between atoms: C9_10  and  O1_11 
REMARK    3  A    between atoms: C18_22  and  C19_23 
REMARK    4  A    between atoms: C33_39  and  C34_40 
REMARK    5  A    between atoms: C34_40  and  O2_41 
REMARK    6  A    between atoms: C35_42  and  C38_45 
REMARK    7  A    between atoms: C39_46  and  O3_47 
ROOT
HETATM    1  C19 UNL     1       1.743  10.932  18.214  1.00  0.00    -0.003 C 
HETATM    2  C20 UNL     1       2.353  10.096  19.079  1.00  0.00     0.102 C 
HETATM    3  N3  UNL     1       3.137  10.514  20.137  1.00  0.00    -0.349 N 
HETATM    4  C21 UNL     1       2.963  10.058  21.473  1.00  0.00     0.041 A 
HETATM    5  C22 UNL     1       2.395   8.863  21.885  1.00  0.00     0.030 A 
HETATM    6  C23 UNL     1       2.273   8.604  23.249  1.00  0.00     0.002 A 
HETATM    7  C24 UNL     1       2.717   9.536  24.195  1.00  0.00     0.001 A 
HETATM    8  C25 UNL     1       3.301  10.735  23.784  1.00  0.00     0.010 A 
HETATM    9  C26 UNL     1       3.414  10.984  22.423  1.00  0.00    -0.018 A 
HETATM   10  C27 UNL     1       4.010  12.167  21.712  1.00  0.00     0.041 C 
HETATM   11  C28 UNL     1       5.542  12.112  21.757  1.00  0.00     0.046 C 
HETATM   12  C29 UNL     1       5.961  13.474  21.235  1.00  0.00     0.239 C 
HETATM   13  N4  UNL     1       4.922  14.444  21.832  1.00  0.00    -0.062 N 
HETATM   14  C30 UNL     1       5.530  15.163  23.032  1.00  0.00     0.273 C 
HETATM   15  C31 UNL     1       4.519  15.489  20.798  1.00  0.00     0.271 C 
HETATM   16  C32 UNL     1       3.495  15.016  19.794  1.00  0.00    -0.051 C 
HETATM   17  C33 UNL     1       3.555  15.360  18.493  1.00  0.00     0.004 C 
HETATM   18  C35 UNL     1       2.317  14.223  20.341  1.00  0.00     0.027 C 
HETATM   19  C36 UNL     1       2.400  14.194  21.873  1.00  0.00     0.044 C 
HETATM   20  C37 UNL     1       3.716  13.557  22.298  1.00  0.00     0.206 C 
HETATM   21  C38 UNL     1       2.213  12.747  19.904  1.00  0.00     0.052 C 
HETATM   22  C39 UNL     1       1.863  12.443  18.424  1.00  0.00     0.160 C 
HETATM   23  C40 UNL     1       3.475  11.946  20.269  1.00  0.00     0.112 C 
ENDROOT
BRANCH   1  24
HETATM   24  C18 UNL     1       0.888  10.390  17.156  1.00  0.00    -0.016 A 
HETATM   25  C3  UNL     1      -0.581  10.235  17.241  1.00  0.00    -0.032 A 
HETATM   26  C4  UNL     1      -1.229   9.707  16.182  1.00  0.00     0.099 A 
HETATM   27  N1  UNL     1      -0.612   9.331  14.993  1.00  0.00    -0.354 N 
HETATM   28  C5  UNL     1      -1.337   8.525  13.983  1.00  0.00     0.133 C 
HETATM   29  C16 UNL     1       0.785   9.495  14.857  1.00  0.00     0.062 A 
HETATM   30  C6  UNL     1      -0.774   8.726  12.568  1.00  0.00     0.062 C 
HETATM   31  C7  UNL     1       0.722   8.730  12.538  1.00  0.00    -0.012 A 
HETATM   32  C8  UNL     1       1.592   8.439  11.565  1.00  0.00     0.033 A 
HETATM   33  C15 UNL     1       1.431   9.172  13.719  1.00  0.00     0.067 A 
HETATM   34  C9  UNL     1       1.544   8.006  10.198  1.00  0.00     0.081 A 
HETATM   35  C14 UNL     1       2.868   8.783  12.229  1.00  0.00     0.046 A 
HETATM   36  C11 UNL     1       2.712   7.913   9.529  1.00  0.00     0.038 A 
HETATM   37  C12 UNL     1       3.988   8.234  10.157  1.00  0.00     0.005 A 
HETATM   38  C13 UNL     1       4.099   8.637  11.431  1.00  0.00     0.030 A 
HETATM   39  N2  UNL     1       2.784   9.200  13.455  1.00  0.00    -0.353 N 
ATOM     40  H2  UNL     1       3.542   9.484  14.077  1.00  0.00     0.166 HD
HETATM   41  C17 UNL     1       1.504  10.036  16.006  1.00  0.00     0.044 A 
BRANCH  25  42
HETATM   42  C2  UNL     1      -1.343  10.648  18.476  1.00  0.00     0.036 C 
HETATM   43  C1  UNL     1      -2.779  10.139  18.501  1.00  0.00     0.010 C 
ENDBRANCH  25  42
BRANCH  34  44
HETATM   44  O1  UNL     1       0.281   7.750   9.720  1.00  0.00    -0.355 OA
HETATM   45  C10 UNL     1      -0.112   8.427   8.523  1.00  0.00     0.210 C 
ENDBRANCH  34  44
ENDBRANCH   1  24
BRANCH  22  46
HETATM   46  O3  UNL     1       0.671  13.162  18.122  1.00  0.00    -0.390 OA
HETATM   47  H42 UNL     1       0.031  12.547  17.729  1.00  0.00     0.210 HD
ENDBRANCH  22  46
BRANCH  17  48
HETATM   48  C34 UNL     1       4.639  16.160  17.845  1.00  0.00     0.191 C 
BRANCH  48  49
HETATM   49  O2  UNL     1       4.081  16.704  16.650  1.00  0.00    -0.397 OA
HETATM   50  H35 UNL     1       4.742  17.335  16.302  1.00  0.00     0.209 HD
ENDBRANCH  48  49
ENDBRANCH  17  48
TORSDOF 7
ENDMDL
