MODEL 1
REMARK minimizedAffinity -9.00467205
REMARK CNNscore 0.481590718
REMARK CNNaffinity 6.9902873
REMARK  13 active torsions:
REMARK  status: ('A' for Active; 'I' for Inactive)
REMARK    1  A    between atoms: C2_2  and  C4_4 
REMARK    2  A    between atoms: C5_6  and  C6_7 
REMARK    3  A    between atoms: C7_8  and  C8_9 
REMARK    4  A    between atoms: C9_10  and  C10_11 
REMARK    5  A    between atoms: C11_12  and  C12_13 
REMARK    6  A    between atoms: C12_13  and  C13_14 
REMARK    7  A    between atoms: C18_21  and  C19_22 
REMARK    8  A    between atoms: C19_22  and  O4_23 
REMARK    9  A    between atoms: C20_24  and  O5_25 
REMARK   10  A    between atoms: C21_26  and  O6_27 
REMARK   11  A    between atoms: C30_38  and  O9_39 
REMARK   12  A    between atoms: O9_39  and  C31_40 
REMARK   13  A    between atoms: C31_40  and  C32_41 
ROOT
HETATM    1  C4  UNL     1      -8.382  47.385 -28.447  1.00  0.00     0.142 C 
HETATM    2  O1  UNL     1      -7.331  48.320 -28.796  1.00  0.00    -0.308 OA
HETATM    3  C5  UNL     1      -6.335  47.520 -29.411  1.00  0.00     0.306 C 
HETATM    4  O2  UNL     1      -6.363  46.267 -28.755  1.00  0.00    -0.320 OA
HETATM    5  C15 UNL     1      -7.770  45.999 -28.765  1.00  0.00     0.179 C 
HETATM    6  C16 UNL     1      -8.066  45.491 -30.194  1.00  0.00     0.086 C 
HETATM    7  C17 UNL     1      -7.256  44.233 -30.446  1.00  0.00     0.172 A 
HETATM    8  O3  UNL     1      -6.216  44.312 -31.417  1.00  0.00    -0.363 OA
HETATM    9  C18 UNL     1      -7.283  43.391 -31.723  1.00  0.00     0.138 A 
HETATM   10  C20 UNL     1      -8.103  43.736 -32.960  1.00  0.00     0.200 C 
HETATM   11  C21 UNL     1      -8.646  45.173 -33.091  1.00  0.00     0.161 C 
HETATM   12  C22 UNL     1      -8.873  45.557 -34.552  1.00  0.00     0.192 C 
HETATM   13  O7  UNL     1      -9.377  44.855 -35.417  1.00  0.00    -0.289 OA
HETATM   14  C23 UNL     1      -8.452  46.949 -34.811  1.00  0.00    -0.016 C 
HETATM   15  C24 UNL     1      -8.692  47.644 -36.092  1.00  0.00     0.052 C 
HETATM   16  C25 UNL     1      -7.810  47.348 -33.709  1.00  0.00    -0.005 C 
HETATM   17  C26 UNL     1      -7.695  46.295 -32.633  1.00  0.00     0.090 C 
HETATM   18  C27 UNL     1      -7.863  46.727 -31.138  1.00  0.00     0.092 C 
HETATM   19  O8  UNL     1      -6.609  47.388 -30.808  1.00  0.00    -0.316 OA
HETATM   20  C28 UNL     1      -9.073  47.738 -30.890  1.00  0.00     0.050 C 
HETATM   21  C29 UNL     1      -8.805  49.202 -31.295  1.00  0.00     0.016 C 
HETATM   22  C30 UNL     1      -9.566  47.712 -29.397  1.00  0.00     0.170 C 
ENDROOT
BRANCH   3  23
HETATM   23  C6  UNL     1      -5.025  48.227 -29.279  1.00  0.00     0.074 C 
HETATM   24  C7  UNL     1      -4.293  48.587 -28.209  1.00  0.00     0.004 C 
BRANCH  24  25
HETATM   25  C8  UNL     1      -4.576  48.320 -26.818  1.00  0.00    -0.000 C 
HETATM   26  C9  UNL     1      -3.764  48.709 -25.823  1.00  0.00    -0.000 C 
BRANCH  26  27
HETATM   27  C10 UNL     1      -4.045  48.434 -24.431  1.00  0.00    -0.004 C 
HETATM   28  C11 UNL     1      -3.091  48.380 -23.491  1.00  0.00    -0.027 C 
BRANCH  28  29
HETATM   29  C12 UNL     1      -3.365  48.088 -22.042  1.00  0.00     0.027 C 
BRANCH  29  30
HETATM   30  C13 UNL     1      -2.308  47.189 -21.396  1.00  0.00    -0.001 C 
HETATM   31  C14 UNL     1      -1.060  47.937 -20.947  1.00  0.00     0.005 C 
ENDBRANCH  29  30
ENDBRANCH  28  29
ENDBRANCH  26  27
ENDBRANCH  24  25
ENDBRANCH   3  23
BRANCH   1  32
HETATM   32  C2  UNL     1      -8.728  47.608 -26.966  1.00  0.00    -0.054 C 
HETATM   33  C1  UNL     1      -8.339  46.769 -25.985  1.00  0.00     0.017 C 
HETATM   34  C3  UNL     1      -9.532  48.830 -26.603  1.00  0.00     0.046 C 
ENDBRANCH   1  32
BRANCH  22  35
HETATM   35  O9  UNL     1     -10.604  46.729 -29.240  1.00  0.00    -0.377 OA
BRANCH  35  36
HETATM   36  C31 UNL     1     -11.906  47.197 -29.605  1.00  0.00     0.207 C 
BRANCH  36  37
HETATM   37  C32 UNL     1     -12.921  46.817 -28.556  1.00  0.00    -0.035 A 
HETATM   38  C33 UNL     1     -13.988  45.963 -28.868  1.00  0.00     0.009 A 
HETATM   39  C34 UNL     1     -14.929  45.623 -27.895  1.00  0.00     0.001 A 
HETATM   40  C35 UNL     1     -14.813  46.132 -26.603  1.00  0.00     0.000 A 
HETATM   41  C36 UNL     1     -13.758  46.984 -26.283  1.00  0.00     0.001 A 
HETATM   42  C37 UNL     1     -12.816  47.325 -27.254  1.00  0.00     0.009 A 
ENDBRANCH  36  37
ENDBRANCH  35  36
ENDBRANCH  22  35
BRANCH  11  43
HETATM   43  O6  UNL     1      -9.945  45.257 -32.478  1.00  0.00    -0.378 OA
HETATM   44  H27 UNL     1     -10.372  44.408 -32.737  1.00  0.00     0.211 HD
ENDBRANCH  11  43
BRANCH   9  45
HETATM   45  C19 UNL     1      -6.769  41.970 -31.665  1.00  0.00     0.207 C 
BRANCH  45  46
HETATM   46  O4  UNL     1      -5.434  41.927 -32.160  1.00  0.00    -0.398 OA
HETATM   47  H24 UNL     1      -5.193  40.984 -32.218  1.00  0.00     0.209 HD
ENDBRANCH  45  46
ENDBRANCH   9  45
BRANCH  10  48
HETATM   48  O5  UNL     1      -9.269  42.877 -32.987  1.00  0.00    -0.389 OA
HETATM   49  H26 UNL     1      -8.993  42.001 -32.639  1.00  0.00     0.210 HD
ENDBRANCH  10  48
TORSDOF 13
ENDMDL
