MODEL 1
REMARK minimizedAffinity -8.34123421
REMARK CNNscore 0.310431629
REMARK CNNaffinity 7.14952517
REMARK  11 active torsions:
REMARK  status: ('A' for Active; 'I' for Inactive)
REMARK    1  A    between atoms: C3_3  and  O1_4 
REMARK    2  A    between atoms: N1_14  and  O2_16 
REMARK    3  A    between atoms: O2_16  and  C13_17 
REMARK    4  A    between atoms: C13_17  and  C14_18 
REMARK       I    between atoms: C14_18  and  N2_20 
REMARK    5  A    between atoms: N2_20  and  C15_21 
REMARK    6  A    between atoms: C15_21  and  C16_22 
REMARK    7  A    between atoms: C15_21  and  C17_25 
REMARK    8  A    between atoms: C16_22  and  O5_24 
REMARK    9  A    between atoms: C17_25  and  O6_26 
REMARK   10  A    between atoms: C17_25  and  C18_27 
REMARK   11  A    between atoms: C22_31  and  N3_32 
ROOT
HETATM    1  C1  UNL     1     -14.431  15.278  13.050  1.00  0.00     0.015 C 
HETATM    2  C2  UNL     1     -13.696  14.727  13.823  1.00  0.00    -0.078 C 
HETATM    3  C3  UNL     1     -12.838  14.040  14.803  1.00  0.00     0.128 C 
HETATM    4  C4  UNL     1     -11.344  14.185  14.487  1.00  0.00     0.052 C 
HETATM    5  C5  UNL     1     -10.670  12.943  15.086  1.00  0.00     0.010 C 
HETATM    6  C6  UNL     1     -11.794  12.055  15.656  1.00  0.00     0.002 C 
HETATM    7  C7  UNL     1     -11.526  10.533  15.638  1.00  0.00    -0.004 C 
HETATM    8  C8  UNL     1     -10.192  10.192  16.316  1.00  0.00     0.010 C 
HETATM    9  C9  UNL     1      -9.995   8.684  16.421  1.00  0.00     0.035 C 
HETATM   10  C10 UNL     1     -10.120   7.987  15.087  1.00  0.00    -0.069 C 
HETATM   11  C11 UNL     1      -9.221   7.044  14.750  1.00  0.00     0.030 C 
HETATM   12  C12 UNL     1      -9.402   6.180  13.549  1.00  0.00     0.032 C 
HETATM   13  N1  UNL     1      -8.691   5.134  13.247  1.00  0.00    -0.271 N 
ATOM     14  H1  UNL     1      -8.863   4.550  12.429  1.00  0.00     0.194 HD
HETATM   15  C24 UNL     1     -10.577   6.469  12.639  1.00  0.00     0.060 C 
HETATM   16  C25 UNL     1     -11.062   7.902  12.761  1.00  0.00     0.020 C 
HETATM   17  C26 UNL     1     -11.335   8.347  14.226  1.00  0.00    -0.016 C 
HETATM   18  C27 UNL     1     -12.553   7.571  14.781  1.00  0.00     0.020 C 
HETATM   19  C28 UNL     1     -11.581   9.909  14.222  1.00  0.00     0.002 C 
HETATM   20  C29 UNL     1     -12.889  10.317  13.514  1.00  0.00     0.007 C 
HETATM   21  C30 UNL     1     -13.081  11.832  13.475  1.00  0.00     0.014 C 
HETATM   22  C31 UNL     1     -13.058  12.497  14.877  1.00  0.00     0.003 C 
HETATM   23  C32 UNL     1     -14.342  12.134  15.651  1.00  0.00     0.020 C 
ENDROOT
BRANCH   3  24
HETATM   24  O1  UNL     1     -13.062  14.624  16.089  1.00  0.00    -0.377 OA
HETATM   25  H2  UNL     1     -13.079  15.591  15.967  1.00  0.00     0.211 HD
ENDBRANCH   3  24
BRANCH  13  26
HETATM   26  O2  UNL     1      -7.662   4.897  14.169  1.00  0.00    -0.271 OA
BRANCH  26  27
HETATM   27  C13 UNL     1      -6.762   3.943  13.610  1.00  0.00     0.303 C 
BRANCH  27  28
HETATM   28  C14 UNL     1      -5.549   4.659  13.039  1.00  0.00     0.244 C 
HETATM   29  O3  UNL     1      -5.473   5.881  12.956  1.00  0.00    -0.271 OA
HETATM   30  N2  UNL     1      -4.499   3.820  12.714  1.00  0.00    -0.342 N 
HETATM   31  H16 UNL     1      -4.751   2.850  12.521  1.00  0.00     0.163 HD
BRANCH  30  32
HETATM   32  C15 UNL     1      -3.307   4.325  11.995  1.00  0.00     0.216 C 
BRANCH  32  33
HETATM   33  C16 UNL     1      -2.650   3.176  11.230  1.00  0.00     0.166 C 
HETATM   34  O4  UNL     1      -1.650   3.239  10.535  1.00  0.00    -0.648 OA
BRANCH  33  35
HETATM   35  O5  UNL     1      -3.272   1.983  11.402  1.00  0.00    -0.775 OA
HETATM   36  H18 UNL     1      -2.748   1.358  10.854  1.00  0.00     0.167 HD
ENDBRANCH  33  35
ENDBRANCH  32  33
BRANCH  32  37
HETATM   37  C17 UNL     1      -2.267   4.918  12.977  1.00  0.00     0.184 C 
BRANCH  37  38
HETATM   38  O6  UNL     1      -2.780   4.994  14.317  1.00  0.00    -0.388 OA
HETATM   39  H20 UNL     1      -3.437   4.282  14.401  1.00  0.00     0.210 HD
ENDBRANCH  37  38
BRANCH  37  40
HETATM   40  C18 UNL     1      -1.817   6.317  12.609  1.00  0.00    -0.025 A 
HETATM   41  C19 UNL     1      -2.359   7.440  13.260  1.00  0.00     0.010 A 
HETATM   42  C20 UNL     1      -1.939   8.734  12.936  1.00  0.00     0.003 A 
HETATM   43  C21 UNL     1      -0.967   8.928  11.956  1.00  0.00     0.036 A 
HETATM   44  C22 UNL     1      -0.426   7.819  11.296  1.00  0.00     0.103 A 
HETATM   45  C23 UNL     1      -0.845   6.518  11.617  1.00  0.00     0.045 A 
BRANCH  44  46
HETATM   46  N3  UNL     1       0.599   8.020  10.262  1.00  0.00    -0.116 N 
HETATM   47  O7  UNL     1       1.639   7.352  10.342  1.00  0.00    -0.532 OA
HETATM   48  O8  UNL     1       0.365   8.843   9.365  1.00  0.00    -0.532 OA
ENDBRANCH  44  46
ENDBRANCH  37  40
ENDBRANCH  32  37
ENDBRANCH  30  32
ENDBRANCH  27  28
ENDBRANCH  26  27
ENDBRANCH  13  26
TORSDOF 11
ENDMDL
