MODEL 1
REMARK minimizedAffinity -8.82099438
REMARK CNNscore 0.0986525714
REMARK CNNaffinity 5.75237083
REMARK  11 active torsions:
REMARK  status: ('A' for Active; 'I' for Inactive)
REMARK    1  A    between atoms: C13_13  and  S1_14 
REMARK    2  A    between atoms: C22_26  and  C23_27 
REMARK    3  A    between atoms: C23_27  and  O4_28 
REMARK    4  A    between atoms: C29_34  and  O5_35 
REMARK    5  A    between atoms: C41_48  and  C42_49 
REMARK    6  A    between atoms: C41_48  and  N1_60 
REMARK    7  A    between atoms: C42_49  and  C43_50 
REMARK    8  A    between atoms: C43_50  and  C44_51 
REMARK    9  A    between atoms: C43_50  and  C45_53 
REMARK   10  A    between atoms: C44_51  and  O7_52 
REMARK   11  A    between atoms: C45_53  and  C46_54 
REMARK       I    between atoms: C52_62  and  N2_63 
REMARK       I    between atoms: C52_62  and  N3_64 
ROOT
HETATM    1  C1  UNL     1     -18.392  41.100 -17.302  1.00  0.00     0.010 C 
HETATM    2  C2  UNL     1     -18.220  41.362 -18.808  1.00  0.00    -0.010 C 
HETATM    3  C3  UNL     1     -17.300  40.310 -19.454  1.00  0.00     0.009 C 
HETATM    4  C4  UNL     1     -15.791  40.603 -19.373  1.00  0.00     0.039 C 
HETATM    5  C5  UNL     1     -15.406  41.884 -18.687  1.00  0.00    -0.049 C 
HETATM    6  C6  UNL     1     -14.099  42.042 -18.185  1.00  0.00     0.044 C 
HETATM    7  C7  UNL     1     -13.735  43.203 -17.502  1.00  0.00     0.073 C 
HETATM    8  C8  UNL     1     -14.711  44.143 -17.188  1.00  0.00     0.037 C 
HETATM    9  C9  UNL     1     -15.989  44.022 -17.737  1.00  0.00     0.011 C 
HETATM   10  C10 UNL     1     -16.332  42.928 -18.540  1.00  0.00    -0.047 C 
HETATM   11  C11 UNL     1     -17.732  42.812 -19.114  1.00  0.00     0.024 C 
HETATM   12  C12 UNL     1     -17.849  43.069 -20.649  1.00  0.00     0.033 C 
HETATM   13  C13 UNL     1     -17.890  44.495 -21.284  1.00  0.00     0.140 C 
HETATM   14  C14 UNL     1     -16.609  44.888 -22.103  1.00  0.00     0.050 C 
HETATM   15  C15 UNL     1     -16.895  44.829 -23.614  1.00  0.00    -0.013 C 
HETATM   16  C16 UNL     1     -16.882  45.931 -24.396  1.00  0.00    -0.050 C 
HETATM   17  C17 UNL     1     -16.677  47.265 -23.739  1.00  0.00     0.043 C 
HETATM   18  C18 UNL     1     -15.393  47.101 -22.935  1.00  0.00     0.013 C 
HETATM   19  C19 UNL     1     -14.190  46.617 -23.825  1.00  0.00     0.038 C 
HETATM   20  C20 UNL     1     -14.331  46.822 -25.362  1.00  0.00     0.123 C 
HETATM   21  C21 UNL     1     -12.944  46.724 -26.049  1.00  0.00     0.039 C 
HETATM   22  C22 UNL     1     -12.924  47.269 -27.513  1.00  0.00     0.023 C 
HETATM   23  C24 UNL     1     -13.041  46.167 -28.596  1.00  0.00     0.101 C 
HETATM   24  C25 UNL     1     -14.364  45.532 -28.629  1.00  0.00    -0.101 C 
HETATM   25  C26 UNL     1     -15.446  45.037 -28.466  1.00  0.00    -0.066 C 
HETATM   26  C27 UNL     1     -16.705  44.512 -28.017  1.00  0.00     0.029 A 
HETATM   27  C28 UNL     1     -17.372  43.594 -28.837  1.00  0.00     0.057 A 
HETATM   28  C29 UNL     1     -18.607  43.091 -28.447  1.00  0.00     0.067 A 
HETATM   29  C30 UNL     1     -19.199  43.509 -27.265  1.00  0.00     0.037 A 
HETATM   30  C31 UNL     1     -18.538  44.424 -26.442  1.00  0.00     0.014 A 
HETATM   31  C32 UNL     1     -17.258  44.916 -26.773  1.00  0.00    -0.006 A 
HETATM   32  C33 UNL     1     -16.563  45.941 -25.870  1.00  0.00     0.185 C 
HETATM   33  O6  UNL     1     -15.132  45.771 -25.922  1.00  0.00    -0.371 OA
HETATM   34  C34 UNL     1     -15.750  46.171 -21.716  1.00  0.00     0.102 A 
HETATM   35  C35 UNL     1     -14.515  45.880 -20.868  1.00  0.00     0.081 A 
HETATM   36  C36 UNL     1     -13.696  44.765 -21.080  1.00  0.00     0.006 C 
HETATM   37  C37 UNL     1     -12.709  44.421 -20.156  1.00  0.00     0.010 C 
HETATM   38  C38 UNL     1     -12.508  45.181 -18.992  1.00  0.00    -0.003 C 
HETATM   39  C39 UNL     1     -13.188  46.406 -18.895  1.00  0.00     0.010 C 
HETATM   40  C40 UNL     1     -14.194  46.737 -19.810  1.00  0.00     0.006 C 
HETATM   41  C41 UNL     1     -11.716  44.536 -17.809  1.00  0.00     0.171 C 
HETATM   42  O8  UNL     1     -12.407  43.380 -17.204  1.00  0.00    -0.316 OA
HETATM   43 NA1  UNL     1     -14.061  44.546 -20.771  1.00  0.00    -0.223 Na
ENDROOT
BRANCH  41  44
HETATM   44  C42 UNL     1     -11.505  45.538 -16.618  1.00  0.00     0.074 C 
BRANCH  44  45
HETATM   45  C43 UNL     1     -10.153  46.311 -16.551  1.00  0.00     0.018 C 
BRANCH  45  46
HETATM   46  C44 UNL     1      -9.620  46.244 -15.106  1.00  0.00     0.169 C 
BRANCH  46  47
HETATM   47  O7  UNL     1      -9.756  47.502 -14.455  1.00  0.00    -0.400 OA
HETATM   48  H47 UNL     1      -9.295  47.431 -13.599  1.00  0.00     0.209 HD
ENDBRANCH  46  47
ENDBRANCH  45  46
BRANCH  45  49
HETATM   49  C45 UNL     1     -10.288  47.770 -17.038  1.00  0.00     0.045 C 
BRANCH  49  50
HETATM   50  C46 UNL     1      -9.441  48.136 -18.239  1.00  0.00    -0.058 A 
HETATM   51  C47 UNL     1      -8.265  48.883 -18.089  1.00  0.00     0.007 A 
HETATM   52  C48 UNL     1      -7.481  49.197 -19.198  1.00  0.00     0.001 A 
HETATM   53  C49 UNL     1      -7.857  48.764 -20.469  1.00  0.00     0.000 A 
HETATM   54  C50 UNL     1      -9.025  48.018 -20.629  1.00  0.00     0.001 A 
HETATM   55  C51 UNL     1      -9.813  47.707 -19.522  1.00  0.00     0.007 A 
ENDBRANCH  49  50
ENDBRANCH  45  49
ENDBRANCH  44  45
ENDBRANCH  41  44
BRANCH  41  56
HETATM   56  N1  UNL     1     -10.342  44.301 -18.327  1.00  0.00    -0.336 N 
HETATM   57  C52 UNL     1      -9.634  43.311 -17.955  1.00  0.00     0.124 C 
HETATM   58  N2  UNL     1      -9.858  42.349 -17.025  1.00  0.00    -0.279 NA
HETATM   59  N3  UNL     1      -8.397  43.168 -18.486  1.00  0.00    -0.279 NA
HETATM   60  H55 UNL     1      -9.288  42.547 -16.209  1.00  0.00     0.126 HD
HETATM   61  H56 UNL     1      -9.521  41.447 -17.333  1.00  0.00     0.126 HD
HETATM   62  H57 UNL     1      -8.284  43.880 -19.209  1.00  0.00     0.126 HD
HETATM   63  H58 UNL     1      -8.234  42.257 -18.898  1.00  0.00     0.126 HD
ATOM     64  H1  UNL     1      -9.953  44.957 -19.004  1.00  0.00     0.165 HD
ENDBRANCH  41  56
BRANCH  13  65
HETATM   65  S1  UNL     1     -18.735  45.739 -20.331  1.00  0.00     0.106 S 
HETATM   66  O1  UNL     1     -19.008  46.800 -21.294  1.00  0.00    -0.595 OA
HETATM   67  O2  UNL     1     -19.936  45.046 -19.866  1.00  0.00    -0.595 OA
HETATM   68  O3  UNL     1     -17.808  46.112 -19.270  1.00  0.00    -0.595 OA
ENDBRANCH  13  65
BRANCH  22  69
HETATM   69  C23 UNL     1     -11.614  48.057 -27.726  1.00  0.00     0.169 C 
BRANCH  69  70
HETATM   70  O4  UNL     1     -11.467  49.099 -26.772  1.00  0.00    -0.400 OA
HETATM   71  H29 UNL     1     -11.986  49.863 -27.074  1.00  0.00     0.209 HD
ENDBRANCH  69  70
ENDBRANCH  22  69
BRANCH  28  72
HETATM   72  O5  UNL     1     -19.274  42.178 -29.207  1.00  0.00    -0.361 OA
HETATM   73  H33 UNL     1     -18.695  41.901 -29.935  1.00  0.00     0.217 HD
ENDBRANCH  28  72
TORSDOF 11
ENDMDL
