MODEL 1
REMARK minimizedAffinity -6.41953897
REMARK CNNscore 0.601326287
REMARK CNNaffinity 6.76737833
REMARK  15 active torsions:
REMARK  status: ('A' for Active; 'I' for Inactive)
REMARK    1  A    between atoms: C19_20  and  O2_21 
REMARK    2  A    between atoms: C19_20  and  C20_22 
REMARK    3  A    between atoms: C20_22  and  C21_24 
REMARK    4  A    between atoms: C21_24  and  O4_25 
REMARK    5  A    between atoms: O4_25  and  C22_26 
REMARK    6  A    between atoms: C22_26  and  C23_28 
REMARK    7  A    between atoms: C23_28  and  C24_29 
REMARK    8  A    between atoms: C24_29  and  C25_30 
REMARK       I    between atoms: C25_30  and  N1_32 
REMARK    9  A    between atoms: N1_32  and  C26_33 
REMARK   10  A    between atoms: C26_33  and  C27_34 
REMARK   11  A    between atoms: C27_34  and  C28_35 
REMARK   12  A    between atoms: C28_35  and  C29_36 
REMARK   13  A    between atoms: C29_36  and  C30_37 
REMARK   14  A    between atoms: C30_37  and  C31_38 
REMARK   15  A    between atoms: C31_38  and  O8_40 
ROOT
HETATM    1  C1  UNL     1       3.884  56.550  -7.421  1.00  0.00     0.020 C 
HETATM    2  C2  UNL     1       2.993  55.332  -7.795  1.00  0.00    -0.016 C 
HETATM    3  C3  UNL     1       2.666  54.569  -6.479  1.00  0.00     0.022 C 
HETATM    4  C4  UNL     1       3.857  53.854  -5.851  1.00  0.00     0.084 C 
HETATM    5  C5  UNL     1       4.496  52.930  -6.851  1.00  0.00     0.149 C 
HETATM    6  O1  UNL     1       5.082  51.904  -6.516  1.00  0.00    -0.293 OA
HETATM    7  C6  UNL     1       4.485  53.332  -8.275  1.00  0.00     0.053 C 
HETATM    8  C7  UNL     1       3.847  54.438  -8.705  1.00  0.00    -0.068 C 
HETATM    9  C8  UNL     1       4.014  54.816 -10.157  1.00  0.00     0.035 C 
HETATM   10  C9  UNL     1       2.985  55.808 -10.678  1.00  0.00     0.010 C 
HETATM   11  C10 UNL     1       1.607  55.635 -10.044  1.00  0.00    -0.004 C 
HETATM   12  C11 UNL     1       1.675  55.899  -8.509  1.00  0.00     0.002 C 
HETATM   13  C12 UNL     1       0.303  55.605  -7.837  1.00  0.00     0.007 C 
HETATM   14  C13 UNL     1      -0.392  54.298  -8.258  1.00  0.00     0.013 C 
HETATM   15  C14 UNL     1      -0.489  54.154  -9.788  1.00  0.00    -0.002 C 
HETATM   16  C15 UNL     1      -1.451  55.228 -10.363  1.00  0.00     0.019 C 
HETATM   17  C16 UNL     1       0.959  54.271 -10.327  1.00  0.00     0.002 C 
HETATM   18  C17 UNL     1       0.839  53.830 -11.779  1.00  0.00     0.009 C 
HETATM   19  C18 UNL     1      -0.231  52.723 -11.756  1.00  0.00     0.047 C 
HETATM   20  C19 UNL     1      -0.873  52.743 -10.339  1.00  0.00     0.128 C 
ENDROOT
BRANCH  20  21
HETATM   21  O2  UNL     1      -0.239  51.728  -9.556  1.00  0.00    -0.381 OA
HETATM   22  H27 UNL     1      -0.342  50.874 -10.022  1.00  0.00     0.211 HD
ENDBRANCH  20  21
BRANCH  20  23
HETATM   23  C20 UNL     1      -2.389  52.442 -10.379  1.00  0.00     0.185 C 
HETATM   24  O3  UNL     1      -3.018  52.111  -9.371  1.00  0.00    -0.292 OA
BRANCH  23  25
HETATM   25  C21 UNL     1      -3.084  52.582 -11.735  1.00  0.00     0.260 C 
BRANCH  25  26
HETATM   26  O4  UNL     1      -3.166  51.341 -12.437  1.00  0.00    -0.314 OA
BRANCH  26  27
HETATM   27  C22 UNL     1      -3.007  51.454 -13.785  1.00  0.00     0.259 C 
HETATM   28  O5  UNL     1      -3.668  52.184 -14.511  1.00  0.00    -0.265 OA
BRANCH  27  29
HETATM   29  C23 UNL     1      -1.938  50.517 -14.269  1.00  0.00     0.120 C 
BRANCH  29  30
HETATM   30  C24 UNL     1      -2.536  49.524 -15.252  1.00  0.00     0.112 C 
BRANCH  30  31
HETATM   31  C25 UNL     1      -2.010  49.749 -16.652  1.00  0.00     0.217 C 
HETATM   32  O6  UNL     1      -1.581  48.849 -17.366  1.00  0.00    -0.274 OA
HETATM   33  N1  UNL     1      -2.061  51.073 -17.041  1.00  0.00    -0.361 N 
HETATM   34  H34 UNL     1      -2.664  51.690 -16.513  1.00  0.00     0.162 HD
BRANCH  33  35
HETATM   35  C26 UNL     1      -1.705  51.455 -18.393  1.00  0.00     0.122 C 
BRANCH  35  36
HETATM   36  C27 UNL     1      -0.257  51.930 -18.469  1.00  0.00     0.020 C 
BRANCH  36  37
HETATM   37  C28 UNL     1      -0.058  53.125 -19.405  1.00  0.00     0.002 C 
BRANCH  37  38
HETATM   38  C29 UNL     1       0.864  52.885 -20.605  1.00  0.00     0.010 C 
BRANCH  38  39
HETATM   39  C30 UNL     1       0.221  52.043 -21.706  1.00  0.00     0.110 C 
BRANCH  39  40
HETATM   40  C31 UNL     1       0.212  52.767 -23.025  1.00  0.00     0.139 C 
HETATM   41  O7  UNL     1       0.975  53.639 -23.401  1.00  0.00    -0.650 OA
BRANCH  40  42
HETATM   42  O8  UNL     1      -0.781  52.334 -23.827  1.00  0.00    -0.776 OA
HETATM   43  H45 UNL     1      -0.677  52.871 -24.641  1.00  0.00     0.167 HD
ENDBRANCH  40  42
ENDBRANCH  39  40
ENDBRANCH  38  39
ENDBRANCH  37  38
ENDBRANCH  36  37
ENDBRANCH  35  36
ENDBRANCH  33  35
ENDBRANCH  30  31
ENDBRANCH  29  30
ENDBRANCH  27  29
ENDBRANCH  26  27
ENDBRANCH  25  26
ENDBRANCH  23  25
ENDBRANCH  20  23
TORSDOF 15
ENDMDL
