MODEL 1
REMARK minimizedAffinity -7.74500513
REMARK CNNscore 0.440332592
REMARK CNNaffinity 6.09029579
REMARK  9 active torsions:
REMARK  status: ('A' for Active; 'I' for Inactive)
REMARK    1  A    between atoms: C3_3  and  O1_4 
REMARK    2  A    between atoms: N1_14  and  O2_16 
REMARK    3  A    between atoms: O2_16  and  C13_17 
REMARK    4  A    between atoms: C13_17  and  C14_18 
REMARK       I    between atoms: C14_18  and  N2_20 
REMARK    5  A    between atoms: N2_20  and  C15_21 
REMARK    6  A    between atoms: C15_21  and  C16_22 
REMARK    7  A    between atoms: C15_21  and  C18_26 
REMARK    8  A    between atoms: C16_22  and  C17_23 
REMARK    9  A    between atoms: C17_23  and  O5_25 
ROOT
HETATM    1  C1  UNL     1      -3.823  50.740 -19.543  1.00  0.00     0.015 C 
HETATM    2  C2  UNL     1      -3.691  50.603 -20.728  1.00  0.00    -0.078 C 
HETATM    3  C3  UNL     1      -3.517  50.465 -22.183  1.00  0.00     0.128 C 
HETATM    4  C4  UNL     1      -4.555  51.270 -22.957  1.00  0.00     0.052 C 
HETATM    5  C5  UNL     1      -4.462  50.712 -24.370  1.00  0.00     0.010 C 
HETATM    6  C6  UNL     1      -4.075  49.224 -24.235  1.00  0.00     0.002 C 
HETATM    7  C7  UNL     1      -5.169  48.231 -24.694  1.00  0.00    -0.004 C 
HETATM    8  C8  UNL     1      -5.489  48.378 -26.191  1.00  0.00     0.010 C 
HETATM    9  C9  UNL     1      -6.513  47.343 -26.639  1.00  0.00     0.035 C 
HETATM   10  C10 UNL     1      -7.769  47.394 -25.800  1.00  0.00    -0.069 C 
HETATM   11  C11 UNL     1      -8.968  47.484 -26.401  1.00  0.00     0.030 C 
HETATM   12  C12 UNL     1     -10.238  47.416 -25.634  1.00  0.00     0.032 C 
HETATM   13  N1  UNL     1     -11.350  47.599 -26.285  1.00  0.00    -0.271 N 
ATOM     14  H1  UNL     1     -11.402  47.837 -27.276  1.00  0.00     0.194 HD
HETATM   15  C25 UNL     1     -10.146  47.078 -24.162  1.00  0.00     0.060 C 
HETATM   16  C26 UNL     1      -8.903  47.720 -23.557  1.00  0.00     0.020 C 
HETATM   17  C27 UNL     1      -7.580  47.326 -24.278  1.00  0.00    -0.016 C 
HETATM   18  C28 UNL     1      -7.213  45.871 -23.904  1.00  0.00     0.020 C 
HETATM   19  C29 UNL     1      -6.461  48.351 -23.845  1.00  0.00     0.002 C 
HETATM   20  C30 UNL     1      -6.153  48.357 -22.331  1.00  0.00     0.007 C 
HETATM   21  C31 UNL     1      -4.686  48.106 -21.998  1.00  0.00     0.014 C 
HETATM   22  C32 UNL     1      -3.655  49.009 -22.738  1.00  0.00     0.003 C 
HETATM   23  C33 UNL     1      -2.300  48.263 -22.678  1.00  0.00     0.020 C 
ENDROOT
BRANCH   3  24
HETATM   24  O1  UNL     1      -2.236  51.004 -22.532  1.00  0.00    -0.377 OA
HETATM   25  H2  UNL     1      -2.138  51.840 -22.046  1.00  0.00     0.211 HD
ENDBRANCH   3  24
BRANCH  13  26
HETATM   26  O2  UNL     1     -12.470  47.429 -25.459  1.00  0.00    -0.271 OA
BRANCH  26  27
HETATM   27  C13 UNL     1     -13.017  46.133 -25.681  1.00  0.00     0.303 C 
BRANCH  27  28
HETATM   28  C14 UNL     1     -14.435  46.242 -26.228  1.00  0.00     0.244 C 
HETATM   29  O3  UNL     1     -14.671  46.376 -27.425  1.00  0.00    -0.271 OA
HETATM   30  N2  UNL     1     -15.420  46.104 -25.274  1.00  0.00    -0.354 N 
HETATM   31  H16 UNL     1     -15.124  45.982 -24.306  1.00  0.00     0.162 HD
BRANCH  30  32
HETATM   32  C15 UNL     1     -16.851  46.097 -25.569  1.00  0.00     0.098 C 
BRANCH  32  33
HETATM   33  C16 UNL     1     -17.590  46.969 -24.541  1.00  0.00     0.135 C 
BRANCH  33  34
HETATM   34  C17 UNL     1     -19.038  46.608 -24.362  1.00  0.00     0.141 C 
HETATM   35  O4  UNL     1     -19.939  46.855 -25.146  1.00  0.00    -0.650 OA
BRANCH  34  36
HETATM   36  O5  UNL     1     -19.301  45.992 -23.192  1.00  0.00    -0.776 OA
HETATM   37  H20 UNL     1     -20.272  45.851 -23.219  1.00  0.00     0.167 HD
ENDBRANCH  34  36
ENDBRANCH  33  34
ENDBRANCH  32  33
BRANCH  32  38
HETATM   38  C18 UNL     1     -17.395  44.645 -25.683  1.00  0.00     0.014 C 
HETATM   39  C19 UNL     1     -17.372  44.131 -27.136  1.00  0.00     0.033 C 
HETATM   40  C20 UNL     1     -17.201  42.618 -27.234  1.00  0.00     0.169 C 
HETATM   41  O6  UNL     1     -17.851  41.974 -26.147  1.00  0.00    -0.381 OA
HETATM   42  C21 UNL     1     -17.244  42.233 -24.870  1.00  0.00     0.054 C 
HETATM   43  C22 UNL     1     -18.369  42.086 -23.837  1.00  0.00     0.045 C 
HETATM   44  C23 UNL     1     -16.178  41.165 -24.597  1.00  0.00     0.045 C 
HETATM   45  C24 UNL     1     -16.627  43.650 -24.794  1.00  0.00     0.044 C 
ENDBRANCH  32  38
ENDBRANCH  30  32
ENDBRANCH  27  28
ENDBRANCH  26  27
ENDBRANCH  13  26
TORSDOF 9
ENDMDL
