MODEL 1
REMARK minimizedAffinity -8.77419281
REMARK  10 active torsions:
REMARK  status: ('A' for Active; 'I' for Inactive)
REMARK    1  A    between atoms: C2_2  and  C3_4 
REMARK    2  A    between atoms: C10_12  and  O3_13 
REMARK    3  A    between atoms: C13_16  and  C14_17 
REMARK    4  A    between atoms: C14_17  and  C16_19 
REMARK    5  A    between atoms: C16_19  and  C17_20 
REMARK    6  A    between atoms: C17_20  and  C18_21 
REMARK    7  A    between atoms: C26_29  and  C27_30 
REMARK    8  A    between atoms: C27_30  and  C28_31 
REMARK    9  A    between atoms: C28_31  and  C29_32 
REMARK   10  A    between atoms: C29_32  and  O4_33 
ROOT
HETATM    1  C3  UNL     1      -2.487  50.150 -17.900  1.00  0.00     0.151 A 
HETATM    2  O2  UNL     1      -2.629  48.728 -18.102  1.00  0.00    -0.360 OA
HETATM    3  C4  UNL     1      -3.818  49.504 -18.199  1.00  0.00     0.166 A 
HETATM    4  C5  UNL     1      -4.405  49.745 -19.539  1.00  0.00     0.041 C 
HETATM    5  C6  UNL     1      -3.422  49.600 -20.724  1.00  0.00     0.006 C 
HETATM    6  C7  UNL     1      -1.940  50.152 -20.460  1.00  0.00    -0.030 C 
HETATM    7  C8  UNL     1      -0.919  48.970 -20.458  1.00  0.00     0.016 C 
HETATM    8  C9  UNL     1      -1.470  51.114 -21.609  1.00  0.00     0.042 C 
HETATM    9  C10 UNL     1      -1.830  50.768 -23.074  1.00  0.00     0.128 C 
HETATM   10  C11 UNL     1      -3.101  49.907 -23.270  1.00  0.00    -0.006 C 
HETATM   11  C12 UNL     1      -2.667  48.411 -23.427  1.00  0.00     0.019 C 
HETATM   12  C13 UNL     1      -4.045  50.233 -24.488  1.00  0.00     0.001 C 
HETATM   13  C22 UNL     1      -5.414  49.649 -24.022  1.00  0.00     0.007 C 
HETATM   14  C23 UNL     1      -5.316  49.374 -22.513  1.00  0.00     0.011 C 
HETATM   15  C24 UNL     1      -4.065  50.144 -22.049  1.00  0.00    -0.029 C 
HETATM   16  C25 UNL     1      -4.519  51.632 -21.860  1.00  0.00     0.016 C 
HETATM   17  C26 UNL     1      -1.858  50.933 -19.061  1.00  0.00     0.039 C 
ENDROOT
BRANCH  12  18
HETATM   18  C14 UNL     1      -3.661  49.751 -25.924  1.00  0.00    -0.013 C 
HETATM   19  C15 UNL     1      -4.392  48.464 -26.322  1.00  0.00     0.010 C 
BRANCH  18  20
HETATM   20  C16 UNL     1      -2.123  49.541 -26.027  1.00  0.00     0.008 C 
BRANCH  20  21
HETATM   21  C17 UNL     1      -1.391  50.651 -26.791  1.00  0.00     0.028 C 
BRANCH  21  22
HETATM   22  C18 UNL     1       0.056  50.724 -26.384  1.00  0.00    -0.025 C 
HETATM   23  C19 UNL     1       1.061  51.358 -27.018  1.00  0.00    -0.091 C 
HETATM   24  C20 UNL     1       0.934  52.100 -28.321  1.00  0.00     0.042 C 
HETATM   25  C21 UNL     1       2.455  51.349 -26.447  1.00  0.00     0.042 C 
ENDBRANCH  21  22
ENDBRANCH  20  21
ENDBRANCH  18  20
ENDBRANCH  12  18
BRANCH   9  26
HETATM   26  O3  UNL     1      -1.953  52.011 -23.770  1.00  0.00    -0.395 OA
HETATM   27  H14 UNL     1      -1.089  52.458 -23.730  1.00  0.00     0.210 HD
ENDBRANCH   9  26
BRANCH  17  28
HETATM   28  C27 UNL     1      -0.418  51.414 -18.709  1.00  0.00     0.011 C 
BRANCH  28  29
HETATM   29  C28 UNL     1      -0.069  52.875 -19.021  1.00  0.00     0.027 C 
BRANCH  29  30
HETATM   30  C29 UNL     1       1.188  53.061 -19.861  1.00  0.00     0.164 C 
BRANCH  30  31
HETATM   31  O4  UNL     1       1.291  54.431 -20.227  1.00  0.00    -0.401 OA
HETATM   32  H48 UNL     1       2.023  54.503 -20.863  1.00  0.00     0.209 HD
ENDBRANCH  30  31
ENDBRANCH  29  30
ENDBRANCH  28  29
ENDBRANCH  17  28
BRANCH   1  33
HETATM   33  C2  UNL     1      -2.319  50.572 -16.479  1.00  0.00     0.160 C 
HETATM   34  C1  UNL     1      -1.293  49.834 -15.670  1.00  0.00     0.094 C 
HETATM   35  O1  UNL     1      -3.033  51.456 -16.019  1.00  0.00    -0.295 OA
ENDBRANCH   1  33
TORSDOF 10
ENDMDL
