MODEL 1
REMARK minimizedAffinity -10.0585909
REMARK CNNscore 0.842057705
REMARK CNNaffinity 7.25054407
REMARK  12 active torsions:
REMARK  status: ('A' for Active; 'I' for Inactive)
REMARK    1  A    between atoms: C2_2  and  C3_3 
REMARK    2  A    between atoms: C2_2  and  C26_31 
REMARK    3  A    between atoms: C3_3  and  C4_4 
REMARK    4  A    between atoms: C4_4  and  C5_5 
REMARK    5  A    between atoms: C5_5  and  C7_7 
REMARK    6  A    between atoms: C8_8  and  O1_9 
REMARK    7  A    between atoms: C9_10  and  O2_11 
REMARK    8  A    between atoms: C20_22  and  O3_23 
REMARK    9  A    between atoms: C23_26  and  O4_27 
REMARK   10  A    between atoms: C25_29  and  O5_30 
REMARK   11  A    between atoms: C26_31  and  C28_33 
REMARK   12  A    between atoms: C28_33  and  O6_34 
ROOT
HETATM    1  C7  UNL     1      -2.196   7.477  12.794  1.00  0.00     0.029 C 
HETATM    2  C8  UNL     1      -2.098   5.931  12.567  1.00  0.00     0.152 C 
HETATM    3  C9  UNL     1      -3.335   5.292  13.247  1.00  0.00     0.155 C 
HETATM    4  C10 UNL     1      -4.231   6.485  13.562  1.00  0.00     0.060 C 
HETATM    5  C11 UNL     1      -3.196   7.589  13.998  1.00  0.00    -0.029 C 
HETATM    6  C12 UNL     1      -2.448   7.319  15.330  1.00  0.00     0.016 C 
HETATM    7  C13 UNL     1      -3.953   8.929  14.120  1.00  0.00     0.011 C 
HETATM    8  C14 UNL     1      -5.215   8.839  15.007  1.00  0.00     0.009 C 
HETATM    9  C15 UNL     1      -6.158   7.725  14.517  1.00  0.00     0.029 C 
HETATM   10  C16 UNL     1      -7.584   7.675  15.162  1.00  0.00    -0.031 C 
HETATM   11  C17 UNL     1      -7.559   7.078  16.590  1.00  0.00     0.016 C 
HETATM   12  C18 UNL     1      -8.237   9.086  15.253  1.00  0.00     0.012 C 
HETATM   13  C19 UNL     1      -9.722   9.050  15.636  1.00  0.00     0.032 C 
HETATM   14  C20 UNL     1     -10.547   8.090  14.778  1.00  0.00     0.118 C 
HETATM   15  C21 UNL     1      -9.903   6.707  14.629  1.00  0.00     0.039 C 
HETATM   16  C22 UNL     1      -8.449   6.843  14.162  1.00  0.00     0.025 C 
HETATM   17  C23 UNL     1      -7.770   5.561  13.617  1.00  0.00     0.126 C 
HETATM   18  C24 UNL     1      -6.420   5.177  14.223  1.00  0.00     0.071 C 
HETATM   19  C25 UNL     1      -5.438   6.333  14.522  1.00  0.00     0.071 C 
ENDROOT
BRANCH   1  20
HETATM   20  C5  UNL     1      -0.811   8.195  12.844  1.00  0.00    -0.011 C 
HETATM   21  C6  UNL     1      -0.825   9.425  13.759  1.00  0.00     0.010 C 
BRANCH  20  22
HETATM   22  C4  UNL     1      -0.375   8.618  11.411  1.00  0.00     0.009 C 
BRANCH  22  23
HETATM   23  C3  UNL     1       0.556   7.600  10.727  1.00  0.00     0.034 C 
BRANCH  23  24
HETATM   24  C2  UNL     1       0.826   7.791   9.234  1.00  0.00    -0.083 C 
HETATM   25  C1  UNL     1      -0.063   8.346   8.389  1.00  0.00     0.015 C 
BRANCH  24  26
HETATM   26  C26 UNL     1       2.202   7.271   8.778  1.00  0.00     0.033 C 
HETATM   27  C27 UNL     1       2.210   6.589   7.402  1.00  0.00     0.017 C 
BRANCH  26  28
HETATM   28  C28 UNL     1       3.276   8.377   8.827  1.00  0.00     0.172 C 
BRANCH  28  29
HETATM   29  O6  UNL     1       3.305   9.149   7.630  1.00  0.00    -0.400 OA
HETATM   30  H48 UNL     1       2.402   9.484   7.490  1.00  0.00     0.209 HD
ENDBRANCH  28  29
ENDBRANCH  26  28
ENDBRANCH  24  26
ENDBRANCH  23  24
ENDBRANCH  22  23
ENDBRANCH  20  22
ENDBRANCH   1  20
BRANCH   2  31
HETATM   31  O1  UNL     1      -0.914   5.376  13.136  1.00  0.00    -0.393 OA
HETATM   32  H13 UNL     1      -0.804   4.480  12.777  1.00  0.00     0.210 HD
ENDBRANCH   2  31
BRANCH   3  33
HETATM   33  O2  UNL     1      -3.969   4.390  12.347  1.00  0.00    -0.392 OA
HETATM   34  H15 UNL     1      -3.368   3.637  12.209  1.00  0.00     0.210 HD
ENDBRANCH   3  33
BRANCH  19  35
HETATM   35  O5  UNL     1      -4.935   6.066  15.838  1.00  0.00    -0.389 OA
HETATM   36  H41 UNL     1      -4.541   5.177  15.844  1.00  0.00     0.210 HD
ENDBRANCH  19  35
BRANCH  17  37
HETATM   37  O4  UNL     1      -8.645   4.436  13.686  1.00  0.00    -0.395 OA
HETATM   38  H38 UNL     1      -8.769   4.213  14.625  1.00  0.00     0.210 HD
ENDBRANCH  17  37
BRANCH  14  39
HETATM   39  O3  UNL     1     -11.839   7.957  15.359  1.00  0.00    -0.396 OA
HETATM   40  H33 UNL     1     -12.352   7.352  14.796  1.00  0.00     0.210 HD
ENDBRANCH  14  39
TORSDOF 12
ENDMDL
