MODEL 1
REMARK minimizedAffinity -8.91096592
REMARK CNNscore 0.615704417
REMARK CNNaffinity 6.94463205
REMARK  12 active torsions:
REMARK  status: ('A' for Active; 'I' for Inactive)
REMARK    1  A    between atoms: C2_2  and  O2_4 
REMARK    2  A    between atoms: O2_4  and  C3_5 
REMARK    3  A    between atoms: C4_6  and  O3_7 
REMARK    4  A    between atoms: O3_7  and  C5_8 
REMARK    5  A    between atoms: C11_14  and  O4_15 
REMARK    6  A    between atoms: C14_18  and  C15_19 
REMARK    7  A    between atoms: C19_23  and  C20_24 
REMARK    8  A    between atoms: C20_24  and  O5_27 
REMARK    9  A    between atoms: C35_42  and  C36_43 
REMARK   10  A    between atoms: C36_43  and  O8_44 
REMARK   11  A    between atoms: C37_45  and  O9_46 
REMARK   12  A    between atoms: C38_47  and  O10_48 
ROOT
HETATM    1  C5  UNL     1       0.142   7.051  12.892  1.00  0.00     0.133 C 
HETATM    2  C6  UNL     1       1.037   6.625  14.052  1.00  0.00     0.034 C 
HETATM    3  C7  UNL     1       1.235   7.640  15.185  1.00  0.00     0.012 C 
HETATM    4  C8  UNL     1       0.488   8.999  15.060  1.00  0.00    -0.033 C 
HETATM    5  C9  UNL     1       1.234   9.851  14.017  1.00  0.00     0.016 C 
HETATM    6  C10 UNL     1       0.441   9.743  16.488  1.00  0.00     0.032 C 
HETATM    7  C11 UNL     1       1.829  10.099  17.123  1.00  0.00     0.124 C 
HETATM    8  C12 UNL     1       1.742  10.747  18.521  1.00  0.00     0.038 C 
HETATM    9  C13 UNL     1       0.777  11.917  18.538  1.00  0.00     0.004 C 
HETATM   10  C14 UNL     1       0.560  12.673  19.857  1.00  0.00     0.025 C 
HETATM   11  C23 UNL     1      -0.738  13.463  19.565  1.00  0.00     0.009 C 
HETATM   12  C24 UNL     1      -1.435  12.782  18.371  1.00  0.00     0.011 C 
HETATM   13  C25 UNL     1      -0.641  11.486  18.089  1.00  0.00    -0.032 C 
HETATM   14  C26 UNL     1      -1.251  10.398  19.031  1.00  0.00     0.016 C 
HETATM   15  C27 UNL     1      -0.566  10.981  16.568  1.00  0.00    -0.030 C 
HETATM   16  C28 UNL     1      -0.122  12.146  15.627  1.00  0.00     0.016 C 
HETATM   17  C29 UNL     1      -1.962  10.522  16.073  1.00  0.00     0.011 C 
HETATM   18  C30 UNL     1      -1.947   9.844  14.707  1.00  0.00     0.007 C 
HETATM   19  C31 UNL     1      -0.989   8.637  14.651  1.00  0.00     0.004 C 
HETATM   20  C32 UNL     1      -1.170   7.747  13.355  1.00  0.00    -0.017 C 
HETATM   21  C33 UNL     1      -1.783   8.521  12.157  1.00  0.00     0.018 C 
HETATM   22  C34 UNL     1      -2.191   6.624  13.713  1.00  0.00     0.018 C 
ENDROOT
BRANCH   1  23
HETATM   23  O3  UNL     1       0.859   7.906  11.988  1.00  0.00    -0.352 OA
BRANCH  23  24
HETATM   24  C4  UNL     1       1.898   7.252  11.243  1.00  0.00     0.293 C 
HETATM   25  C3  UNL     1       2.275   8.136  10.035  1.00  0.00     0.218 C 
HETATM   26  C38 UNL     1       3.700   7.821   9.590  1.00  0.00     0.183 C 
HETATM   27  C37 UNL     1       4.718   7.932  10.740  1.00  0.00     0.180 C 
HETATM   28  C35 UNL     1       4.113   7.730  12.136  1.00  0.00     0.179 C 
HETATM   29  O7  UNL     1       2.959   6.885  12.112  1.00  0.00    -0.348 OA
BRANCH  25  30
HETATM   30  O2  UNL     1       1.328   7.844   8.961  1.00  0.00    -0.309 OA
BRANCH  30  31
HETATM   31  C2  UNL     1       1.748   6.967   8.019  1.00  0.00     0.255 C 
HETATM   32  C1  UNL     1       1.432   7.468   6.645  1.00  0.00     0.126 C 
HETATM   33  O1  UNL     1       2.291   5.899   8.260  1.00  0.00    -0.266 OA
ENDBRANCH  30  31
ENDBRANCH  25  30
BRANCH  26  34
HETATM   34  O10 UNL     1       4.158   8.666   8.514  1.00  0.00    -0.390 OA
HETATM   35  H64 UNL     1       3.484   9.354   8.353  1.00  0.00     0.210 HD
ENDBRANCH  26  34
BRANCH  27  36
HETATM   36  O9  UNL     1       5.705   6.904  10.516  1.00  0.00    -0.390 OA
HETATM   37  H62 UNL     1       6.580   7.302  10.663  1.00  0.00     0.210 HD
ENDBRANCH  27  36
BRANCH  28  38
HETATM   38  C36 UNL     1       3.887   9.041  12.905  1.00  0.00     0.198 C 
BRANCH  38  39
HETATM   39  O8  UNL     1       4.517  10.155  12.282  1.00  0.00    -0.398 OA
HETATM   40  H60 UNL     1       4.028  10.953  12.549  1.00  0.00     0.209 HD
ENDBRANCH  38  39
ENDBRANCH  28  38
ENDBRANCH  23  24
ENDBRANCH   1  23
BRANCH   7  41
HETATM   41  O4  UNL     1       2.629   8.931  17.280  1.00  0.00    -0.395 OA
HETATM   42  H16 UNL     1       3.508   9.215  17.567  1.00  0.00     0.210 HD
ENDBRANCH   7  41
BRANCH  10  43
HETATM   43  C15 UNL     1       1.730  13.560  20.378  1.00  0.00     0.062 C 
HETATM   44  C16 UNL     1       1.291  14.966  20.803  1.00  0.00     0.046 C 
HETATM   45  C17 UNL     1       2.917  13.638  19.413  1.00  0.00     0.041 C 
HETATM   46  C18 UNL     1       3.713  12.394  19.730  1.00  0.00     0.038 C 
HETATM   47  C19 UNL     1       3.493  12.230  21.230  1.00  0.00     0.156 C 
HETATM   48  O6  UNL     1       2.272  12.925  21.559  1.00  0.00    -0.372 OA
BRANCH  47  49
HETATM   49  C20 UNL     1       3.450  10.761  21.728  1.00  0.00     0.076 C 
HETATM   50  C21 UNL     1       4.025  10.643  23.146  1.00  0.00     0.048 C 
HETATM   51  C22 UNL     1       2.014  10.216  21.694  1.00  0.00     0.048 C 
BRANCH  49  52
HETATM   52  O5  UNL     1       4.266   9.945  20.874  1.00  0.00    -0.388 OA
HETATM   53  H35 UNL     1       3.980   9.021  20.982  1.00  0.00     0.210 HD
ENDBRANCH  49  52
ENDBRANCH  47  49
ENDBRANCH  10  43
TORSDOF 12
ENDMDL
