MODEL 1
REMARK minimizedAffinity -9.14232922
REMARK CNNscore 0.831397772
REMARK CNNaffinity 7.51991272
REMARK  9 active torsions:
REMARK  status: ('A' for Active; 'I' for Inactive)
REMARK    1  A    between atoms: C4_4  and  C5_5 
REMARK    2  A    between atoms: C5_5  and  C6_6 
REMARK    3  A    between atoms: C6_6  and  C7_7 
REMARK    4  A    between atoms: C13_14  and  O2_15 
REMARK    5  A    between atoms: C14_16  and  C15_17 
REMARK    6  A    between atoms: C15_17  and  C16_18 
REMARK    7  A    between atoms: C22_25  and  C23_26 
REMARK    8  A    between atoms: C25_28  and  O4_29 
REMARK    9  A    between atoms: C27_31  and  O5_32 
ROOT
HETATM    1  C7  UNL     1       1.105  51.469 -15.234  1.00  0.00     0.082 A 
HETATM    2  C8  UNL     1       2.399  50.932 -14.605  1.00  0.00     0.051 C 
HETATM    3  C9  UNL     1       1.485  52.518 -16.267  1.00  0.00     0.012 A 
HETATM    4  C10 UNL     1       1.147  52.445 -17.557  1.00  0.00     0.016 A 
HETATM    5  C11 UNL     1       0.379  51.290 -17.963  1.00  0.00     0.035 A 
HETATM    6  C12 UNL     1       0.040  50.286 -17.065  1.00  0.00     0.117 A 
HETATM    7  O1  UNL     1       0.401  50.311 -15.743  1.00  0.00    -0.333 OA
HETATM    8  C13 UNL     1      -0.695  49.172 -17.490  1.00  0.00     0.107 A 
HETATM    9  C14 UNL     1      -1.128  49.003 -18.823  1.00  0.00    -0.006 A 
HETATM   10  C20 UNL     1      -0.789  50.040 -19.729  1.00  0.00     0.011 A 
HETATM   11  C21 UNL     1      -0.055  51.135 -19.280  1.00  0.00     0.100 A 
HETATM   12  O3  UNL     1       0.165  52.006 -20.307  1.00  0.00    -0.308 OA
HETATM   13  C22 UNL     1      -0.428  51.493 -21.426  1.00  0.00     0.087 A 
HETATM   14  C29 UNL     1      -1.024  50.287 -21.112  1.00  0.00     0.053 A 
ENDROOT
BRANCH  13  15
HETATM   15  C23 UNL     1      -0.310  52.288 -22.645  1.00  0.00     0.003 A 
HETATM   16  C24 UNL     1       0.688  53.268 -22.763  1.00  0.00     0.051 A 
HETATM   17  C25 UNL     1       0.801  54.026 -23.927  1.00  0.00     0.069 A 
HETATM   18  C26 UNL     1      -0.064  53.832 -24.994  1.00  0.00     0.073 A 
HETATM   19  C27 UNL     1      -1.053  52.864 -24.885  1.00  0.00     0.069 A 
HETATM   20  C28 UNL     1      -1.184  52.094 -23.729  1.00  0.00     0.051 A 
BRANCH  17  21
HETATM   21  O4  UNL     1       1.793  54.962 -23.978  1.00  0.00    -0.361 OA
HETATM   22  H28 UNL     1       1.755  55.405 -24.842  1.00  0.00     0.217 HD
ENDBRANCH  17  21
BRANCH  19  23
HETATM   23  O5  UNL     1      -1.891  52.693 -25.949  1.00  0.00    -0.361 OA
HETATM   24  H30 UNL     1      -2.526  51.989 -25.733  1.00  0.00     0.217 HD
ENDBRANCH  19  23
ENDBRANCH  13  15
BRANCH   9  25
HETATM   25  C15 UNL     1      -1.935  47.792 -19.232  1.00  0.00     0.070 C 
BRANCH  25  26
HETATM   26  C16 UNL     1      -2.970  48.130 -20.272  1.00  0.00    -0.020 C 
HETATM   27  C17 UNL     1      -3.771  47.299 -20.967  1.00  0.00    -0.091 C 
HETATM   28  C18 UNL     1      -3.801  45.802 -20.841  1.00  0.00     0.042 C 
HETATM   29  C19 UNL     1      -4.745  47.850 -21.978  1.00  0.00     0.042 C 
ENDBRANCH  25  26
ENDBRANCH   9  25
BRANCH   8  30
HETATM   30  O2  UNL     1      -1.009  48.205 -16.564  1.00  0.00    -0.357 OA
HETATM   31  H17 UNL     1      -0.618  48.514 -15.724  1.00  0.00     0.217 HD
ENDBRANCH   8  30
BRANCH   1  32
HETATM   32  C6  UNL     1       0.195  52.142 -14.178  1.00  0.00     0.046 C 
BRANCH  32  33
HETATM   33  C5  UNL     1      -0.492  51.166 -13.214  1.00  0.00     0.030 C 
BRANCH  33  34
HETATM   34  C4  UNL     1      -1.569  51.861 -12.425  1.00  0.00    -0.025 C 
HETATM   35  C2  UNL     1      -2.821  52.155 -12.825  1.00  0.00    -0.091 C 
HETATM   36  C1  UNL     1      -3.410  51.796 -14.162  1.00  0.00     0.042 C 
HETATM   37  C3  UNL     1      -3.766  52.891 -11.910  1.00  0.00     0.042 C 
ENDBRANCH  33  34
ENDBRANCH  32  33
ENDBRANCH   1  32
TORSDOF 9
ENDMDL
