MODEL 1
REMARK minimizedAffinity -7.33053732
REMARK CNNscore 0.800255895
REMARK CNNaffinity 6.81147385
REMARK  5 active torsions:
REMARK  status: ('A' for Active; 'I' for Inactive)
REMARK    1  A    between atoms: C2_2  and  C4_4 
REMARK    2  A    between atoms: C7_7  and  C8_8 
REMARK    3  A    between atoms: C8_8  and  O2_10 
REMARK    4  A    between atoms: C11_13  and  C12_14 
REMARK    5  A    between atoms: C12_14  and  O4_16 
ROOT
HETATM    1  C4  UNL     1       2.870  56.210  -8.847  1.00  0.00     0.019 C 
HETATM    2  C5  UNL     1       3.455  56.066  -7.441  1.00  0.00     0.011 C 
HETATM    3  C6  UNL     1       2.346  56.630  -6.562  1.00  0.00     0.021 C 
HETATM    4  C7  UNL     1       1.040  56.048  -7.149  1.00  0.00     0.050 C 
HETATM    5  C9  UNL     1       0.701  54.729  -6.433  1.00  0.00     0.022 C 
HETATM    6  C10 UNL     1      -0.291  53.846  -7.186  1.00  0.00     0.023 C 
HETATM    7  C11 UNL     1       0.117  53.507  -8.642  1.00  0.00     0.057 C 
HETATM    8  C13 UNL     1       0.520  54.807  -9.419  1.00  0.00     0.011 C 
HETATM    9  C14 UNL     1       0.952  54.490 -10.856  1.00  0.00     0.007 C 
HETATM   10  C15 UNL     1      -0.101  53.706 -11.650  1.00  0.00     0.006 C 
HETATM   11  C16 UNL     1      -0.609  52.442 -10.914  1.00  0.00     0.003 C 
HETATM   12  C17 UNL     1      -1.545  51.485 -11.777  1.00  0.00    -0.035 C 
HETATM   13  C18 UNL     1      -2.813  52.215 -12.280  1.00  0.00     0.016 C 
HETATM   14  C19 UNL     1      -0.745  51.002 -13.026  1.00  0.00     0.017 C 
HETATM   15  C20 UNL     1      -1.413  49.884 -13.814  1.00  0.00     0.080 C 
HETATM   16  C21 UNL     1      -1.772  48.714 -12.934  1.00  0.00     0.135 C 
HETATM   17  O5  UNL     1      -1.542  47.567 -13.323  1.00  0.00    -0.297 OA
HETATM   18  C22 UNL     1      -2.530  49.004 -11.627  1.00  0.00     0.017 C 
HETATM   19  C23 UNL     1      -4.014  49.206 -11.965  1.00  0.00     0.023 C 
HETATM   20  C24 UNL     1      -2.432  47.735 -10.742  1.00  0.00     0.023 C 
HETATM   21  C25 UNL     1      -1.844  50.213 -10.898  1.00  0.00     0.009 C 
HETATM   22  C26 UNL     1      -2.518  50.601  -9.567  1.00  0.00     0.007 C 
HETATM   23  C27 UNL     1      -1.634  51.523  -8.722  1.00  0.00     0.011 C 
HETATM   24  C28 UNL     1      -1.120  52.797  -9.458  1.00  0.00    -0.022 C 
HETATM   25  C29 UNL     1      -2.360  53.750  -9.528  1.00  0.00     0.017 C 
HETATM   26  C30 UNL     1       1.338  55.918  -8.686  1.00  0.00     0.018 C 
ENDROOT
BRANCH   4  27
HETATM   27  C8  UNL     1      -0.126  57.009  -6.916  1.00  0.00     0.149 C 
HETATM   28  O1  UNL     1      -0.803  57.549  -7.776  1.00  0.00    -0.649 OA
BRANCH  27  29
HETATM   29  O2  UNL     1      -0.436  57.180  -5.617  1.00  0.00    -0.776 OA
HETATM   30  H11 UNL     1      -1.212  57.779  -5.635  1.00  0.00     0.167 HD
ENDBRANCH  27  29
ENDBRANCH   4  27
BRANCH   1  31
HETATM   31  C2  UNL     1       3.718  55.712 -10.002  1.00  0.00    -0.088 C 
HETATM   32  C1  UNL     1       3.683  56.350 -11.188  1.00  0.00     0.014 C 
HETATM   33  C3  UNL     1       4.691  54.583  -9.805  1.00  0.00     0.043 C 
ENDBRANCH   1  31
BRANCH   7  34
HETATM   34  C12 UNL     1       1.318  52.530  -8.543  1.00  0.00     0.149 C 
HETATM   35  O3  UNL     1       2.280  52.428  -9.288  1.00  0.00    -0.649 OA
BRANCH  34  36
HETATM   36  O4  UNL     1       1.240  51.666  -7.522  1.00  0.00    -0.776 OA
HETATM   37  H16 UNL     1       2.044  51.115  -7.633  1.00  0.00     0.167 HD
ENDBRANCH  34  36
ENDBRANCH   7  34
TORSDOF 5
ENDMDL
