MODEL 1
REMARK minimizedAffinity -9.93159008
REMARK  9 active torsions:
REMARK  status: ('A' for Active; 'I' for Inactive)
REMARK    1  A    between atoms: C2_2  and  C3_3 
REMARK    2  A    between atoms: C2_2  and  C9_12 
REMARK    3  A    between atoms: C3_3  and  C4_4 
REMARK    4  A    between atoms: C4_4  and  C5_5 
REMARK    5  A    between atoms: C5_5  and  O1_6 
REMARK    6  A    between atoms: C5_5  and  C6_7 
REMARK    7  A    between atoms: C6_7  and  O2_9 
REMARK    8  A    between atoms: C6_7  and  C8_10 
REMARK    9  A    between atoms: C8_10  and  O3_11 
ROOT
HETATM    1  C9  UNL     1      -0.804  50.164 -21.574  1.00  0.00    -0.002 C 
HETATM    2  C10 UNL     1      -0.937  49.702 -20.097  1.00  0.00     0.007 C 
HETATM    3  C11 UNL     1      -2.271  48.939 -19.982  1.00  0.00     0.015 C 
HETATM    4  C12 UNL     1      -2.674  48.613 -21.433  1.00  0.00    -0.005 C 
HETATM    5  C13 UNL     1      -1.871  47.341 -21.850  1.00  0.00     0.021 C 
HETATM    6  C14 UNL     1      -4.116  48.278 -21.790  1.00  0.00    -0.000 C 
HETATM    7  C15 UNL     1      -4.612  48.550 -23.027  1.00  0.00    -0.060 C 
HETATM    8  C16 UNL     1      -3.753  49.267 -24.075  1.00  0.00     0.036 C 
HETATM    9  C17 UNL     1      -2.342  49.729 -23.658  1.00  0.00     0.015 C 
HETATM   10  C18 UNL     1      -2.239  49.957 -22.146  1.00  0.00    -0.028 C 
HETATM   11  C19 UNL     1      -3.148  51.164 -21.773  1.00  0.00     0.016 C 
HETATM   12  C20 UNL     1      -6.071  48.212 -23.438  1.00  0.00    -0.014 C 
HETATM   13  C21 UNL     1      -6.894  49.487 -23.142  1.00  0.00     0.020 C 
HETATM   14  C22 UNL     1      -6.180  47.868 -24.947  1.00  0.00     0.021 C 
HETATM   15  C23 UNL     1      -7.560  47.380 -25.363  1.00  0.00     0.080 C 
HETATM   16  C24 UNL     1      -7.935  46.154 -24.571  1.00  0.00     0.135 C 
HETATM   17  O4  UNL     1      -8.335  45.146 -25.152  1.00  0.00    -0.297 OA
HETATM   18  C25 UNL     1      -7.866  46.255 -23.039  1.00  0.00     0.018 C 
HETATM   19  C26 UNL     1      -7.899  44.813 -22.469  1.00  0.00     0.023 C 
HETATM   20  C27 UNL     1      -9.136  46.961 -22.543  1.00  0.00     0.023 C 
HETATM   21  C28 UNL     1      -6.515  46.942 -22.631  1.00  0.00     0.020 C 
HETATM   22  C29 UNL     1      -6.389  47.210 -21.129  1.00  0.00     0.090 C 
HETATM   23  C30 UNL     1      -4.974  47.598 -20.763  1.00  0.00     0.157 C 
HETATM   24  O5  UNL     1      -4.558  47.373 -19.629  1.00  0.00    -0.293 OA
ENDROOT
BRANCH   1  25
HETATM   25  C2  UNL     1       0.006  51.486 -21.749  1.00  0.00    -0.014 C 
HETATM   26  C1  UNL     1       0.399  52.225 -20.466  1.00  0.00     0.010 C 
BRANCH  25  27
HETATM   27  C3  UNL     1      -0.677  52.437 -22.760  1.00  0.00     0.007 C 
BRANCH  27  28
HETATM   28  C4  UNL     1      -0.478  52.059 -24.240  1.00  0.00     0.035 C 
BRANCH  28  29
HETATM   29  C5  UNL     1       0.915  52.392 -24.795  1.00  0.00     0.154 C 
BRANCH  29  30
HETATM   30  O1  UNL     1       1.066  53.820 -24.839  1.00  0.00    -0.392 OA
HETATM   31  H10 UNL     1       1.886  53.962 -25.358  1.00  0.00     0.210 HD
ENDBRANCH  29  30
BRANCH  29  32
HETATM   32  C6  UNL     1       1.205  51.822 -26.208  1.00  0.00     0.101 C 
HETATM   33  C7  UNL     1       0.074  50.932 -26.740  1.00  0.00     0.051 C 
BRANCH  32  34
HETATM   34  O2  UNL     1       1.276  52.961 -27.101  1.00  0.00    -0.385 OA
HETATM   35  H14 UNL     1       1.829  52.664 -27.855  1.00  0.00     0.210 HD
ENDBRANCH  32  34
BRANCH  32  36
HETATM   36  C8  UNL     1       2.564  51.095 -26.263  1.00  0.00     0.204 C 
BRANCH  36  37
HETATM   37  O3  UNL     1       3.310  51.549 -27.397  1.00  0.00    -0.398 OA
HETATM   38  H17 UNL     1       3.013  51.034 -28.169  1.00  0.00     0.209 HD
ENDBRANCH  36  37
ENDBRANCH  32  36
ENDBRANCH  29  32
ENDBRANCH  28  29
ENDBRANCH  27  28
ENDBRANCH  25  27
ENDBRANCH   1  25
TORSDOF 9
ENDMDL
