MODEL 1
REMARK minimizedAffinity -9.18086338
REMARK  6 active torsions:
REMARK  status: ('A' for Active; 'I' for Inactive)
REMARK    1  A    between atoms: C4_4  and  C5_5 
REMARK    2  A    between atoms: C5_5  and  C6_6 
REMARK    3  A    between atoms: C6_6  and  C7_7 
REMARK    4  A    between atoms: C7_7  and  C9_9 
REMARK    5  A    between atoms: C17_17  and  O1_18 
REMARK    6  A    between atoms: C21_22  and  O2_23 
ROOT
HETATM    1  C9  UNL     1      -6.443   6.920  14.084  1.00  0.00    -0.002 C 
HETATM    2  C10 UNL     1      -6.548   8.330  14.745  1.00  0.00     0.006 C 
HETATM    3  C11 UNL     1      -5.117   8.868  14.930  1.00  0.00     0.011 C 
HETATM    4  C12 UNL     1      -4.235   7.938  14.076  1.00  0.00    -0.032 C 
HETATM    5  C13 UNL     1      -4.346   8.479  12.612  1.00  0.00     0.016 C 
HETATM    6  C14 UNL     1      -2.741   7.852  14.518  1.00  0.00     0.003 C 
HETATM    7  C15 UNL     1      -2.036   9.223  14.516  1.00  0.00     0.009 C 
HETATM    8  C16 UNL     1      -0.527   9.081  14.665  1.00  0.00     0.039 C 
HETATM    9  C17 UNL     1       0.082   8.455  13.394  1.00  0.00     0.071 C 
HETATM   10  C18 UNL     1      -0.830   7.307  12.818  1.00  0.00     0.029 C 
HETATM   11  C19 UNL     1      -0.019   6.255  12.023  1.00  0.00     0.011 C 
HETATM   12  C20 UNL     1       1.123   6.883  11.236  1.00  0.00     0.033 C 
HETATM   13  C21 UNL     1       2.136   7.628  12.110  1.00  0.00     0.129 C 
HETATM   14  C22 UNL     1       1.611   8.087  13.513  1.00  0.00     0.010 C 
HETATM   15  C23 UNL     1       1.901   7.026  14.599  1.00  0.00     0.020 C 
HETATM   16  C24 UNL     1       2.453   9.327  13.930  1.00  0.00     0.020 C 
HETATM   17  C25 UNL     1      -1.930   6.692  13.794  1.00  0.00    -0.033 C 
HETATM   18  C26 UNL     1      -1.261   5.801  14.874  1.00  0.00     0.016 C 
HETATM   19  C27 UNL     1      -2.856   5.731  12.960  1.00  0.00     0.011 C 
HETATM   20  C28 UNL     1      -4.320   5.499  13.387  1.00  0.00     0.011 C 
HETATM   21  C29 UNL     1      -4.936   6.552  14.324  1.00  0.00    -0.032 C 
HETATM   22  C30 UNL     1      -4.816   6.021  15.788  1.00  0.00     0.016 C 
ENDROOT
BRANCH   1  23
HETATM   23  C7  UNL     1      -7.568   5.960  14.573  1.00  0.00    -0.014 C 
HETATM   24  C8  UNL     1      -8.923   6.326  13.939  1.00  0.00     0.010 C 
BRANCH  23  25
HETATM   25  C6  UNL     1      -7.276   4.459  14.355  1.00  0.00     0.008 C 
BRANCH  25  26
HETATM   26  C5  UNL     1      -7.771   3.876  13.026  1.00  0.00     0.028 C 
BRANCH  26  27
HETATM   27  C4  UNL     1      -6.696   3.953  11.976  1.00  0.00    -0.025 C 
HETATM   28  C2  UNL     1      -6.060   2.934  11.367  1.00  0.00    -0.091 C 
HETATM   29  C1  UNL     1      -6.287   1.475  11.656  1.00  0.00     0.042 C 
HETATM   30  C3  UNL     1      -5.021   3.200  10.308  1.00  0.00     0.042 C 
ENDBRANCH  26  27
ENDBRANCH  25  26
ENDBRANCH  23  25
ENDBRANCH   1  23
BRANCH   9  31
HETATM   31  O1  UNL     1       0.015   9.493  12.372  1.00  0.00    -0.389 OA
HETATM   32  H29 UNL     1       0.216  10.354  12.777  1.00  0.00     0.210 HD
ENDBRANCH   9  31
BRANCH  13  33
HETATM   33  O2  UNL     1       3.301   6.805  12.237  1.00  0.00    -0.395 OA
HETATM   34  H36 UNL     1       4.023   7.370  12.561  1.00  0.00     0.210 HD
ENDBRANCH  13  33
TORSDOF 6
ENDMDL
