MODEL 1
REMARK minimizedAffinity -7.39710617
REMARK CNNscore 0.640546203
REMARK CNNaffinity 6.99630737
REMARK  3 active torsions:
REMARK  status: ('A' for Active; 'I' for Inactive)
REMARK    1  A    between atoms: C2_2  and  O1_3 
REMARK    2  A    between atoms: O1_3  and  C3_4 
REMARK    3  A    between atoms: C3_4  and  C4_6 
ROOT
HETATM    1  C4  UNL     1       5.602  54.350  -7.531  1.00  0.00     0.045 C 
HETATM    2  C5  UNL     1       6.056  54.280  -6.062  1.00  0.00     0.026 C 
HETATM    3  C6  UNL     1       5.715  55.795  -8.080  1.00  0.00     0.020 C 
HETATM    4  C7  UNL     1       4.402  56.572  -7.981  1.00  0.00     0.011 C 
HETATM    5  C8  UNL     1       3.259  55.923  -8.813  1.00  0.00    -0.036 C 
HETATM    6  C9  UNL     1       3.316  56.483 -10.258  1.00  0.00     0.016 C 
HETATM    7  C10 UNL     1       1.908  56.342  -8.184  1.00  0.00     0.011 C 
HETATM    8  C11 UNL     1       0.689  55.547  -8.684  1.00  0.00     0.015 C 
HETATM    9  C12 UNL     1       0.822  53.997  -8.553  1.00  0.00    -0.013 C 
HETATM   10  C13 UNL     1       0.929  53.631  -7.045  1.00  0.00     0.021 C 
HETATM   11  C14 UNL     1       2.135  53.661  -9.265  1.00  0.00    -0.070 C 
HETATM   12  C15 UNL     1       2.170  52.894 -10.364  1.00  0.00    -0.022 C 
HETATM   13  C16 UNL     1       0.982  52.381 -11.092  1.00  0.00     0.033 C 
HETATM   14  C17 UNL     1      -0.376  53.068 -10.742  1.00  0.00     0.007 C 
HETATM   15  C18 UNL     1      -1.581  52.288 -11.474  1.00  0.00    -0.034 C 
HETATM   16  C19 UNL     1      -1.109  52.053 -12.956  1.00  0.00     0.016 C 
HETATM   17  C20 UNL     1      -2.866  53.164 -11.606  1.00  0.00     0.017 C 
HETATM   18  C21 UNL     1      -4.190  52.643 -11.049  1.00  0.00     0.080 C 
HETATM   19  C22 UNL     1      -4.370  51.152 -10.871  1.00  0.00     0.135 C 
HETATM   20  O3  UNL     1      -5.453  50.718 -10.471  1.00  0.00    -0.297 OA
HETATM   21  C23 UNL     1      -3.215  50.219 -11.213  1.00  0.00     0.017 C 
HETATM   22  C24 UNL     1      -3.330  49.902 -12.715  1.00  0.00     0.023 C 
HETATM   23  C25 UNL     1      -3.400  48.874 -10.470  1.00  0.00     0.023 C 
HETATM   24  C26 UNL     1      -1.866  50.909 -10.780  1.00  0.00     0.009 C 
HETATM   25  C27 UNL     1      -1.781  50.977  -9.229  1.00  0.00     0.007 C 
HETATM   26  C28 UNL     1      -0.625  51.777  -8.625  1.00  0.00     0.011 C 
HETATM   27  C29 UNL     1      -0.486  53.220  -9.180  1.00  0.00    -0.028 C 
HETATM   28  C30 UNL     1      -1.752  54.012  -8.761  1.00  0.00     0.016 C 
HETATM   29  C31 UNL     1       3.429  54.373  -8.865  1.00  0.00     0.024 C 
HETATM   30  C32 UNL     1       4.137  53.827  -7.614  1.00  0.00     0.029 C 
ENDROOT
BRANCH   1  31
HETATM   31  C3  UNL     1       6.533  53.441  -8.348  1.00  0.00     0.267 C 
HETATM   32  O2  UNL     1       7.083  53.750  -9.396  1.00  0.00    -0.264 OA
BRANCH  31  33
HETATM   33  O1  UNL     1       6.674  52.231  -7.735  1.00  0.00    -0.321 OA
BRANCH  33  34
HETATM   34  C2  UNL     1       7.127  51.177  -8.593  1.00  0.00     0.174 C 
HETATM   35  C1  UNL     1       8.140  50.345  -7.830  1.00  0.00     0.034 C 
ENDBRANCH  33  34
ENDBRANCH  31  33
ENDBRANCH   1  31
TORSDOF 3
ENDMDL
