MODEL 1
REMARK minimizedAffinity -7.81212997
REMARK CNNscore 0.798545718
REMARK CNNaffinity 7.22923517
REMARK  6 active torsions:
REMARK  status: ('A' for Active; 'I' for Inactive)
REMARK    1  A    between atoms: C2_2  and  C30_32 
REMARK    2  A    between atoms: C3_3  and  C4_4 
REMARK    3  A    between atoms: C4_4  and  C5_6 
REMARK    4  A    between atoms: C5_6  and  C6_7 
REMARK    5  A    between atoms: C6_7  and  C8_9 
REMARK    6  A    between atoms: C30_32  and  O4_34 
ROOT
HETATM    1  C8  UNL     1       0.090  12.080  18.892  1.00  0.00    -0.001 C 
HETATM    2  C9  UNL     1      -1.198  12.836  19.337  1.00  0.00     0.007 C 
HETATM    3  C10 UNL     1      -2.381  12.235  18.558  1.00  0.00     0.015 C 
HETATM    4  C11 UNL     1      -1.826  10.932  17.947  1.00  0.00    -0.013 C 
HETATM    5  C12 UNL     1      -1.928   9.851  19.066  1.00  0.00     0.021 C 
HETATM    6  C13 UNL     1      -2.535  10.348  16.735  1.00  0.00    -0.070 C 
HETATM    7  C14 UNL     1      -3.818  10.608  16.424  1.00  0.00    -0.022 C 
HETATM    8  C15 UNL     1      -4.503   9.923  15.281  1.00  0.00     0.034 C 
HETATM    9  C16 UNL     1      -4.042   8.457  15.246  1.00  0.00     0.013 C 
HETATM   10  C17 UNL     1      -4.912   7.517  14.355  1.00  0.00     0.018 C 
HETATM   11  C18 UNL     1      -6.189   7.104  15.117  1.00  0.00     0.023 C 
HETATM   12  C19 UNL     1      -5.351   8.160  13.026  1.00  0.00     0.023 C 
HETATM   13  C20 UNL     1      -4.139   6.219  14.075  1.00  0.00     0.135 C 
HETATM   14  O2  UNL     1      -4.415   5.489  13.121  1.00  0.00    -0.297 OA
HETATM   15  C21 UNL     1      -3.089   5.794  15.079  1.00  0.00     0.080 C 
HETATM   16  C22 UNL     1      -2.120   6.904  15.503  1.00  0.00     0.017 C 
HETATM   17  C23 UNL     1      -2.490   8.332  15.023  1.00  0.00    -0.031 C 
HETATM   18  C24 UNL     1      -2.072   8.462  13.533  1.00  0.00     0.016 C 
HETATM   19  C25 UNL     1      -1.693   9.485  15.792  1.00  0.00     0.024 C 
HETATM   20  C26 UNL     1      -0.331   9.051  16.388  1.00  0.00     0.010 C 
HETATM   21  C27 UNL     1       0.458  10.140  17.151  1.00  0.00     0.011 C 
HETATM   22  C28 UNL     1      -0.366  11.376  17.570  1.00  0.00    -0.029 C 
HETATM   23  C29 UNL     1      -0.318  12.423  16.411  1.00  0.00     0.016 C 
ENDROOT
BRANCH   1  24
HETATM   24  C6  UNL     1       1.340  13.008  18.888  1.00  0.00    -0.007 C 
HETATM   25  C7  UNL     1       2.077  12.991  17.543  1.00  0.00     0.011 C 
BRANCH  24  26
HETATM   26  C5  UNL     1       2.326  12.591  20.005  1.00  0.00     0.087 C 
BRANCH  26  27
HETATM   27  C4  UNL     1       2.853  11.178  19.824  1.00  0.00     0.150 C 
HETATM   28  O1  UNL     1       3.609  10.890  18.900  1.00  0.00    -0.293 OA
BRANCH  27  29
HETATM   29  C3  UNL     1       2.382  10.156  20.801  1.00  0.00     0.063 C 
HETATM   30  C2  UNL     1       3.015   9.833  21.944  1.00  0.00     0.015 C 
HETATM   31  C1  UNL     1       4.259  10.465  22.491  1.00  0.00     0.055 C 
BRANCH  30  32
HETATM   32  C30 UNL     1       2.367   8.760  22.730  1.00  0.00     0.171 C 
HETATM   33  O3  UNL     1       1.690   7.850  22.286  1.00  0.00    -0.646 OA
BRANCH  32  34
HETATM   34  O4  UNL     1       2.607   8.866  24.046  1.00  0.00    -0.773 OA
HETATM   35  H44 UNL     1       2.138   8.100  24.437  1.00  0.00     0.167 HD
ENDBRANCH  32  34
ENDBRANCH  30  32
ENDBRANCH  27  29
ENDBRANCH  26  27
ENDBRANCH  24  26
ENDBRANCH   1  24
TORSDOF 6
ENDMDL
