MODEL 1
REMARK minimizedAffinity -10.057888
REMARK  7 active torsions:
REMARK  status: ('A' for Active; 'I' for Inactive)
REMARK    1  A    between atoms: C2_2  and  C30_33 
REMARK    2  A    between atoms: C3_3  and  C4_4 
REMARK    3  A    between atoms: C4_4  and  C5_5 
REMARK    4  A    between atoms: C5_5  and  C6_6 
REMARK    5  A    between atoms: C6_6  and  C8_8 
REMARK    6  A    between atoms: C15_15  and  O1_16 
REMARK    7  A    between atoms: C30_33  and  O5_35 
ROOT
HETATM    1  C8  UNL     1      -0.836  49.292 -18.271  1.00  0.00    -0.002 C 
HETATM    2  C9  UNL     1      -2.099  48.402 -18.216  1.00  0.00     0.007 C 
HETATM    3  C10 UNL     1      -2.764  48.496 -19.611  1.00  0.00     0.015 C 
HETATM    4  C11 UNL     1      -1.691  49.118 -20.533  1.00  0.00    -0.005 C 
HETATM    5  C12 UNL     1      -0.749  47.953 -20.975  1.00  0.00     0.021 C 
HETATM    6  C13 UNL     1      -2.050  49.808 -21.842  1.00  0.00     0.002 C 
HETATM    7  C14 UNL     1      -1.295  50.833 -22.337  1.00  0.00    -0.032 C 
HETATM    8  C15 UNL     1      -0.098  51.380 -21.551  1.00  0.00     0.149 C 
HETATM    9  C16 UNL     1       0.202  50.743 -20.174  1.00  0.00     0.047 C 
HETATM   10  C17 UNL     1      -1.069  50.169 -19.534  1.00  0.00    -0.026 C 
HETATM   11  C18 UNL     1      -2.051  51.339 -19.228  1.00  0.00     0.016 C 
HETATM   12  C19 UNL     1      -1.661  51.511 -23.690  1.00  0.00    -0.012 C 
HETATM   13  C20 UNL     1      -2.742  52.572 -23.346  1.00  0.00     0.021 C 
HETATM   14  C21 UNL     1      -0.504  52.258 -24.427  1.00  0.00     0.021 C 
HETATM   15  C22 UNL     1       0.215  51.402 -25.458  1.00  0.00     0.080 C 
HETATM   16  C23 UNL     1      -0.755  51.036 -26.562  1.00  0.00     0.135 C 
HETATM   17  O2  UNL     1      -0.395  51.057 -27.739  1.00  0.00    -0.297 OA
HETATM   18  C24 UNL     1      -2.182  50.628 -26.148  1.00  0.00     0.018 C 
HETATM   19  C25 UNL     1      -3.145  51.733 -26.595  1.00  0.00     0.023 C 
HETATM   20  C26 UNL     1      -2.530  49.340 -26.929  1.00  0.00     0.023 C 
HETATM   21  C27 UNL     1      -2.175  50.345 -24.611  1.00  0.00     0.020 C 
HETATM   22  C28 UNL     1      -3.463  49.758 -24.036  1.00  0.00     0.090 C 
HETATM   23  C29 UNL     1      -3.240  49.293 -22.611  1.00  0.00     0.157 C 
HETATM   24  O3  UNL     1      -4.030  48.500 -22.103  1.00  0.00    -0.293 OA
ENDROOT
BRANCH   1  25
HETATM   25  C6  UNL     1      -0.308  49.896 -16.940  1.00  0.00    -0.014 C 
HETATM   26  C7  UNL     1      -1.477  50.069 -15.953  1.00  0.00     0.010 C 
BRANCH  25  27
HETATM   27  C5  UNL     1       0.620  51.134 -16.921  1.00  0.00     0.008 C 
BRANCH  27  28
HETATM   28  C4  UNL     1       0.987  51.839 -15.610  1.00  0.00     0.028 C 
BRANCH  28  29
HETATM   29  C3  UNL     1       1.951  51.099 -14.729  1.00  0.00    -0.013 C 
HETATM   30  C2  UNL     1       3.294  51.212 -14.722  1.00  0.00     0.008 C 
HETATM   31  C1  UNL     1       4.103  52.078 -15.640  1.00  0.00     0.055 C 
BRANCH  30  32
HETATM   32  C30 UNL     1       4.025  50.382 -13.731  1.00  0.00     0.171 C 
HETATM   33  O4  UNL     1       4.898  49.565 -13.964  1.00  0.00    -0.646 OA
BRANCH  32  34
HETATM   34  O5  UNL     1       3.619  50.614 -12.472  1.00  0.00    -0.773 OA
HETATM   35  H44 UNL     1       4.172  50.004 -11.940  1.00  0.00     0.167 HD
ENDBRANCH  32  34
ENDBRANCH  30  32
ENDBRANCH  28  29
ENDBRANCH  27  28
ENDBRANCH  25  27
ENDBRANCH   1  25
BRANCH   8  36
HETATM   36  O1  UNL     1      -0.322  52.774 -21.347  1.00  0.00    -0.391 OA
HETATM   37  H22 UNL     1       0.474  53.143 -20.931  1.00  0.00     0.210 HD
ENDBRANCH   8  36
TORSDOF 7
ENDMDL
