MODEL 1
REMARK minimizedAffinity -8.29408836
REMARK CNNscore 0.599638879
REMARK CNNaffinity 6.66900206
REMARK  10 active torsions:
REMARK  status: ('A' for Active; 'I' for Inactive)
REMARK    1  A    between atoms: C3_3  and  O1_4 
REMARK    2  A    between atoms: N1_14  and  O2_16 
REMARK    3  A    between atoms: O2_16  and  C13_17 
REMARK    4  A    between atoms: C13_17  and  C14_18 
REMARK       I    between atoms: C14_18  and  N2_20 
REMARK    5  A    between atoms: N2_20  and  C15_21 
REMARK    6  A    between atoms: C15_21  and  C16_22 
REMARK       I    between atoms: C16_22  and  N3_24 
REMARK    7  A    between atoms: N3_24  and  C17_25 
REMARK    8  A    between atoms: C17_25  and  C18_26 
REMARK    9  A    between atoms: C17_25  and  C19_29 
REMARK   10  A    between atoms: C18_26  and  O6_28 
ROOT
HETATM    1  C1  UNL     1       5.318   5.620  10.329  1.00  0.00     0.015 C 
HETATM    2  C2  UNL     1       4.250   6.168  10.302  1.00  0.00    -0.078 C 
HETATM    3  C3  UNL     1       2.962   6.880  10.290  1.00  0.00     0.128 C 
HETATM    4  C4  UNL     1       2.340   6.933   8.891  1.00  0.00     0.052 C 
HETATM    5  C5  UNL     1       0.920   7.409   9.182  1.00  0.00     0.010 C 
HETATM    6  C6  UNL     1       0.508   6.590  10.411  1.00  0.00     0.002 C 
HETATM    7  C7  UNL     1      -0.656   7.155  11.260  1.00  0.00    -0.004 C 
HETATM    8  C8  UNL     1      -0.656   8.672  11.519  1.00  0.00     0.010 C 
HETATM    9  C9  UNL     1      -1.875   9.112  12.332  1.00  0.00     0.035 C 
HETATM   10  C10 UNL     1      -2.107   8.294  13.584  1.00  0.00    -0.069 C 
HETATM   11  C11 UNL     1      -2.382   8.914  14.748  1.00  0.00     0.030 C 
HETATM   12  C12 UNL     1      -2.737   8.149  15.978  1.00  0.00     0.032 C 
HETATM   13  N1  UNL     1      -2.878   8.641  17.171  1.00  0.00    -0.271 N 
ATOM     14  H1  UNL     1      -3.129   8.088  17.991  1.00  0.00     0.194 HD
HETATM   15  C22 UNL     1      -3.014   6.669  15.807  1.00  0.00     0.060 C 
HETATM   16  C23 UNL     1      -2.033   6.062  14.816  1.00  0.00     0.020 C 
HETATM   17  C24 UNL     1      -2.044   6.774  13.429  1.00  0.00    -0.016 C 
HETATM   18  C25 UNL     1      -3.320   6.306  12.679  1.00  0.00     0.020 C 
HETATM   19  C26 UNL     1      -0.765   6.373  12.596  1.00  0.00     0.002 C 
HETATM   20  C27 UNL     1       0.557   6.464  13.409  1.00  0.00     0.007 C 
HETATM   21  C28 UNL     1       1.823   6.784  12.611  1.00  0.00     0.014 C 
HETATM   22  C29 UNL     1       1.831   6.239  11.174  1.00  0.00     0.003 C 
HETATM   23  C30 UNL     1       1.957   4.692  11.233  1.00  0.00     0.020 C 
ENDROOT
BRANCH   3  24
HETATM   24  O1  UNL     1       3.206   8.235  10.682  1.00  0.00    -0.377 OA
HETATM   25  H2  UNL     1       3.992   8.532  10.191  1.00  0.00     0.211 HD
ENDBRANCH   3  24
BRANCH  13  26
HETATM   26  O2  UNL     1      -2.643  10.026  17.197  1.00  0.00    -0.271 OA
BRANCH  26  27
HETATM   27  C13 UNL     1      -1.241  10.248  17.227  1.00  0.00     0.303 C 
BRANCH  27  28
HETATM   28  C14 UNL     1      -0.833  10.998  18.491  1.00  0.00     0.244 C 
HETATM   29  O3  UNL     1      -1.551  11.798  19.085  1.00  0.00    -0.271 OA
HETATM   30  N2  UNL     1       0.433  10.680  18.941  1.00  0.00    -0.350 N 
HETATM   31  H16 UNL     1       1.086  10.184  18.340  1.00  0.00     0.163 HD
BRANCH  30  32
HETATM   32  C15 UNL     1       0.985  11.330  20.112  1.00  0.00     0.225 C 
BRANCH  32  33
HETATM   33  C16 UNL     1       2.350  10.741  20.461  1.00  0.00     0.236 C 
HETATM   34  O4  UNL     1       2.689   9.610  20.116  1.00  0.00    -0.272 OA
HETATM   35  N3  UNL     1       3.162  11.593  21.170  1.00  0.00    -0.345 N 
HETATM   36  H19 UNL     1       2.883  12.565  21.287  1.00  0.00     0.163 HD
BRANCH  35  37
HETATM   37  C17 UNL     1       4.555  11.285  21.502  1.00  0.00     0.185 C 
BRANCH  37  38
HETATM   38  C18 UNL     1       5.479  11.736  20.359  1.00  0.00     0.163 C 
HETATM   39  O5  UNL     1       6.069  11.013  19.572  1.00  0.00    -0.648 OA
BRANCH  38  40
HETATM   40  O6  UNL     1       5.645  13.079  20.296  1.00  0.00    -0.775 OA
HETATM   41  H21 UNL     1       6.250  13.197  19.532  1.00  0.00     0.167 HD
ENDBRANCH  38  40
ENDBRANCH  37  38
BRANCH  37  42
HETATM   42  C19 UNL     1       5.008  11.925  22.833  1.00  0.00     0.010 C 
HETATM   43  C20 UNL     1       6.533  11.925  23.010  1.00  0.00     0.012 C 
HETATM   44  C21 UNL     1       4.469  13.350  22.995  1.00  0.00     0.012 C 
ENDBRANCH  37  42
ENDBRANCH  35  37
ENDBRANCH  32  33
ENDBRANCH  30  32
ENDBRANCH  27  28
ENDBRANCH  26  27
ENDBRANCH  13  26
TORSDOF 10
ENDMDL
