MODEL 1
REMARK minimizedAffinity -7.63216257
REMARK CNNscore 0.207158208
REMARK CNNaffinity 7.14040709
REMARK  15 active torsions:
REMARK  status: ('A' for Active; 'I' for Inactive)
REMARK    1  A    between atoms: C2_2  and  C3_3 
REMARK    2  A    between atoms: C3_3  and  C4_4 
REMARK    3  A    between atoms: C4_4  and  O1_5 
REMARK    4  A    between atoms: C4_4  and  C5_6 
REMARK    5  A    between atoms: C5_6  and  C6_7 
REMARK    6  A    between atoms: C6_7  and  O2_8 
REMARK    7  A    between atoms: C6_7  and  C7_9 
REMARK    8  A    between atoms: C7_9  and  C8_10 
REMARK    9  A    between atoms: C8_10  and  C9_12 
REMARK   10  A    between atoms: C9_12  and  C10_13 
REMARK   11  A    between atoms: C10_13  and  C11_14 
REMARK   12  A    between atoms: C25_29  and  O5_30 
REMARK   13  A    between atoms: C29_34  and  C30_35 
REMARK   14  A    between atoms: C30_35  and  N1_36 
REMARK   15  A    between atoms: C30_35  and  N2_37 
ROOT
HETATM    1  C11 UNL     1      -7.863   6.160  14.849  1.00  0.00    -0.055 A 
HETATM    2  C12 UNL     1      -6.996   7.036  14.179  1.00  0.00     0.010 A 
HETATM    3  C13 UNL     1      -7.035   8.411  14.433  1.00  0.00     0.041 A 
HETATM    4  C14 UNL     1      -7.963   8.942  15.329  1.00  0.00     0.120 A 
HETATM    5  O4  UNL     1      -7.856  10.308  15.497  1.00  0.00    -0.258 OA
HETATM    6  C15 UNL     1      -8.945  10.887  15.992  1.00  0.00     0.061 C 
HETATM    7  C16 UNL     1     -10.015  11.179  16.469  1.00  0.00    -0.064 C 
HETATM    8  C17 UNL     1     -11.324  11.219  17.143  1.00  0.00     0.044 C 
HETATM    9  C18 UNL     1     -12.230  12.265  16.444  1.00  0.00     0.024 C 
HETATM   10  C19 UNL     1     -13.176  12.772  17.525  1.00  0.00     0.002 C 
HETATM   11  C20 UNL     1     -12.442  12.596  18.847  1.00  0.00     0.002 C 
HETATM   12  C21 UNL     1     -11.123  11.905  18.515  1.00  0.00     0.024 C 
HETATM   13  C22 UNL     1     -11.913   9.751  17.298  1.00  0.00     0.135 C 
HETATM   14  C23 UNL     1     -13.379   9.687  17.007  1.00  0.00    -0.093 C 
HETATM   15  C24 UNL     1     -14.520   9.629  16.625  1.00  0.00    -0.069 C 
HETATM   16  C25 UNL     1     -15.885   9.539  16.066  1.00  0.00     0.230 C 
HETATM   17  C26 UNL     1     -16.201   8.118  15.613  1.00  0.00    -0.011 A 
HETATM   18  C27 UNL     1     -16.541   7.176  16.603  1.00  0.00     0.012 A 
HETATM   19  C28 UNL     1     -16.769   5.831  16.295  1.00  0.00     0.012 A 
HETATM   20  C29 UNL     1     -16.675   5.362  14.984  1.00  0.00     0.004 A 
HETATM   21  C31 UNL     1     -16.327   6.294  13.989  1.00  0.00     0.019 A 
HETATM   22  C32 UNL     1     -16.112   7.663  14.267  1.00  0.00    -0.043 A 
HETATM   23  C33 UNL     1     -15.770   8.547  13.075  1.00  0.00     0.080 C 
HETATM   24  C34 UNL     1     -14.318   8.716  12.832  1.00  0.00    -0.025 C 
HETATM   25  C35 UNL     1     -13.216   8.466  13.529  1.00  0.00     0.015 C 
HETATM   26  C36 UNL     1     -12.754   7.889  14.796  1.00  0.00     0.107 C 
HETATM   27  N3  UNL     1     -11.630   8.430  15.155  1.00  0.00    -0.335 N 
HETATM   28  C37 UNL     1     -11.192   9.283  13.985  1.00  0.00     0.123 C 
HETATM   29  C38 UNL     1     -12.134   9.251  13.047  1.00  0.00     0.060 C 
HETATM   30  N4  UNL     1     -12.453   9.858  11.890  1.00  0.00    -0.364 N 
ATOM     31  H4  UNL     1     -11.860  10.415  11.274  1.00  0.00     0.165 HD
HETATM   32  C39 UNL     1     -13.720   9.553  11.758  1.00  0.00     0.096 C 
HETATM   33  C40 UNL     1     -11.149   8.550  16.551  1.00  0.00     0.251 C 
HETATM   34  O6  UNL     1      -9.745   8.536  16.912  1.00  0.00    -0.321 OA
HETATM   35  C41 UNL     1      -8.862   8.070  15.966  1.00  0.00     0.106 A 
HETATM   36  C42 UNL     1      -8.805   6.691  15.739  1.00  0.00     0.047 A 
ENDROOT
BRANCH   1  37
HETATM   37  C10 UNL     1      -7.724   4.662  14.648  1.00  0.00     0.046 C 
BRANCH  37  38
HETATM   38  C9  UNL     1      -8.108   4.172  13.254  1.00  0.00     0.083 C 
BRANCH  38  39
HETATM   39  C8  UNL     1      -7.246   3.015  12.790  1.00  0.00     0.129 C 
HETATM   40  O3  UNL     1      -7.691   1.863  12.856  1.00  0.00    -0.298 OA
BRANCH  39  41
HETATM   41  C7  UNL     1      -5.830   3.275  12.318  1.00  0.00     0.110 C 
BRANCH  41  42
HETATM   42  C6  UNL     1      -5.244   2.236  11.353  1.00  0.00     0.127 C 
BRANCH  42  43
HETATM   43  C5  UNL     1      -3.780   1.872  11.687  1.00  0.00     0.063 C 
BRANCH  43  44
HETATM   44  C4  UNL     1      -2.717   2.878  11.211  1.00  0.00     0.120 C 
BRANCH  44  45
HETATM   45  C3  UNL     1      -2.676   4.184  12.023  1.00  0.00     0.031 C 
BRANCH  45  46
HETATM   46  C2  UNL     1      -1.402   4.979  11.746  1.00  0.00    -0.002 C 
HETATM   47  C1  UNL     1      -0.167   4.127  11.989  1.00  0.00     0.005 C 
ENDBRANCH  45  46
ENDBRANCH  44  45
BRANCH  44  48
HETATM   48  O1  UNL     1      -2.897   3.146   9.822  1.00  0.00    -0.395 OA
HETATM   49  H9  UNL     1      -3.551   3.874   9.735  1.00  0.00     0.210 HD
ENDBRANCH  44  48
ENDBRANCH  43  44
ENDBRANCH  42  43
BRANCH  42  50
HETATM   50  O2  UNL     1      -5.396   2.622   9.989  1.00  0.00    -0.395 OA
HETATM   51  H13 UNL     1      -4.733   3.299   9.776  1.00  0.00     0.210 HD
ENDBRANCH  42  50
ENDBRANCH  41  42
ENDBRANCH  39  41
ENDBRANCH  38  39
ENDBRANCH  37  38
ENDBRANCH   1  37
BRANCH  16  52
HETATM   52  O5  UNL     1     -16.835   9.968  17.034  1.00  0.00    -0.379 OA
HETATM   53  H32 UNL     1     -16.362  10.114  17.876  1.00  0.00     0.211 HD
ENDBRANCH  16  52
BRANCH  20  54
HETATM   54  C30 UNL     1     -16.872   3.891  14.654  1.00  0.00     0.479 C 
BRANCH  54  55
HETATM   55  N1  UNL     1     -17.327   3.651  13.314  1.00  0.00     0.116 N 
HETATM   56  H36 UNL     1     -17.618   2.669  13.279  1.00  0.00     0.316 HD
HETATM   57  H37 UNL     1     -16.507   3.686  12.704  1.00  0.00     0.316 HD
ENDBRANCH  54  55
BRANCH  54  58
HETATM   58  N2  UNL     1     -15.656   3.129  14.688  1.00  0.00     0.116 N 
HETATM   59  H38 UNL     1     -14.922   3.679  14.246  1.00  0.00     0.316 HD
HETATM   60  H39 UNL     1     -15.364   2.996  15.649  1.00  0.00     0.316 HD
ENDBRANCH  54  58
ENDBRANCH  20  54
TORSDOF 15
ENDMDL
