MODEL 1
REMARK minimizedAffinity -6.9946208
REMARK CNNscore 0.868626177
REMARK CNNaffinity 6.50504112
REMARK  11 active torsions:
REMARK  status: ('A' for Active; 'I' for Inactive)
REMARK    1  A    between atoms: C12_13  and  O2_14 
REMARK    2  A    between atoms: C19_21  and  O3_22 
REMARK    3  A    between atoms: C19_21  and  C20_23 
REMARK    4  A    between atoms: C20_23  and  C21_25 
REMARK    5  A    between atoms: C21_25  and  O5_26 
REMARK    6  A    between atoms: O5_26  and  C22_27 
REMARK    7  A    between atoms: C22_27  and  C23_29 
REMARK    8  A    between atoms: C23_29  and  C24_30 
REMARK    9  A    between atoms: C24_30  and  C25_31 
REMARK       I    between atoms: C25_31  and  N1_33 
REMARK   10  A    between atoms: N1_33  and  C26_34 
REMARK   11  A    between atoms: C26_34  and  C27_35 
ROOT
HETATM    1  C1  UNL     1     -15.466   7.372  24.108  1.00  0.00     0.025 C 
HETATM    2  C2  UNL     1     -14.022   6.966  23.729  1.00  0.00     0.004 A 
HETATM    3  C3  UNL     1     -13.109   8.035  24.329  1.00  0.00    -0.009 A 
HETATM    4  C4  UNL     1     -12.307   8.851  23.632  1.00  0.00     0.052 A 
HETATM    5  C5  UNL     1     -12.244   8.776  22.162  1.00  0.00     0.172 A 
HETATM    6  O1  UNL     1     -11.504   9.507  21.517  1.00  0.00    -0.289 OA
HETATM    7  C6  UNL     1     -13.109   7.779  21.501  1.00  0.00     0.058 A 
HETATM    8  C7  UNL     1     -13.923   6.966  22.198  1.00  0.00    -0.064 A 
HETATM    9  C8  UNL     1     -14.761   5.946  21.467  1.00  0.00     0.036 C 
HETATM   10  C9  UNL     1     -14.985   4.670  22.280  1.00  0.00     0.010 C 
HETATM   11  C10 UNL     1     -13.815   4.376  23.230  1.00  0.00    -0.002 C 
HETATM   12  C11 UNL     1     -13.564   5.541  24.252  1.00  0.00     0.035 C 
HETATM   13  C12 UNL     1     -13.949   5.140  25.705  1.00  0.00     0.124 C 
HETATM   14  C13 UNL     1     -15.151   4.197  25.766  1.00  0.00     0.045 C 
HETATM   15  C14 UNL     1     -14.952   2.838  25.043  1.00  0.00     0.001 C 
HETATM   16  C15 UNL     1     -16.340   2.383  24.529  1.00  0.00     0.019 C 
HETATM   17  C16 UNL     1     -13.937   2.974  23.867  1.00  0.00     0.002 C 
HETATM   18  C17 UNL     1     -12.573   2.477  24.403  1.00  0.00     0.009 C 
HETATM   19  C18 UNL     1     -12.796   1.952  25.816  1.00  0.00     0.047 C 
HETATM   20  C19 UNL     1     -14.295   1.706  25.912  1.00  0.00     0.128 C 
ENDROOT
BRANCH  20  21
HETATM   21  O3  UNL     1     -14.512   0.427  25.279  1.00  0.00    -0.381 OA
HETATM   22  H25 UNL     1     -15.401   0.129  25.560  1.00  0.00     0.211 HD
ENDBRANCH  20  21
BRANCH  20  23
HETATM   23  C20 UNL     1     -14.857   1.559  27.341  1.00  0.00     0.185 C 
HETATM   24  O4  UNL     1     -14.490   2.352  28.217  1.00  0.00    -0.292 OA
BRANCH  23  25
HETATM   25  C21 UNL     1     -15.843   0.426  27.631  1.00  0.00     0.260 C 
BRANCH  25  26
HETATM   26  O5  UNL     1     -15.501  -0.338  28.787  1.00  0.00    -0.314 OA
BRANCH  26  27
HETATM   27  C22 UNL     1     -16.287  -1.431  28.982  1.00  0.00     0.259 C 
HETATM   28  O6  UNL     1     -16.893  -1.681  30.016  1.00  0.00    -0.265 OA
BRANCH  27  29
HETATM   29  C23 UNL     1     -16.337  -2.293  27.747  1.00  0.00     0.120 C 
BRANCH  29  30
HETATM   30  C24 UNL     1     -17.327  -3.428  27.954  1.00  0.00     0.112 C 
BRANCH  30  31
HETATM   31  C25 UNL     1     -16.650  -4.781  27.866  1.00  0.00     0.218 C 
HETATM   32  O7  UNL     1     -17.241  -5.837  28.059  1.00  0.00    -0.274 OA
HETATM   33  N1  UNL     1     -15.301  -4.697  27.611  1.00  0.00    -0.357 N 
HETATM   34  H32 UNL     1     -14.862  -3.791  27.533  1.00  0.00     0.162 HD
BRANCH  33  35
HETATM   35  C26 UNL     1     -14.453  -5.866  27.570  1.00  0.00     0.162 C 
BRANCH  35  36
HETATM   36  C27 UNL     1     -13.550  -5.901  28.768  1.00  0.00    -0.025 A 
HETATM   37  C28 UNL     1     -13.213  -4.741  29.472  1.00  0.00     0.011 A 
HETATM   38  C29 UNL     1     -12.396  -4.829  30.596  1.00  0.00     0.018 A 
HETATM   39  C30 UNL     1     -11.944  -6.081  30.981  1.00  0.00     0.087 A 
HETATM   40  N2  UNL     1     -12.252  -7.222  30.332  1.00  0.00    -0.375 N 
HETATM   41  C31 UNL     1     -13.049  -7.109  29.243  1.00  0.00     0.096 A 
ATOM     42  H2  UNL     1     -11.902  -8.128  30.646  1.00  0.00     0.164 HD
ENDBRANCH  35  36
ENDBRANCH  33  35
ENDBRANCH  30  31
ENDBRANCH  29  30
ENDBRANCH  27  29
ENDBRANCH  26  27
ENDBRANCH  25  26
ENDBRANCH  23  25
ENDBRANCH  20  23
BRANCH  13  43
HETATM   43  O2  UNL     1     -14.171   6.264  26.544  1.00  0.00    -0.395 OA
HETATM   44  H14 UNL     1     -14.539   5.965  27.394  1.00  0.00     0.210 HD
ENDBRANCH  13  43
TORSDOF 11
ENDMDL
