MODEL 1
REMARK minimizedAffinity -6.55555439
REMARK CNNscore 0.493734866
REMARK CNNaffinity 5.96725416
REMARK  8 active torsions:
REMARK  status: ('A' for Active; 'I' for Inactive)
REMARK    1  A    between atoms: C2_2  and  C3_3 
REMARK    2  A    between atoms: C2_2  and  C9_12 
REMARK    3  A    between atoms: C3_3  and  C4_4 
REMARK    4  A    between atoms: C4_4  and  O1_5 
REMARK    5  A    between atoms: C4_4  and  C5_6 
REMARK    6  A    between atoms: C5_6  and  O2_7 
REMARK    7  A    between atoms: C5_6  and  C6_8 
REMARK    8  A    between atoms: C6_8  and  O3_11 
ROOT
HETATM    1  C9  UNL     1     -10.888  -7.071  -5.670  1.00  0.00     0.097 A 
HETATM    2  C10 UNL     1     -12.014  -8.056  -5.777  1.00  0.00     0.042 A 
HETATM    3  C11 UNL     1     -11.410  -9.457  -5.533  1.00  0.00     0.016 A 
HETATM    4  C12 UNL     1      -9.899  -9.299  -5.146  1.00  0.00    -0.002 A 
HETATM    5  C13 UNL     1      -9.082 -10.087  -6.198  1.00  0.00     0.019 C 
HETATM    6  C14 UNL     1      -9.618  -7.805  -5.316  1.00  0.00     0.101 A 
HETATM    7  C15 UNL     1      -8.366  -7.219  -4.747  1.00  0.00     0.042 C 
HETATM    8  C16 UNL     1      -8.053  -7.725  -3.340  1.00  0.00     0.009 C 
HETATM    9  C17 UNL     1      -8.120  -9.268  -3.250  1.00  0.00     0.003 C 
HETATM   10  C18 UNL     1      -7.421  -9.885  -1.946  1.00  0.00    -0.035 C 
HETATM   11  C19 UNL     1      -5.890  -9.701  -2.182  1.00  0.00     0.016 C 
HETATM   12  C20 UNL     1      -7.790  -9.114  -0.655  1.00  0.00     0.017 C 
HETATM   13  C21 UNL     1      -7.235  -9.709   0.626  1.00  0.00     0.080 C 
HETATM   14  C22 UNL     1      -7.623 -11.158   0.760  1.00  0.00     0.135 C 
HETATM   15  O4  UNL     1      -8.124 -11.570   1.806  1.00  0.00    -0.297 OA
HETATM   16  C23 UNL     1      -7.280 -12.090  -0.406  1.00  0.00     0.017 C 
HETATM   17  C24 UNL     1      -7.968 -13.459  -0.162  1.00  0.00     0.023 C 
HETATM   18  C25 UNL     1      -5.761 -12.378  -0.362  1.00  0.00     0.023 C 
HETATM   19  C26 UNL     1      -7.735 -11.431  -1.775  1.00  0.00     0.009 C 
HETATM   20  C27 UNL     1      -9.223 -11.737  -2.076  1.00  0.00     0.007 C 
HETATM   21  C28 UNL     1      -9.648 -11.261  -3.462  1.00  0.00     0.011 C 
HETATM   22  C29 UNL     1      -9.582  -9.729  -3.623  1.00  0.00    -0.029 C 
HETATM   23  C30 UNL     1     -10.660  -9.099  -2.690  1.00  0.00     0.016 C 
HETATM   24  O5  UNL     1      -9.870  -7.297  -6.647  1.00  0.00    -0.362 OA
ENDROOT
BRANCH   1  25
HETATM   25  C2  UNL     1     -11.154  -5.603  -5.391  1.00  0.00     0.022 C 
HETATM   26  C1  UNL     1     -12.662  -5.327  -5.389  1.00  0.00     0.013 C 
BRANCH  25  27
HETATM   27  C3  UNL     1     -10.386  -4.706  -6.392  1.00  0.00     0.041 C 
BRANCH  27  28
HETATM   28  C4  UNL     1      -9.386  -3.705  -5.776  1.00  0.00     0.150 C 
BRANCH  28  29
HETATM   29  O1  UNL     1      -9.382  -3.939  -4.351  1.00  0.00    -0.393 OA
HETATM   30  H8  UNL     1      -9.018  -4.834  -4.214  1.00  0.00     0.210 HD
ENDBRANCH  28  29
BRANCH  28  31
HETATM   31  C5  UNL     1      -9.783  -2.222  -5.993  1.00  0.00     0.180 C 
BRANCH  31  32
HETATM   32  O2  UNL     1     -10.161  -2.054  -7.370  1.00  0.00    -0.390 OA
HETATM   33  H10 UNL     1     -10.562  -2.914  -7.616  1.00  0.00     0.210 HD
ENDBRANCH  31  32
BRANCH  31  34
HETATM   34  C6  UNL     1     -10.920  -1.733  -5.046  1.00  0.00     0.079 C 
HETATM   35  C7  UNL     1     -12.312  -1.769  -5.689  1.00  0.00     0.048 C 
HETATM   36  C8  UNL     1     -10.617  -0.305  -4.566  1.00  0.00     0.048 C 
BRANCH  34  37
HETATM   37  O3  UNL     1     -10.939  -2.588  -3.894  1.00  0.00    -0.388 OA
HETATM   38  H17 UNL     1     -11.540  -2.192  -3.241  1.00  0.00     0.210 HD
ENDBRANCH  34  37
ENDBRANCH  31  34
ENDBRANCH  28  31
ENDBRANCH  27  28
ENDBRANCH  25  27
ENDBRANCH   1  25
TORSDOF 8
ENDMDL
