MODEL 1
REMARK minimizedAffinity -9.56924438
REMARK  7 active torsions:
REMARK  status: ('A' for Active; 'I' for Inactive)
REMARK    1  A    between atoms: C2_2  and  C3_3 
REMARK    2  A    between atoms: C2_2  and  C9_11 
REMARK    3  A    between atoms: C3_3  and  C4_4 
REMARK    4  A    between atoms: C5_5  and  C6_6 
REMARK    5  A    between atoms: C6_6  and  O1_9 
REMARK    6  A    between atoms: O1_9  and  O2_10 
REMARK    7  A    between atoms: C10_12  and  O3_13 
ROOT
HETATM    1  C9  UNL     1      -0.603  51.793 -20.503  1.00  0.00     0.028 C 
HETATM    2  C10 UNL     1      -0.182  50.851 -19.338  1.00  0.00     0.124 C 
HETATM    3  C11 UNL     1      -1.357  49.871 -19.099  1.00  0.00     0.046 C 
HETATM    4  C12 UNL     1      -2.512  50.391 -19.989  1.00  0.00    -0.010 C 
HETATM    5  C13 UNL     1      -3.280  51.456 -19.143  1.00  0.00     0.021 C 
HETATM    6  C14 UNL     1      -3.579  49.405 -20.454  1.00  0.00    -0.070 C 
HETATM    7  C15 UNL     1      -3.982  48.375 -19.679  1.00  0.00    -0.022 C 
HETATM    8  C16 UNL     1      -5.110  47.441 -20.019  1.00  0.00     0.034 C 
HETATM    9  C17 UNL     1      -5.607  47.624 -21.462  1.00  0.00     0.013 C 
HETATM   10  C18 UNL     1      -6.791  46.704 -21.900  1.00  0.00     0.018 C 
HETATM   11  C19 UNL     1      -6.434  45.223 -21.657  1.00  0.00     0.023 C 
HETATM   12  C20 UNL     1      -8.127  46.995 -21.207  1.00  0.00     0.023 C 
HETATM   13  C21 UNL     1      -6.997  46.882 -23.416  1.00  0.00     0.135 C 
HETATM   14  O4  UNL     1      -7.694  46.107 -24.074  1.00  0.00    -0.297 OA
HETATM   15  C22 UNL     1      -6.295  48.042 -24.090  1.00  0.00     0.080 C 
HETATM   16  C23 UNL     1      -6.424  49.289 -23.227  1.00  0.00     0.017 C 
HETATM   17  C24 UNL     1      -5.748  49.154 -21.830  1.00  0.00    -0.031 C 
HETATM   18  C25 UNL     1      -6.608  49.967 -20.824  1.00  0.00     0.016 C 
HETATM   19  C26 UNL     1      -4.261  49.709 -21.808  1.00  0.00     0.024 C 
HETATM   20  C27 UNL     1      -4.088  51.184 -22.253  1.00  0.00     0.010 C 
HETATM   21  C28 UNL     1      -2.666  51.778 -22.108  1.00  0.00     0.011 C 
HETATM   22  C29 UNL     1      -1.719  50.956 -21.216  1.00  0.00    -0.026 C 
HETATM   23  C30 UNL     1      -1.045  49.849 -22.087  1.00  0.00     0.016 C 
ENDROOT
BRANCH   1  24
HETATM   24  C2  UNL     1       0.526  52.364 -21.421  1.00  0.00    -0.008 C 
HETATM   25  C1  UNL     1       1.440  53.418 -20.784  1.00  0.00     0.011 C 
BRANCH  24  26
HETATM   26  C3  UNL     1      -0.022  52.887 -22.777  1.00  0.00     0.031 C 
BRANCH  26  27
HETATM   27  C4  UNL     1       0.479  52.167 -23.998  1.00  0.00    -0.027 C 
HETATM   28  C5  UNL     1       0.714  52.770 -25.176  1.00  0.00     0.009 C 
BRANCH  28  29
HETATM   29  C6  UNL     1       1.224  52.140 -26.464  1.00  0.00     0.106 C 
HETATM   30  C7  UNL     1       0.678  52.800 -27.742  1.00  0.00     0.053 C 
HETATM   31  C8  UNL     1       0.864  50.647 -26.503  1.00  0.00     0.053 C 
BRANCH  29  32
HETATM   32  O1  UNL     1       2.659  52.304 -26.545  1.00  0.00    -0.229 OA
BRANCH  32  33
HETATM   33  O2  UNL     1       3.148  51.541 -27.693  1.00  0.00    -0.249 OA
HETATM   34  H15 UNL     1       3.651  50.891 -27.172  1.00  0.00     0.253 HD
ENDBRANCH  32  33
ENDBRANCH  29  32
ENDBRANCH  28  29
ENDBRANCH  26  27
ENDBRANCH  24  26
ENDBRANCH   1  24
BRANCH   2  35
HETATM   35  O3  UNL     1       0.100  51.588 -18.156  1.00  0.00    -0.395 OA
HETATM   36  H18 UNL     1      -0.720  52.009 -17.850  1.00  0.00     0.210 HD
ENDBRANCH   2  35
TORSDOF 7
ENDMDL
