MODEL 1
REMARK minimizedAffinity -10.7115574
REMARK CNNscore 0.384162962
REMARK CNNaffinity 6.9260354
REMARK  9 active torsions:
REMARK  status: ('A' for Active; 'I' for Inactive)
REMARK    1  A    between atoms: C3_3  and  O1_4 
REMARK    2  A    between atoms: N1_14  and  O2_16 
REMARK    3  A    between atoms: O2_16  and  C13_17 
REMARK    4  A    between atoms: C13_17  and  C14_18 
REMARK       I    between atoms: C14_18  and  N2_20 
REMARK    5  A    between atoms: N2_20  and  C15_21 
REMARK    6  A    between atoms: C15_21  and  C16_22 
REMARK    7  A    between atoms: C15_21  and  C18_26 
REMARK    8  A    between atoms: C16_22  and  C17_23 
REMARK    9  A    between atoms: C17_23  and  O5_25 
ROOT
HETATM    1  C1  UNL     1      -2.452  49.773 -26.949  1.00  0.00     0.015 C 
HETATM    2  C2  UNL     1      -1.893  50.628 -26.317  1.00  0.00    -0.078 C 
HETATM    3  C3  UNL     1      -1.214  51.700 -25.573  1.00  0.00     0.128 C 
HETATM    4  C4  UNL     1       0.289  51.463 -25.449  1.00  0.00     0.052 C 
HETATM    5  C5  UNL     1       0.718  52.484 -24.403  1.00  0.00     0.010 C 
HETATM    6  C6  UNL     1      -0.461  52.591 -23.408  1.00  0.00     0.002 C 
HETATM    7  C7  UNL     1      -0.058  52.041 -22.005  1.00  0.00    -0.004 C 
HETATM    8  C8  UNL     1       0.886  53.045 -21.296  1.00  0.00     0.010 C 
HETATM    9  C9  UNL     1       0.338  53.576 -19.971  1.00  0.00     0.035 C 
HETATM   10  C10 UNL     1      -0.001  52.407 -19.094  1.00  0.00    -0.069 C 
HETATM   11  C11 UNL     1       0.663  52.197 -17.943  1.00  0.00     0.030 C 
HETATM   12  C12 UNL     1       0.435  50.949 -17.167  1.00  0.00     0.032 C 
HETATM   13  N1  UNL     1       0.699  50.784 -15.907  1.00  0.00    -0.271 N 
ATOM     14  H1  UNL     1       0.549  49.911 -15.403  1.00  0.00     0.194 HD
HETATM   15  C25 UNL     1      -0.167  49.760 -17.896  1.00  0.00     0.060 C 
HETATM   16  C26 UNL     1      -0.454  50.012 -19.377  1.00  0.00     0.020 C 
HETATM   17  C27 UNL     1      -1.035  51.421 -19.645  1.00  0.00    -0.016 C 
HETATM   18  C28 UNL     1      -2.375  51.600 -18.883  1.00  0.00     0.020 C 
HETATM   19  C29 UNL     1      -1.315  51.710 -21.170  1.00  0.00     0.002 C 
HETATM   20  C30 UNL     1      -2.193  50.647 -21.872  1.00  0.00     0.007 C 
HETATM   21  C31 UNL     1      -1.938  50.521 -23.377  1.00  0.00     0.014 C 
HETATM   22  C32 UNL     1      -1.678  51.871 -24.087  1.00  0.00     0.003 C 
HETATM   23  C33 UNL     1      -2.954  52.740 -24.003  1.00  0.00     0.020 C 
ENDROOT
BRANCH   3  24
HETATM   24  O1  UNL     1      -1.393  52.923 -26.294  1.00  0.00    -0.377 OA
HETATM   25  H2  UNL     1      -1.193  52.733 -27.227  1.00  0.00     0.211 HD
ENDBRANCH   3  24
BRANCH  13  26
HETATM   26  O2  UNL     1       1.216  51.950 -15.320  1.00  0.00    -0.271 OA
BRANCH  26  27
HETATM   27  C13 UNL     1       0.404  52.289 -14.201  1.00  0.00     0.303 C 
BRANCH  27  28
HETATM   28  C14 UNL     1       1.126  51.938 -12.910  1.00  0.00     0.244 C 
HETATM   29  O3  UNL     1       0.572  51.378 -11.970  1.00  0.00    -0.271 OA
HETATM   30  N2  UNL     1       2.472  52.252 -12.922  1.00  0.00    -0.354 N 
HETATM   31  H16 UNL     1       2.857  52.645 -13.781  1.00  0.00     0.162 HD
BRANCH  30  32
HETATM   32  C15 UNL     1       3.397  51.809 -11.882  1.00  0.00     0.098 C 
BRANCH  32  33
HETATM   33  C16 UNL     1       3.274  50.302 -11.634  1.00  0.00     0.135 C 
BRANCH  33  34
HETATM   34  C17 UNL     1       3.931  49.445 -12.674  1.00  0.00     0.141 C 
HETATM   35  O4  UNL     1       4.809  49.795 -13.445  1.00  0.00    -0.650 OA
BRANCH  34  36
HETATM   36  O5  UNL     1       3.450  48.185 -12.700  1.00  0.00    -0.776 OA
HETATM   37  H20 UNL     1       3.930  47.761 -13.445  1.00  0.00     0.167 HD
ENDBRANCH  34  36
ENDBRANCH  33  34
ENDBRANCH  32  33
BRANCH  32  38
HETATM   38  C18 UNL     1       3.335  52.731 -10.631  1.00  0.00     0.014 C 
HETATM   39  C19 UNL     1       4.425  52.468  -9.574  1.00  0.00     0.033 C 
HETATM   40  C20 UNL     1       4.693  53.692  -8.704  1.00  0.00     0.169 C 
HETATM   41  O6  UNL     1       3.498  54.437  -8.506  1.00  0.00    -0.381 OA
HETATM   42  C21 UNL     1       2.994  55.067  -9.695  1.00  0.00     0.054 C 
HETATM   43  C22 UNL     1       1.480  55.209  -9.488  1.00  0.00     0.045 C 
HETATM   44  C23 UNL     1       3.616  56.465  -9.815  1.00  0.00     0.045 C 
HETATM   45  C24 UNL     1       3.285  54.230 -10.964  1.00  0.00     0.044 C 
ENDBRANCH  32  38
ENDBRANCH  30  32
ENDBRANCH  27  28
ENDBRANCH  26  27
ENDBRANCH  13  26
TORSDOF 9
ENDMDL
