MODEL 1
REMARK minimizedAffinity -9.34232807
REMARK CNNscore 0.3297351
REMARK CNNaffinity 7.6554184
REMARK  13 active torsions:
REMARK  status: ('A' for Active; 'I' for Inactive)
REMARK    1  A    between atoms: O1_2  and  C2_3 
REMARK    2  A    between atoms: C2_3  and  C3_5 
REMARK    3  A    between atoms: C3_5  and  C4_6 
REMARK    4  A    between atoms: C3_5  and  N2_16 
REMARK    5  A    between atoms: C4_6  and  C5_7 
REMARK       I    between atoms: N2_16  and  C13_17 
REMARK    6  A    between atoms: C13_17  and  C14_19 
REMARK    7  A    between atoms: C14_19  and  C15_20 
REMARK    8  A    between atoms: C15_20  and  C16_21 
REMARK    9  A    between atoms: C16_21  and  O5_23 
REMARK   10  A    between atoms: O5_23  and  C17_24 
REMARK   11  A    between atoms: C17_24  and  C18_25 
REMARK   12  A    between atoms: C18_25  and  C19_27 
REMARK   13  A    between atoms: C19_27  and  O7_28 
ROOT
HETATM    1  C17 UNL     1      -0.184   4.875  12.418  1.00  0.00     0.260 C 
ENDROOT
BRANCH   1   2
HETATM    2  O5  UNL     1       0.751   5.497  11.536  1.00  0.00    -0.314 OA
BRANCH   2   3
HETATM    3  C16 UNL     1       0.474   6.804  11.255  1.00  0.00     0.259 C 
HETATM    4  O4  UNL     1       0.231   7.241  10.137  1.00  0.00    -0.265 OA
BRANCH   3   5
HETATM    5  C15 UNL     1       0.466   7.618  12.525  1.00  0.00     0.120 C 
BRANCH   5   6
HETATM    6  C14 UNL     1       1.566   7.131  13.460  1.00  0.00     0.112 C 
BRANCH   6   7
HETATM    7  C13 UNL     1       2.868   7.875  13.245  1.00  0.00     0.218 C 
HETATM    8  N2  UNL     1       2.814   8.797  12.231  1.00  0.00    -0.347 N 
HETATM    9  H13 UNL     1       1.981   8.886  11.656  1.00  0.00     0.163 HD
HETATM   10  O3  UNL     1       3.852   7.727  13.959  1.00  0.00    -0.274 OA
BRANCH   8  11
HETATM   11  C3  UNL     1       3.971   9.624  11.865  1.00  0.00     0.188 C 
BRANCH  11  12
HETATM   12  C2  UNL     1       4.455  10.300  13.145  1.00  0.00     0.281 C 
HETATM   13  O2  UNL     1       3.735  10.986  13.867  1.00  0.00    -0.263 OA
BRANCH  12  14
HETATM   14  O1  UNL     1       5.775  10.056  13.365  1.00  0.00    -0.325 OA
HETATM   15  C1  UNL     1       6.246  10.492  14.640  1.00  0.00     0.213 C 
ENDBRANCH  12  14
ENDBRANCH  11  12
BRANCH  11  16
HETATM   16  C4  UNL     1       5.094   8.772  11.260  1.00  0.00     0.076 C 
BRANCH  16  17
HETATM   17  C5  UNL     1       4.599   7.530  10.586  1.00  0.00    -0.028 A 
HETATM   18  C6  UNL     1       4.872   6.226  10.951  1.00  0.00     0.096 A 
HETATM   19  N1  UNL     1       4.243   5.394  10.066  1.00  0.00    -0.365 N 
HETATM   20  C7  UNL     1       3.559   6.125   9.124  1.00  0.00     0.042 A 
HETATM   21  H8  UNL     1       4.275   4.385  10.093  1.00  0.00     0.165 HD
HETATM   22  C8  UNL     1       2.788   5.698   8.036  1.00  0.00     0.030 A 
HETATM   23  C12 UNL     1       3.753   7.471   9.430  1.00  0.00    -0.002 A 
HETATM   24  C9  UNL     1       2.196   6.682   7.239  1.00  0.00     0.002 A 
HETATM   25  C10 UNL     1       2.366   8.034   7.524  1.00  0.00     0.001 A 
HETATM   26  C11 UNL     1       3.141   8.443   8.615  1.00  0.00     0.014 A 
ENDBRANCH  16  17
ENDBRANCH  11  16
ENDBRANCH   8  11
ENDBRANCH   6   7
ENDBRANCH   5   6
ENDBRANCH   3   5
ENDBRANCH   2   3
ENDBRANCH   1   2
BRANCH   1  27
HETATM   27  C18 UNL     1      -0.895   3.679  11.785  1.00  0.00     0.185 C 
HETATM   28  O6  UNL     1      -0.285   2.638  11.530  1.00  0.00    -0.292 OA
BRANCH  27  29
HETATM   29  C19 UNL     1      -2.411   3.829  11.513  1.00  0.00     0.128 C 
HETATM   30  C20 UNL     1      -3.096   2.472  11.180  1.00  0.00     0.047 C 
HETATM   31  C21 UNL     1      -4.512   2.519  11.789  1.00  0.00     0.009 C 
HETATM   32  C22 UNL     1      -4.681   3.963  12.246  1.00  0.00     0.002 C 
HETATM   33  C23 UNL     1      -5.757   4.293  13.297  1.00  0.00     0.003 C 
HETATM   34  C36 UNL     1      -3.246   4.360  12.717  1.00  0.00     0.005 C 
HETATM   35  C24 UNL     1      -7.158   3.733  12.984  1.00  0.00     0.010 C 
HETATM   36  C33 UNL     1      -5.761   5.841  13.498  1.00  0.00     0.072 C 
HETATM   37  C25 UNL     1      -8.197   4.804  12.670  1.00  0.00     0.035 C 
HETATM   38  C26 UNL     1      -8.245   5.934  13.675  1.00  0.00    -0.067 C 
HETATM   39  C27 UNL     1      -9.391   6.620  13.836  1.00  0.00     0.053 C 
HETATM   40  C31 UNL     1      -6.942   6.324  14.390  1.00  0.00    -0.009 C 
HETATM   41  C28 UNL     1      -9.465   7.832  14.685  1.00  0.00     0.149 C 
HETATM   42  O8  UNL     1     -10.565   8.329  14.920  1.00  0.00    -0.293 OA
HETATM   43  C29 UNL     1      -8.187   8.407  15.248  1.00  0.00     0.084 C 
HETATM   44  C30 UNL     1      -6.944   7.871  14.537  1.00  0.00     0.022 C 
HETATM   45  C32 UNL     1      -6.914   5.663  15.788  1.00  0.00     0.021 C 
HETATM   46  C34 UNL     1      -4.345   6.266  13.914  1.00  0.00     0.133 C 
HETATM   47  O9  UNL     1      -4.091   6.899  14.933  1.00  0.00    -0.297 OA
HETATM   48  C35 UNL     1      -3.232   5.882  12.942  1.00  0.00     0.091 C 
HETATM   49  C37 UNL     1      -2.808   3.652  14.029  1.00  0.00     0.019 C 
BRANCH  29  50
HETATM   50  O7  UNL     1      -2.592   4.696  10.388  1.00  0.00    -0.381 OA
HETATM   51  H20 UNL     1      -2.143   4.286   9.623  1.00  0.00     0.211 HD
ENDBRANCH  29  50
ENDBRANCH  27  29
ENDBRANCH   1  27
TORSDOF 13
ENDMDL
