MODEL 1
REMARK minimizedAffinity -7.96457529
REMARK CNNscore 0.667985737
REMARK CNNaffinity 6.28828478
REMARK  6 active torsions:
REMARK  status: ('A' for Active; 'I' for Inactive)
REMARK    1  A    between atoms: C2_2  and  C3_3 
REMARK    2  A    between atoms: C2_2  and  C4_5 
REMARK    3  A    between atoms: C3_3  and  O1_4 
REMARK    4  A    between atoms: C4_5  and  C6_7 
REMARK    5  A    between atoms: C7_8  and  C8_9 
REMARK    6  A    between atoms: C8_9  and  C10_11 
ROOT
HETATM    1  C10 UNL     1       2.920  56.741  -8.435  1.00  0.00     0.002 C 
HETATM    2  C11 UNL     1       3.977  56.276  -9.471  1.00  0.00     0.007 C 
HETATM    3  C12 UNL     1       3.241  55.366 -10.468  1.00  0.00     0.010 C 
HETATM    4  C13 UNL     1       1.764  55.505 -10.093  1.00  0.00     0.023 C 
HETATM    5  C14 UNL     1       0.740  54.514 -10.586  1.00  0.00    -0.070 C 
HETATM    6  C15 UNL     1       0.985  53.612 -11.548  1.00  0.00     0.004 C 
HETATM    7  C16 UNL     1      -0.068  52.849 -12.165  1.00  0.00     0.004 C 
HETATM    8  C17 UNL     1      -1.314  52.794 -11.664  1.00  0.00    -0.071 C 
HETATM    9  C18 UNL     1      -2.372  51.944 -12.329  1.00  0.00     0.035 C 
HETATM   10  C19 UNL     1      -3.713  52.661 -12.429  1.00  0.00     0.004 C 
HETATM   11  C20 UNL     1      -4.159  53.189 -11.071  1.00  0.00     0.001 C 
HETATM   12  C21 UNL     1      -3.113  54.140 -10.491  1.00  0.00     0.014 C 
HETATM   13  C22 UNL     1      -1.687  53.527 -10.366  1.00  0.00    -0.013 C 
HETATM   14  C23 UNL     1      -1.683  52.452  -9.250  1.00  0.00     0.021 C 
HETATM   15  C24 UNL     1      -0.677  54.722 -10.043  1.00  0.00     0.027 C 
HETATM   16  C25 UNL     1      -0.699  55.140  -8.545  1.00  0.00     0.011 C 
HETATM   17  C26 UNL     1       0.387  56.147  -8.136  1.00  0.00     0.011 C 
HETATM   18  C27 UNL     1       1.792  55.669  -8.553  1.00  0.00    -0.032 C 
HETATM   19  C28 UNL     1       2.145  54.350  -7.831  1.00  0.00     0.016 C 
ENDROOT
BRANCH   1  20
HETATM   20  C8  UNL     1       3.518  57.168  -7.064  1.00  0.00     0.008 C 
HETATM   21  C9  UNL     1       2.952  58.445  -6.430  1.00  0.00     0.014 C 
BRANCH  20  22
HETATM   22  C7  UNL     1       5.036  57.105  -7.087  1.00  0.00    -0.026 C 
HETATM   23  C6  UNL     1       5.873  57.144  -6.035  1.00  0.00    -0.026 C 
BRANCH  23  24
HETATM   24  C4  UNL     1       7.393  57.077  -6.067  1.00  0.00     0.009 C 
HETATM   25  C5  UNL     1       7.927  55.636  -6.129  1.00  0.00     0.014 C 
BRANCH  24  26
HETATM   26  C2  UNL     1       8.015  57.882  -4.884  1.00  0.00     0.012 C 
HETATM   27  C1  UNL     1       7.538  59.345  -4.879  1.00  0.00     0.012 C 
BRANCH  26  28
HETATM   28  C3  UNL     1       9.554  57.850  -4.873  1.00  0.00     0.168 C 
BRANCH  28  29
HETATM   29  O1  UNL     1      10.112  59.061  -5.362  1.00  0.00    -0.400 OA
HETATM   30  H7  UNL     1       9.918  59.760  -4.716  1.00  0.00     0.209 HD
ENDBRANCH  28  29
ENDBRANCH  26  28
ENDBRANCH  24  26
ENDBRANCH  23  24
ENDBRANCH  20  22
ENDBRANCH   1  20
TORSDOF 6
ENDMDL
