MODEL 1
REMARK minimizedAffinity -8.62209415
REMARK CNNscore 0.620508492
REMARK CNNaffinity 7.01605463
REMARK  13 active torsions:
REMARK  status: ('A' for Active; 'I' for Inactive)
REMARK    1  A    between atoms: C3_3  and  O1_4 
REMARK    2  A    between atoms: N1_14  and  O2_16 
REMARK    3  A    between atoms: O2_16  and  C13_17 
REMARK    4  A    between atoms: C13_17  and  C14_18 
REMARK       I    between atoms: C14_18  and  N2_20 
REMARK    5  A    between atoms: N2_20  and  C15_21 
REMARK    6  A    between atoms: C15_21  and  C16_22 
REMARK    7  A    between atoms: C15_21  and  C21_33 
REMARK       I    between atoms: C16_22  and  N3_24 
REMARK    8  A    between atoms: N3_24  and  C17_25 
REMARK    9  A    between atoms: C17_25  and  C18_26 
REMARK   10  A    between atoms: C17_25  and  C20_30 
REMARK   11  A    between atoms: C18_26  and  C19_27 
REMARK   12  A    between atoms: C19_27  and  O6_29 
REMARK   13  A    between atoms: C20_30  and  O8_32 
ROOT
HETATM    1  C1  UNL     1      -7.343   2.915  13.838  1.00  0.00     0.015 C 
HETATM    2  C2  UNL     1      -7.321   4.114  13.766  1.00  0.00    -0.078 C 
HETATM    3  C3  UNL     1      -7.311   5.592  13.676  1.00  0.00     0.128 C 
HETATM    4  C4  UNL     1      -7.909   6.192  14.953  1.00  0.00     0.052 C 
HETATM    5  C5  UNL     1      -6.732   6.408  15.906  1.00  0.00     0.010 C 
HETATM    6  C6  UNL     1      -5.436   6.140  15.103  1.00  0.00     0.002 C 
HETATM    7  C7  UNL     1      -4.285   7.079  15.534  1.00  0.00    -0.004 C 
HETATM    8  C8  UNL     1      -2.903   6.457  15.212  1.00  0.00     0.010 C 
HETATM    9  C9  UNL     1      -1.790   7.472  14.962  1.00  0.00     0.035 C 
HETATM   10  C10 UNL     1      -2.005   8.689  15.811  1.00  0.00    -0.069 C 
HETATM   11  C11 UNL     1      -1.148   8.997  16.798  1.00  0.00     0.030 C 
HETATM   12  C12 UNL     1      -1.375  10.160  17.694  1.00  0.00     0.032 C 
HETATM   13  N1  UNL     1      -0.423  10.475  18.525  1.00  0.00    -0.271 N 
ATOM     14  H1  UNL     1       0.453   9.960  18.617  1.00  0.00     0.194 HD
HETATM   15  C24 UNL     1      -2.678  10.927  17.569  1.00  0.00     0.060 C 
HETATM   16  C25 UNL     1      -3.755  10.119  16.854  1.00  0.00     0.020 C 
HETATM   17  C26 UNL     1      -3.281   9.475  15.519  1.00  0.00    -0.016 C 
HETATM   18  C27 UNL     1      -2.947  10.597  14.513  1.00  0.00     0.020 C 
HETATM   19  C28 UNL     1      -4.442   8.528  14.997  1.00  0.00     0.002 C 
HETATM   20  C29 UNL     1      -4.675   8.501  13.475  1.00  0.00     0.007 C 
HETATM   21  C30 UNL     1      -5.921   7.685  13.118  1.00  0.00     0.014 C 
HETATM   22  C31 UNL     1      -5.876   6.215  13.615  1.00  0.00     0.003 C 
HETATM   23  C32 UNL     1      -4.956   5.423  12.662  1.00  0.00     0.020 C 
ENDROOT
BRANCH   3  24
HETATM   24  O1  UNL     1      -8.100   5.975  12.557  1.00  0.00    -0.377 OA
HETATM   25  H2  UNL     1      -7.772   5.467  11.795  1.00  0.00     0.211 HD
ENDBRANCH   3  24
BRANCH  13  26
HETATM   26  O2  UNL     1      -0.751  11.610  19.279  1.00  0.00    -0.271 OA
BRANCH  26  27
HETATM   27  C13 UNL     1       0.434  12.163  19.846  1.00  0.00     0.303 C 
BRANCH  27  28
HETATM   28  C14 UNL     1       1.297  11.080  20.489  1.00  0.00     0.244 C 
HETATM   29  O3  UNL     1       0.857   9.965  20.766  1.00  0.00    -0.271 OA
HETATM   30  N2  UNL     1       2.598  11.446  20.734  1.00  0.00    -0.346 N 
HETATM   31  H16 UNL     1       2.906  12.367  20.424  1.00  0.00     0.163 HD
BRANCH  30  32
HETATM   32  C15 UNL     1       3.601  10.543  21.286  1.00  0.00     0.180 C 
BRANCH  32  33
HETATM   33  C16 UNL     1       4.977  11.109  20.870  1.00  0.00     0.241 C 
HETATM   34  O4  UNL     1       5.535  10.787  19.820  1.00  0.00    -0.271 OA
HETATM   35  N3  UNL     1       5.529  12.010  21.743  1.00  0.00    -0.344 N 
HETATM   36  H18 UNL     1       5.068  12.221  22.626  1.00  0.00     0.163 HD
BRANCH  35  37
HETATM   37  C17 UNL     1       6.812  12.669  21.490  1.00  0.00     0.192 C 
BRANCH  37  38
HETATM   38  C18 UNL     1       7.581  12.976  22.775  1.00  0.00     0.146 C 
BRANCH  38  39
HETATM   39  C19 UNL     1       8.995  12.476  22.729  1.00  0.00     0.141 C 
HETATM   40  O5  UNL     1       9.536  11.863  21.826  1.00  0.00    -0.650 OA
BRANCH  39  41
HETATM   41  O6  UNL     1       9.674  12.780  23.853  1.00  0.00    -0.776 OA
HETATM   42  H22 UNL     1      10.574  12.422  23.705  1.00  0.00     0.167 HD
ENDBRANCH  39  41
ENDBRANCH  38  39
ENDBRANCH  37  38
BRANCH  37  43
HETATM   43  C20 UNL     1       6.568  13.912  20.629  1.00  0.00     0.164 C 
HETATM   44  O7  UNL     1       5.477  14.378  20.335  1.00  0.00    -0.648 OA
BRANCH  43  45
HETATM   45  O8  UNL     1       7.697  14.459  20.136  1.00  0.00    -0.775 OA
HETATM   46  H23 UNL     1       7.378  15.230  19.619  1.00  0.00     0.167 HD
ENDBRANCH  43  45
ENDBRANCH  37  43
ENDBRANCH  35  37
ENDBRANCH  32  33
BRANCH  32  47
HETATM   47  C21 UNL     1       3.430  10.375  22.813  1.00  0.00     0.009 C 
HETATM   48  C22 UNL     1       2.716  11.565  23.458  1.00  0.00     0.012 C 
HETATM   49  C23 UNL     1       2.724   9.070  23.198  1.00  0.00     0.012 C 
ENDBRANCH  32  47
ENDBRANCH  30  32
ENDBRANCH  27  28
ENDBRANCH  26  27
ENDBRANCH  13  26
TORSDOF 13
ENDMDL
