MODEL 1
REMARK minimizedAffinity -10.0173025
REMARK CNNscore 0.723228693
REMARK CNNaffinity 7.22404146
REMARK  8 active torsions:
REMARK  status: ('A' for Active; 'I' for Inactive)
REMARK    1  A    between atoms: C2_2  and  C4_4 
REMARK    2  A    between atoms: C4_4  and  O1_6 
REMARK    3  A    between atoms: C4_4  and  C6_7 
REMARK    4  A    between atoms: C7_9  and  C8_10 
REMARK    5  A    between atoms: C8_10  and  O3_12 
REMARK    6  A    between atoms: C8_10  and  C10_13 
REMARK    7  A    between atoms: C22_25  and  O4_26 
REMARK    8  A    between atoms: C27_31  and  O5_32 
ROOT
HETATM    1  C10 UNL     1      -1.931   7.013  14.185  1.00  0.00     0.034 C 
HETATM    2  C11 UNL     1      -1.860   5.718  13.276  1.00  0.00     0.016 C 
HETATM    3  C12 UNL     1      -3.272   5.112  13.331  1.00  0.00     0.026 C 
HETATM    4  C13 UNL     1      -3.846   4.361  12.144  1.00  0.00     0.013 C 
HETATM    5  C14 UNL     1      -5.301   3.942  12.485  1.00  0.00     0.043 C 
HETATM    6  C15 UNL     1      -6.111   4.960  13.283  1.00  0.00    -0.006 C 
HETATM    7  C16 UNL     1      -5.581   6.066  13.841  1.00  0.00    -0.030 C 
HETATM    8  C17 UNL     1      -6.364   7.193  14.491  1.00  0.00     0.027 C 
HETATM    9  C18 UNL     1      -5.547   8.060  15.505  1.00  0.00     0.011 C 
HETATM   10  C19 UNL     1      -4.060   8.290  15.149  1.00  0.00     0.014 C 
HETATM   11  C20 UNL     1      -3.363   6.951  14.837  1.00  0.00    -0.002 C 
HETATM   12  C21 UNL     1      -3.394   6.071  16.111  1.00  0.00     0.019 C 
HETATM   13  C22 UNL     1      -4.131   6.331  13.648  1.00  0.00     0.094 C 
HETATM   14  C23 UNL     1      -7.746   6.705  15.055  1.00  0.00    -0.026 C 
HETATM   15  C24 UNL     1      -7.576   5.871  16.353  1.00  0.00     0.016 C 
HETATM   16  C25 UNL     1      -8.625   7.956  15.379  1.00  0.00     0.013 C 
HETATM   17  C26 UNL     1     -10.104   7.733  15.087  1.00  0.00     0.032 C 
HETATM   18  C27 UNL     1     -10.337   7.440  13.601  1.00  0.00     0.119 C 
HETATM   19  C28 UNL     1      -9.224   6.603  12.960  1.00  0.00     0.045 C 
HETATM   20  C29 UNL     1      -8.472   5.789  14.019  1.00  0.00     0.071 C 
HETATM   21  C30 UNL     1      -7.582   4.750  13.348  1.00  0.00     0.161 C 
HETATM   22  O6  UNL     1      -8.076   3.750  12.826  1.00  0.00    -0.292 OA
ENDROOT
BRANCH   1  23
HETATM   23  C8  UNL     1      -0.656   7.309  15.030  1.00  0.00     0.087 C 
HETATM   24  C9  UNL     1      -0.809   8.382  16.116  1.00  0.00     0.049 C 
BRANCH  23  25
HETATM   25  C7  UNL     1       0.529   7.544  14.115  1.00  0.00     0.188 A 
HETATM   26  C6  UNL     1       1.232   6.423  13.379  1.00  0.00     0.188 A 
HETATM   27  O2  UNL     1       1.798   7.033  14.554  1.00  0.00    -0.369 OA
BRANCH  26  28
HETATM   28  C4  UNL     1       1.999   6.671  12.095  1.00  0.00     0.086 C 
HETATM   29  C5  UNL     1       1.809   5.477  11.149  1.00  0.00     0.049 C 
BRANCH  28  30
HETATM   30  C2  UNL     1       1.594   8.040  11.469  1.00  0.00     0.014 C 
HETATM   31  C1  UNL     1       2.132   9.256  12.234  1.00  0.00     0.012 C 
HETATM   32  C3  UNL     1       0.076   8.191  11.292  1.00  0.00     0.012 C 
ENDBRANCH  28  30
BRANCH  28  33
HETATM   33  O1  UNL     1       3.400   6.739  12.401  1.00  0.00    -0.387 OA
HETATM   34  H11 UNL     1       3.604   5.952  12.941  1.00  0.00     0.210 HD
ENDBRANCH  28  33
ENDBRANCH  26  28
ENDBRANCH  23  25
BRANCH  23  35
HETATM   35  O3  UNL     1      -0.361   6.102  15.765  1.00  0.00    -0.387 OA
HETATM   36  H17 UNL     1      -0.301   5.369  15.129  1.00  0.00     0.210 HD
ENDBRANCH  23  35
ENDBRANCH   1  23
BRANCH  13  37
HETATM   37  O4  UNL     1      -4.080   7.244  12.530  1.00  0.00    -0.384 OA
HETATM   38  H34 UNL     1      -4.700   6.927  11.848  1.00  0.00     0.211 HD
ENDBRANCH  13  37
BRANCH  18  39
HETATM   39  O5  UNL     1     -11.593   6.780  13.458  1.00  0.00    -0.396 OA
HETATM   40  H43 UNL     1     -11.511   5.883  13.828  1.00  0.00     0.210 HD
ENDBRANCH  18  39
TORSDOF 8
ENDMDL
