MODEL 1
REMARK minimizedAffinity -9.37866592
REMARK  6 active torsions:
REMARK  status: ('A' for Active; 'I' for Inactive)
REMARK    1  A    between atoms: C9_10  and  C10_11 
REMARK    2  A    between atoms: C11_13  and  O3_14 
REMARK    3  A    between atoms: C12_15  and  C13_16 
REMARK    4  A    between atoms: C14_18  and  O5_19 
REMARK    5  A    between atoms: C16_21  and  C17_22 
REMARK    6  A    between atoms: C17_22  and  C18_23 
ROOT
HETATM    1  C1  UNL     1      -0.998  54.497 -28.299  1.00  0.00     0.043 C 
HETATM    2  C2  UNL     1      -1.099  53.096 -27.725  1.00  0.00    -0.087 C 
HETATM    3  C3  UNL     1       0.030  52.514 -27.275  1.00  0.00    -0.024 C 
HETATM    4  C4  UNL     1       0.279  51.150 -26.715  1.00  0.00     0.030 C 
HETATM    5  C5  UNL     1       0.785  51.148 -25.269  1.00  0.00     0.042 C 
HETATM    6  C6  UNL     1      -0.148  51.663 -24.133  1.00  0.00     0.069 C 
HETATM    7  C7  UNL     1      -0.396  53.182 -24.270  1.00  0.00     0.047 C 
HETATM    8  O1  UNL     1       0.725  51.548 -22.952  1.00  0.00    -0.338 OA
HETATM    9  C8  UNL     1       0.060  51.628 -21.755  1.00  0.00     0.095 A 
HETATM   10  C9  UNL     1       0.536  52.475 -20.751  1.00  0.00     0.070 A 
HETATM   11  C11 UNL     1      -0.183  52.601 -19.557  1.00  0.00     0.097 A 
HETATM   12  C12 UNL     1      -1.366  51.875 -19.385  1.00  0.00     0.069 A 
HETATM   13  C14 UNL     1      -1.815  50.997 -20.395  1.00  0.00     0.091 A 
HETATM   14  C15 UNL     1      -1.080  50.830 -21.575  1.00  0.00     0.015 A 
HETATM   15  C16 UNL     1      -1.346  49.884 -22.731  1.00  0.00     0.032 C 
HETATM   16  C21 UNL     1      -1.460  50.749 -24.030  1.00  0.00     0.034 C 
HETATM   17  C22 UNL     1      -2.739  51.571 -24.095  1.00  0.00     0.006 A 
HETATM   18  C23 UNL     1      -3.366  52.030 -25.417  1.00  0.00    -0.001 A 
HETATM   19  C24 UNL     1      -3.064  51.516 -26.804  1.00  0.00     0.010 C 
HETATM   20  C25 UNL     1      -2.514  52.552 -27.791  1.00  0.00     0.034 C 
HETATM   21  C26 UNL     1      -4.143  51.102 -24.483  1.00  0.00    -0.039 A 
HETATM   22  C27 UNL     1      -5.297  51.710 -23.715  1.00  0.00     0.015 C 
HETATM   23  C28 UNL     1      -4.445  49.698 -24.950  1.00  0.00     0.015 C 
ENDROOT
BRANCH  15  24
HETATM   24  C17 UNL     1      -2.418  48.790 -22.590  1.00  0.00     0.014 C 
BRANCH  24  25
HETATM   25  C18 UNL     1      -1.932  47.463 -21.954  1.00  0.00    -0.022 C 
HETATM   26  C19 UNL     1      -3.038  46.756 -21.164  1.00  0.00     0.009 C 
HETATM   27  C20 UNL     1      -0.749  47.747 -21.023  1.00  0.00     0.009 C 
ENDBRANCH  24  25
ENDBRANCH  15  24
BRANCH  13  28
HETATM   28  O5  UNL     1      -2.993  50.313 -20.253  1.00  0.00    -0.359 OA
HETATM   29  H15 UNL     1      -3.376  50.509 -19.367  1.00  0.00     0.217 HD
ENDBRANCH  13  28
BRANCH  10  30
HETATM   30  C10 UNL     1       1.774  53.247 -20.977  1.00  0.00     0.275 C 
HETATM   31  O2  UNL     1       1.762  54.472 -20.885  1.00  0.00    -0.301 OA
ENDBRANCH  10  30
BRANCH  12  32
HETATM   32  C13 UNL     1      -2.137  52.044 -18.134  1.00  0.00     0.275 C 
HETATM   33  O4  UNL     1      -3.081  51.300 -17.877  1.00  0.00    -0.301 OA
ENDBRANCH  12  32
BRANCH  11  34
HETATM   34  O3  UNL     1       0.232  53.435 -18.549  1.00  0.00    -0.359 OA
HETATM   35  H13 UNL     1       1.067  53.881 -18.830  1.00  0.00     0.217 HD
ENDBRANCH  11  34
TORSDOF 6
ENDMDL
