MODEL 1
REMARK minimizedAffinity -9.35857296
REMARK CNNscore 0.445156008
REMARK CNNaffinity 7.71241999
REMARK  12 active torsions:
REMARK  status: ('A' for Active; 'I' for Inactive)
REMARK    1  A    between atoms: C3_3  and  O1_4 
REMARK    2  A    between atoms: N1_14  and  O2_16 
REMARK    3  A    between atoms: O2_16  and  C13_17 
REMARK    4  A    between atoms: C13_17  and  C14_18 
REMARK       I    between atoms: C14_18  and  N2_20 
REMARK    5  A    between atoms: N2_20  and  C15_21 
REMARK    6  A    between atoms: C15_21  and  C16_22 
REMARK    7  A    between atoms: C15_21  and  C26_36 
REMARK       I    between atoms: C16_22  and  N3_24 
REMARK    8  A    between atoms: N3_24  and  C17_25 
REMARK    9  A    between atoms: C17_25  and  C18_26 
REMARK   10  A    between atoms: C17_25  and  C25_33 
REMARK   11  A    between atoms: C18_26  and  C19_27 
REMARK   12  A    between atoms: C25_33  and  O6_35 
ROOT
HETATM    1  C1  UNL     1     -14.273   9.196  15.678  1.00  0.00     0.015 C 
HETATM    2  C2  UNL     1     -13.482   8.994  14.798  1.00  0.00    -0.078 C 
HETATM    3  C3  UNL     1     -12.515   8.749  13.705  1.00  0.00     0.128 C 
HETATM    4  C4  UNL     1     -11.530   9.923  13.602  1.00  0.00     0.052 C 
HETATM    5  C5  UNL     1     -10.317   9.538  14.461  1.00  0.00     0.010 C 
HETATM    6  C6  UNL     1     -10.574   8.106  14.974  1.00  0.00     0.002 C 
HETATM    7  C7  UNL     1      -9.341   7.211  15.270  1.00  0.00    -0.004 C 
HETATM    8  C8  UNL     1      -8.176   7.997  15.914  1.00  0.00     0.010 C 
HETATM    9  C9  UNL     1      -7.010   8.253  14.967  1.00  0.00     0.035 C 
HETATM   10  C10 UNL     1      -6.475   6.999  14.324  1.00  0.00    -0.069 C 
HETATM   11  C11 UNL     1      -5.212   6.989  13.852  1.00  0.00     0.030 C 
HETATM   12  C12 UNL     1      -4.633   5.797  13.159  1.00  0.00     0.032 C 
HETATM   13  N1  UNL     1      -3.424   5.700  12.694  1.00  0.00    -0.271 N 
ATOM     14  H1  UNL     1      -3.059   4.871  12.224  1.00  0.00     0.194 HD
HETATM   15  C29 UNL     1      -5.520   4.577  12.988  1.00  0.00     0.060 C 
HETATM   16  C30 UNL     1      -6.992   4.970  12.958  1.00  0.00     0.020 C 
HETATM   17  C31 UNL     1      -7.416   5.807  14.199  1.00  0.00    -0.016 C 
HETATM   18  C32 UNL     1      -7.260   4.896  15.451  1.00  0.00     0.020 C 
HETATM   19  C33 UNL     1      -8.917   6.271  14.097  1.00  0.00     0.002 C 
HETATM   20  C34 UNL     1      -9.331   6.886  12.752  1.00  0.00     0.007 C 
HETATM   21  C35 UNL     1     -10.845   7.104  12.636  1.00  0.00     0.014 C 
HETATM   22  C36 UNL     1     -11.572   7.525  13.948  1.00  0.00     0.003 C 
HETATM   23  C37 UNL     1     -12.332   6.303  14.503  1.00  0.00     0.020 C 
ENDROOT
BRANCH   3  24
HETATM   24  O1  UNL     1     -13.248   8.624  12.494  1.00  0.00    -0.377 OA
HETATM   25  H2  UNL     1     -13.927   7.947  12.642  1.00  0.00     0.211 HD
ENDBRANCH   3  24
BRANCH  13  26
HETATM   26  O2  UNL     1      -2.679   6.867  12.914  1.00  0.00    -0.271 OA
BRANCH  26  27
HETATM   27  C13 UNL     1      -1.334   6.503  13.197  1.00  0.00     0.303 C 
BRANCH  27  28
HETATM   28  C14 UNL     1      -0.612   6.150  11.904  1.00  0.00     0.244 C 
HETATM   29  O3  UNL     1      -0.814   5.105  11.292  1.00  0.00    -0.271 OA
HETATM   30  N2  UNL     1       0.335   7.077  11.512  1.00  0.00    -0.346 N 
HETATM   31  H16 UNL     1       0.656   7.704  12.242  1.00  0.00     0.163 HD
BRANCH  30  32
HETATM   32  C15 UNL     1       1.297   6.757  10.462  1.00  0.00     0.180 C 
BRANCH  32  33
HETATM   33  C16 UNL     1       2.589   7.515  10.844  1.00  0.00     0.241 C 
HETATM   34  O4  UNL     1       2.611   8.379  11.720  1.00  0.00    -0.271 OA
HETATM   35  N3  UNL     1       3.705   7.149  10.123  1.00  0.00    -0.345 N 
HETATM   36  H18 UNL     1       3.562   6.675   9.239  1.00  0.00     0.163 HD
BRANCH  35  37
HETATM   37  C17 UNL     1       4.994   7.824  10.323  1.00  0.00     0.186 C 
BRANCH  37  38
HETATM   38  C18 UNL     1       4.822   9.011  11.280  1.00  0.00     0.074 C 
BRANCH  38  39
HETATM   39  C19 UNL     1       6.123   9.668  11.673  1.00  0.00    -0.056 A 
HETATM   40  C20 UNL     1       6.909  10.315  10.708  1.00  0.00     0.007 A 
HETATM   41  C21 UNL     1       8.118  10.912  11.065  1.00  0.00     0.001 A 
HETATM   42  C22 UNL     1       8.555  10.866  12.387  1.00  0.00     0.000 A 
HETATM   43  C23 UNL     1       7.782  10.227  13.354  1.00  0.00     0.001 A 
HETATM   44  C24 UNL     1       6.570   9.630  13.001  1.00  0.00     0.007 A 
ENDBRANCH  38  39
ENDBRANCH  37  38
BRANCH  37  45
HETATM   45  C25 UNL     1       5.965   6.810  10.926  1.00  0.00     0.163 C 
HETATM   46  O5  UNL     1       7.178   6.940  11.003  1.00  0.00    -0.648 OA
BRANCH  45  47
HETATM   47  O6  UNL     1       5.366   5.694  11.383  1.00  0.00    -0.775 OA
HETATM   48  H27 UNL     1       6.088   5.150  11.757  1.00  0.00     0.167 HD
ENDBRANCH  45  47
ENDBRANCH  37  45
ENDBRANCH  35  37
ENDBRANCH  32  33
BRANCH  32  49
HETATM   49  C26 UNL     1       0.770   7.195   9.079  1.00  0.00     0.009 C 
HETATM   50  C27 UNL     1       0.399   8.680   9.045  1.00  0.00     0.012 C 
HETATM   51  C28 UNL     1       1.807   6.915   7.984  1.00  0.00     0.012 C 
ENDBRANCH  32  49
ENDBRANCH  30  32
ENDBRANCH  27  28
ENDBRANCH  26  27
ENDBRANCH  13  26
TORSDOF 12
ENDMDL
