MODEL 1
REMARK minimizedAffinity -6.84738064
REMARK CNNscore 0.512373626
REMARK CNNaffinity 6.5427494
REMARK  8 active torsions:
REMARK  status: ('A' for Active; 'I' for Inactive)
REMARK    1  A    between atoms: C12_14  and  C13_15 
REMARK    2  A    between atoms: C13_15  and  C15_17 
REMARK    3  A    between atoms: C15_17  and  C16_18 
REMARK    4  A    between atoms: C16_18  and  C17_19 
REMARK    5  A    between atoms: C26_28  and  C27_29 
REMARK    6  A    between atoms: C27_29  and  C28_30 
REMARK    7  A    between atoms: C28_30  and  C29_31 
REMARK    8  A    between atoms: C29_31  and  O4_33 
ROOT
HETATM    1  C1  UNL     1      -1.281  50.371 -11.201  1.00  0.00     0.025 C 
HETATM    2  C2  UNL     1      -0.770  51.557 -10.847  1.00  0.00     0.015 C 
HETATM    3  C3  UNL     1      -1.338  52.298  -9.698  1.00  0.00     0.289 C 
HETATM    4  O1  UNL     1      -2.049  51.845  -8.822  1.00  0.00    -0.260 OA
HETATM    5  O2  UNL     1      -0.931  53.588  -9.801  1.00  0.00    -0.311 OA
HETATM    6  C4  UNL     1      -0.246  53.779 -11.047  1.00  0.00     0.142 C 
HETATM    7  C5  UNL     1       0.829  54.838 -10.879  1.00  0.00     0.039 C 
HETATM    8  C6  UNL     1       1.869  54.410  -9.833  1.00  0.00     0.006 C 
HETATM    9  C7  UNL     1       2.583  53.117 -10.301  1.00  0.00    -0.027 A 
HETATM   10  C8  UNL     1       4.104  53.220 -10.513  1.00  0.00     0.011 C 
HETATM   11  C9  UNL     1       4.908  54.076  -9.516  1.00  0.00     0.011 C 
HETATM   12  C10 UNL     1       4.047  54.950  -8.600  1.00  0.00    -0.032 C 
HETATM   13  C11 UNL     1       3.573  54.079  -7.407  1.00  0.00     0.016 C 
HETATM   14  C12 UNL     1       4.741  56.247  -8.082  1.00  0.00    -0.002 C 
HETATM   15  C21 UNL     1       3.562  57.206  -7.790  1.00  0.00     0.006 C 
HETATM   16  C22 UNL     1       2.317  56.599  -8.475  1.00  0.00     0.011 C 
HETATM   17  C23 UNL     1       2.870  55.544  -9.456  1.00  0.00    -0.032 C 
HETATM   18  C24 UNL     1       3.314  56.322 -10.739  1.00  0.00     0.016 C 
HETATM   19  C25 UNL     1       2.107  51.793  -9.736  1.00  0.00     0.022 A 
HETATM   20  C26 UNL     1       1.748  52.109 -11.168  1.00  0.00    -0.021 A 
HETATM   21  C30 UNL     1       0.265  52.415 -11.504  1.00  0.00     0.063 C 
ENDROOT
BRANCH  14  22
HETATM   22  C13 UNL     1       5.921  56.213  -7.069  1.00  0.00    -0.014 C 
HETATM   23  C14 UNL     1       7.124  55.498  -7.713  1.00  0.00     0.010 C 
BRANCH  22  24
HETATM   24  C15 UNL     1       6.389  57.476  -6.304  1.00  0.00     0.008 C 
BRANCH  24  25
HETATM   25  C16 UNL     1       6.143  57.627  -4.796  1.00  0.00     0.028 C 
BRANCH  25  26
HETATM   26  C17 UNL     1       6.259  59.038  -4.287  1.00  0.00    -0.025 C 
HETATM   27  C18 UNL     1       7.347  59.832  -4.283  1.00  0.00    -0.091 C 
HETATM   28  C19 UNL     1       7.276  61.222  -3.704  1.00  0.00     0.042 C 
HETATM   29  C20 UNL     1       8.696  59.467  -4.838  1.00  0.00     0.042 C 
ENDBRANCH  25  26
ENDBRANCH  24  25
ENDBRANCH  22  24
ENDBRANCH  14  22
BRANCH  20  30
HETATM   30  C27 UNL     1       2.516  51.411 -12.306  1.00  0.00     0.021 C 
BRANCH  30  31
HETATM   31  C28 UNL     1       3.082  50.029 -12.011  1.00  0.00     0.111 C 
BRANCH  31  32
HETATM   32  C29 UNL     1       3.551  49.302 -13.243  1.00  0.00     0.139 C 
HETATM   33  O3  UNL     1       2.932  48.493 -13.911  1.00  0.00    -0.650 OA
BRANCH  32  34
HETATM   34  O4  UNL     1       4.835  49.589 -13.535  1.00  0.00    -0.776 OA
HETATM   35  H43 UNL     1       5.023  49.046 -14.330  1.00  0.00     0.167 HD
ENDBRANCH  32  34
ENDBRANCH  31  32
ENDBRANCH  30  31
ENDBRANCH  20  30
TORSDOF 8
ENDMDL
