MODEL 1
REMARK minimizedAffinity -10.5047026
REMARK  9 active torsions:
REMARK  status: ('A' for Active; 'I' for Inactive)
REMARK    1  A    between atoms: C2_2  and  C3_3 
REMARK    2  A    between atoms: C2_2  and  C27_31 
REMARK    3  A    between atoms: C3_3  and  C4_4 
REMARK    4  A    between atoms: C4_4  and  C5_5 
REMARK    5  A    between atoms: C5_5  and  C7_7 
REMARK    6  A    between atoms: C22_24  and  O3_26 
REMARK    7  A    between atoms: C26_29  and  O4_30 
REMARK    8  A    between atoms: C27_31  and  C29_33 
REMARK    9  A    between atoms: C29_33  and  O6_35 
ROOT
HETATM    1  C7  UNL     1      -1.689   5.745  12.357  1.00  0.00    -0.002 C 
HETATM    2  C8  UNL     1      -2.170   4.434  11.669  1.00  0.00     0.006 C 
HETATM    3  C9  UNL     1      -3.647   4.248  12.033  1.00  0.00     0.010 C 
HETATM    4  C10 UNL     1      -4.056   5.597  12.620  1.00  0.00     0.027 C 
HETATM    5  C11 UNL     1      -5.361   5.795  13.369  1.00  0.00    -0.036 C 
HETATM    6  C12 UNL     1      -5.516   6.828  14.239  1.00  0.00     0.002 C 
HETATM    7  C13 UNL     1      -4.290   7.648  14.599  1.00  0.00     0.157 C 
HETATM    8  O1  UNL     1      -4.313   8.455  15.526  1.00  0.00    -0.293 OA
HETATM    9  C14 UNL     1      -3.007   7.470  13.806  1.00  0.00     0.093 C 
HETATM   10  C15 UNL     1      -2.799   6.007  13.423  1.00  0.00    -0.026 C 
HETATM   11  C16 UNL     1      -2.582   5.146  14.693  1.00  0.00     0.016 C 
HETATM   12  C17 UNL     1      -6.877   7.183  14.896  1.00  0.00    -0.006 C 
HETATM   13  C18 UNL     1      -6.845   6.564  16.313  1.00  0.00     0.021 C 
HETATM   14  C19 UNL     1      -7.123   8.718  14.999  1.00  0.00     0.022 C 
HETATM   15  C20 UNL     1      -8.497   9.099  15.534  1.00  0.00     0.083 C 
HETATM   16  C21 UNL     1      -9.594   8.467  14.721  1.00  0.00     0.161 C 
HETATM   17  O2  UNL     1     -10.574   9.129  14.371  1.00  0.00    -0.295 OA
HETATM   18  C22 UNL     1      -9.481   6.954  14.461  1.00  0.00     0.119 C 
HETATM   19  C23 UNL     1     -10.541   6.541  13.426  1.00  0.00     0.055 C 
HETATM   20  C24 UNL     1      -8.040   6.629  13.975  1.00  0.00     0.043 C 
HETATM   21  C25 UNL     1      -7.825   5.135  13.717  1.00  0.00     0.045 C 
HETATM   22  C26 UNL     1      -6.503   4.879  12.994  1.00  0.00     0.148 C 
ENDROOT
BRANCH   1  23
HETATM   23  C5  UNL     1      -0.201   5.657  12.812  1.00  0.00    -0.014 C 
HETATM   24  C6  UNL     1      -0.036   6.052  14.283  1.00  0.00     0.010 C 
BRANCH  23  25
HETATM   25  C4  UNL     1       0.705   6.566  11.933  1.00  0.00     0.009 C 
BRANCH  25  26
HETATM   26  C3  UNL     1       0.731   6.198  10.437  1.00  0.00     0.034 C 
BRANCH  26  27
HETATM   27  C2  UNL     1       0.944   7.327   9.448  1.00  0.00    -0.075 C 
HETATM   28  C1  UNL     1       0.106   8.382   9.430  1.00  0.00     0.015 C 
BRANCH  27  29
HETATM   29  C27 UNL     1       2.178   7.301   8.548  1.00  0.00     0.107 C 
HETATM   30  C28 UNL     1       1.834   7.247   7.059  1.00  0.00     0.026 C 
BRANCH  29  31
HETATM   31  C29 UNL     1       3.124   6.160   8.931  1.00  0.00     0.147 C 
HETATM   32  O5  UNL     1       3.998   6.162   9.782  1.00  0.00    -0.650 OA
BRANCH  31  33
HETATM   33  O6  UNL     1       2.950   5.060   8.166  1.00  0.00    -0.776 OA
HETATM   34  H42 UNL     1       3.632   4.439   8.498  1.00  0.00     0.167 HD
ENDBRANCH  31  33
ENDBRANCH  29  31
ENDBRANCH  27  29
ENDBRANCH  26  27
ENDBRANCH  25  26
ENDBRANCH  23  25
ENDBRANCH   1  23
BRANCH  22  35
HETATM   35  O4  UNL     1      -6.144   3.528  13.257  1.00  0.00    -0.391 OA
HETATM   36  H37 UNL     1      -5.918   3.467  14.201  1.00  0.00     0.210 HD
ENDBRANCH  22  35
BRANCH  18  37
HETATM   37  O3  UNL     1      -9.768   6.247  15.664  1.00  0.00    -0.382 OA
HETATM   38  H32 UNL     1     -10.700   6.426  15.893  1.00  0.00     0.211 HD
ENDBRANCH  18  37
TORSDOF 9
ENDMDL
