MODEL 1
REMARK minimizedAffinity -10.501646
REMARK CNNscore 0.440820247
REMARK CNNaffinity 7.27430868
REMARK  11 active torsions:
REMARK  status: ('A' for Active; 'I' for Inactive)
REMARK    1  A    between atoms: C3_3  and  O1_4 
REMARK    2  A    between atoms: N1_14  and  O2_16 
REMARK    3  A    between atoms: O2_16  and  C13_17 
REMARK    4  A    between atoms: C13_17  and  C14_18 
REMARK       I    between atoms: C14_18  and  N2_20 
REMARK    5  A    between atoms: N2_20  and  C15_21 
REMARK    6  A    between atoms: C15_21  and  C16_22 
REMARK    7  A    between atoms: C15_21  and  C17_25 
REMARK    8  A    between atoms: C16_22  and  O5_24 
REMARK    9  A    between atoms: C17_25  and  O6_26 
REMARK   10  A    between atoms: C17_25  and  C18_27 
REMARK   11  A    between atoms: C22_31  and  N3_32 
ROOT
HETATM    1  C1  UNL     1       1.250  51.811 -28.519  1.00  0.00     0.015 C 
HETATM    2  C2  UNL     1       0.359  52.212 -27.819  1.00  0.00    -0.078 C 
HETATM    3  C3  UNL     1      -0.731  52.712 -26.966  1.00  0.00     0.128 C 
HETATM    4  C4  UNL     1      -0.224  53.212 -25.609  1.00  0.00     0.052 C 
HETATM    5  C5  UNL     1      -1.385  53.009 -24.625  1.00  0.00     0.010 C 
HETATM    6  C6  UNL     1      -2.522  52.333 -25.415  1.00  0.00     0.002 C 
HETATM    7  C7  UNL     1      -3.449  51.408 -24.597  1.00  0.00    -0.004 C 
HETATM    8  C8  UNL     1      -4.042  52.147 -23.391  1.00  0.00     0.010 C 
HETATM    9  C9  UNL     1      -5.052  51.275 -22.662  1.00  0.00     0.035 C 
HETATM   10  C10 UNL     1      -4.450  49.960 -22.230  1.00  0.00    -0.069 C 
HETATM   11  C11 UNL     1      -4.633  49.536 -20.967  1.00  0.00     0.030 C 
HETATM   12  C12 UNL     1      -4.222  48.182 -20.521  1.00  0.00     0.032 C 
HETATM   13  N1  UNL     1      -4.541  47.829 -19.307  1.00  0.00    -0.271 N 
ATOM     14  H1  UNL     1      -4.999  48.446 -18.635  1.00  0.00     0.194 HD
HETATM   15  C24 UNL     1      -3.548  47.273 -21.527  1.00  0.00     0.060 C 
HETATM   16  C25 UNL     1      -2.824  48.074 -22.602  1.00  0.00     0.020 C 
HETATM   17  C26 UNL     1      -3.709  49.151 -23.298  1.00  0.00    -0.016 C 
HETATM   18  C27 UNL     1      -4.764  48.448 -24.181  1.00  0.00     0.020 C 
HETATM   19  C28 UNL     1      -2.762  50.093 -24.147  1.00  0.00     0.002 C 
HETATM   20  C29 UNL     1      -2.133  49.391 -25.367  1.00  0.00     0.007 C 
HETATM   21  C30 UNL     1      -1.168  50.301 -26.130  1.00  0.00     0.014 C 
HETATM   22  C31 UNL     1      -1.802  51.639 -26.598  1.00  0.00     0.003 C 
HETATM   23  C32 UNL     1      -2.780  51.379 -27.761  1.00  0.00     0.020 C 
ENDROOT
BRANCH   3  24
HETATM   24  O1  UNL     1      -1.349  53.821 -27.624  1.00  0.00    -0.377 OA
HETATM   25  H2  UNL     1      -0.629  54.383 -27.958  1.00  0.00     0.211 HD
ENDBRANCH   3  24
BRANCH  13  26
HETATM   26  O2  UNL     1      -4.181  46.502 -19.033  1.00  0.00    -0.271 OA
BRANCH  26  27
HETATM   27  C13 UNL     1      -2.888  46.503 -18.436  1.00  0.00     0.303 C 
BRANCH  27  28
HETATM   28  C14 UNL     1      -2.768  47.684 -17.487  1.00  0.00     0.244 C 
HETATM   29  O3  UNL     1      -3.603  47.926 -16.620  1.00  0.00    -0.271 OA
HETATM   30  N2  UNL     1      -1.668  48.484 -17.717  1.00  0.00    -0.342 N 
HETATM   31  H16 UNL     1      -0.893  48.056 -18.221  1.00  0.00     0.163 HD
BRANCH  30  32
HETATM   32  C15 UNL     1      -1.338  49.616 -16.840  1.00  0.00     0.216 C 
BRANCH  32  33
HETATM   33  C16 UNL     1       0.128  49.507 -16.420  1.00  0.00     0.166 C 
HETATM   34  O4  UNL     1       0.694  48.482 -16.065  1.00  0.00    -0.648 OA
BRANCH  33  35
HETATM   35  O5  UNL     1       0.807  50.679 -16.440  1.00  0.00    -0.775 OA
HETATM   36  H18 UNL     1       1.723  50.438 -16.183  1.00  0.00     0.167 HD
ENDBRANCH  33  35
ENDBRANCH  32  33
BRANCH  32  37
HETATM   37  C17 UNL     1      -1.511  51.006 -17.510  1.00  0.00     0.184 C 
BRANCH  37  38
HETATM   38  O6  UNL     1      -2.897  51.358 -17.634  1.00  0.00    -0.388 OA
HETATM   39  H20 UNL     1      -3.288  51.364 -16.738  1.00  0.00     0.210 HD
ENDBRANCH  37  38
BRANCH  37  40
HETATM   40  C18 UNL     1      -0.932  51.098 -18.909  1.00  0.00    -0.025 A 
HETATM   41  C19 UNL     1      -1.118  50.053 -19.827  1.00  0.00     0.010 A 
HETATM   42  C20 UNL     1      -0.601  50.134 -21.122  1.00  0.00     0.003 A 
HETATM   43  C21 UNL     1       0.107  51.265 -21.525  1.00  0.00     0.036 A 
HETATM   44  C22 UNL     1       0.303  52.313 -20.616  1.00  0.00     0.103 A 
HETATM   45  C23 UNL     1      -0.204  52.232 -19.314  1.00  0.00     0.045 A 
BRANCH  44  46
HETATM   46  N3  UNL     1       1.047  53.507 -21.035  1.00  0.00    -0.116 N 
HETATM   47  O7  UNL     1       1.087  53.774 -22.245  1.00  0.00    -0.532 OA
HETATM   48  O8  UNL     1       1.585  54.189 -20.148  1.00  0.00    -0.532 OA
ENDBRANCH  44  46
ENDBRANCH  37  40
ENDBRANCH  32  37
ENDBRANCH  30  32
ENDBRANCH  27  28
ENDBRANCH  26  27
ENDBRANCH  13  26
TORSDOF 11
ENDMDL
