MODEL 1
REMARK minimizedAffinity -6.69940615
REMARK CNNscore 0.735034764
REMARK CNNaffinity 7.23216105
REMARK  5 active torsions:
REMARK  status: ('A' for Active; 'I' for Inactive)
REMARK    1  A    between atoms: C2_2  and  C3_3 
REMARK    2  A    between atoms: C8_8  and  C9_9 
REMARK    3  A    between atoms: C9_9  and  C11_11 
REMARK    4  A    between atoms: C11_11  and  C12_12 
REMARK    5  A    between atoms: C12_12  and  C13_13 
ROOT
HETATM    1  C3  UNL     1       1.860  55.203  -8.213  1.00  0.00    -0.032 C 
HETATM    2  C4  UNL     1       0.588  54.742  -7.399  1.00  0.00     0.011 C 
HETATM    3  C5  UNL     1      -0.146  53.485  -7.913  1.00  0.00     0.011 C 
HETATM    4  C6  UNL     1      -0.497  53.629  -9.401  1.00  0.00    -0.032 C 
HETATM    5  C7  UNL     1      -1.454  54.854  -9.542  1.00  0.00     0.016 C 
HETATM    6  C8  UNL     1      -1.129  52.399 -10.112  1.00  0.00    -0.002 C 
HETATM    7  C17 UNL     1      -0.852  52.695 -11.613  1.00  0.00     0.006 C 
HETATM    8  C18 UNL     1       0.287  53.754 -11.655  1.00  0.00     0.011 C 
HETATM    9  C19 UNL     1       0.856  53.768 -10.215  1.00  0.00    -0.032 C 
HETATM   10  C20 UNL     1       1.795  52.517 -10.157  1.00  0.00     0.016 C 
HETATM   11  C21 UNL     1       1.600  55.073  -9.767  1.00  0.00     0.003 C 
HETATM   12  C22 UNL     1       2.835  55.442 -10.586  1.00  0.00     0.006 C 
HETATM   13  C23 UNL     1       4.189  54.918 -10.133  1.00  0.00     0.006 C 
HETATM   14  C24 UNL     1       4.370  54.367  -8.702  1.00  0.00     0.005 C 
HETATM   15  C25 UNL     1       3.105  54.330  -7.780  1.00  0.00    -0.000 C 
HETATM   16  C26 UNL     1       3.488  54.404  -6.282  1.00  0.00     0.013 C 
HETATM   17  C27 UNL     1       4.717  53.562  -5.986  1.00  0.00     0.079 C 
HETATM   18  C28 UNL     1       5.924  54.141  -6.676  1.00  0.00     0.135 C 
HETATM   19  O1  UNL     1       7.034  54.044  -6.150  1.00  0.00    -0.297 OA
HETATM   20  C29 UNL     1       5.721  54.833  -8.033  1.00  0.00     0.017 C 
HETATM   21  C30 UNL     1       6.920  54.424  -8.924  1.00  0.00     0.023 C 
HETATM   22  C31 UNL     1       5.802  56.348  -7.782  1.00  0.00     0.023 C 
ENDROOT
BRANCH   6  23
HETATM   23  C9  UNL     1      -2.526  51.841  -9.718  1.00  0.00    -0.014 C 
HETATM   24  C10 UNL     1      -2.349  50.682  -8.717  1.00  0.00     0.010 C 
BRANCH  23  25
HETATM   25  C11 UNL     1      -3.603  51.494 -10.773  1.00  0.00     0.008 C 
BRANCH  25  26
HETATM   26  C12 UNL     1      -4.947  50.877 -10.376  1.00  0.00     0.028 C 
BRANCH  26  27
HETATM   27  C13 UNL     1      -5.217  49.504 -10.921  1.00  0.00    -0.025 C 
HETATM   28  C14 UNL     1      -6.404  48.873 -10.993  1.00  0.00    -0.091 C 
HETATM   29  C15 UNL     1      -7.707  49.431 -10.492  1.00  0.00     0.042 C 
HETATM   30  C16 UNL     1      -6.507  47.496 -11.594  1.00  0.00     0.042 C 
ENDBRANCH  26  27
ENDBRANCH  25  26
ENDBRANCH  23  25
ENDBRANCH   6  23
BRANCH   1  31
HETATM   31  C2  UNL     1       2.161  56.699  -7.830  1.00  0.00     0.006 C 
HETATM   32  C1  UNL     1       1.327  57.338  -6.720  1.00  0.00     0.006 C 
ENDBRANCH   1  31
TORSDOF 5
ENDMDL
