MODEL 1
REMARK minimizedAffinity -9.1896162
REMARK  7 active torsions:
REMARK  status: ('A' for Active; 'I' for Inactive)
REMARK    1  A    between atoms: C2_2  and  C30_32 
REMARK    2  A    between atoms: C3_3  and  C4_4 
REMARK    3  A    between atoms: C4_4  and  C5_5 
REMARK    4  A    between atoms: C5_5  and  C6_6 
REMARK    5  A    between atoms: C6_6  and  C8_8 
REMARK    6  A    between atoms: C29_30  and  O2_31 
REMARK    7  A    between atoms: C30_32  and  O3_33 
ROOT
HETATM    1  C8  UNL     1      -5.617   6.910  14.583  1.00  0.00    -0.002 C 
HETATM    2  C9  UNL     1      -5.515   8.250  15.353  1.00  0.00     0.007 C 
HETATM    3  C10 UNL     1      -4.119   8.836  15.039  1.00  0.00     0.015 C 
HETATM    4  C11 UNL     1      -3.578   8.009  13.855  1.00  0.00    -0.010 C 
HETATM    5  C12 UNL     1      -4.179   8.626  12.551  1.00  0.00     0.021 C 
HETATM    6  C13 UNL     1      -2.070   7.916  13.612  1.00  0.00    -0.039 C 
HETATM    7  C14 UNL     1      -1.568   6.827  12.966  1.00  0.00    -0.066 C 
HETATM    8  C15 UNL     1      -2.476   5.654  12.543  1.00  0.00     0.036 C 
HETATM    9  C16 UNL     1      -3.946   5.668  13.017  1.00  0.00     0.015 C 
HETATM   10  C17 UNL     1      -4.136   6.585  14.230  1.00  0.00    -0.029 C 
HETATM   11  C18 UNL     1      -3.413   5.937  15.447  1.00  0.00     0.016 C 
HETATM   12  C19 UNL     1      -0.055   6.678  12.641  1.00  0.00    -0.015 C 
HETATM   13  C20 UNL     1       0.514   5.606  13.604  1.00  0.00     0.020 C 
HETATM   14  C21 UNL     1       0.138   6.196  11.172  1.00  0.00     0.021 C 
HETATM   15  C22 UNL     1       1.476   6.547  10.526  1.00  0.00     0.080 C 
HETATM   16  C23 UNL     1       2.551   6.885  11.530  1.00  0.00     0.135 C 
HETATM   17  O1  UNL     1       3.651   6.334  11.478  1.00  0.00    -0.297 OA
HETATM   18  C24 UNL     1       2.235   7.999  12.535  1.00  0.00     0.018 C 
HETATM   19  C25 UNL     1       2.709   9.321  11.893  1.00  0.00     0.023 C 
HETATM   20  C26 UNL     1       3.066   7.790  13.817  1.00  0.00     0.023 C 
HETATM   21  C27 UNL     1       0.687   8.057  12.775  1.00  0.00     0.016 C 
HETATM   22  C28 UNL     1       0.292   8.758  14.083  1.00  0.00     0.043 C 
HETATM   23  C29 UNL     1      -1.206   9.052  14.111  1.00  0.00     0.148 C 
ENDROOT
BRANCH   1  24
HETATM   24  C6  UNL     1      -6.497   5.798  15.230  1.00  0.00    -0.014 C 
HETATM   25  C7  UNL     1      -7.238   6.206  16.510  1.00  0.00     0.010 C 
BRANCH  24  26
HETATM   26  C5  UNL     1      -7.516   5.281  14.177  1.00  0.00     0.008 C 
BRANCH  26  27
HETATM   27  C4  UNL     1      -7.215   3.873  13.652  1.00  0.00     0.028 C 
BRANCH  27  28
HETATM   28  C3  UNL     1      -6.415   3.931  12.378  1.00  0.00    -0.022 C 
HETATM   29  C2  UNL     1      -6.055   2.899  11.587  1.00  0.00    -0.064 C 
HETATM   30  C1  UNL     1      -6.460   1.467  11.818  1.00  0.00     0.045 C 
BRANCH  29  31
HETATM   31  C30 UNL     1      -5.218   3.125  10.355  1.00  0.00     0.197 C 
BRANCH  31  32
HETATM   32  O3  UNL     1      -3.879   2.745  10.634  1.00  0.00    -0.397 OA
HETATM   33  H48 UNL     1      -3.379   2.875   9.813  1.00  0.00     0.209 HD
ENDBRANCH  31  32
ENDBRANCH  29  31
ENDBRANCH  27  28
ENDBRANCH  26  27
ENDBRANCH  24  26
ENDBRANCH   1  24
BRANCH  23  34
HETATM   34  O2  UNL     1      -1.431  10.198  13.292  1.00  0.00    -0.391 OA
HETATM   35  H45 UNL     1      -2.279  10.581  13.568  1.00  0.00     0.210 HD
ENDBRANCH  23  34
TORSDOF 7
ENDMDL
