MODEL 1
REMARK minimizedAffinity -9.50490379
REMARK CNNscore 0.3773233
REMARK CNNaffinity 6.94414902
REMARK  8 active torsions:
REMARK  status: ('A' for Active; 'I' for Inactive)
REMARK    1  A    between atoms: C10_11  and  C11_12 
REMARK    2  A    between atoms: C29_32  and  C30_33 
REMARK    3  A    between atoms: C29_32  and  C31_35 
REMARK    4  A    between atoms: C30_33  and  O1_34 
REMARK    5  A    between atoms: C31_35  and  O3_37 
REMARK    6  A    between atoms: C38_45  and  O4_46 
REMARK    7  A    between atoms: C41_49  and  C42_50 
REMARK    8  A    between atoms: C42_50  and  O6_52 
ROOT
HETATM    1  C11 UNL     1       5.526  12.762  19.748  1.00  0.00     0.070 C 
HETATM    2  C12 UNL     1       6.936  13.271  20.139  1.00  0.00     0.026 C 
HETATM    3  C13 UNL     1       7.077  14.573  20.991  1.00  0.00     0.039 C 
HETATM    4  C14 UNL     1       5.935  15.568  20.789  1.00  0.00    -0.051 C 
HETATM    5  C15 UNL     1       5.946  16.403  19.728  1.00  0.00    -0.026 C 
HETATM    6  C16 UNL     1       4.956  17.480  19.409  1.00  0.00     0.036 C 
HETATM    7  C17 UNL     1       4.865  15.589  21.867  1.00  0.00     0.306 C 
HETATM    8  N2  UNL     1       4.791  14.363  22.645  1.00  0.00     0.094 N 
HETATM    9  C18 UNL     1       3.748  14.418  23.662  1.00  0.00     0.310 C 
HETATM   10  C19 UNL     1       6.054  13.768  23.152  1.00  0.00     0.248 C 
HETATM   11  C20 UNL     1       5.989  12.206  23.062  1.00  0.00     0.079 C 
HETATM   12  C21 UNL     1       5.016  11.582  22.100  1.00  0.00    -0.020 A 
HETATM   13  C22 UNL     1       4.871  11.810  20.735  1.00  0.00     0.025 A 
HETATM   14  N3  UNL     1       3.843  10.988  20.309  1.00  0.00    -0.358 N 
HETATM   15  C23 UNL     1       3.343  10.226  21.332  1.00  0.00     0.043 A 
HETATM   16  C24 UNL     1       2.325   9.263  21.322  1.00  0.00     0.030 A 
HETATM   17  C25 UNL     1       2.009   8.645  22.534  1.00  0.00     0.002 A 
HETATM   18  C26 UNL     1       2.692   8.974  23.701  1.00  0.00     0.001 A 
HETATM   19  C27 UNL     1       3.715   9.930  23.684  1.00  0.00     0.014 A 
HETATM   20  C28 UNL     1       4.050  10.577  22.474  1.00  0.00    -0.001 A 
HETATM   21  C29 UNL     1       7.342  14.371  22.513  1.00  0.00     0.107 C 
HETATM   22  H28 UNL     1       3.513  10.935  19.355  1.00  0.00     0.166 HD
ENDROOT
BRANCH   1  23
HETATM   23  C10 UNL     1       5.584  12.119  18.349  1.00  0.00    -0.048 A 
HETATM   24  C9  UNL     1       6.810  11.762  17.766  1.00  0.00     0.018 A 
HETATM   25  C8  UNL     1       6.811  11.106  16.541  1.00  0.00    -0.017 A 
HETATM   26  C7  UNL     1       7.990  10.748  15.667  1.00  0.00     0.061 C 
HETATM   27  C35 UNL     1       5.622  10.778  15.891  1.00  0.00     0.039 A 
HETATM   28  C6  UNL     1       8.440  12.021  14.896  1.00  0.00     0.050 C 
HETATM   29  C37 UNL     1       7.300   9.851  14.537  1.00  0.00     0.273 C 
HETATM   30  C41 UNL     1       9.133   9.972  16.359  1.00  0.00     0.111 C 
HETATM   31  C5  UNL     1       7.993  11.809  13.464  1.00  0.00     0.277 C 
HETATM   32  N1  UNL     1       7.915  10.357  13.285  1.00  0.00     0.125 N 
HETATM   33  C4  UNL     1       9.219   9.780  12.940  1.00  0.00     0.310 C 
HETATM   34  C3  UNL     1      10.270   9.727  14.041  1.00  0.00    -0.051 C 
HETATM   35  C2  UNL     1      11.528  10.201  13.921  1.00  0.00    -0.026 C 
HETATM   36  C40 UNL     1       9.860   9.040  15.351  1.00  0.00     0.033 C 
HETATM   37  C1  UNL     1      12.161  10.900  12.759  1.00  0.00     0.036 C 
HETATM   38  C39 UNL     1       8.951   7.841  15.067  1.00  0.00     0.046 C 
HETATM   39  C38 UNL     1       7.519   8.279  14.748  1.00  0.00     0.179 C 
HETATM   40  N4  UNL     1       5.825  10.025  14.740  1.00  0.00    -0.347 N 
HETATM   41  C36 UNL     1       4.926  10.126  13.612  1.00  0.00     0.152 C 
HETATM   42  C34 UNL     1       4.407  11.142  16.444  1.00  0.00     0.030 A 
HETATM   43  C33 UNL     1       4.387  11.813  17.671  1.00  0.00     0.010 A 
BRANCH  39  44
HETATM   44  O4  UNL     1       6.688   7.774  15.816  1.00  0.00    -0.391 OA
HETATM   45  H45 UNL     1       5.879   8.327  15.762  1.00  0.00     0.210 HD
ENDBRANCH  39  44
BRANCH  30  46
HETATM   46  C42 UNL     1      10.114  10.821  17.157  1.00  0.00     0.264 C 
HETATM   47  O5  UNL     1      10.581  11.897  16.810  1.00  0.00    -0.265 OA
BRANCH  46  48
HETATM   48  O6  UNL     1      10.366  10.238  18.366  1.00  0.00    -0.326 OA
HETATM   49  C43 UNL     1      11.584  10.669  18.978  1.00  0.00     0.213 C 
ENDBRANCH  46  48
ENDBRANCH  30  46
ENDBRANCH   1  23
BRANCH  21  50
HETATM   50  C30 UNL     1       7.754  15.741  23.153  1.00  0.00     0.186 C 
BRANCH  50  51
HETATM   51  O1  UNL     1       8.872  15.619  24.029  1.00  0.00    -0.399 OA
HETATM   52  H35 UNL     1       9.071  16.511  24.366  1.00  0.00     0.209 HD
ENDBRANCH  50  51
ENDBRANCH  21  50
BRANCH  21  53
HETATM   53  C31 UNL     1       8.622  13.550  22.724  1.00  0.00     0.272 C 
HETATM   54  O2  UNL     1       8.712  12.622  23.517  1.00  0.00    -0.264 OA
BRANCH  53  55
HETATM   55  O3  UNL     1       9.620  13.910  21.867  1.00  0.00    -0.326 OA
HETATM   56  C32 UNL     1      10.270  12.810  21.227  1.00  0.00     0.213 C 
ENDBRANCH  53  55
ENDBRANCH  21  53
TORSDOF 8
ENDMDL
