MODEL 1
REMARK minimizedAffinity -7.47297764
REMARK CNNscore 0.703263462
REMARK CNNaffinity 7.6052556
REMARK  8 active torsions:
REMARK  status: ('A' for Active; 'I' for Inactive)
REMARK    1  A    between atoms: C3_3  and  O1_4 
REMARK    2  A    between atoms: N1_14  and  O2_16 
REMARK    3  A    between atoms: O2_16  and  C13_17 
REMARK    4  A    between atoms: C13_17  and  C14_18 
REMARK       I    between atoms: C14_18  and  N2_20 
REMARK    5  A    between atoms: N2_20  and  C15_21 
REMARK    6  A    between atoms: C15_21  and  C16_22 
REMARK    7  A    between atoms: C16_22  and  O4_23 
REMARK    8  A    between atoms: C16_22  and  C17_24 
ROOT
HETATM    1  C1  UNL     1      -5.705   3.012  12.013  1.00  0.00     0.015 C 
HETATM    2  C2  UNL     1      -6.523   3.562  12.701  1.00  0.00    -0.078 C 
HETATM    3  C3  UNL     1      -7.521   4.226  13.558  1.00  0.00     0.128 C 
HETATM    4  C4  UNL     1      -7.208   4.017  15.042  1.00  0.00     0.052 C 
HETATM    5  C5  UNL     1      -8.074   5.067  15.724  1.00  0.00     0.010 C 
HETATM    6  C6  UNL     1      -7.857   6.314  14.863  1.00  0.00     0.002 C 
HETATM    7  C7  UNL     1      -8.944   7.401  14.956  1.00  0.00    -0.004 C 
HETATM    8  C8  UNL     1      -9.144   7.886  16.399  1.00  0.00     0.010 C 
HETATM    9  C9  UNL     1     -10.119   9.058  16.446  1.00  0.00     0.035 C 
HETATM   10  C10 UNL     1     -11.445   8.731  15.802  1.00  0.00    -0.069 C 
HETATM   11  C11 UNL     1     -12.588   9.051  16.441  1.00  0.00     0.030 C 
HETATM   12  C12 UNL     1     -13.925   8.861  15.812  1.00  0.00     0.032 C 
HETATM   13  N1  UNL     1     -15.071   9.141  16.352  1.00  0.00    -0.271 N 
ATOM     14  H1  UNL     1     -15.967   8.994  15.889  1.00  0.00     0.194 HD
HETATM   15  C23 UNL     1     -13.958   8.338  14.391  1.00  0.00     0.060 C 
HETATM   16  C24 UNL     1     -12.781   7.418  14.115  1.00  0.00     0.020 C 
HETATM   17  C25 UNL     1     -11.401   8.077  14.414  1.00  0.00    -0.016 C 
HETATM   18  C26 UNL     1     -11.128   9.193  13.378  1.00  0.00     0.020 C 
HETATM   19  C27 UNL     1     -10.298   6.947  14.364  1.00  0.00     0.002 C 
HETATM   20  C28 UNL     1     -10.132   6.289  12.974  1.00  0.00     0.007 C 
HETATM   21  C29 UNL     1      -8.702   6.281  12.427  1.00  0.00     0.014 C 
HETATM   22  C30 UNL     1      -7.606   5.793  13.406  1.00  0.00     0.003 C 
HETATM   23  C31 UNL     1      -6.261   6.397  12.925  1.00  0.00     0.020 C 
ENDROOT
BRANCH   3  24
HETATM   24  O1  UNL     1      -8.783   3.599  13.318  1.00  0.00    -0.377 OA
HETATM   25  H2  UNL     1      -8.900   3.573  12.356  1.00  0.00     0.211 HD
ENDBRANCH   3  24
BRANCH  13  26
HETATM   26  O2  UNL     1     -14.939   9.670  17.647  1.00  0.00    -0.271 OA
BRANCH  26  27
HETATM   27  C13 UNL     1     -16.235   9.756  18.232  1.00  0.00     0.303 C 
BRANCH  27  28
HETATM   28  C14 UNL     1     -16.323   8.879  19.474  1.00  0.00     0.243 C 
HETATM   29  O3  UNL     1     -17.150   9.062  20.365  1.00  0.00    -0.271 OA
HETATM   30  N2  UNL     1     -15.339   7.911  19.559  1.00  0.00    -0.356 N 
HETATM   31  H16 UNL     1     -14.557   7.967  18.916  1.00  0.00     0.162 HD
BRANCH  30  32
HETATM   32  C15 UNL     1     -15.181   7.115  20.765  1.00  0.00     0.159 C 
BRANCH  32  33
HETATM   33  C16 UNL     1     -15.910   5.759  20.675  1.00  0.00     0.170 C 
BRANCH  33  34
HETATM   34  O4  UNL     1     -17.322   5.973  20.835  1.00  0.00    -0.389 OA
HETATM   35  H20 UNL     1     -17.716   5.105  21.035  1.00  0.00     0.210 HD
ENDBRANCH  33  34
BRANCH  33  36
HETATM   36  C17 UNL     1     -15.424   4.789  21.720  1.00  0.00    -0.013 A 
HETATM   37  C18 UNL     1     -14.120   4.284  21.728  1.00  0.00     0.013 A 
HETATM   38  C19 UNL     1     -13.743   3.354  22.696  1.00  0.00     0.025 A 
HETATM   39  C20 UNL     1     -14.680   2.953  23.640  1.00  0.00     0.005 A 
HETATM   40  C21 UNL     1     -14.323   1.927  24.671  1.00  0.00     0.068 C 
HETATM   41  N3  UNL     1     -15.947   3.431  23.657  1.00  0.00    -0.369 N 
HETATM   42  C22 UNL     1     -16.291   4.320  22.701  1.00  0.00     0.097 A 
ATOM     43  H3  UNL     1     -16.616   3.131  24.365  1.00  0.00     0.165 HD
ENDBRANCH  33  36
ENDBRANCH  32  33
ENDBRANCH  30  32
ENDBRANCH  27  28
ENDBRANCH  26  27
ENDBRANCH  13  26
TORSDOF 8
ENDMDL
