MODEL 1
REMARK minimizedAffinity -8.72575092
REMARK  5 active torsions:
REMARK  status: ('A' for Active; 'I' for Inactive)
REMARK    1  A    between atoms: C4_4  and  C5_5 
REMARK    2  A    between atoms: C5_5  and  C6_6 
REMARK    3  A    between atoms: C6_6  and  C7_7 
REMARK    4  A    between atoms: C7_7  and  C9_9 
REMARK    5  A    between atoms: C24_24  and  O1_26 
ROOT
HETATM    1  C9  UNL     1      -6.438   6.995  14.276  1.00  0.00    -0.002 C 
HETATM    2  C10 UNL     1      -6.407   8.362  15.010  1.00  0.00     0.007 C 
HETATM    3  C11 UNL     1      -4.939   8.846  14.995  1.00  0.00     0.015 C 
HETATM    4  C12 UNL     1      -4.233   7.937  13.970  1.00  0.00    -0.013 C 
HETATM    5  C13 UNL     1      -4.501   8.553  12.560  1.00  0.00     0.021 C 
HETATM    6  C14 UNL     1      -2.723   7.754  14.033  1.00  0.00    -0.068 C 
HETATM    7  C15 UNL     1      -2.164   6.613  13.543  1.00  0.00    -0.068 C 
HETATM    8  C16 UNL     1      -3.016   5.451  13.029  1.00  0.00     0.036 C 
HETATM    9  C17 UNL     1      -4.550   5.582  13.153  1.00  0.00     0.015 C 
HETATM   10  C18 UNL     1      -4.943   6.567  14.260  1.00  0.00    -0.029 C 
HETATM   11  C19 UNL     1      -4.543   5.937  15.628  1.00  0.00     0.016 C 
HETATM   12  C20 UNL     1      -0.626   6.429  13.583  1.00  0.00    -0.016 C 
HETATM   13  C21 UNL     1      -0.341   5.865  15.002  1.00  0.00     0.020 C 
HETATM   14  C22 UNL     1      -0.035   5.407  12.570  1.00  0.00     0.017 C 
HETATM   15  C23 UNL     1       0.351   6.046  11.246  1.00  0.00     0.039 C 
HETATM   16  C24 UNL     1       1.493   7.091  11.388  1.00  0.00     0.061 C 
HETATM   17  C25 UNL     1       1.405   8.010  10.152  1.00  0.00     0.046 C 
HETATM   18  C26 UNL     1       1.463   7.866  12.785  1.00  0.00    -0.012 C 
HETATM   19  C27 UNL     1       2.441   7.245  13.811  1.00  0.00     0.018 C 
HETATM   20  C28 UNL     1       1.961   9.327  12.616  1.00  0.00     0.018 C 
HETATM   21  C29 UNL     1      -0.021   7.859  13.294  1.00  0.00     0.009 C 
HETATM   22  C30 UNL     1      -0.386   8.812  14.440  1.00  0.00     0.011 C 
HETATM   23  C31 UNL     1      -1.913   8.911  14.592  1.00  0.00     0.036 C 
ENDROOT
BRANCH   1  24
HETATM   24  C7  UNL     1      -7.501   5.963  14.755  1.00  0.00    -0.014 C 
HETATM   25  C8  UNL     1      -8.942   6.253  14.313  1.00  0.00     0.010 C 
BRANCH  24  26
HETATM   26  C6  UNL     1      -7.078   4.544  14.286  1.00  0.00     0.008 C 
BRANCH  26  27
HETATM   27  C5  UNL     1      -7.718   4.105  12.964  1.00  0.00     0.028 C 
BRANCH  27  28
HETATM   28  C4  UNL     1      -7.237   2.736  12.562  1.00  0.00    -0.025 C 
HETATM   29  C2  UNL     1      -6.309   2.424  11.638  1.00  0.00    -0.091 C 
HETATM   30  C1  UNL     1      -5.923   0.986  11.395  1.00  0.00     0.042 C 
HETATM   31  C3  UNL     1      -5.579   3.414  10.772  1.00  0.00     0.042 C 
ENDBRANCH  27  28
ENDBRANCH  26  27
ENDBRANCH  24  26
ENDBRANCH   1  24
BRANCH  16  32
HETATM   32  O1  UNL     1       2.745   6.397  11.277  1.00  0.00    -0.389 OA
HETATM   33  H41 UNL     1       2.776   5.961  10.409  1.00  0.00     0.210 HD
ENDBRANCH  16  32
TORSDOF 5
ENDMDL
