MODEL 1
REMARK minimizedAffinity -9.56729698
REMARK  4 active torsions:
REMARK  status: ('A' for Active; 'I' for Inactive)
REMARK    1  A    between atoms: C2_2  and  C3_3 
REMARK    2  A    between atoms: C2_2  and  C9_9 
REMARK    3  A    between atoms: C4_4  and  C5_5 
REMARK    4  A    between atoms: C23_23  and  O1_24 
ROOT
HETATM    1  C9  UNL     1      -5.840   6.861  13.815  1.00  0.00     0.001 C 
HETATM    2  C10 UNL     1      -5.786   8.402  14.050  1.00  0.00     0.006 C 
HETATM    3  C11 UNL     1      -4.349   8.857  13.763  1.00  0.00     0.009 C 
HETATM    4  C12 UNL     1      -3.679   7.609  13.204  1.00  0.00     0.036 C 
HETATM    5  C13 UNL     1      -4.343   6.432  13.965  1.00  0.00    -0.033 C 
HETATM    6  C14 UNL     1      -3.955   6.329  15.456  1.00  0.00     0.016 C 
HETATM    7  C15 UNL     1      -3.940   5.142  13.222  1.00  0.00     0.010 C 
HETATM    8  C16 UNL     1      -2.412   4.987  13.111  1.00  0.00     0.010 C 
HETATM    9  C17 UNL     1      -1.720   6.202  12.463  1.00  0.00     0.039 C 
HETATM   10  C18 UNL     1      -2.150   7.571  13.090  1.00  0.00     0.123 C 
HETATM   11  C19 UNL     1      -1.356   7.926  14.321  1.00  0.00     0.014 C 
HETATM   12  C20 UNL     1      -0.034   7.977  14.107  1.00  0.00     0.014 C 
HETATM   13  C21 UNL     1       0.374   7.583  12.700  1.00  0.00     0.124 C 
HETATM   14  C22 UNL     1       1.879   7.771  12.470  1.00  0.00     0.078 C 
HETATM   15  C23 UNL     1       2.386   7.138  11.170  1.00  0.00     0.121 C 
HETATM   16  C24 UNL     1       1.286   6.632  10.243  1.00  0.00     0.033 C 
HETATM   17  C25 UNL     1       0.306   5.685  10.943  1.00  0.00     0.015 C 
HETATM   18  C26 UNL     1      -0.134   6.136  12.376  1.00  0.00     0.001 C 
HETATM   19  C27 UNL     1       0.470   5.114  13.379  1.00  0.00     0.019 C 
HETATM   20  O2  UNL     1      -0.318   8.492  11.795  1.00  0.00    -0.223 OA
HETATM   21  O3  UNL     1      -1.772   8.589  12.123  1.00  0.00    -0.224 OA
ENDROOT
BRANCH   1  22
HETATM   22  C2  UNL     1      -6.930   6.170  14.682  1.00  0.00     0.008 C 
HETATM   23  C1  UNL     1      -6.442   5.821  16.092  1.00  0.00     0.014 C 
BRANCH  22  24
HETATM   24  C3  UNL     1      -7.492   4.961  13.950  1.00  0.00    -0.026 C 
HETATM   25  C4  UNL     1      -6.858   4.171  13.066  1.00  0.00    -0.025 C 
BRANCH  25  26
HETATM   26  C5  UNL     1      -7.450   3.016  12.384  1.00  0.00     0.012 A 
HETATM   27  C6  UNL     1      -7.176   1.628  12.912  1.00  0.00     0.013 A 
HETATM   28  C7  UNL     1      -6.580   2.058  11.600  1.00  0.00    -0.010 A 
HETATM   29  C8  UNL     1      -5.102   2.217  11.474  1.00  0.00     0.010 C 
ENDBRANCH  25  26
ENDBRANCH  22  24
ENDBRANCH   1  22
BRANCH  15  30
HETATM   30  O1  UNL     1       3.244   6.044  11.511  1.00  0.00    -0.395 OA
HETATM   31  H33 UNL     1       3.635   5.712  10.684  1.00  0.00     0.210 HD
ENDBRANCH  15  30
TORSDOF 4
ENDMDL
