MODEL 1
REMARK minimizedAffinity -8.7293272
REMARK  13 active torsions:
REMARK  status: ('A' for Active; 'I' for Inactive)
REMARK    1  A    between atoms: C2_2  and  C3_3 
REMARK    2  A    between atoms: C2_2  and  C14_14 
REMARK    3  A    between atoms: C4_4  and  C5_5 
REMARK    4  A    between atoms: C6_6  and  C8_8 
REMARK    5  A    between atoms: C8_8  and  C9_9 
REMARK    6  A    between atoms: C9_9  and  C10_10 
REMARK    7  A    between atoms: C18_18  and  O1_19 
REMARK    8  A    between atoms: C19_20  and  C20_21 
REMARK    9  A    between atoms: C20_21  and  C21_22 
REMARK   10  A    between atoms: C21_22  and  C22_23 
REMARK   11  A    between atoms: C22_23  and  O2_24 
REMARK   12  A    between atoms: C24_26  and  C26_28 
REMARK   13  A    between atoms: C29_32  and  O4_34 
ROOT
HETATM    1  C14 UNL     1      -7.348  46.759 -27.594  1.00  0.00     0.047 C 
HETATM    2  C15 UNL     1      -8.365  45.609 -27.661  1.00  0.00     0.013 C 
HETATM    3  C16 UNL     1      -9.356  45.960 -28.769  1.00  0.00     0.017 C 
HETATM    4  C17 UNL     1      -8.658  46.974 -29.714  1.00  0.00     0.024 C 
HETATM    5  C18 UNL     1      -7.885  47.803 -28.610  1.00  0.00     0.138 C 
HETATM    6  C19 UNL     1      -7.608  46.317 -30.725  1.00  0.00     0.029 C 
HETATM    7  C23 UNL     1      -7.157  47.191 -31.918  1.00  0.00    -0.066 C 
HETATM    8  C24 UNL     1      -5.914  47.143 -32.475  1.00  0.00    -0.021 C 
HETATM    9  C25 UNL     1      -5.481  47.908 -33.703  1.00  0.00     0.052 C 
HETATM   10  C27 UNL     1      -8.176  48.193 -32.442  1.00  0.00     0.038 C 
HETATM   11  C28 UNL     1      -9.010  48.877 -31.370  1.00  0.00     0.042 C 
HETATM   12  C29 UNL     1      -9.713  47.887 -30.442  1.00  0.00     0.065 C 
HETATM   13  C30 UNL     1     -10.807  47.139 -31.221  1.00  0.00     0.047 C 
ENDROOT
BRANCH   5  14
HETATM   14  O1  UNL     1      -6.805  48.566 -29.136  1.00  0.00    -0.394 OA
HETATM   15  H26 UNL     1      -6.415  49.055 -28.389  1.00  0.00     0.210 HD
ENDBRANCH   5  14
BRANCH   6  16
HETATM   16  C20 UNL     1      -7.773  44.807 -31.092  1.00  0.00     0.012 C 
BRANCH  16  17
HETATM   17  C21 UNL     1      -6.606  43.830 -31.002  1.00  0.00     0.027 C 
BRANCH  17  18
HETATM   18  C22 UNL     1      -6.360  43.017 -32.265  1.00  0.00     0.164 C 
BRANCH  18  19
HETATM   19  O2  UNL     1      -5.410  41.993 -31.991  1.00  0.00    -0.401 OA
HETATM   20  H34 UNL     1      -5.798  41.401 -31.325  1.00  0.00     0.209 HD
ENDBRANCH  18  19
ENDBRANCH  17  18
ENDBRANCH  16  17
ENDBRANCH   6  16
BRANCH  12  21
HETATM   21  O4  UNL     1     -10.426  48.690 -29.480  1.00  0.00    -0.389 OA
HETATM   22  H46 UNL     1     -11.159  48.169 -29.109  1.00  0.00     0.210 HD
ENDBRANCH  12  21
BRANCH   1  23
HETATM   23  C2  UNL     1      -7.066  47.214 -26.159  1.00  0.00    -0.061 C 
HETATM   24  C1  UNL     1      -7.842  46.893 -25.106  1.00  0.00     0.019 C 
BRANCH  23  25
HETATM   25  C3  UNL     1      -5.901  48.067 -25.898  1.00  0.00     0.007 C 
HETATM   26  C4  UNL     1      -5.335  48.332 -24.709  1.00  0.00     0.001 C 
BRANCH  26  27
HETATM   27  C5  UNL     1      -4.176  49.193 -24.570  1.00  0.00     0.002 C 
HETATM   28  C6  UNL     1      -3.107  49.252 -25.389  1.00  0.00    -0.084 C 
HETATM   29  C7  UNL     1      -2.881  48.389 -26.605  1.00  0.00     0.043 C 
BRANCH  28  30
HETATM   30  C8  UNL     1      -1.982  50.232 -25.092  1.00  0.00     0.037 C 
BRANCH  30  31
HETATM   31  C9  UNL     1      -1.297  50.750 -26.363  1.00  0.00     0.031 C 
BRANCH  31  32
HETATM   32  C10 UNL     1       0.198  50.809 -26.199  1.00  0.00    -0.024 C 
HETATM   33  C11 UNL     1       1.084  51.475 -26.966  1.00  0.00    -0.091 C 
HETATM   34  C12 UNL     1       2.552  51.467 -26.628  1.00  0.00     0.042 C 
HETATM   35  C13 UNL     1       0.737  52.264 -28.198  1.00  0.00     0.042 C 
ENDBRANCH  31  32
ENDBRANCH  30  31
ENDBRANCH  28  30
ENDBRANCH  26  27
ENDBRANCH  23  25
ENDBRANCH   1  23
BRANCH   8  36
HETATM   36  C26 UNL     1      -4.804  46.292 -31.928  1.00  0.00     0.265 C 
HETATM   37  O3  UNL     1      -3.631  46.650 -31.912  1.00  0.00    -0.302 OA
ENDBRANCH   8  36
TORSDOF 13
ENDMDL
