MODEL 1
REMARK minimizedAffinity -10.2915936
REMARK  6 active torsions:
REMARK  status: ('A' for Active; 'I' for Inactive)
REMARK    1  A    between atoms: C2_2  and  C3_3 
REMARK    2  A    between atoms: C2_2  and  C27_30 
REMARK    3  A    between atoms: C3_3  and  C4_4 
REMARK    4  A    between atoms: C4_4  and  C5_5 
REMARK    5  A    between atoms: C5_5  and  C7_7 
REMARK    6  A    between atoms: C26_28  and  O3_29 
ROOT
HETATM    1  C7  UNL     1      -1.053  51.454 -25.072  1.00  0.00    -0.002 C 
HETATM    2  C8  UNL     1      -0.333  52.817 -25.220  1.00  0.00     0.006 C 
HETATM    3  C9  UNL     1       0.184  53.185 -23.815  1.00  0.00     0.010 C 
HETATM    4  C10 UNL     1      -0.104  51.947 -22.959  1.00  0.00     0.027 C 
HETATM    5  C11 UNL     1      -0.136  52.012 -21.451  1.00  0.00    -0.036 C 
HETATM    6  C12 UNL     1      -0.828  51.096 -20.727  1.00  0.00     0.002 C 
HETATM    7  C13 UNL     1      -1.640  50.044 -21.468  1.00  0.00     0.157 C 
HETATM    8  O1  UNL     1      -2.288  49.198 -20.853  1.00  0.00    -0.293 OA
HETATM    9  C14 UNL     1      -1.645  50.022 -22.989  1.00  0.00     0.093 C 
HETATM   10  C15 UNL     1      -1.424  51.421 -23.560  1.00  0.00    -0.026 C 
HETATM   11  C16 UNL     1      -2.652  52.311 -23.243  1.00  0.00     0.016 C 
HETATM   12  C17 UNL     1      -0.837  51.076 -19.182  1.00  0.00    -0.008 C 
HETATM   13  C18 UNL     1      -2.216  51.646 -18.751  1.00  0.00     0.021 C 
HETATM   14  C19 UNL     1      -0.675  49.635 -18.597  1.00  0.00     0.022 C 
HETATM   15  C20 UNL     1       0.043  49.535 -17.251  1.00  0.00     0.080 C 
HETATM   16  C21 UNL     1      -0.127  50.780 -16.421  1.00  0.00     0.131 C 
HETATM   17  O2  UNL     1      -0.502  50.729 -15.249  1.00  0.00    -0.298 OA
HETATM   18  C22 UNL     1       0.264  52.099 -17.071  1.00  0.00     0.056 C 
HETATM   19  C23 UNL     1       1.581  52.568 -16.451  1.00  0.00     0.018 C 
HETATM   20  C24 UNL     1       0.350  51.933 -18.609  1.00  0.00     0.012 C 
HETATM   21  C25 UNL     1       0.456  53.287 -19.323  1.00  0.00     0.042 C 
HETATM   22  C26 UNL     1       0.702  53.090 -20.818  1.00  0.00     0.148 C 
ENDROOT
BRANCH   1  23
HETATM   23  C5  UNL     1      -2.194  51.121 -26.073  1.00  0.00    -0.014 C 
HETATM   24  C6  UNL     1      -2.480  52.186 -27.130  1.00  0.00     0.010 C 
BRANCH  23  25
HETATM   25  C4  UNL     1      -2.027  49.711 -26.696  1.00  0.00     0.009 C 
BRANCH  25  26
HETATM   26  C3  UNL     1      -2.811  48.543 -26.076  1.00  0.00     0.034 C 
BRANCH  26  27
HETATM   27  C2  UNL     1      -4.304  48.482 -26.343  1.00  0.00    -0.086 C 
HETATM   28  C1  UNL     1      -4.754  48.232 -27.587  1.00  0.00     0.014 C 
BRANCH  27  29
HETATM   29  C27 UNL     1      -5.308  48.595 -25.196  1.00  0.00     0.005 C 
HETATM   30  C28 UNL     1      -6.577  47.762 -25.394  1.00  0.00     0.014 C 
HETATM   31  C29 UNL     1      -4.676  48.305 -23.832  1.00  0.00     0.014 C 
ENDBRANCH  27  29
ENDBRANCH  26  27
ENDBRANCH  25  26
ENDBRANCH  23  25
ENDBRANCH   1  23
BRANCH  22  32
HETATM   32  O3  UNL     1       2.061  52.723 -21.029  1.00  0.00    -0.391 OA
HETATM   33  H37 UNL     1       2.610  53.495 -20.808  1.00  0.00     0.210 HD
ENDBRANCH  22  32
TORSDOF 6
ENDMDL
