MODEL 1
REMARK minimizedAffinity -8.34946442
REMARK CNNscore 0.602578998
REMARK CNNaffinity 6.8480587
REMARK  7 active torsions:
REMARK  status: ('A' for Active; 'I' for Inactive)
REMARK    1  A    between atoms: C4_4  and  C5_5 
REMARK    2  A    between atoms: C5_5  and  C6_6 
REMARK    3  A    between atoms: C6_6  and  C7_7 
REMARK    4  A    between atoms: C7_7  and  C9_9 
REMARK    5  A    between atoms: C27_27  and  O1_28 
REMARK    6  A    between atoms: C28_29  and  O2_30 
REMARK    7  A    between atoms: C29_31  and  O3_32 
ROOT
HETATM    1  C9  UNL     1      -6.278   5.999  14.735  1.00  0.00    -0.002 C 
HETATM    2  C10 UNL     1      -6.726   6.656  13.395  1.00  0.00     0.007 C 
HETATM    3  C11 UNL     1      -5.521   7.418  12.821  1.00  0.00     0.015 C 
HETATM    4  C12 UNL     1      -4.311   6.870  13.592  1.00  0.00    -0.013 C 
HETATM    5  C13 UNL     1      -3.907   5.525  12.909  1.00  0.00     0.021 C 
HETATM    6  C14 UNL     1      -3.024   7.691  13.634  1.00  0.00    -0.068 C 
HETATM    7  C15 UNL     1      -2.166   7.559  14.679  1.00  0.00    -0.065 C 
HETATM    8  C16 UNL     1      -2.531   6.686  15.890  1.00  0.00     0.036 C 
HETATM    9  C17 UNL     1      -3.905   5.976  15.885  1.00  0.00     0.015 C 
HETATM   10  C18 UNL     1      -4.931   6.733  15.035  1.00  0.00    -0.029 C 
HETATM   11  C19 UNL     1      -5.231   8.108  15.707  1.00  0.00     0.016 C 
HETATM   12  C20 UNL     1      -0.794   8.291  14.739  1.00  0.00     0.012 C 
HETATM   13  C21 UNL     1      -0.917   9.405  15.812  1.00  0.00     0.023 C 
HETATM   14  C22 UNL     1      -0.416   8.997  13.363  1.00  0.00     0.007 C 
HETATM   15  C23 UNL     1      -1.663   9.602  12.707  1.00  0.00     0.010 C 
HETATM   16  C24 UNL     1      -2.747   8.572  12.445  1.00  0.00     0.036 C 
HETATM   17  C25 UNL     1       0.488   8.127  12.419  1.00  0.00     0.018 C 
HETATM   18  C26 UNL     1       0.443   8.524  10.939  1.00  0.00     0.013 C 
HETATM   19  C27 UNL     1       0.265   6.625  12.633  1.00  0.00     0.153 C 
HETATM   20  C28 UNL     1       0.621   6.203  14.073  1.00  0.00     0.177 C 
HETATM   21  C29 UNL     1       0.411   7.352  15.093  1.00  0.00     0.162 C 
ENDROOT
BRANCH   1  22
HETATM   22  C7  UNL     1      -7.432   5.997  15.789  1.00  0.00    -0.014 C 
HETATM   23  C8  UNL     1      -7.155   7.056  16.872  1.00  0.00     0.010 C 
BRANCH  22  24
HETATM   24  C6  UNL     1      -8.818   6.236  15.147  1.00  0.00     0.008 C 
BRANCH  24  25
HETATM   25  C5  UNL     1      -9.533   7.507  15.624  1.00  0.00     0.028 C 
BRANCH  25  26
HETATM   26  C4  UNL     1     -10.218   8.201  14.477  1.00  0.00    -0.025 C 
HETATM   27  C2  UNL     1     -11.362   7.847  13.857  1.00  0.00    -0.091 C 
HETATM   28  C1  UNL     1     -12.221   6.668  14.221  1.00  0.00     0.042 C 
HETATM   29  C3  UNL     1     -11.893   8.664  12.707  1.00  0.00     0.042 C 
ENDBRANCH  25  26
ENDBRANCH  24  25
ENDBRANCH  22  24
ENDBRANCH   1  22
BRANCH  21  30
HETATM   30  O3  UNL     1       0.426   6.853  16.432  1.00  0.00    -0.392 OA
HETATM   31  H48 UNL     1       0.435   7.604  17.045  1.00  0.00     0.210 HD
ENDBRANCH  21  30
BRANCH  20  32
HETATM   32  O2  UNL     1      -0.109   5.013  14.393  1.00  0.00    -0.390 OA
HETATM   33  H46 UNL     1      -0.008   4.414  13.632  1.00  0.00     0.210 HD
ENDBRANCH  20  32
BRANCH  19  34
HETATM   34  O1  UNL     1       1.047   5.835  11.727  1.00  0.00    -0.393 OA
HETATM   35  H44 UNL     1       1.979   6.099  11.822  1.00  0.00     0.210 HD
ENDBRANCH  19  34
TORSDOF 7
ENDMDL
