MODEL 1
REMARK minimizedAffinity -8.81915379
REMARK  9 active torsions:
REMARK  status: ('A' for Active; 'I' for Inactive)
REMARK    1  A    between atoms: C12_14  and  C13_15 
REMARK    2  A    between atoms: C13_15  and  C15_17 
REMARK    3  A    between atoms: C15_17  and  C16_18 
REMARK    4  A    between atoms: C16_18  and  C17_19 
REMARK    5  A    between atoms: C18_20  and  C20_22 
REMARK    6  A    between atoms: C26_29  and  C27_30 
REMARK    7  A    between atoms: C27_30  and  C28_31 
REMARK    8  A    between atoms: C28_31  and  C29_32 
REMARK    9  A    between atoms: C29_32  and  O5_34 
ROOT
HETATM    1  C1  UNL     1       5.372   8.176  10.328  1.00  0.00     0.025 C 
HETATM    2  C2  UNL     1       4.838   8.193  11.556  1.00  0.00     0.015 C 
HETATM    3  C3  UNL     1       5.370   9.074  12.617  1.00  0.00     0.289 C 
HETATM    4  O1  UNL     1       6.372   9.763  12.552  1.00  0.00    -0.260 OA
HETATM    5  O2  UNL     1       4.554   8.968  13.697  1.00  0.00    -0.311 OA
HETATM    6  C4  UNL     1       3.367   8.220  13.365  1.00  0.00     0.142 C 
HETATM    7  C5  UNL     1       2.212   9.205  13.238  1.00  0.00     0.039 C 
HETATM    8  C6  UNL     1       0.899   8.625  12.689  1.00  0.00     0.006 C 
HETATM    9  C7  UNL     1       1.105   7.686  11.476  1.00  0.00    -0.027 A 
HETATM   10  C8  UNL     1      -0.184   7.018  10.955  1.00  0.00     0.011 C 
HETATM   11  C9  UNL     1      -1.162   6.522  12.032  1.00  0.00     0.011 C 
HETATM   12  C10 UNL     1      -1.434   7.606  13.086  1.00  0.00    -0.032 C 
HETATM   13  C11 UNL     1      -2.124   8.808  12.380  1.00  0.00     0.016 C 
HETATM   14  C12 UNL     1      -2.279   7.196  14.338  1.00  0.00    -0.002 C 
HETATM   15  C21 UNL     1      -1.761   8.161  15.449  1.00  0.00     0.006 C 
HETATM   16  C22 UNL     1      -0.489   8.842  14.912  1.00  0.00     0.011 C 
HETATM   17  C23 UNL     1      -0.034   7.952  13.745  1.00  0.00    -0.032 C 
HETATM   18  C24 UNL     1       0.688   6.717  14.374  1.00  0.00     0.016 C 
HETATM   19  C25 UNL     1       1.964   8.216  10.353  1.00  0.00     0.022 A 
HETATM   20  C26 UNL     1       2.516   7.079  11.197  1.00  0.00    -0.021 A 
HETATM   21  C30 UNL     1       3.698   7.410  12.120  1.00  0.00     0.063 C 
ENDROOT
BRANCH  14  22
HETATM   22  C13 UNL     1      -3.832   7.047  14.325  1.00  0.00    -0.014 C 
HETATM   23  C14 UNL     1      -4.608   7.899  13.309  1.00  0.00     0.010 C 
BRANCH  22  24
HETATM   24  C15 UNL     1      -4.339   5.590  14.227  1.00  0.00     0.008 C 
BRANCH  24  25
HETATM   25  C16 UNL     1      -4.619   5.119  12.797  1.00  0.00     0.028 C 
BRANCH  25  26
HETATM   26  C17 UNL     1      -5.814   4.204  12.757  1.00  0.00    -0.017 C 
HETATM   27  C18 UNL     1      -7.108   4.560  12.862  1.00  0.00    -0.028 C 
HETATM   28  C19 UNL     1      -7.663   5.943  13.004  1.00  0.00     0.051 C 
BRANCH  27  29
HETATM   29  C20 UNL     1      -8.118   3.463  12.814  1.00  0.00     0.265 C 
HETATM   30  O3  UNL     1      -7.885   2.332  13.221  1.00  0.00    -0.302 OA
ENDBRANCH  27  29
ENDBRANCH  25  26
ENDBRANCH  24  25
ENDBRANCH  22  24
ENDBRANCH  14  22
BRANCH  20  31
HETATM   31  C27 UNL     1       2.594   5.652  10.631  1.00  0.00     0.021 C 
BRANCH  31  32
HETATM   32  C28 UNL     1       3.419   5.490   9.360  1.00  0.00     0.111 C 
BRANCH  32  33
HETATM   33  C29 UNL     1       3.744   4.043   9.137  1.00  0.00     0.139 C 
HETATM   34  O4  UNL     1       4.490   3.595   8.285  1.00  0.00    -0.650 OA
BRANCH  33  35
HETATM   35  O5  UNL     1       3.136   3.228  10.021  1.00  0.00    -0.776 OA
HETATM   36  H41 UNL     1       3.435   2.330   9.763  1.00  0.00     0.167 HD
ENDBRANCH  33  35
ENDBRANCH  32  33
ENDBRANCH  31  32
ENDBRANCH  20  31
TORSDOF 9
ENDMDL
