MODEL 1
REMARK minimizedAffinity -9.40973091
REMARK  5 active torsions:
REMARK  status: ('A' for Active; 'I' for Inactive)
REMARK    1  A    between atoms: C3_3  and  C4_4 
REMARK    2  A    between atoms: C4_4  and  O2_6 
REMARK    3  A    between atoms: O2_6  and  C5_7 
REMARK    4  A    between atoms: C5_7  and  C6_8 
REMARK    5  A    between atoms: C12_14  and  C13_15 
ROOT
HETATM    1  C1  UNL     1      -0.518   4.060  12.144  1.00  0.00     0.069 C 
HETATM    2  C2  UNL     1      -1.624   4.993  12.561  1.00  0.00     0.018 C 
HETATM    3  C3  UNL     1      -1.513   6.338  12.623  1.00  0.00     0.052 C 
HETATM    4  C12 UNL     1      -2.670   7.239  13.031  1.00  0.00     0.104 C 
HETATM    5  C22 UNL     1      -3.975   6.450  13.169  1.00  0.00     0.024 C 
HETATM    6  C23 UNL     1      -4.004   5.103  13.096  1.00  0.00     0.020 C 
HETATM    7  C24 UNL     1      -5.281   4.305  13.194  1.00  0.00     0.058 C 
HETATM    8  C25 UNL     1      -6.490   5.126  12.768  1.00  0.00     0.014 C 
HETATM    9  C26 UNL     1      -6.536   6.446  13.525  1.00  0.00     0.084 C 
HETATM   10  C27 UNL     1      -5.243   7.215  13.363  1.00  0.00     0.158 C 
HETATM   11  O5  UNL     1      -5.225   8.443  13.444  1.00  0.00    -0.293 OA
HETATM   12  N1  UNL     1      -2.836   4.396  12.879  1.00  0.00    -0.362 N 
HETATM   13  H22 UNL     1      -2.916   3.400  12.705  1.00  0.00     0.165 HD
ENDROOT
BRANCH   4  14
HETATM   14  C13 UNL     1      -2.336   8.010  14.296  1.00  0.00     0.029 A 
HETATM   15  C14 UNL     1      -2.340   7.518  15.546  1.00  0.00     0.154 A 
HETATM   16  O3  UNL     1      -2.052   8.201  16.702  1.00  0.00    -0.321 OA
HETATM   17  C15 UNL     1      -1.784   9.544  16.594  1.00  0.00     0.089 A 
HETATM   18  C16 UNL     1      -1.554  10.246  17.778  1.00  0.00     0.040 A 
HETATM   19  C20 UNL     1      -1.727  10.206  15.369  1.00  0.00     0.050 A 
HETATM   20  C17 UNL     1      -1.263  11.613  17.729  1.00  0.00     0.026 A 
HETATM   21  C18 UNL     1      -1.200  12.267  16.496  1.00  0.00     0.035 A 
HETATM   22 CL1  UNL     1      -0.824  13.946  16.440  1.00  0.00    -0.084 Cl
HETATM   23  C19 UNL     1      -1.434  11.571  15.312  1.00  0.00     0.042 A 
HETATM   24  C21 UNL     1      -1.961   9.436  14.135  1.00  0.00     0.194 A 
HETATM   25  O4  UNL     1      -1.825   9.953  13.033  1.00  0.00    -0.287 OA
ENDBRANCH   4  14
BRANCH   3  26
HETATM   26  C4  UNL     1      -0.262   6.998  12.218  1.00  0.00     0.292 C 
HETATM   27  O1  UNL     1       0.716   7.108  12.946  1.00  0.00    -0.259 OA
BRANCH  26  28
HETATM   28  O2  UNL     1      -0.429   7.509  10.974  1.00  0.00    -0.313 OA
BRANCH  28  29
HETATM   29  C5  UNL     1       0.638   8.337  10.501  1.00  0.00     0.217 C 
BRANCH  29  30
HETATM   30  C6  UNL     1       1.317   7.648   9.343  1.00  0.00    -0.034 A 
HETATM   31  C7  UNL     1       1.052   8.059   8.027  1.00  0.00     0.009 A 
HETATM   32  C8  UNL     1       1.640   7.401   6.944  1.00  0.00     0.001 A 
HETATM   33  C9  UNL     1       2.499   6.326   7.163  1.00  0.00     0.000 A 
HETATM   34  C10 UNL     1       2.782   5.914   8.468  1.00  0.00     0.001 A 
HETATM   35  C11 UNL     1       2.195   6.573   9.552  1.00  0.00     0.009 A 
ENDBRANCH  29  30
ENDBRANCH  28  29
ENDBRANCH  26  28
ENDBRANCH   3  26
TORSDOF 5
ENDMDL
