MODEL 1
REMARK minimizedAffinity -6.69231892
REMARK CNNscore 0.448638886
REMARK CNNaffinity 6.25475502
REMARK  18 active torsions:
REMARK  status: ('A' for Active; 'I' for Inactive)
REMARK    1  A    between atoms: C2_2  and  C3_3 
REMARK    2  A    between atoms: C2_2  and  C29_35 
REMARK    3  A    between atoms: C4_4  and  C5_5 
REMARK    4  A    between atoms: C6_6  and  C7_7 
REMARK    5  A    between atoms: C6_6  and  C8_9 
REMARK    6  A    between atoms: C7_7  and  O1_8 
REMARK    7  A    between atoms: C12_13  and  O2_14 
REMARK    8  A    between atoms: C13_15  and  C14_16 
REMARK    9  A    between atoms: C14_16  and  C15_17 
REMARK   10  A    between atoms: C15_17  and  C16_18 
REMARK   11  A    between atoms: C16_18  and  O3_19 
REMARK   12  A    between atoms: C18_21  and  C19_22 
REMARK   13  A    between atoms: C25_29  and  O5_30 
REMARK   14  A    between atoms: C25_29  and  C26_31 
REMARK   15  A    between atoms: C26_31  and  C27_32 
REMARK   16  A    between atoms: C27_32  and  N1_33 
REMARK   17  A    between atoms: C29_35  and  C30_36 
REMARK   18  A    between atoms: C30_36  and  C31_37 
ROOT
HETATM    1  C8  UNL     1      -8.562  46.949 -24.547  1.00  0.00     0.046 C 
HETATM    2  C9  UNL     1      -7.854  45.952 -25.466  1.00  0.00     0.013 C 
HETATM    3  C10 UNL     1      -8.893  45.634 -26.556  1.00  0.00     0.017 C 
HETATM    4  C11 UNL     1      -9.974  46.786 -26.535  1.00  0.00     0.025 C 
HETATM    5  C12 UNL     1      -9.315  47.833 -25.570  1.00  0.00     0.138 C 
HETATM    6  C13 UNL     1     -11.281  46.132 -25.839  1.00  0.00     0.029 C 
HETATM    7  C17 UNL     1     -12.113  45.209 -26.747  1.00  0.00    -0.061 C 
HETATM    8  C18 UNL     1     -12.671  44.035 -26.353  1.00  0.00    -0.017 C 
HETATM    9  C20 UNL     1     -13.550  43.187 -27.245  1.00  0.00     0.042 C 
HETATM   10  C21 UNL     1     -14.067  43.931 -28.469  1.00  0.00     0.005 C 
HETATM   11  C22 UNL     1     -12.928  44.678 -29.132  1.00  0.00     0.009 C 
HETATM   12  C23 UNL     1     -12.311  45.717 -28.172  1.00  0.00     0.018 C 
HETATM   13  C24 UNL     1     -11.004  46.218 -28.801  1.00  0.00     0.047 C 
HETATM   14  C25 UNL     1     -10.306  47.323 -27.986  1.00  0.00     0.071 C 
ENDROOT
BRANCH   5  15
HETATM   15  O2  UNL     1      -8.412  48.664 -26.290  1.00  0.00    -0.394 OA
HETATM   16  H15 UNL     1      -7.863  49.159 -25.645  1.00  0.00     0.210 HD
ENDBRANCH   5  15
BRANCH   6  17
HETATM   17  C14 UNL     1     -12.195  46.996 -24.916  1.00  0.00     0.012 C 
BRANCH  17  18
HETATM   18  C15 UNL     1     -12.348  46.622 -23.447  1.00  0.00     0.027 C 
BRANCH  18  19
HETATM   19  C16 UNL     1     -13.786  46.824 -22.969  1.00  0.00     0.164 C 
BRANCH  19  20
HETATM   20  O3  UNL     1     -14.359  45.577 -22.597  1.00  0.00    -0.401 OA
HETATM   21  H23 UNL     1     -14.173  44.938 -23.307  1.00  0.00     0.209 HD
ENDBRANCH  19  20
ENDBRANCH  18  19
ENDBRANCH  17  18
ENDBRANCH   6  17
BRANCH  14  22
HETATM   22  O5  UNL     1     -11.286  48.375 -27.835  1.00  0.00    -0.389 OA
HETATM   23  H34 UNL     1     -10.808  49.157 -27.501  1.00  0.00     0.210 HD
ENDBRANCH  14  22
BRANCH  14  24
HETATM   24  C26 UNL     1      -9.217  48.007 -28.885  1.00  0.00     0.068 C 
BRANCH  24  25
HETATM   25  C27 UNL     1      -9.566  48.766 -30.166  1.00  0.00     0.272 C 
BRANCH  25  26
HETATM   26  N1  UNL     1      -8.474  49.527 -30.779  1.00  0.00     0.079 N 
HETATM   27  C28 UNL     1      -7.283  48.716 -31.002  1.00  0.00     0.306 C 
HETATM   28  H39 UNL     1      -8.795  49.878 -31.682  1.00  0.00     0.315 HD
ENDBRANCH  25  26
ENDBRANCH  24  25
ENDBRANCH  14  24
BRANCH   1  29
HETATM   29  C6  UNL     1      -7.724  47.635 -23.470  1.00  0.00    -0.050 C 
HETATM   30  C5  UNL     1      -6.537  48.241 -23.705  1.00  0.00     0.005 C 
BRANCH  30  31
HETATM   31  C4  UNL     1      -5.810  48.302 -24.957  1.00  0.00     0.001 C 
HETATM   32  C3  UNL     1      -4.479  48.469 -25.030  1.00  0.00     0.006 C 
BRANCH  32  33
HETATM   33  C2  UNL     1      -3.683  48.526 -26.254  1.00  0.00    -0.067 C 
HETATM   34  C1  UNL     1      -4.289  48.349 -27.442  1.00  0.00     0.019 C 
BRANCH  33  35
HETATM   35  C29 UNL     1      -2.194  48.824 -26.199  1.00  0.00     0.041 C 
BRANCH  35  36
HETATM   36  C30 UNL     1      -1.811  50.255 -26.619  1.00  0.00     0.032 C 
BRANCH  36  37
HETATM   37  C31 UNL     1      -0.430  50.649 -26.165  1.00  0.00    -0.024 C 
HETATM   38  C32 UNL     1       0.527  51.287 -26.866  1.00  0.00    -0.091 C 
HETATM   39  C33 UNL     1       0.405  51.761 -28.289  1.00  0.00     0.042 C 
HETATM   40  C34 UNL     1       1.860  51.597 -26.232  1.00  0.00     0.042 C 
ENDBRANCH  36  37
ENDBRANCH  35  36
ENDBRANCH  33  35
ENDBRANCH  32  33
ENDBRANCH  30  31
BRANCH  29  41
HETATM   41  C7  UNL     1      -8.256  47.654 -22.060  1.00  0.00     0.198 C 
BRANCH  41  42
HETATM   42  O1  UNL     1      -9.261  46.651 -21.970  1.00  0.00    -0.397 OA
HETATM   43  H8  UNL     1      -8.789  45.804 -21.874  1.00  0.00     0.209 HD
ENDBRANCH  41  42
ENDBRANCH  29  41
ENDBRANCH   1  29
BRANCH   8  44
HETATM   44  C19 UNL     1     -12.521  43.460 -24.977  1.00  0.00     0.265 C 
HETATM   45  O4  UNL     1     -11.512  42.869 -24.607  1.00  0.00    -0.302 OA
ENDBRANCH   8  44
TORSDOF 18
ENDMDL
