MODEL 1
REMARK minimizedAffinity -5.75486994
REMARK CNNscore 0.526285887
REMARK CNNaffinity 6.49428988
REMARK  5 active torsions:
REMARK  status: ('A' for Active; 'I' for Inactive)
REMARK    1  A    between atoms: C2_2  and  C4_4 
REMARK    2  A    between atoms: C7_7  and  C8_8 
REMARK    3  A    between atoms: C8_8  and  O2_10 
REMARK    4  A    between atoms: C22_25  and  C24_27 
REMARK    5  A    between atoms: C24_27  and  O4_28 
ROOT
HETATM    1  C4  UNL     1      12.721  -7.129   7.153  1.00  0.00     0.019 C 
HETATM    2  C5  UNL     1      13.784  -8.118   7.636  1.00  0.00     0.011 C 
HETATM    3  C6  UNL     1      14.031  -9.042   6.449  1.00  0.00     0.021 C 
HETATM    4  C7  UNL     1      13.583  -8.292   5.171  1.00  0.00     0.050 C 
HETATM    5  C9  UNL     1      14.743  -8.126   4.169  1.00  0.00     0.022 C 
HETATM    6  C10 UNL     1      15.829  -7.164   4.650  1.00  0.00     0.011 C 
HETATM    7  C11 UNL     1      15.332  -5.722   4.979  1.00  0.00    -0.032 C 
HETATM    8  C12 UNL     1      15.924  -5.378   6.375  1.00  0.00     0.016 C 
HETATM    9  C13 UNL     1      13.763  -5.695   5.019  1.00  0.00     0.000 C 
HETATM   10  C14 UNL     1      13.223  -4.308   5.392  1.00  0.00     0.006 C 
HETATM   11  C15 UNL     1      13.715  -3.221   4.428  1.00  0.00     0.006 C 
HETATM   12  C16 UNL     1      15.255  -3.195   4.269  1.00  0.00     0.003 C 
HETATM   13  C17 UNL     1      15.801  -1.941   3.451  1.00  0.00    -0.035 C 
HETATM   14  C18 UNL     1      15.186  -1.846   2.036  1.00  0.00     0.016 C 
HETATM   15  C19 UNL     1      15.366  -0.639   4.210  1.00  0.00     0.017 C 
HETATM   16  C20 UNL     1      16.328   0.539   4.118  1.00  0.00     0.080 C 
HETATM   17  C21 UNL     1      17.231   0.491   2.913  1.00  0.00     0.137 C 
HETATM   18  O3  UNL     1      17.387   1.493   2.214  1.00  0.00    -0.297 OA
HETATM   19  C22 UNL     1      18.065  -0.777   2.703  1.00  0.00     0.042 C 
HETATM   20  C23 UNL     1      18.290  -1.005   1.193  1.00  0.00     0.026 C 
HETATM   21  C25 UNL     1      17.371  -1.987   3.433  1.00  0.00     0.012 C 
HETATM   22  C26 UNL     1      17.916  -3.354   2.975  1.00  0.00     0.007 C 
HETATM   23  C27 UNL     1      17.388  -4.504   3.835  1.00  0.00     0.011 C 
HETATM   24  C28 UNL     1      15.834  -4.617   3.874  1.00  0.00    -0.032 C 
HETATM   25  C29 UNL     1      15.363  -5.054   2.454  1.00  0.00     0.016 C 
HETATM   26  C30 UNL     1      13.003  -6.911   5.642  1.00  0.00     0.017 C 
ENDROOT
BRANCH   4  27
HETATM   27  C8  UNL     1      12.481  -9.133   4.512  1.00  0.00     0.149 C 
HETATM   28  O1  UNL     1      11.716  -8.787   3.624  1.00  0.00    -0.649 OA
BRANCH  27  29
HETATM   29  O2  UNL     1      12.364 -10.369   5.036  1.00  0.00    -0.776 OA
HETATM   30  H11 UNL     1      11.617 -10.761   4.540  1.00  0.00     0.167 HD
ENDBRANCH  27  29
ENDBRANCH   4  27
BRANCH   1  31
HETATM   31  C2  UNL     1      12.406  -5.941   8.036  1.00  0.00    -0.088 C 
HETATM   32  C1  UNL     1      12.771  -4.676   7.787  1.00  0.00     0.014 C 
HETATM   33  C3  UNL     1      11.702  -6.280   9.327  1.00  0.00     0.043 C 
ENDBRANCH   1  31
BRANCH  19  34
HETATM   34  C24 UNL     1      19.433  -0.479   3.376  1.00  0.00     0.181 C 
BRANCH  34  35
HETATM   35  O4  UNL     1      19.972   0.779   2.985  1.00  0.00    -0.400 OA
HETATM   36  H37 UNL     1      19.296   1.466   3.166  1.00  0.00     0.209 HD
ENDBRANCH  34  35
ENDBRANCH  19  34
TORSDOF 5
ENDMDL
