MODEL 1
REMARK minimizedAffinity -9.43779278
REMARK  5 active torsions:
REMARK  status: ('A' for Active; 'I' for Inactive)
REMARK    1  A    between atoms: O1_2  and  C2_3 
REMARK    2  A    between atoms: C6_11  and  N3_12 
REMARK    3  A    between atoms: C9_15  and  O2_16 
REMARK    4  A    between atoms: O2_16  and  C10_17 
REMARK    5  A    between atoms: C23_30  and  O3_31 
ROOT
HETATM    1  C2  UNL     1      -0.254  51.313 -20.654  1.00  0.00     0.103 A 
HETATM    2  C3  UNL     1       0.520  52.472 -20.786  1.00  0.00     0.070 A 
HETATM    3  C4  UNL     1       0.673  53.120 -22.006  1.00  0.00     0.049 A 
HETATM    4  N1  UNL     1       1.429  54.222 -22.055  1.00  0.00    -0.351 N 
ATOM      5  H1  UNL     1       1.892  54.591 -21.225  1.00  0.00     0.166 HD
HETATM    6  C5  UNL     1       1.546  54.816 -23.248  1.00  0.00     0.182 A 
HETATM    7  N2  UNL     1       0.977  54.420 -24.390  1.00  0.00    -0.342 N 
ATOM      8  H2  UNL     1       1.105  54.937 -25.260  1.00  0.00     0.167 HD
HETATM    9  C6  UNL     1       0.226  53.306 -24.332  1.00  0.00     0.096 A 
HETATM   10  C21 UNL     1       0.029  52.597 -23.132  1.00  0.00     0.032 A 
HETATM   11  C22 UNL     1      -0.755  51.423 -23.010  1.00  0.00     0.056 A 
HETATM   12  C23 UNL     1      -0.898  50.779 -21.781  1.00  0.00     0.102 A 
ENDROOT
BRANCH   9  13
HETATM   13  N3  UNL     1      -0.430  52.863 -25.507  1.00  0.00    -0.266 NA
HETATM   14  C7  UNL     1       0.564  52.453 -26.520  1.00  0.00     0.099 C 
HETATM   15  C8  UNL     1       0.352  50.960 -26.723  1.00  0.00     0.048 C 
HETATM   16  C9  UNL     1      -1.142  50.794 -26.477  1.00  0.00     0.143 C 
HETATM   17  C20 UNL     1      -1.340  51.720 -25.268  1.00  0.00     0.129 C 
BRANCH  16  18
HETATM   18  O2  UNL     1      -1.409  49.424 -26.201  1.00  0.00    -0.345 OA
BRANCH  18  19
HETATM   19  C10 UNL     1      -2.705  48.993 -26.237  1.00  0.00     0.070 A 
HETATM   20  C11 UNL     1      -3.299  48.855 -24.982  1.00  0.00     0.037 A 
HETATM   21  C12 UNL     1      -4.623  48.426 -24.862  1.00  0.00     0.015 A 
HETATM   22  C13 UNL     1      -5.377  48.120 -26.003  1.00  0.00    -0.026 A 
HETATM   23  C14 UNL     1      -6.710  47.687 -25.904  1.00  0.00     0.012 A 
HETATM   24  C18 UNL     1      -4.781  48.249 -27.277  1.00  0.00    -0.023 A 
HETATM   25  C15 UNL     1      -7.447  47.386 -27.050  1.00  0.00     0.001 A 
HETATM   26  C16 UNL     1      -6.863  47.512 -28.305  1.00  0.00     0.001 A 
HETATM   27  C17 UNL     1      -5.539  47.940 -28.419  1.00  0.00     0.012 A 
HETATM   28  C19 UNL     1      -3.445  48.683 -27.378  1.00  0.00     0.049 A 
ENDBRANCH  18  19
ENDBRANCH  16  18
ENDBRANCH   9  13
BRANCH  12  29
HETATM   29  O3  UNL     1      -1.638  49.642 -21.579  1.00  0.00    -0.353 OA
HETATM   30  C24 UNL     1      -3.041  49.790 -21.414  1.00  0.00     0.210 C 
ENDBRANCH  12  29
BRANCH   1  31
HETATM   31  O1  UNL     1      -0.438  50.634 -19.475  1.00  0.00    -0.353 OA
HETATM   32  C1  UNL     1      -0.106  51.305 -18.267  1.00  0.00     0.210 C 
ENDBRANCH   1  31
TORSDOF 5
ENDMDL
