MODEL 1
REMARK minimizedAffinity -9.72555447
REMARK CNNscore 0.816770017
REMARK CNNaffinity 7.39115524
REMARK  10 active torsions:
REMARK  status: ('A' for Active; 'I' for Inactive)
REMARK    1  A    between atoms: C2_2  and  C3_3 
REMARK    2  A    between atoms: C3_3  and  C4_4 
REMARK    3  A    between atoms: C4_4  and  O1_5 
REMARK    4  A    between atoms: C4_4  and  C5_6 
REMARK    5  A    between atoms: C4_4  and  C26_30 
REMARK    6  A    between atoms: C17_18  and  O2_19 
REMARK    7  A    between atoms: C22_24  and  O3_25 
REMARK    8  A    between atoms: C27_32  and  C28_33 
REMARK    9  A    between atoms: C28_33  and  O6_35 
REMARK   10  A    between atoms: C28_33  and  C30_36 
ROOT
HETATM    1  C5  UNL     1      -1.755   6.490  13.657  1.00  0.00     0.034 C 
HETATM    2  C6  UNL     1      -1.853   5.115  12.860  1.00  0.00     0.016 C 
HETATM    3  C7  UNL     1      -3.260   4.569  13.133  1.00  0.00     0.026 C 
HETATM    4  C8  UNL     1      -3.978   3.732  12.091  1.00  0.00     0.013 C 
HETATM    5  C9  UNL     1      -5.398   3.401  12.618  1.00  0.00     0.043 C 
HETATM    6  C10 UNL     1      -6.087   4.517  13.395  1.00  0.00    -0.006 C 
HETATM    7  C11 UNL     1      -5.469   5.649  13.786  1.00  0.00    -0.030 C 
HETATM    8  C12 UNL     1      -6.151   6.855  14.405  1.00  0.00     0.027 C 
HETATM    9  C13 UNL     1      -5.206   7.787  15.232  1.00  0.00     0.011 C 
HETATM   10  C14 UNL     1      -3.759   7.927  14.701  1.00  0.00     0.014 C 
HETATM   11  C15 UNL     1      -3.127   6.539  14.457  1.00  0.00    -0.002 C 
HETATM   12  C16 UNL     1      -3.049   5.774  15.807  1.00  0.00     0.019 C 
HETATM   13  C17 UNL     1      -4.040   5.844  13.419  1.00  0.00     0.094 C 
HETATM   14  C18 UNL     1      -7.469   6.463  15.165  1.00  0.00    -0.026 C 
HETATM   15  C19 UNL     1      -7.167   5.747  16.508  1.00  0.00     0.016 C 
HETATM   16  C20 UNL     1      -8.278   7.766  15.465  1.00  0.00     0.013 C 
HETATM   17  C21 UNL     1      -9.786   7.553  15.393  1.00  0.00     0.032 C 
HETATM   18  C22 UNL     1     -10.215   7.128  13.985  1.00  0.00     0.119 C 
HETATM   19  C23 UNL     1      -9.196   6.222  13.284  1.00  0.00     0.045 C 
HETATM   20  C24 UNL     1      -8.330   5.480  14.309  1.00  0.00     0.071 C 
HETATM   21  C25 UNL     1      -7.548   4.366  13.629  1.00  0.00     0.161 C 
HETATM   22  O4  UNL     1      -8.124   3.348  13.243  1.00  0.00    -0.292 OA
ENDROOT
BRANCH   1  23
HETATM   23  C4  UNL     1      -0.390   6.717  14.403  1.00  0.00     0.091 C 
BRANCH  23  24
HETATM   24  C3  UNL     1      -0.222   8.211  14.799  1.00  0.00     0.040 C 
BRANCH  24  25
HETATM   25  C2  UNL     1      -1.055   9.257  14.037  1.00  0.00    -0.002 C 
HETATM   26  C1  UNL     1      -0.818   9.290  12.536  1.00  0.00     0.005 C 
ENDBRANCH  24  25
ENDBRANCH  23  24
BRANCH  23  27
HETATM   27  O1  UNL     1      -0.388   5.944  15.604  1.00  0.00    -0.387 OA
HETATM   28  H8  UNL     1      -0.265   5.012  15.355  1.00  0.00     0.210 HD
ENDBRANCH  23  27
BRANCH  23  29
HETATM   29  C26 UNL     1       0.835   6.292  13.598  1.00  0.00     0.188 A 
HETATM   30  O5  UNL     1       0.715   5.138  12.761  1.00  0.00    -0.369 OA
HETATM   31  C27 UNL     1       0.889   6.392  12.082  1.00  0.00     0.188 A 
BRANCH  31  32
HETATM   32  C28 UNL     1       2.194   6.566  11.317  1.00  0.00     0.086 C 
HETATM   33  C29 UNL     1       2.572   5.302  10.519  1.00  0.00     0.049 C 
BRANCH  32  34
HETATM   34  O6  UNL     1       3.234   6.791  12.278  1.00  0.00    -0.387 OA
HETATM   35  H43 UNL     1       3.427   5.944  12.713  1.00  0.00     0.210 HD
ENDBRANCH  32  34
BRANCH  32  36
HETATM   36  C30 UNL     1       2.114   7.825  10.386  1.00  0.00     0.014 C 
HETATM   37  C31 UNL     1       0.849   7.856   9.515  1.00  0.00     0.012 C 
HETATM   38  C32 UNL     1       3.324   7.954   9.439  1.00  0.00     0.012 C 
ENDBRANCH  32  36
ENDBRANCH  31  32
ENDBRANCH  23  29
ENDBRANCH   1  23
BRANCH  13  39
HETATM   39  O2  UNL     1      -4.084   6.655  12.224  1.00  0.00    -0.384 OA
HETATM   40  H25 UNL     1      -4.745   6.276  11.621  1.00  0.00     0.211 HD
ENDBRANCH  13  39
BRANCH  18  41
HETATM   41  O3  UNL     1     -11.477   6.469  14.072  1.00  0.00    -0.396 OA
HETATM   42  H34 UNL     1     -11.342   5.601  14.491  1.00  0.00     0.210 HD
ENDBRANCH  18  41
TORSDOF 10
ENDMDL
