MODEL 1
REMARK minimizedAffinity -8.57792091
REMARK CNNscore 0.403173149
REMARK CNNaffinity 6.28515005
REMARK  5 active torsions:
REMARK  status: ('A' for Active; 'I' for Inactive)
REMARK    1  A    between atoms: C2_2  and  C3_3 
REMARK    2  A    between atoms: C6_6  and  C7_7 
REMARK    3  A    between atoms: C7_7  and  O1_8 
REMARK    4  A    between atoms: C7_7  and  C8_9 
REMARK    5  A    between atoms: C26_32  and  O6_33 
ROOT
HETATM    1  C3  UNL     1      -4.137  48.896 -21.195  1.00  0.00     0.008 C 
HETATM    2  C4  UNL     1      -4.711  49.065 -22.588  1.00  0.00    -0.023 C 
HETATM    3  C5  UNL     1      -4.379  48.379 -23.695  1.00  0.00     0.005 C 
HETATM    4  C6  UNL     1      -5.087  48.562 -25.017  1.00  0.00     0.187 C 
HETATM    5  O2  UNL     1      -6.145  47.569 -25.050  1.00  0.00    -0.308 OA
HETATM    6  C12 UNL     1      -7.392  48.027 -24.707  1.00  0.00     0.276 C 
HETATM    7  O3  UNL     1      -7.649  49.187 -24.407  1.00  0.00    -0.264 OA
HETATM    8  C13 UNL     1      -8.468  46.921 -24.896  1.00  0.00     0.095 C 
HETATM    9  C14 UNL     1      -9.775  47.323 -24.172  1.00  0.00     0.036 C 
HETATM   10  C15 UNL     1      -8.777  47.052 -26.375  1.00  0.00     0.003 C 
HETATM   11  C16 UNL     1      -8.873  46.167 -27.366  1.00  0.00     0.072 C 
HETATM   12  C17 UNL     1      -8.731  44.713 -27.344  1.00  0.00     0.245 C 
HETATM   13  O4  UNL     1      -8.950  44.090 -28.381  1.00  0.00    -0.268 OA
HETATM   14  N1  UNL     1      -8.355  44.049 -26.236  1.00  0.00    -0.320 N 
HETATM   15  C18 UNL     1      -7.992  44.368 -24.952  1.00  0.00     0.098 C 
HETATM   16  C19 UNL     1      -7.990  45.569 -24.352  1.00  0.00     0.045 C 
HETATM   17  C20 UNL     1      -7.494  45.647 -22.922  1.00  0.00     0.194 C 
HETATM   18  O5  UNL     1      -7.485  46.719 -22.331  1.00  0.00    -0.287 OA
HETATM   19  C21 UNL     1      -7.056  44.442 -22.192  1.00  0.00     0.046 A 
HETATM   20  C22 UNL     1      -7.193  43.207 -22.806  1.00  0.00     0.032 A 
HETATM   21  C23 UNL     1      -6.928  42.016 -22.109  1.00  0.00     0.026 A 
HETATM   22  C24 UNL     1      -6.541  42.044 -20.766  1.00  0.00    -0.027 A 
HETATM   23  C25 UNL     1      -6.300  40.766 -20.015  1.00  0.00     0.051 C 
HETATM   24  C26 UNL     1      -6.378  43.286 -20.151  1.00  0.00     0.086 A 
HETATM   25  C27 UNL     1      -6.581  44.482 -20.866  1.00  0.00     0.059 A 
HETATM   26  C28 UNL     1      -6.178  45.723 -20.164  1.00  0.00     0.163 C 
HETATM   27  O7  UNL     1      -6.644  45.924 -19.044  1.00  0.00    -0.292 OA
HETATM   28  C29 UNL     1      -5.021  46.513 -20.748  1.00  0.00     0.084 C 
HETATM   29  C30 UNL     1      -5.077  47.993 -20.363  1.00  0.00     0.016 C 
HETATM   30  C31 UNL     1      -7.601  43.123 -24.208  1.00  0.00     0.210 C 
HETATM   31  O8  UNL     1      -7.628  42.035 -24.782  1.00  0.00    -0.285 OA
HETATM   32  H24 UNL     1      -8.299  43.046 -26.436  1.00  0.00     0.169 HD
ENDROOT
BRANCH   4  33
HETATM   33  C7  UNL     1      -4.169  48.304 -26.249  1.00  0.00     0.174 C 
BRANCH  33  34
HETATM   34  O1  UNL     1      -4.844  48.755 -27.426  1.00  0.00    -0.389 OA
HETATM   35  H11 UNL     1      -5.667  48.239 -27.483  1.00  0.00     0.210 HD
ENDBRANCH  33  34
BRANCH  33  36
HETATM   36  C8  UNL     1      -2.806  48.948 -26.116  1.00  0.00     0.009 C 
HETATM   37  C9  UNL     1      -2.281  50.041 -26.710  1.00  0.00    -0.089 C 
HETATM   38  C10 UNL     1      -0.887  50.502 -26.373  1.00  0.00     0.042 C 
HETATM   39  C11 UNL     1      -2.990  50.885 -27.733  1.00  0.00     0.042 C 
ENDBRANCH  33  36
ENDBRANCH   4  33
BRANCH   1  40
HETATM   40  C2  UNL     1      -2.657  48.456 -21.176  1.00  0.00     0.004 C 
HETATM   41  C1  UNL     1      -2.353  47.338 -22.166  1.00  0.00     0.006 C 
ENDBRANCH   1  40
BRANCH  24  42
HETATM   42  O6  UNL     1      -6.008  43.288 -18.829  1.00  0.00    -0.359 OA
HETATM   43  H29 UNL     1      -6.217  44.167 -18.442  1.00  0.00     0.217 HD
ENDBRANCH  24  42
TORSDOF 5
ENDMDL
