MODEL 1
REMARK minimizedAffinity -8.91478634
REMARK  13 active torsions:
REMARK  status: ('A' for Active; 'I' for Inactive)
REMARK    1  A    between atoms: C2_2  and  C3_3 
REMARK    2  A    between atoms: C2_2  and  C14_14 
REMARK    3  A    between atoms: C4_4  and  C5_5 
REMARK    4  A    between atoms: C6_6  and  C8_8 
REMARK    5  A    between atoms: C8_8  and  C9_9 
REMARK    6  A    between atoms: C9_9  and  C10_10 
REMARK    7  A    between atoms: C18_18  and  C19_19 
REMARK    8  A    between atoms: C19_19  and  C20_20 
REMARK    9  A    between atoms: C20_20  and  C21_21 
REMARK   10  A    between atoms: C21_21  and  O1_22 
REMARK   11  A    between atoms: C23_24  and  C25_26 
REMARK   12  A    between atoms: C28_30  and  O3_32 
REMARK   13  A    between atoms: C30_33  and  O4_34 
ROOT
HETATM    1  C14 UNL     1      -0.739   5.842  11.876  1.00  0.00     0.047 C 
HETATM    2  C15 UNL     1      -1.496   7.008  12.531  1.00  0.00     0.013 C 
HETATM    3  C16 UNL     1      -0.527   8.174  12.450  1.00  0.00     0.017 C 
HETATM    4  C17 UNL     1       0.905   7.573  12.662  1.00  0.00     0.024 C 
HETATM    5  C18 UNL     1       1.857   8.210  11.542  1.00  0.00     0.029 C 
HETATM    6  C22 UNL     1       3.315   8.337  12.018  1.00  0.00    -0.066 C 
HETATM    7  C23 UNL     1       4.425   7.638  11.687  1.00  0.00    -0.021 C 
HETATM    8  C24 UNL     1       5.837   8.009  12.060  1.00  0.00     0.052 C 
HETATM    9  C26 UNL     1       3.397   9.408  13.108  1.00  0.00     0.038 C 
HETATM   10  C27 UNL     1       2.179   9.363  14.054  1.00  0.00     0.042 C 
HETATM   11  C28 UNL     1       1.493   7.974  14.102  1.00  0.00     0.065 C 
HETATM   12  C29 UNL     1       0.470   7.977  15.254  1.00  0.00     0.047 C 
HETATM   13  C30 UNL     1       0.674   6.020  12.498  1.00  0.00     0.138 C 
ENDROOT
BRANCH   5  14
HETATM   14  C19 UNL     1       1.549   8.050  10.019  1.00  0.00     0.012 C 
BRANCH  14  15
HETATM   15  C20 UNL     1       2.562   7.488   9.027  1.00  0.00     0.027 C 
BRANCH  15  16
HETATM   16  C21 UNL     1       2.427   8.125   7.644  1.00  0.00     0.164 C 
BRANCH  16  17
HETATM   17  O1  UNL     1       3.281   9.253   7.518  1.00  0.00    -0.401 OA
HETATM   18  H32 UNL     1       4.200   8.932   7.564  1.00  0.00     0.209 HD
ENDBRANCH  16  17
ENDBRANCH  15  16
ENDBRANCH  14  15
ENDBRANCH   5  14
BRANCH  11  19
HETATM   19  O3  UNL     1       2.504   7.009  14.473  1.00  0.00    -0.389 OA
HETATM   20  H44 UNL     1       2.897   7.300  15.317  1.00  0.00     0.210 HD
ENDBRANCH  11  19
BRANCH  13  21
HETATM   21  O4  UNL     1       0.716   5.324  13.745  1.00  0.00    -0.394 OA
HETATM   22  H46 UNL     1       1.579   5.555  14.147  1.00  0.00     0.210 HD
ENDBRANCH  13  21
BRANCH   1  23
HETATM   23  C2  UNL     1      -1.411   4.468  12.016  1.00  0.00    -0.061 C 
HETATM   24  C1  UNL     1      -0.809   3.323  11.646  1.00  0.00     0.019 C 
BRANCH  23  25
HETATM   25  C3  UNL     1      -2.747   4.335  12.601  1.00  0.00     0.007 C 
HETATM   26  C4  UNL     1      -3.875   3.894  12.022  1.00  0.00     0.001 C 
BRANCH  26  27
HETATM   27  C5  UNL     1      -5.139   3.853  12.729  1.00  0.00     0.002 C 
HETATM   28  C6  UNL     1      -6.185   3.033  12.497  1.00  0.00    -0.084 C 
HETATM   29  C7  UNL     1      -6.246   1.945  11.462  1.00  0.00     0.043 C 
BRANCH  28  30
HETATM   30  C8  UNL     1      -7.442   3.179  13.339  1.00  0.00     0.037 C 
BRANCH  30  31
HETATM   31  C9  UNL     1      -8.312   4.351  12.865  1.00  0.00     0.031 C 
BRANCH  31  32
HETATM   32  C10 UNL     1      -7.689   5.677  13.215  1.00  0.00    -0.024 C 
HETATM   33  C11 UNL     1      -7.468   6.191  14.440  1.00  0.00    -0.091 C 
HETATM   34  C12 UNL     1      -6.841   7.553  14.597  1.00  0.00     0.042 C 
HETATM   35  C13 UNL     1      -7.798   5.509  15.741  1.00  0.00     0.042 C 
ENDBRANCH  31  32
ENDBRANCH  30  31
ENDBRANCH  28  30
ENDBRANCH  26  27
ENDBRANCH  23  25
ENDBRANCH   1  23
BRANCH   7  36
HETATM   36  C25 UNL     1       4.361   6.334  10.977  1.00  0.00     0.265 C 
HETATM   37  O2  UNL     1       5.304   5.862  10.352  1.00  0.00    -0.302 OA
ENDBRANCH   7  36
TORSDOF 13
ENDMDL
