MODEL 1
REMARK minimizedAffinity -8.92457581
REMARK  9 active torsions:
REMARK  status: ('A' for Active; 'I' for Inactive)
REMARK    1  A    between atoms: C2_2  and  C3_3 
REMARK    2  A    between atoms: C2_2  and  C9_11 
REMARK    3  A    between atoms: C3_3  and  C4_4 
REMARK    4  A    between atoms: C4_4  and  C5_5 
REMARK    5  A    between atoms: C5_5  and  O1_6 
REMARK    6  A    between atoms: C5_5  and  C6_7 
REMARK    7  A    between atoms: C6_7  and  O2_10 
REMARK    8  A    between atoms: C17_19  and  C18_20 
REMARK    9  A    between atoms: C18_20  and  O3_23 
ROOT
HETATM    1  C9  UNL     1      -3.701  50.704 -25.614  1.00  0.00    -0.002 C 
HETATM    2  C10 UNL     1      -3.804  52.223 -25.261  1.00  0.00     0.006 C 
HETATM    3  C11 UNL     1      -3.681  52.342 -23.724  1.00  0.00     0.011 C 
HETATM    4  C12 UNL     1      -3.884  50.903 -23.214  1.00  0.00    -0.032 C 
HETATM    5  C13 UNL     1      -5.433  50.667 -23.239  1.00  0.00     0.016 C 
HETATM    6  C14 UNL     1      -3.281  50.599 -21.810  1.00  0.00     0.003 C 
HETATM    7  C15 UNL     1      -3.774  51.519 -20.684  1.00  0.00     0.009 C 
HETATM    8  C16 UNL     1      -3.451  51.039 -19.270  1.00  0.00     0.042 C 
HETATM    9  C17 UNL     1      -2.294  50.016 -19.091  1.00  0.00     0.095 C 
HETATM   10  O4  UNL     1      -2.514  49.388 -17.787  1.00  0.00    -0.377 OA
HETATM   11  C21 UNL     1      -3.439  48.314 -17.772  1.00  0.00     0.169 C 
HETATM   12  C22 UNL     1      -2.878  47.120 -18.514  1.00  0.00     0.027 C 
HETATM   13  C23 UNL     1      -2.005  47.508 -19.699  1.00  0.00     0.010 C 
HETATM   14  C24 UNL     1      -2.205  48.941 -20.241  1.00  0.00     0.032 C 
HETATM   15  C25 UNL     1      -3.274  49.079 -21.416  1.00  0.00    -0.033 C 
HETATM   16  C26 UNL     1      -4.663  48.554 -20.993  1.00  0.00     0.016 C 
HETATM   17  C27 UNL     1      -2.812  48.185 -22.631  1.00  0.00     0.011 C 
HETATM   18  C28 UNL     1      -3.306  48.591 -24.038  1.00  0.00     0.011 C 
HETATM   19  C29 UNL     1      -3.086  50.089 -24.317  1.00  0.00    -0.032 C 
HETATM   20  C30 UNL     1      -1.548  50.335 -24.319  1.00  0.00     0.016 C 
ENDROOT
BRANCH   1  21
HETATM   21  C2  UNL     1      -3.151  50.443 -27.051  1.00  0.00    -0.014 C 
HETATM   22  C1  UNL     1      -1.790  51.060 -27.399  1.00  0.00     0.010 C 
BRANCH  21  23
HETATM   23  C3  UNL     1      -3.176  48.940 -27.402  1.00  0.00     0.007 C 
BRANCH  23  24
HETATM   24  C4  UNL     1      -4.550  48.243 -27.410  1.00  0.00     0.035 C 
BRANCH  24  25
HETATM   25  C5  UNL     1      -5.320  48.352 -28.741  1.00  0.00     0.151 C 
BRANCH  25  26
HETATM   26  O1  UNL     1      -4.562  47.703 -29.761  1.00  0.00    -0.393 OA
HETATM   27  H10 UNL     1      -4.920  47.973 -30.624  1.00  0.00     0.210 HD
ENDBRANCH  25  26
BRANCH  25  28
HETATM   28  C6  UNL     1      -6.761  47.756 -28.659  1.00  0.00     0.076 C 
HETATM   29  C7  UNL     1      -6.940  46.607 -29.661  1.00  0.00     0.048 C 
HETATM   30  C8  UNL     1      -7.106  47.250 -27.254  1.00  0.00     0.048 C 
BRANCH  28  31
HETATM   31  O2  UNL     1      -7.724  48.765 -28.995  1.00  0.00    -0.388 OA
HETATM   32  H17 UNL     1      -7.570  49.038 -29.915  1.00  0.00     0.210 HD
ENDBRANCH  28  31
ENDBRANCH  25  28
ENDBRANCH  24  25
ENDBRANCH  23  24
ENDBRANCH  21  23
ENDBRANCH   1  21
BRANCH   9  33
HETATM   33  C18 UNL     1      -0.904  50.772 -18.846  1.00  0.00     0.082 C 
HETATM   34  C19 UNL     1       0.016  50.880 -20.064  1.00  0.00     0.049 C 
HETATM   35  C20 UNL     1      -0.095  50.190 -17.674  1.00  0.00     0.049 C 
BRANCH  33  36
HETATM   36  O3  UNL     1      -1.206  52.131 -18.453  1.00  0.00    -0.388 OA
HETATM   37  H37 UNL     1      -1.945  52.040 -17.817  1.00  0.00     0.210 HD
ENDBRANCH  33  36
ENDBRANCH   9  33
TORSDOF 9
ENDMDL
