MODEL 1
REMARK minimizedAffinity -7.91148186
REMARK CNNscore 0.660379708
REMARK CNNaffinity 6.75019693
REMARK  9 active torsions:
REMARK  status: ('A' for Active; 'I' for Inactive)
REMARK    1  A    between atoms: C2_2  and  C3_3 
REMARK    2  A    between atoms: C2_2  and  C9_12 
REMARK    3  A    between atoms: C3_3  and  C4_4 
REMARK    4  A    between atoms: C4_4  and  C5_5 
REMARK    5  A    between atoms: C5_5  and  O1_6 
REMARK    6  A    between atoms: C5_5  and  C6_7 
REMARK    7  A    between atoms: C6_7  and  O2_9 
REMARK    8  A    between atoms: C6_7  and  C8_10 
REMARK    9  A    between atoms: C8_10  and  O3_11 
ROOT
HETATM    1  C9  UNL     1      -1.906   9.405  15.780  1.00  0.00    -0.002 C 
HETATM    2  C10 UNL     1      -0.845   8.800  16.739  1.00  0.00     0.007 C 
HETATM    3  C11 UNL     1       0.272   8.198  15.859  1.00  0.00     0.015 C 
HETATM    4  C12 UNL     1       0.054   8.812  14.459  1.00  0.00    -0.005 C 
HETATM    5  C13 UNL     1       0.703  10.232  14.489  1.00  0.00     0.021 C 
HETATM    6  C14 UNL     1       0.644   8.171  13.207  1.00  0.00    -0.000 C 
HETATM    7  C15 UNL     1       0.031   8.280  11.996  1.00  0.00    -0.060 C 
HETATM    8  C16 UNL     1      -1.336   8.962  11.870  1.00  0.00     0.036 C 
HETATM    9  C17 UNL     1      -1.945   9.577  13.145  1.00  0.00     0.015 C 
HETATM   10  C18 UNL     1      -1.528   8.788  14.395  1.00  0.00    -0.028 C 
HETATM   11  C19 UNL     1      -2.105   7.347  14.274  1.00  0.00     0.016 C 
HETATM   12  C20 UNL     1       0.637   7.669  10.702  1.00  0.00    -0.014 C 
HETATM   13  C21 UNL     1       0.083   6.231  10.611  1.00  0.00     0.020 C 
HETATM   14  C22 UNL     1       0.217   8.456   9.430  1.00  0.00     0.021 C 
HETATM   15  C23 UNL     1       0.942   7.998   8.171  1.00  0.00     0.080 C 
HETATM   16  C24 UNL     1       2.417   8.212   8.368  1.00  0.00     0.135 C 
HETATM   17  O4  UNL     1       3.048   8.937   7.604  1.00  0.00    -0.297 OA
HETATM   18  C25 UNL     1       3.067   7.488   9.555  1.00  0.00     0.018 C 
HETATM   19  C26 UNL     1       4.484   8.087   9.758  1.00  0.00     0.023 C 
HETATM   20  C27 UNL     1       3.257   6.011   9.190  1.00  0.00     0.023 C 
HETATM   21  C28 UNL     1       2.202   7.763  10.837  1.00  0.00     0.020 C 
HETATM   22  C29 UNL     1       2.661   6.978  12.069  1.00  0.00     0.090 C 
HETATM   23  C30 UNL     1       1.963   7.454  13.322  1.00  0.00     0.157 C 
HETATM   24  O5  UNL     1       2.473   7.231  14.417  1.00  0.00    -0.293 OA
ENDROOT
BRANCH   1  25
HETATM   25  C2  UNL     1      -3.354   9.391  16.367  1.00  0.00    -0.014 C 
HETATM   26  C1  UNL     1      -4.496   9.630  15.376  1.00  0.00     0.010 C 
BRANCH  25  27
HETATM   27  C3  UNL     1      -3.468  10.326  17.594  1.00  0.00     0.007 C 
BRANCH  27  28
HETATM   28  C4  UNL     1      -3.537  11.838  17.282  1.00  0.00     0.035 C 
BRANCH  28  29
HETATM   29  C5  UNL     1      -2.181  12.489  16.969  1.00  0.00     0.154 C 
BRANCH  29  30
HETATM   30  O1  UNL     1      -1.548  12.863  18.204  1.00  0.00    -0.392 OA
HETATM   31  H10 UNL     1      -0.776  13.401  17.926  1.00  0.00     0.210 HD
ENDBRANCH  29  30
BRANCH  29  32
HETATM   32  C6  UNL     1      -2.236  13.748  16.058  1.00  0.00     0.101 C 
HETATM   33  C7  UNL     1      -3.203  14.829  16.574  1.00  0.00     0.051 C 
BRANCH  32  34
HETATM   34  O2  UNL     1      -0.912  14.331  16.116  1.00  0.00    -0.385 OA
HETATM   35  H14 UNL     1      -0.913  15.070  15.468  1.00  0.00     0.210 HD
ENDBRANCH  32  34
BRANCH  32  36
HETATM   36  C8  UNL     1      -2.526  13.384  14.590  1.00  0.00     0.204 C 
BRANCH  36  37
HETATM   37  O3  UNL     1      -1.305  13.070  13.911  1.00  0.00    -0.398 OA
HETATM   38  H17 UNL     1      -1.029  13.866  13.415  1.00  0.00     0.209 HD
ENDBRANCH  36  37
ENDBRANCH  32  36
ENDBRANCH  29  32
ENDBRANCH  28  29
ENDBRANCH  27  28
ENDBRANCH  25  27
ENDBRANCH   1  25
TORSDOF 9
ENDMDL
