MODEL 1
REMARK minimizedAffinity -6.86879063
REMARK CNNscore 0.83362931
REMARK CNNaffinity 6.9349761
REMARK  9 active torsions:
REMARK  status: ('A' for Active; 'I' for Inactive)
REMARK    1  A    between atoms: C2_2  and  C3_3 
REMARK    2  A    between atoms: C2_2  and  C9_12 
REMARK    3  A    between atoms: C3_3  and  C4_4 
REMARK    4  A    between atoms: C4_4  and  C5_5 
REMARK    5  A    between atoms: C5_5  and  O1_6 
REMARK    6  A    between atoms: C5_5  and  C6_7 
REMARK    7  A    between atoms: C6_7  and  O2_9 
REMARK    8  A    between atoms: C6_7  and  C8_10 
REMARK    9  A    between atoms: C8_10  and  O3_11 
ROOT
HETATM    1  C9  UNL     1       4.081  56.192  -8.213  1.00  0.00    -0.002 C 
HETATM    2  C10 UNL     1       5.069  55.242  -8.930  1.00  0.00     0.007 C 
HETATM    3  C11 UNL     1       4.217  54.308  -9.824  1.00  0.00     0.015 C 
HETATM    4  C12 UNL     1       2.802  54.929  -9.843  1.00  0.00    -0.005 C 
HETATM    5  C13 UNL     1       2.809  56.027 -10.952  1.00  0.00     0.021 C 
HETATM    6  C14 UNL     1       1.568  54.091 -10.149  1.00  0.00    -0.000 C 
HETATM    7  C15 UNL     1       0.354  54.412  -9.625  1.00  0.00    -0.060 C 
HETATM    8  C16 UNL     1       0.203  55.594  -8.653  1.00  0.00     0.036 C 
HETATM    9  C17 UNL     1       1.481  56.348  -8.235  1.00  0.00     0.015 C 
HETATM   10  C18 UNL     1       2.719  55.456  -8.360  1.00  0.00    -0.028 C 
HETATM   11  C19 UNL     1       2.601  54.312  -7.306  1.00  0.00     0.016 C 
HETATM   12  C20 UNL     1      -0.927  53.581  -9.910  1.00  0.00    -0.014 C 
HETATM   13  C21 UNL     1      -1.025  52.560  -8.753  1.00  0.00     0.020 C 
HETATM   14  C22 UNL     1      -2.199  54.470  -9.924  1.00  0.00     0.021 C 
HETATM   15  C23 UNL     1      -3.459  53.721 -10.327  1.00  0.00     0.080 C 
HETATM   16  C24 UNL     1      -3.301  53.090 -11.686  1.00  0.00     0.135 C 
HETATM   17  O4  UNL     1      -4.204  53.195 -12.518  1.00  0.00    -0.297 OA
HETATM   18  C25 UNL     1      -2.052  52.230 -11.934  1.00  0.00     0.018 C 
HETATM   19  C26 UNL     1      -1.877  52.094 -13.470  1.00  0.00     0.023 C 
HETATM   20  C27 UNL     1      -2.330  50.821 -11.388  1.00  0.00     0.023 C 
HETATM   21  C28 UNL     1      -0.789  52.943 -11.334  1.00  0.00     0.020 C 
HETATM   22  C29 UNL     1       0.487  52.098 -11.409  1.00  0.00     0.090 C 
HETATM   23  C30 UNL     1       1.708  52.922 -11.077  1.00  0.00     0.157 C 
HETATM   24  O5  UNL     1       2.800  52.610 -11.551  1.00  0.00    -0.293 OA
ENDROOT
BRANCH   1  25
HETATM   25  C2  UNL     1       4.498  56.715  -6.804  1.00  0.00    -0.014 C 
HETATM   26  C1  UNL     1       5.990  57.032  -6.638  1.00  0.00     0.010 C 
BRANCH  25  27
HETATM   27  C3  UNL     1       3.662  57.978  -6.466  1.00  0.00     0.007 C 
BRANCH  27  28
HETATM   28  C4  UNL     1       3.101  58.088  -5.042  1.00  0.00     0.035 C 
BRANCH  28  29
HETATM   29  C5  UNL     1       3.534  59.260  -4.147  1.00  0.00     0.154 C 
BRANCH  29  30
HETATM   30  O1  UNL     1       4.958  59.243  -3.976  1.00  0.00    -0.392 OA
HETATM   31  H10 UNL     1       5.153  59.884  -3.264  1.00  0.00     0.210 HD
ENDBRANCH  29  30
BRANCH  29  32
HETATM   32  C6  UNL     1       2.842  59.510  -2.772  1.00  0.00     0.101 C 
HETATM   33  C7  UNL     1       2.859  60.972  -2.312  1.00  0.00     0.051 C 
BRANCH  32  34
HETATM   34  O2  UNL     1       1.432  59.215  -2.984  1.00  0.00    -0.385 OA
HETATM   35  H14 UNL     1       1.361  58.290  -3.284  1.00  0.00     0.210 HD
ENDBRANCH  32  34
BRANCH  32  36
HETATM   36  C8  UNL     1       3.352  58.574  -1.656  1.00  0.00     0.204 C 
BRANCH  36  37
HETATM   37  O3  UNL     1       4.055  59.265  -0.638  1.00  0.00    -0.398 OA
HETATM   38  H17 UNL     1       4.242  58.627   0.072  1.00  0.00     0.209 HD
ENDBRANCH  36  37
ENDBRANCH  32  36
ENDBRANCH  29  32
ENDBRANCH  28  29
ENDBRANCH  27  28
ENDBRANCH  25  27
ENDBRANCH   1  25
TORSDOF 9
ENDMDL
