MODEL 1
REMARK minimizedAffinity -9.00847244
REMARK  11 active torsions:
REMARK  status: ('A' for Active; 'I' for Inactive)
REMARK    1  A    between atoms: C3_3  and  C4_4 
REMARK    2  A    between atoms: C4_4  and  C5_6 
REMARK    3  A    between atoms: C5_6  and  O2_7 
REMARK    4  A    between atoms: C9_11  and  C10_12 
REMARK    5  A    between atoms: C10_12  and  O4_14 
REMARK    6  A    between atoms: C15_19  and  C16_20 
REMARK    7  A    between atoms: C19_26  and  O6_27 
REMARK    8  A    between atoms: C21_29  and  C22_30 
REMARK    9  A    between atoms: C22_30  and  C23_31 
REMARK   10  A    between atoms: C23_31  and  C24_32 
REMARK   11  A    between atoms: C24_32  and  C25_33 
ROOT
HETATM    1  C5  UNL     1       0.511   7.783  10.882  1.00  0.00     0.132 C 
HETATM    2  C6  UNL     1       1.946   8.320  11.087  1.00  0.00     0.052 C 
HETATM    3  C7  UNL     1       1.953   8.921  12.495  1.00  0.00    -0.005 C 
HETATM    4  C8  UNL     1       3.320   8.962  13.178  1.00  0.00     0.020 C 
HETATM    5  C9  UNL     1       3.220   8.949  14.720  1.00  0.00     0.084 C 
HETATM    6  C11 UNL     1       1.851   9.459  15.212  1.00  0.00     0.020 C 
HETATM    7  C12 UNL     1       0.620   8.727  14.621  1.00  0.00    -0.013 C 
HETATM    8  C13 UNL     1       0.035   7.729  15.620  1.00  0.00     0.010 C 
HETATM    9  C14 UNL     1       0.950   8.061  13.272  1.00  0.00     0.007 C 
HETATM   10  C15 UNL     1      -0.206   7.956  12.256  1.00  0.00     0.090 C 
ENDROOT
BRANCH  10  11
HETATM   11  C16 UNL     1      -1.398   7.038  12.448  1.00  0.00     0.072 A 
HETATM   12  C17 UNL     1      -2.623   7.316  12.922  1.00  0.00     0.076 A 
HETATM   13  C18 UNL     1      -3.302   8.568  13.424  1.00  0.00     0.261 A 
HETATM   14  C20 UNL     1      -3.597   6.272  13.081  1.00  0.00     0.038 A 
HETATM   15  O5  UNL     1      -2.840   9.692  13.435  1.00  0.00    -0.267 OA
HETATM   16  N1  UNL     1      -4.587   8.236  13.844  1.00  0.00    -0.303 N 
HETATM   17  C19 UNL     1      -4.731   6.969  13.651  1.00  0.00     0.154 A 
ATOM     18  H1  UNL     1      -5.282   8.873  14.231  1.00  0.00     0.171 HD
HETATM   19  C21 UNL     1      -3.358   4.997  12.756  1.00  0.00    -0.036 A 
HETATM   20  C27 UNL     1      -1.989   4.640  12.207  1.00  0.00     0.154 A 
HETATM   21  C28 UNL     1      -2.051   3.983  10.830  1.00  0.00     0.045 C 
HETATM   22  O7  UNL     1      -1.058   5.739  12.082  1.00  0.00    -0.344 OA
BRANCH  17  23
HETATM   23  O6  UNL     1      -5.857   6.339  13.953  1.00  0.00    -0.345 OA
HETATM   24  H22 UNL     1      -6.476   6.992  14.322  1.00  0.00     0.219 HD
ENDBRANCH  17  23
BRANCH  19  25
HETATM   25  C22 UNL     1      -4.335   3.869  12.997  1.00  0.00     0.038 C 
BRANCH  25  26
HETATM   26  C23 UNL     1      -5.394   3.745  11.895  1.00  0.00     0.004 C 
BRANCH  26  27
HETATM   27  C24 UNL     1      -6.003   2.340  11.882  1.00  0.00    -0.000 C 
BRANCH  27  28
HETATM   28  C25 UNL     1      -7.334   2.247  12.630  1.00  0.00    -0.005 C 
HETATM   29  C26 UNL     1      -7.859   3.592  13.110  1.00  0.00     0.005 C 
ENDBRANCH  27  28
ENDBRANCH  26  27
ENDBRANCH  25  26
ENDBRANCH  19  25
ENDBRANCH  10  11
BRANCH   1  30
HETATM   30  C4  UNL     1      -0.255   8.499   9.744  1.00  0.00     0.183 C 
HETATM   31  O1  UNL     1      -1.218   9.224  10.011  1.00  0.00    -0.290 OA
BRANCH  30  32
HETATM   32  C3  UNL     1       0.202   8.317   8.333  1.00  0.00     0.049 C 
HETATM   33  C2  UNL     1       1.322   7.637   8.053  1.00  0.00    -0.027 C 
HETATM   34  C1  UNL     1       1.825   7.395   6.667  1.00  0.00     0.036 C 
ENDBRANCH  30  32
ENDBRANCH   1  30
BRANCH   1  35
HETATM   35  O2  UNL     1       0.630   6.394  10.545  1.00  0.00    -0.381 OA
HETATM   36  H6  UNL     1       0.008   6.236   9.804  1.00  0.00     0.211 HD
ENDBRANCH   1  35
BRANCH   5  37
HETATM   37  C10 UNL     1       3.597   7.594  15.300  1.00  0.00     0.143 C 
HETATM   38  O3  UNL     1       4.628   7.310  15.886  1.00  0.00    -0.650 OA
BRANCH  37  39
HETATM   39  O4  UNL     1       2.612   6.678  15.209  1.00  0.00    -0.776 OA
HETATM   40  H13 UNL     1       3.009   5.883  15.624  1.00  0.00     0.167 HD
ENDBRANCH  37  39
ENDBRANCH   5  37
TORSDOF 11
ENDMDL
