MODEL 1
REMARK minimizedAffinity -7.13689423
REMARK CNNscore 0.35566783
REMARK CNNaffinity 6.72889328
REMARK  12 active torsions:
REMARK  status: ('A' for Active; 'I' for Inactive)
REMARK    1  A    between atoms: O1_2  and  C2_3 
REMARK    2  A    between atoms: C3_6  and  C4_7 
REMARK    3  A    between atoms: C4_7  and  C5_8 
REMARK    4  A    between atoms: C6_9  and  C8_11 
REMARK    5  A    between atoms: C8_11  and  C9_12 
REMARK    6  A    between atoms: C10_13  and  C11_14 
REMARK    7  A    between atoms: C13_16  and  C14_17 
REMARK    8  A    between atoms: C14_17  and  C16_19 
REMARK    9  A    between atoms: C16_19  and  O2_20 
REMARK   10  A    between atoms: C16_19  and  C18_22 
REMARK   11  A    between atoms: C24_29  and  O4_30 
REMARK   12  A    between atoms: C25_31  and  O5_32 
ROOT
HETATM    1  C5  UNL     1      -7.677   5.222  13.161  1.00  0.00    -0.018 C 
HETATM    2  C6  UNL     1      -7.818   5.711  14.411  1.00  0.00    -0.084 C 
HETATM    3  C7  UNL     1      -7.591   4.912  15.668  1.00  0.00     0.043 C 
ENDROOT
BRANCH   2   4
HETATM    4  C8  UNL     1      -8.286   7.137  14.634  1.00  0.00     0.060 C 
BRANCH   4   5
HETATM    5  C9  UNL     1      -7.135   8.105  14.698  1.00  0.00    -0.022 C 
HETATM    6  C10 UNL     1      -5.891   7.801  14.291  1.00  0.00     0.003 C 
BRANCH   6   7
HETATM    7  C11 UNL     1      -4.723   8.685  14.304  1.00  0.00    -0.066 C 
HETATM    8  C12 UNL     1      -3.917   8.783  13.036  1.00  0.00     0.048 C 
HETATM    9  C13 UNL     1      -4.452   9.361  15.442  1.00  0.00    -0.013 C 
BRANCH   9  10
HETATM   10  C14 UNL     1      -3.318  10.322  15.788  1.00  0.00     0.037 C 
HETATM   11  C15 UNL     1      -3.794  11.779  15.814  1.00  0.00     0.017 C 
BRANCH  10  12
HETATM   12  C16 UNL     1      -2.530   9.868  17.049  1.00  0.00     0.165 C 
BRANCH  12  13
HETATM   13  O2  UNL     1      -1.159   9.655  16.650  1.00  0.00    -0.387 OA
HETATM   14  C17 UNL     1      -0.971   9.764  15.246  1.00  0.00     0.202 C 
ENDBRANCH  12  13
BRANCH  12  15
HETATM   15  C18 UNL     1      -2.527  10.885  18.180  1.00  0.00     0.110 A 
HETATM   16  C19 UNL     1      -3.803  11.088  18.944  1.00  0.00     0.051 C 
HETATM   17  O3  UNL     1      -1.339  10.877  18.994  1.00  0.00    -0.367 OA
HETATM   18  C20 UNL     1      -1.487  12.001  18.122  1.00  0.00     0.155 A 
HETATM   19  C21 UNL     1      -1.640  13.307  18.815  1.00  0.00     0.042 C 
ENDBRANCH  12  15
ENDBRANCH  10  12
ENDBRANCH   9  10
ENDBRANCH   6   7
ENDBRANCH   4   5
ENDBRANCH   2   4
BRANCH   1  20
HETATM   20  C4  UNL     1      -7.227   3.843  12.739  1.00  0.00     0.085 C 
BRANCH  20  21
HETATM   21  C3  UNL     1      -5.722   3.695  12.557  1.00  0.00     0.023 A 
HETATM   22  N1  UNL     1      -4.944   4.685  13.082  1.00  0.00    -0.337 N 
HETATM   23  C2  UNL     1      -3.603   4.605  12.934  1.00  0.00     0.179 A 
ATOM     24  H1  UNL     1      -5.367   5.471  13.576  1.00  0.00     0.168 HD
HETATM   25  C25 UNL     1      -2.972   3.539  12.309  1.00  0.00     0.153 A 
HETATM   26  C24 UNL     1      -3.786   2.538  11.781  1.00  0.00     0.111 A 
HETATM   27  C22 UNL     1      -5.175   2.570  11.921  1.00  0.00    -0.003 A 
HETATM   28  C23 UNL     1      -6.027   1.475  11.347  1.00  0.00     0.053 C 
BRANCH  23  29
HETATM   29  O1  UNL     1      -2.822   5.641  13.403  1.00  0.00    -0.339 OA
HETATM   30  C1  UNL     1      -2.596   5.590  14.806  1.00  0.00     0.211 C 
ENDBRANCH  23  29
BRANCH  25  31
HETATM   31  O5  UNL     1      -1.622   3.407  12.108  1.00  0.00    -0.349 OA
HETATM   32  C26 UNL     1      -1.132   4.328  11.132  1.00  0.00     0.210 C 
ENDBRANCH  25  31
BRANCH  26  33
HETATM   33  O4  UNL     1      -3.197   1.491  11.113  1.00  0.00    -0.357 OA
HETATM   34  H36 UNL     1      -2.253   1.736  11.023  1.00  0.00     0.217 HD
ENDBRANCH  26  33
ENDBRANCH  20  21
ENDBRANCH   1  20
TORSDOF 12
ENDMDL
