MODEL 1
REMARK minimizedAffinity -11.2609901
REMARK  4 active torsions:
REMARK  status: ('A' for Active; 'I' for Inactive)
REMARK    1  A    between atoms: C3_3  and  C4_4 
REMARK    2  A    between atoms: C4_4  and  O1_5 
REMARK    3  A    between atoms: C6_9  and  C7_10 
REMARK    4  A    between atoms: C7_10  and  C9_12 
ROOT
HETATM    1  C9  UNL     1      -0.426  51.111 -25.152  1.00  0.00     0.000 C 
HETATM    2  C10 UNL     1       0.219  52.492 -25.416  1.00  0.00     0.006 C 
HETATM    3  C11 UNL     1       0.547  53.071 -24.021  1.00  0.00     0.006 C 
HETATM    4  C12 UNL     1       0.182  51.947 -23.045  1.00  0.00    -0.001 C 
HETATM    5  C13 UNL     1      -0.043  52.292 -21.566  1.00  0.00    -0.002 C 
HETATM    6  C14 UNL     1       1.231  52.908 -20.975  1.00  0.00     0.040 C 
HETATM    7  C15 UNL     1       1.104  53.192 -19.526  1.00  0.00     0.159 A 
HETATM    8  O4  UNL     1      -0.145  53.734 -19.118  1.00  0.00    -0.368 OA
HETATM    9  C16 UNL     1       0.162  52.398 -18.639  1.00  0.00     0.102 A 
HETATM   10  C17 UNL     1       0.454  52.413 -17.152  1.00  0.00     0.042 C 
HETATM   11  C18 UNL     1       0.036  51.147 -16.425  1.00  0.00     0.010 C 
HETATM   12  C19 UNL     1       0.332  49.942 -17.286  1.00  0.00     0.079 C 
HETATM   13  C20 UNL     1      -0.617  49.977 -18.458  1.00  0.00     0.138 C 
HETATM   14  O5  UNL     1      -1.239  48.954 -18.757  1.00  0.00    -0.297 OA
HETATM   15  C21 UNL     1      -0.770  51.312 -19.237  1.00  0.00     0.054 C 
HETATM   16  C22 UNL     1      -2.234  51.773 -19.043  1.00  0.00     0.027 C 
HETATM   17  C23 UNL     1      -0.433  51.008 -20.761  1.00  0.00     0.009 C 
HETATM   18  C24 UNL     1      -1.537  50.181 -21.496  1.00  0.00     0.007 C 
HETATM   19  C25 UNL     1      -1.272  49.945 -22.991  1.00  0.00     0.010 C 
HETATM   20  C26 UNL     1      -1.028  51.264 -23.726  1.00  0.00    -0.036 C 
HETATM   21  C27 UNL     1      -2.296  52.150 -23.672  1.00  0.00     0.016 C 
ENDROOT
BRANCH   1  22
HETATM   22  C7  UNL     1      -1.198  50.424 -26.310  1.00  0.00     0.016 C 
HETATM   23  C8  UNL     1      -1.111  51.293 -27.581  1.00  0.00     0.013 C 
BRANCH  22  24
HETATM   24  C6  UNL     1      -2.637  49.903 -26.084  1.00  0.00     0.140 C 
HETATM   25  O3  UNL     1      -2.631  49.144 -24.851  1.00  0.00    -0.311 OA
HETATM   26  C5  UNL     1      -3.778  48.556 -24.431  1.00  0.00     0.292 C 
HETATM   27  C3  UNL     1      -4.862  48.373 -25.441  1.00  0.00     0.042 C 
HETATM   28  O2  UNL     1      -3.908  48.164 -23.276  1.00  0.00    -0.260 OA
HETATM   29  C2  UNL     1      -4.579  48.525 -26.754  1.00  0.00    -0.067 C 
HETATM   30  C1  UNL     1      -5.533  48.218 -27.876  1.00  0.00     0.044 C 
HETATM   31  C28 UNL     1      -3.223  49.026 -27.185  1.00  0.00     0.067 C 
BRANCH  27  32
HETATM   32  C4  UNL     1      -6.168  47.978 -24.800  1.00  0.00     0.209 C 
BRANCH  32  33
HETATM   33  O1  UNL     1      -7.064  49.078 -24.677  1.00  0.00    -0.396 OA
HETATM   34  H6  UNL     1      -7.798  48.778 -24.115  1.00  0.00     0.209 HD
ENDBRANCH  32  33
ENDBRANCH  27  32
ENDBRANCH  22  24
ENDBRANCH   1  22
TORSDOF 4
ENDMDL
