MODEL 1
REMARK minimizedAffinity -6.66681623
REMARK CNNscore 0.500932336
REMARK CNNaffinity 6.32847261
REMARK  11 active torsions:
REMARK  status: ('A' for Active; 'I' for Inactive)
REMARK    1  A    between atoms: C2_2  and  C3_3 
REMARK    2  A    between atoms: C2_2  and  C4_5 
REMARK    3  A    between atoms: C3_3  and  O1_4 
REMARK    4  A    between atoms: C13_14  and  C14_15 
REMARK    5  A    between atoms: C14_15  and  C16_17 
REMARK    6  A    between atoms: C16_17  and  C17_18 
REMARK    7  A    between atoms: C17_18  and  C18_19 
REMARK    8  A    between atoms: C27_28  and  C28_29 
REMARK    9  A    between atoms: C28_29  and  C29_30 
REMARK   10  A    between atoms: C29_30  and  C30_31 
REMARK   11  A    between atoms: C30_31  and  O3_33 
ROOT
HETATM    1  C4  UNL     1       6.889  55.251  -7.201  1.00  0.00     0.025 C 
HETATM    2  C5  UNL     1       7.096  55.229  -8.727  1.00  0.00     0.010 C 
HETATM    3  C6  UNL     1       5.841  55.106  -9.592  1.00  0.00     0.007 C 
HETATM    4  C7  UNL     1       4.514  54.806  -8.863  1.00  0.00     0.004 C 
HETATM    5  C8  UNL     1       4.323  55.798  -7.693  1.00  0.00    -0.027 A 
HETATM    6  C9  UNL     1       3.240  56.857  -7.896  1.00  0.00     0.011 C 
HETATM    7  C10 UNL     1       1.877  56.317  -8.396  1.00  0.00     0.011 C 
HETATM    8  C11 UNL     1       1.943  54.908  -9.010  1.00  0.00    -0.032 C 
HETATM    9  C12 UNL     1       1.802  53.867  -7.867  1.00  0.00     0.016 C 
HETATM   10  C13 UNL     1       0.876  54.594 -10.108  1.00  0.00    -0.002 C 
HETATM   11  C22 UNL     1       1.533  53.444 -10.915  1.00  0.00     0.006 C 
HETATM   12  C23 UNL     1       3.044  53.462 -10.580  1.00  0.00     0.011 C 
HETATM   13  C24 UNL     1       3.278  54.792  -9.834  1.00  0.00    -0.032 C 
HETATM   14  C25 UNL     1       3.430  55.878 -10.957  1.00  0.00     0.016 C 
HETATM   15  C26 UNL     1       4.447  55.319  -6.259  1.00  0.00     0.022 A 
HETATM   16  C27 UNL     1       5.612  56.064  -6.855  1.00  0.00    -0.024 A 
ENDROOT
BRANCH  10  17
HETATM   17  C14 UNL     1      -0.623  54.413  -9.707  1.00  0.00    -0.014 C 
HETATM   18  C15 UNL     1      -1.441  55.550 -10.350  1.00  0.00     0.010 C 
BRANCH  17  19
HETATM   19  C16 UNL     1      -1.264  53.049 -10.067  1.00  0.00     0.008 C 
BRANCH  19  20
HETATM   20  C17 UNL     1      -1.950  52.303  -8.906  1.00  0.00     0.028 C 
BRANCH  20  21
HETATM   21  C18 UNL     1      -2.999  51.322  -9.352  1.00  0.00    -0.025 C 
HETATM   22  C19 UNL     1      -3.995  51.517 -10.241  1.00  0.00    -0.091 C 
HETATM   23  C20 UNL     1      -4.966  50.405 -10.554  1.00  0.00     0.042 C 
HETATM   24  C21 UNL     1      -4.258  52.786 -11.006  1.00  0.00     0.042 C 
ENDBRANCH  20  21
ENDBRANCH  19  20
ENDBRANCH  17  19
ENDBRANCH  10  17
BRANCH  16  25
HETATM   25  C28 UNL     1       5.897  57.491  -6.393  1.00  0.00     0.021 C 
BRANCH  25  26
HETATM   26  C29 UNL     1       6.367  57.566  -4.940  1.00  0.00     0.111 C 
BRANCH  26  27
HETATM   27  C30 UNL     1       7.692  58.266  -4.834  1.00  0.00     0.139 C 
HETATM   28  O2  UNL     1       8.796  57.827  -5.112  1.00  0.00    -0.650 OA
BRANCH  27  29
HETATM   29  O3  UNL     1       7.559  59.523  -4.362  1.00  0.00    -0.776 OA
HETATM   30  H48 UNL     1       8.481  59.853  -4.325  1.00  0.00     0.167 HD
ENDBRANCH  27  29
ENDBRANCH  26  27
ENDBRANCH  25  26
ENDBRANCH  16  25
BRANCH   1  31
HETATM   31  C2  UNL     1       7.080  53.889  -6.509  1.00  0.00    -0.061 C 
HETATM   32  C1  UNL     1       7.420  53.734  -5.214  1.00  0.00     0.017 C 
BRANCH  31  33
HETATM   33  C3  UNL     1       6.760  52.668  -7.339  1.00  0.00     0.198 C 
BRANCH  33  34
HETATM   34  O1  UNL     1       7.386  51.526  -6.785  1.00  0.00    -0.397 OA
HETATM   35  H5  UNL     1       7.153  50.774  -7.354  1.00  0.00     0.209 HD
ENDBRANCH  33  34
ENDBRANCH  31  33
ENDBRANCH   1  31
TORSDOF 11
ENDMDL
