MODEL 1
REMARK minimizedAffinity -10.334794
REMARK  11 active torsions:
REMARK  status: ('A' for Active; 'I' for Inactive)
REMARK    1  A    between atoms: C6_6  and  C8_8 
REMARK    2  A    between atoms: C8_8  and  O1_9 
REMARK    3  A    between atoms: O1_9  and  C9_10 
REMARK    4  A    between atoms: C10_12  and  C11_13 
REMARK    5  A    between atoms: C11_13  and  O3_14 
REMARK    6  A    between atoms: C12_15  and  O4_16 
REMARK    7  A    between atoms: C13_17  and  O5_18 
REMARK    8  A    between atoms: C14_19  and  O6_20 
REMARK    9  A    between atoms: C20_26  and  C21_27 
REMARK   10  A    between atoms: C21_27  and  C22_28 
REMARK   11  A    between atoms: C26_34  and  O9_35 
ROOT
HETATM    1  C1  UNL     1      -1.833  49.234 -17.523  1.00  0.00     0.015 C 
HETATM    2  C2  UNL     1      -1.876  50.139 -18.517  1.00  0.00    -0.084 C 
HETATM    3  C3  UNL     1      -3.174  50.465 -19.218  1.00  0.00     0.034 C 
HETATM    4  C4  UNL     1      -3.059  50.443 -20.747  1.00  0.00     0.010 C 
HETATM    5  C5  UNL     1      -1.858  51.282 -21.230  1.00  0.00     0.005 C 
HETATM    6  C6  UNL     1      -1.841  51.614 -22.768  1.00  0.00    -0.018 C 
HETATM    7  C7  UNL     1      -3.067  52.516 -23.093  1.00  0.00     0.018 C 
HETATM    8  C15 UNL     1      -0.560  52.430 -23.144  1.00  0.00     0.012 C 
HETATM    9  C16 UNL     1       0.338  52.782 -21.959  1.00  0.00     0.002 C 
HETATM   10  C17 UNL     1       0.709  51.536 -21.167  1.00  0.00     0.010 C 
HETATM   11  C18 UNL     1      -0.513  50.757 -20.608  1.00  0.00    -0.032 C 
HETATM   12  C19 UNL     1      -0.247  49.252 -20.940  1.00  0.00     0.016 C 
HETATM   13  C20 UNL     1      -0.605  50.833 -19.024  1.00  0.00     0.025 C 
ENDROOT
BRANCH   6  14
HETATM   14  C8  UNL     1      -1.917  50.356 -23.673  1.00  0.00     0.180 C 
BRANCH  14  15
HETATM   15  O1  UNL     1      -2.152  50.730 -25.036  1.00  0.00    -0.358 OA
BRANCH  15  16
HETATM   16  C9  UNL     1      -1.181  51.660 -25.527  1.00  0.00     0.291 C 
HETATM   17  O2  UNL     1       0.020  50.997 -25.914  1.00  0.00    -0.348 OA
HETATM   18  C10 UNL     1       1.016  51.927 -26.376  1.00  0.00     0.179 C 
HETATM   19  C12 UNL     1       0.547  52.632 -27.660  1.00  0.00     0.180 C 
HETATM   20  C13 UNL     1      -0.811  53.312 -27.412  1.00  0.00     0.183 C 
HETATM   21  C14 UNL     1      -1.824  52.392 -26.724  1.00  0.00     0.204 C 
BRANCH  18  22
HETATM   22  C11 UNL     1       2.334  51.177 -26.579  1.00  0.00     0.198 C 
BRANCH  22  23
HETATM   23  O3  UNL     1       3.224  51.958 -27.373  1.00  0.00    -0.398 OA
HETATM   24  H17 UNL     1       3.989  51.391 -27.582  1.00  0.00     0.209 HD
ENDBRANCH  22  23
ENDBRANCH  18  22
BRANCH  19  25
HETATM   25  O4  UNL     1       0.437  51.696 -28.742  1.00  0.00    -0.390 OA
HETATM   26  H19 UNL     1      -0.032  52.175 -29.452  1.00  0.00     0.210 HD
ENDBRANCH  19  25
BRANCH  20  27
HETATM   27  O5  UNL     1      -1.351  53.762 -28.666  1.00  0.00    -0.390 OA
HETATM   28  H21 UNL     1      -1.976  53.052 -28.935  1.00  0.00     0.210 HD
ENDBRANCH  20  27
BRANCH  21  29
HETATM   29  O6  UNL     1      -2.337  51.467 -27.709  1.00  0.00    -0.388 OA
HETATM   30  H23 UNL     1      -2.487  50.630 -27.223  1.00  0.00     0.210 HD
ENDBRANCH  21  29
ENDBRANCH  15  16
ENDBRANCH  14  15
ENDBRANCH   6  14
BRANCH  13  31
HETATM   31  C21 UNL     1      -0.376  52.198 -18.308  1.00  0.00     0.037 C 
BRANCH  31  32
HETATM   32  C22 UNL     1       0.951  52.492 -17.673  1.00  0.00    -0.010 C 
HETATM   33  C23 UNL     1       1.346  52.107 -16.449  1.00  0.00     0.044 C 
HETATM   34  C24 UNL     1       2.713  52.388 -15.950  1.00  0.00     0.291 C 
HETATM   35  C26 UNL     1       0.660  51.299 -15.414  1.00  0.00     0.181 C 
HETATM   36  O7  UNL     1       3.506  53.173 -16.438  1.00  0.00    -0.260 OA
HETATM   37  O8  UNL     1       2.938  51.610 -14.855  1.00  0.00    -0.315 OA
HETATM   38  C25 UNL     1       1.847  50.693 -14.692  1.00  0.00     0.215 C 
BRANCH  35  39
HETATM   39  O9  UNL     1      -0.070  52.156 -14.546  1.00  0.00    -0.389 OA
HETATM   40  H40 UNL     1      -0.700  52.654 -15.095  1.00  0.00     0.210 HD
ENDBRANCH  35  39
ENDBRANCH  31  32
ENDBRANCH  13  31
TORSDOF 11
ENDMDL
