MODEL 1
REMARK minimizedAffinity -8.26192379
REMARK  12 active torsions:
REMARK  status: ('A' for Active; 'I' for Inactive)
REMARK    1  A    between atoms: C2_2  and  C4_4 
REMARK    2  A    between atoms: C13_13  and  C14_14 
REMARK    3  A    between atoms: C14_14  and  C16_16 
REMARK    4  A    between atoms: C16_16  and  C17_17 
REMARK    5  A    between atoms: C17_17  and  C18_18 
REMARK    6  A    between atoms: C19_19  and  C21_21 
REMARK    7  A    between atoms: C21_21  and  O2_23 
REMARK    8  A    between atoms: C27_29  and  C28_30 
REMARK    9  A    between atoms: C28_30  and  C29_31 
REMARK   10  A    between atoms: C29_31  and  C30_32 
REMARK   11  A    between atoms: C30_32  and  O4_34 
REMARK   12  A    between atoms: O4_34  and  C31_35 
ROOT
HETATM    1  C4  UNL     1      -5.454   7.252  15.524  1.00  0.00     0.022 C 
HETATM    2  C5  UNL     1      -4.432   8.352  15.852  1.00  0.00     0.010 C 
HETATM    3  C6  UNL     1      -3.023   7.802  15.706  1.00  0.00     0.007 C 
HETATM    4  C7  UNL     1      -2.678   7.518  14.232  1.00  0.00     0.004 C 
HETATM    5  C8  UNL     1      -3.751   6.644  13.519  1.00  0.00    -0.027 A 
HETATM    6  C9  UNL     1      -3.271   5.562  12.509  1.00  0.00     0.011 C 
HETATM    7  C10 UNL     1      -1.772   5.413  12.203  1.00  0.00     0.011 C 
HETATM    8  C11 UNL     1      -0.958   6.651  12.556  1.00  0.00    -0.032 C 
HETATM    9  C12 UNL     1      -1.359   7.786  11.582  1.00  0.00     0.016 C 
HETATM   10  C13 UNL     1       0.590   6.444  12.562  1.00  0.00    -0.002 C 
HETATM   11  C22 UNL     1       1.097   7.510  13.561  1.00  0.00     0.006 C 
HETATM   12  C23 UNL     1      -0.123   7.974  14.377  1.00  0.00     0.011 C 
HETATM   13  C24 UNL     1      -1.241   6.961  14.067  1.00  0.00    -0.032 C 
HETATM   14  C25 UNL     1      -1.047   5.742  15.027  1.00  0.00     0.016 C 
HETATM   15  C26 UNL     1      -4.938   7.427  12.974  1.00  0.00     0.022 A 
HETATM   16  C27 UNL     1      -5.184   6.548  14.172  1.00  0.00    -0.024 A 
ENDROOT
BRANCH  10  17
HETATM   17  C14 UNL     1       1.389   6.320  11.228  1.00  0.00    -0.014 C 
HETATM   18  C15 UNL     1       1.789   4.843  11.041  1.00  0.00     0.010 C 
BRANCH  17  19
HETATM   19  C16 UNL     1       2.642   7.223  11.086  1.00  0.00     0.008 C 
BRANCH  19  20
HETATM   20  C17 UNL     1       3.702   6.668  10.123  1.00  0.00     0.028 C 
BRANCH  20  21
HETATM   21  C18 UNL     1       3.086   6.243   8.816  1.00  0.00    -0.013 C 
HETATM   22  C19 UNL     1       2.494   7.006   7.874  1.00  0.00     0.008 C 
HETATM   23  C20 UNL     1       2.018   6.424   6.574  1.00  0.00     0.055 C 
BRANCH  22  24
HETATM   24  C21 UNL     1       2.272   8.465   7.991  1.00  0.00     0.171 C 
HETATM   25  O1  UNL     1       1.270   8.993   8.437  1.00  0.00    -0.646 OA
BRANCH  24  26
HETATM   26  O2  UNL     1       3.343   9.197   7.647  1.00  0.00    -0.773 OA
HETATM   27  H32 UNL     1       3.055  10.117   7.811  1.00  0.00     0.167 HD
ENDBRANCH  24  26
ENDBRANCH  22  24
ENDBRANCH  20  21
ENDBRANCH  19  20
ENDBRANCH  17  19
ENDBRANCH  10  17
BRANCH  16  28
HETATM   28  C28 UNL     1      -5.921   5.198  14.077  1.00  0.00     0.020 C 
BRANCH  28  29
HETATM   29  C29 UNL     1      -7.168   5.144  13.206  1.00  0.00     0.112 C 
BRANCH  29  30
HETATM   30  C30 UNL     1      -7.593   3.723  12.938  1.00  0.00     0.258 C 
HETATM   31  O3  UNL     1      -8.753   3.376  12.769  1.00  0.00    -0.265 OA
BRANCH  30  32
HETATM   32  O4  UNL     1      -6.515   2.892  12.937  1.00  0.00    -0.322 OA
BRANCH  32  33
HETATM   33  C31 UNL     1      -6.126   2.379  11.654  1.00  0.00     0.174 C 
HETATM   34  C32 UNL     1      -4.615   2.382  11.514  1.00  0.00     0.034 C 
ENDBRANCH  32  33
ENDBRANCH  30  32
ENDBRANCH  29  30
ENDBRANCH  28  29
ENDBRANCH  16  28
BRANCH   1  35
HETATM   35  C2  UNL     1      -6.878   7.778  15.708  1.00  0.00    -0.088 C 
HETATM   36  C1  UNL     1      -7.310   8.863  15.042  1.00  0.00     0.014 C 
HETATM   37  C3  UNL     1      -7.800   7.049  16.648  1.00  0.00     0.043 C 
ENDBRANCH   1  35
TORSDOF 12
ENDMDL
