MODEL 1
REMARK minimizedAffinity -8.27072048
REMARK CNNscore 0.831769228
REMARK CNNaffinity 7.05394411
REMARK  15 active torsions:
REMARK  status: ('A' for Active; 'I' for Inactive)
REMARK    1  A    between atoms: C2_2  and  C3_3 
REMARK    2  A    between atoms: C2_2  and  C35_44 
REMARK    3  A    between atoms: C3_3  and  C4_4 
REMARK    4  A    between atoms: C4_4  and  C5_5 
REMARK    5  A    between atoms: C5_5  and  C7_7 
REMARK    6  A    between atoms: C9_9  and  O1_10 
REMARK    7  A    between atoms: C10_11  and  C11_12 
REMARK    8  A    between atoms: C11_12  and  O3_14 
REMARK    9  A    between atoms: C22_25  and  O4_26 
REMARK   10  A    between atoms: O4_26  and  C23_27 
REMARK   11  A    between atoms: C24_29  and  C25_30 
REMARK   12  A    between atoms: C25_30  and  O6_31 
REMARK   13  A    between atoms: C26_32  and  O7_33 
REMARK   14  A    between atoms: C28_35  and  O8_36 
REMARK   15  A    between atoms: C29_37  and  O9_38 
ROOT
HETATM    1  C7  UNL     1      -1.748  51.214 -21.764  1.00  0.00     0.001 C 
HETATM    2  C8  UNL     1      -3.082  51.868 -22.193  1.00  0.00     0.039 C 
HETATM    3  C9  UNL     1      -4.213  51.012 -21.563  1.00  0.00     0.142 C 
HETATM    4  C10 UNL     1      -3.487  50.054 -20.564  1.00  0.00     0.102 C 
HETATM    5  C12 UNL     1      -4.104  48.735 -20.085  1.00  0.00    -0.054 C 
HETATM    6  C13 UNL     1      -3.311  47.671 -19.788  1.00  0.00    -0.067 C 
HETATM    7  C14 UNL     1      -1.781  47.740 -19.902  1.00  0.00     0.036 C 
HETATM    8  C15 UNL     1      -1.158  49.017 -20.491  1.00  0.00     0.015 C 
HETATM    9  C16 UNL     1      -2.157  49.767 -21.375  1.00  0.00    -0.016 C 
HETATM   10  C17 UNL     1      -2.402  48.879 -22.635  1.00  0.00     0.017 C 
HETATM   11  C18 UNL     1      -3.905  46.292 -19.408  1.00  0.00    -0.013 C 
HETATM   12  C19 UNL     1      -3.787  45.408 -20.685  1.00  0.00     0.021 C 
HETATM   13  C20 UNL     1      -3.148  45.641 -18.218  1.00  0.00     0.017 C 
HETATM   14  C21 UNL     1      -3.627  44.223 -17.917  1.00  0.00     0.037 C 
HETATM   15  C22 UNL     1      -5.141  43.986 -17.917  1.00  0.00     0.153 C 
HETATM   16  C30 UNL     1      -5.997  45.005 -18.678  1.00  0.00    -0.055 C 
HETATM   17  C31 UNL     1      -7.235  44.653 -19.119  1.00  0.00     0.017 C 
HETATM   18  C32 UNL     1      -5.390  46.394 -18.920  1.00  0.00     0.029 C 
HETATM   19  C33 UNL     1      -6.200  47.300 -19.859  1.00  0.00     0.014 C 
HETATM   20  C34 UNL     1      -5.602  48.699 -19.936  1.00  0.00     0.036 C 
ENDROOT
BRANCH  15  21
HETATM   21  O4  UNL     1      -5.318  42.725 -18.585  1.00  0.00    -0.349 OA
BRANCH  21  22
HETATM   22  C23 UNL     1      -4.760  41.586 -17.956  1.00  0.00     0.292 C 
HETATM   23  O5  UNL     1      -5.833  40.836 -17.370  1.00  0.00    -0.348 OA
HETATM   24  C24 UNL     1      -6.665  40.103 -18.303  1.00  0.00     0.179 C 
HETATM   25  C26 UNL     1      -6.331  40.193 -19.815  1.00  0.00     0.183 C 
HETATM   26  C28 UNL     1      -4.816  40.270 -20.097  1.00  0.00     0.183 C 
HETATM   27  C29 UNL     1      -3.976  40.647 -18.876  1.00  0.00     0.204 C 
BRANCH  24  28
HETATM   28  C25 UNL     1      -6.624  38.639 -17.832  1.00  0.00     0.198 C 
BRANCH  28  29
HETATM   29  O6  UNL     1      -7.745  37.922 -18.356  1.00  0.00    -0.398 OA
HETATM   30  H36 UNL     1      -8.494  38.545 -18.337  1.00  0.00     0.209 HD
ENDBRANCH  28  29
ENDBRANCH  24  28
BRANCH  25  31
HETATM   31  O7  UNL     1      -6.898  41.346 -20.463  1.00  0.00    -0.385 OA
HETATM   32  C27 UNL     1      -8.316  41.398 -20.492  1.00  0.00     0.202 C 
ENDBRANCH  25  31
BRANCH  26  33
HETATM   33  O8  UNL     1      -4.330  39.008 -20.595  1.00  0.00    -0.390 OA
HETATM   34  H42 UNL     1      -4.713  38.896 -21.481  1.00  0.00     0.210 HD
ENDBRANCH  26  33
BRANCH  27  35
HETATM   35  O9  UNL     1      -2.721  41.195 -19.300  1.00  0.00    -0.388 OA
HETATM   36  H44 UNL     1      -2.329  40.523 -19.889  1.00  0.00     0.210 HD
ENDBRANCH  27  35
ENDBRANCH  21  22
ENDBRANCH  15  21
BRANCH   4  37
HETATM   37  C11 UNL     1      -3.293  50.848 -19.240  1.00  0.00     0.156 C 
HETATM   38  O2  UNL     1      -2.938  52.007 -19.097  1.00  0.00    -0.649 OA
BRANCH  37  39
HETATM   39  O3  UNL     1      -3.489  50.114 -18.124  1.00  0.00    -0.775 OA
HETATM   40  H16 UNL     1      -3.254  50.736 -17.401  1.00  0.00     0.167 HD
ENDBRANCH  37  39
ENDBRANCH   4  37
BRANCH   3  41
HETATM   41  O1  UNL     1      -4.899  50.315 -22.603  1.00  0.00    -0.394 OA
HETATM   42  H15 UNL     1      -5.260  50.975 -23.220  1.00  0.00     0.210 HD
ENDBRANCH   3  41
BRANCH   1  43
HETATM   43  C5  UNL     1      -0.481  51.495 -22.614  1.00  0.00    -0.013 C 
HETATM   44  C6  UNL     1       0.602  52.153 -21.732  1.00  0.00     0.010 C 
BRANCH  43  45
HETATM   45  C4  UNL     1      -0.565  52.229 -23.972  1.00  0.00     0.009 C 
BRANCH  45  46
HETATM   46  C3  UNL     1       0.556  51.976 -24.987  1.00  0.00     0.034 C 
BRANCH  46  47
HETATM   47  C2  UNL     1       0.051  51.314 -26.261  1.00  0.00    -0.086 C 
HETATM   48  C1  UNL     1      -0.935  50.403 -26.194  1.00  0.00     0.014 C 
BRANCH  47  49
HETATM   49  C35 UNL     1       0.698  51.655 -27.600  1.00  0.00     0.005 C 
HETATM   50  C36 UNL     1       0.142  52.937 -28.212  1.00  0.00     0.014 C 
HETATM   51  C37 UNL     1       2.223  51.703 -27.509  1.00  0.00     0.014 C 
ENDBRANCH  47  49
ENDBRANCH  46  47
ENDBRANCH  45  46
ENDBRANCH  43  45
ENDBRANCH   1  43
TORSDOF 15
ENDMDL
