MODEL 1
REMARK minimizedAffinity -10.0066566
REMARK  9 active torsions:
REMARK  status: ('A' for Active; 'I' for Inactive)
REMARK    1  A    between atoms: C3_3  and  C4_4 
REMARK    2  A    between atoms: C3_3  and  C27_30 
REMARK    3  A    between atoms: C4_4  and  C5_5 
REMARK    4  A    between atoms: C5_5  and  C6_6 
REMARK    5  A    between atoms: C6_6  and  C8_8 
REMARK    6  A    between atoms: C15_15  and  O1_16 
REMARK    7  A    between atoms: C18_19  and  C19_20 
REMARK    8  A    between atoms: C19_20  and  O2_21 
REMARK    9  A    between atoms: C22_24  and  O3_25 
ROOT
HETATM    1  C8  UNL     1      -0.744  51.103 -23.612  1.00  0.00     0.001 C 
HETATM    2  C9  UNL     1      -0.020  52.473 -23.660  1.00  0.00     0.006 C 
HETATM    3  C10 UNL     1       0.393  52.802 -22.216  1.00  0.00     0.010 C 
HETATM    4  C11 UNL     1       0.148  51.506 -21.444  1.00  0.00     0.026 C 
HETATM    5  C12 UNL     1       0.096  51.494 -19.932  1.00  0.00    -0.072 C 
HETATM    6  C13 UNL     1      -0.550  50.490 -19.284  1.00  0.00    -0.064 C 
HETATM    7  C14 UNL     1      -1.312  49.411 -20.067  1.00  0.00     0.068 C 
HETATM    8  C15 UNL     1      -1.226  49.479 -21.613  1.00  0.00     0.131 C 
HETATM    9  C16 UNL     1      -1.133  50.936 -22.110  1.00  0.00    -0.006 C 
HETATM   10  C17 UNL     1      -2.412  51.732 -21.749  1.00  0.00     0.019 C 
HETATM   11  C18 UNL     1      -0.617  50.434 -17.727  1.00  0.00     0.009 C 
HETATM   12  C20 UNL     1      -0.514  48.977 -17.160  1.00  0.00     0.019 C 
HETATM   13  C21 UNL     1       0.440  48.778 -15.971  1.00  0.00     0.033 C 
HETATM   14  C22 UNL     1       0.431  49.915 -14.957  1.00  0.00     0.118 C 
HETATM   15  C23 UNL     1       0.621  51.293 -15.598  1.00  0.00     0.037 C 
HETATM   16  C24 UNL     1       0.579  51.251 -17.135  1.00  0.00     0.003 C 
HETATM   17  C25 UNL     1       0.655  52.660 -17.720  1.00  0.00     0.010 C 
HETATM   18  C26 UNL     1       0.844  52.604 -19.233  1.00  0.00     0.035 C 
ENDROOT
BRANCH   1  19
HETATM   19  C6  UNL     1      -1.834  50.866 -24.700  1.00  0.00    -0.013 C 
HETATM   20  C7  UNL     1      -2.513  52.207 -25.024  1.00  0.00     0.010 C 
BRANCH  19  21
HETATM   21  C5  UNL     1      -2.914  49.820 -24.334  1.00  0.00     0.009 C 
BRANCH  21  22
HETATM   22  C4  UNL     1      -2.949  48.547 -25.200  1.00  0.00     0.034 C 
BRANCH  22  23
HETATM   23  C3  UNL     1      -4.155  48.418 -26.118  1.00  0.00    -0.081 C 
HETATM   24  C2  UNL     1      -5.409  48.254 -25.646  1.00  0.00    -0.028 C 
HETATM   25  C1  UNL     1      -5.814  48.133 -24.211  1.00  0.00     0.036 C 
BRANCH  23  26
HETATM   26  C27 UNL     1      -3.857  48.589 -27.610  1.00  0.00     0.006 C 
HETATM   27  C28 UNL     1      -4.994  48.163 -28.544  1.00  0.00     0.014 C 
HETATM   28  C29 UNL     1      -3.446  50.034 -27.911  1.00  0.00     0.014 C 
ENDBRANCH  23  26
ENDBRANCH  22  23
ENDBRANCH  21  22
ENDBRANCH  19  21
ENDBRANCH   1  19
BRANCH   8  29
HETATM   29  O1  UNL     1      -2.320  48.771 -22.189  1.00  0.00    -0.394 OA
HETATM   30  H22 UNL     1      -3.147  49.217 -21.939  1.00  0.00     0.210 HD
ENDBRANCH   8  29
BRANCH  11  31
HETATM   31  C19 UNL     1      -2.017  51.039 -17.369  1.00  0.00     0.178 C 
BRANCH  31  32
HETATM   32  O2  UNL     1      -2.589  51.814 -18.415  1.00  0.00    -0.400 OA
HETATM   33  H28 UNL     1      -3.481  52.070 -18.113  1.00  0.00     0.209 HD
ENDBRANCH  31  32
ENDBRANCH  11  31
BRANCH  14  34
HETATM   34  O3  UNL     1      -0.780  49.873 -14.209  1.00  0.00    -0.396 OA
HETATM   35  H34 UNL     1      -1.482  50.238 -14.792  1.00  0.00     0.210 HD
ENDBRANCH  14  34
TORSDOF 9
ENDMDL
