MODEL 1
REMARK minimizedAffinity -9.54316425
REMARK  6 active torsions:
REMARK  status: ('A' for Active; 'I' for Inactive)
REMARK    1  A    between atoms: C2_2  and  C4_4 
REMARK    2  A    between atoms: C4_4  and  O1_5 
REMARK    3  A    between atoms: C4_4  and  C5_6 
REMARK    4  A    between atoms: C5_6  and  C6_7 
REMARK    5  A    between atoms: C6_7  and  C7_8 
REMARK    6  A    between atoms: C7_8  and  C9_10 
ROOT
HETATM    1  C9  UNL     1      -0.704  52.433 -20.704  1.00  0.00    -0.001 C 
HETATM    2  C10 UNL     1       0.060  51.896 -21.946  1.00  0.00     0.007 C 
HETATM    3  C11 UNL     1      -0.767  50.732 -22.528  1.00  0.00     0.024 C 
HETATM    4  C12 UNL     1      -2.041  50.728 -21.716  1.00  0.00     0.092 C 
HETATM    5  C13 UNL     1      -3.115  51.665 -22.334  1.00  0.00     0.272 C 
HETATM    6  O2  UNL     1      -2.940  52.643 -23.041  1.00  0.00    -0.264 OA
HETATM    7  O3  UNL     1      -4.364  51.213 -21.948  1.00  0.00    -0.305 OA
HETATM    8  C14 UNL     1      -4.201  50.029 -21.132  1.00  0.00     0.113 C 
HETATM    9  C15 UNL     1      -4.019  50.525 -19.662  1.00  0.00     0.043 C 
HETATM   10  C16 UNL     1      -2.914  51.608 -19.509  1.00  0.00     0.014 C 
HETATM   11  C17 UNL     1      -1.627  51.242 -20.294  1.00  0.00    -0.020 C 
HETATM   12  C18 UNL     1      -0.850  50.189 -19.474  1.00  0.00     0.017 C 
HETATM   13  C19 UNL     1      -2.882  49.515 -21.632  1.00  0.00     0.137 A 
HETATM   14  O4  UNL     1      -2.374  48.262 -21.219  1.00  0.00    -0.364 OA
HETATM   15  C20 UNL     1      -2.782  48.358 -22.599  1.00  0.00     0.162 A 
HETATM   16  C21 UNL     1      -4.009  47.577 -22.955  1.00  0.00     0.042 C 
HETATM   17  C22 UNL     1      -5.265  48.470 -22.847  1.00  0.00     0.014 C 
HETATM   18  C23 UNL     1      -6.554  47.870 -23.501  1.00  0.00     0.018 C 
HETATM   19  C24 UNL     1      -6.369  47.774 -25.032  1.00  0.00     0.023 C 
HETATM   20  C25 UNL     1      -6.954  46.484 -22.979  1.00  0.00     0.023 C 
HETATM   21  C26 UNL     1      -7.737  48.823 -23.274  1.00  0.00     0.135 C 
HETATM   22  O5  UNL     1      -8.878  48.550 -23.655  1.00  0.00    -0.297 OA
HETATM   23  C27 UNL     1      -7.446  50.129 -22.578  1.00  0.00     0.080 C 
HETATM   24  C28 UNL     1      -6.774  49.822 -21.249  1.00  0.00     0.020 C 
HETATM   25  C29 UNL     1      -5.417  49.054 -21.381  1.00  0.00    -0.004 C 
HETATM   26  C30 UNL     1      -5.419  47.951 -20.289  1.00  0.00     0.019 C 
ENDROOT
BRANCH   1  27
HETATM   27  C7  UNL     1       0.200  53.203 -19.693  1.00  0.00    -0.014 C 
HETATM   28  C8  UNL     1       1.440  53.900 -20.265  1.00  0.00     0.010 C 
BRANCH  27  29
HETATM   29  C6  UNL     1       0.573  52.316 -18.486  1.00  0.00     0.007 C 
BRANCH  29  30
HETATM   30  C5  UNL     1       1.755  52.775 -17.611  1.00  0.00     0.036 C 
BRANCH  30  31
HETATM   31  C4  UNL     1       1.810  52.125 -16.216  1.00  0.00     0.146 C 
BRANCH  31  32
HETATM   32  C2  UNL     1       3.192  51.957 -15.609  1.00  0.00    -0.065 C 
HETATM   33  C1  UNL     1       4.341  52.388 -16.159  1.00  0.00     0.016 C 
HETATM   34  C3  UNL     1       3.211  51.236 -14.283  1.00  0.00     0.045 C 
ENDBRANCH  31  32
BRANCH  31  35
HETATM   35  O1  UNL     1       1.057  52.907 -15.294  1.00  0.00    -0.391 OA
HETATM   36  H7  UNL     1       1.556  53.732 -15.157  1.00  0.00     0.210 HD
ENDBRANCH  31  35
ENDBRANCH  30  31
ENDBRANCH  29  30
ENDBRANCH  27  29
ENDBRANCH   1  27
TORSDOF 6
ENDMDL
