MODEL 1
REMARK minimizedAffinity -8.25955868
REMARK CNNscore 0.82506609
REMARK CNNaffinity 6.94915819
REMARK  6 active torsions:
REMARK  status: ('A' for Active; 'I' for Inactive)
REMARK    1  A    between atoms: C2_2  and  C30_33 
REMARK    2  A    between atoms: C3_3  and  C4_4 
REMARK    3  A    between atoms: C4_4  and  C5_5 
REMARK    4  A    between atoms: C5_5  and  C6_6 
REMARK    5  A    between atoms: C6_6  and  C8_8 
REMARK    6  A    between atoms: C30_33  and  O5_35 
ROOT
HETATM    1  C8  UNL     1       4.916  55.981  -8.337  1.00  0.00    -0.001 C 
HETATM    2  C9  UNL     1       5.721  55.068  -9.302  1.00  0.00     0.007 C 
HETATM    3  C10 UNL     1       4.693  54.265 -10.120  1.00  0.00     0.015 C 
HETATM    4  C11 UNL     1       3.348  54.989  -9.900  1.00  0.00    -0.004 C 
HETATM    5  C12 UNL     1       3.312  56.191 -10.895  1.00  0.00     0.021 C 
HETATM    6  C13 UNL     1       2.028  54.265 -10.114  1.00  0.00     0.007 C 
HETATM    7  C14 UNL     1       0.887  54.622  -9.472  1.00  0.00     0.007 C 
HETATM    8  C15 UNL     1       0.983  55.732  -8.433  1.00  0.00     0.157 C 
HETATM    9  O1  UNL     1      -0.031  56.182  -7.901  1.00  0.00    -0.293 OA
HETATM   10  C16 UNL     1       2.336  56.311  -8.032  1.00  0.00     0.094 C 
HETATM   11  C17 UNL     1       3.484  55.367  -8.378  1.00  0.00    -0.022 C 
HETATM   12  C18 UNL     1       3.399  54.132  -7.433  1.00  0.00     0.017 C 
HETATM   13  C19 UNL     1      -0.500  53.966  -9.706  1.00  0.00    -0.007 C 
HETATM   14  C20 UNL     1      -0.793  53.102  -8.455  1.00  0.00     0.021 C 
HETATM   15  C21 UNL     1      -1.633  55.032  -9.864  1.00  0.00     0.022 C 
HETATM   16  C22 UNL     1      -2.810  54.638 -10.755  1.00  0.00     0.080 C 
HETATM   17  C23 UNL     1      -2.993  53.143 -10.824  1.00  0.00     0.135 C 
HETATM   18  O2  UNL     1      -4.069  52.621 -10.537  1.00  0.00    -0.297 OA
HETATM   19  C24 UNL     1      -1.799  52.337 -11.347  1.00  0.00     0.018 C 
HETATM   20  C25 UNL     1      -1.839  50.909 -10.766  1.00  0.00     0.023 C 
HETATM   21  C26 UNL     1      -1.984  52.217 -12.875  1.00  0.00     0.023 C 
HETATM   22  C27 UNL     1      -0.479  53.121 -11.032  1.00  0.00     0.021 C 
HETATM   23  C28 UNL     1       0.775  52.254 -11.113  1.00  0.00     0.090 C 
HETATM   24  C29 UNL     1       1.991  53.140 -11.098  1.00  0.00     0.157 C 
HETATM   25  O3  UNL     1       2.932  52.921 -11.855  1.00  0.00    -0.293 OA
ENDROOT
BRANCH   1  26
HETATM   26  C6  UNL     1       5.669  56.320  -7.016  1.00  0.00    -0.014 C 
HETATM   27  C7  UNL     1       5.564  57.763  -6.507  1.00  0.00     0.010 C 
BRANCH  26  28
HETATM   28  C5  UNL     1       7.148  55.871  -7.075  1.00  0.00     0.008 C 
BRANCH  28  29
HETATM   29  C4  UNL     1       7.829  55.683  -5.710  1.00  0.00     0.028 C 
BRANCH  29  30
HETATM   30  C3  UNL     1       8.920  56.690  -5.466  1.00  0.00    -0.013 C 
HETATM   31  C2  UNL     1      10.193  56.462  -5.082  1.00  0.00     0.008 C 
HETATM   32  C1  UNL     1      10.806  55.120  -4.806  1.00  0.00     0.055 C 
BRANCH  31  33
HETATM   33  C30 UNL     1      11.142  57.595  -4.896  1.00  0.00     0.171 C 
HETATM   34  O4  UNL     1      10.823  58.760  -4.736  1.00  0.00    -0.646 OA
BRANCH  33  35
HETATM   35  O5  UNL     1      12.435  57.232  -4.896  1.00  0.00    -0.773 OA
HETATM   36  H42 UNL     1      12.909  58.078  -4.758  1.00  0.00     0.167 HD
ENDBRANCH  33  35
ENDBRANCH  31  33
ENDBRANCH  29  30
ENDBRANCH  28  29
ENDBRANCH  26  28
ENDBRANCH   1  26
TORSDOF 6
ENDMDL
