MODEL 1
REMARK minimizedAffinity -9.94965649
REMARK  7 active torsions:
REMARK  status: ('A' for Active; 'I' for Inactive)
REMARK    1  A    between atoms: C2_2  and  C30_33 
REMARK    2  A    between atoms: C3_3  and  C4_4 
REMARK    3  A    between atoms: C4_4  and  C5_5 
REMARK    4  A    between atoms: C5_5  and  C6_6 
REMARK    5  A    between atoms: C6_6  and  C8_8 
REMARK    6  A    between atoms: C15_15  and  O1_16 
REMARK    7  A    between atoms: C30_33  and  O5_35 
ROOT
HETATM    1  C8  UNL     1      -0.765  52.550 -23.840  1.00  0.00    -0.002 C 
HETATM    2  C9  UNL     1      -0.010  51.806 -24.965  1.00  0.00     0.007 C 
HETATM    3  C10 UNL     1      -0.963  50.701 -25.480  1.00  0.00     0.015 C 
HETATM    4  C11 UNL     1      -2.354  51.064 -24.913  1.00  0.00    -0.005 C 
HETATM    5  C12 UNL     1      -2.968  52.136 -25.867  1.00  0.00     0.021 C 
HETATM    6  C13 UNL     1      -3.455  50.021 -24.767  1.00  0.00     0.002 C 
HETATM    7  C14 UNL     1      -4.381  50.105 -23.767  1.00  0.00    -0.032 C 
HETATM    8  C15 UNL     1      -4.335  51.248 -22.750  1.00  0.00     0.149 C 
HETATM    9  C16 UNL     1      -3.140  52.227 -22.823  1.00  0.00     0.047 C 
HETATM   10  C17 UNL     1      -1.922  51.578 -23.480  1.00  0.00    -0.026 C 
HETATM   11  C18 UNL     1      -1.422  50.424 -22.562  1.00  0.00     0.016 C 
HETATM   12  C19 UNL     1      -5.429  48.976 -23.561  1.00  0.00    -0.012 C 
HETATM   13  C20 UNL     1      -4.670  47.856 -22.799  1.00  0.00     0.021 C 
HETATM   14  C21 UNL     1      -6.682  49.313 -22.696  1.00  0.00     0.021 C 
HETATM   15  C22 UNL     1      -7.870  49.797 -23.513  1.00  0.00     0.080 C 
HETATM   16  C23 UNL     1      -8.334  48.673 -24.417  1.00  0.00     0.135 C 
HETATM   17  O2  UNL     1      -9.536  48.464 -24.584  1.00  0.00    -0.297 OA
HETATM   18  C24 UNL     1      -7.252  47.827 -25.118  1.00  0.00     0.018 C 
HETATM   19  C25 UNL     1      -7.254  46.430 -24.487  1.00  0.00     0.023 C 
HETATM   20  C26 UNL     1      -7.671  47.689 -26.598  1.00  0.00     0.023 C 
HETATM   21  C27 UNL     1      -5.893  48.589 -25.009  1.00  0.00     0.020 C 
HETATM   22  C28 UNL     1      -4.726  47.979 -25.786  1.00  0.00     0.090 C 
HETATM   23  C29 UNL     1      -3.519  48.899 -25.768  1.00  0.00     0.157 C 
HETATM   24  O3  UNL     1      -2.606  48.716 -26.573  1.00  0.00    -0.293 OA
ENDROOT
BRANCH   1  25
HETATM   25  C6  UNL     1       0.073  53.266 -22.746  1.00  0.00    -0.014 C 
HETATM   26  C7  UNL     1       1.198  54.083 -23.409  1.00  0.00     0.010 C 
BRANCH  25  27
HETATM   27  C5  UNL     1       0.599  52.515 -21.499  1.00  0.00     0.008 C 
BRANCH  27  28
HETATM   28  C4  UNL     1      -0.102  52.631 -20.140  1.00  0.00     0.028 C 
BRANCH  28  29
HETATM   29  C3  UNL     1       0.803  52.858 -18.965  1.00  0.00    -0.013 C 
HETATM   30  C2  UNL     1       0.885  52.108 -17.847  1.00  0.00     0.008 C 
HETATM   31  C1  UNL     1       0.042  50.911 -17.534  1.00  0.00     0.055 C 
BRANCH  30  32
HETATM   32  C30 UNL     1       1.889  52.534 -16.836  1.00  0.00     0.171 C 
HETATM   33  O4  UNL     1       3.082  52.289 -16.845  1.00  0.00    -0.646 OA
BRANCH  32  34
HETATM   34  O5  UNL     1       1.339  53.253 -15.845  1.00  0.00    -0.773 OA
HETATM   35  H44 UNL     1       2.101  53.457 -15.264  1.00  0.00     0.167 HD
ENDBRANCH  32  34
ENDBRANCH  30  32
ENDBRANCH  28  29
ENDBRANCH  27  28
ENDBRANCH  25  27
ENDBRANCH   1  25
BRANCH   8  36
HETATM   36  O1  UNL     1      -5.527  52.015 -22.888  1.00  0.00    -0.391 OA
HETATM   37  H22 UNL     1      -5.510  52.426 -23.769  1.00  0.00     0.210 HD
ENDBRANCH   8  36
TORSDOF 7
ENDMDL
