MODEL 1
REMARK minimizedAffinity -9.28650379
REMARK  4 active torsions:
REMARK  status: ('A' for Active; 'I' for Inactive)
REMARK    1  A    between atoms: C4_4  and  C5_5 
REMARK    2  A    between atoms: C5_5  and  C6_6 
REMARK    3  A    between atoms: C6_6  and  C7_7 
REMARK    4  A    between atoms: C7_7  and  C9_9 
ROOT
HETATM    1  C9  UNL     1      -3.076  49.018 -25.575  1.00  0.00    -0.002 C 
HETATM    2  C10 UNL     1      -4.358  48.309 -25.135  1.00  0.00     0.007 C 
HETATM    3  C11 UNL     1      -4.250  48.307 -23.624  1.00  0.00     0.015 C 
HETATM    4  C12 UNL     1      -3.823  49.751 -23.254  1.00  0.00    -0.013 C 
HETATM    5  C13 UNL     1      -5.118  50.598 -23.120  1.00  0.00     0.021 C 
HETATM    6  C14 UNL     1      -3.130  49.813 -21.874  1.00  0.00    -0.070 C 
HETATM    7  C15 UNL     1      -3.518  49.012 -20.859  1.00  0.00    -0.022 C 
HETATM    8  C16 UNL     1      -3.004  49.077 -19.454  1.00  0.00     0.034 C 
HETATM    9  C17 UNL     1      -2.193  50.353 -19.155  1.00  0.00     0.013 C 
HETATM   10  C18 UNL     1      -1.586  50.370 -17.706  1.00  0.00     0.018 C 
HETATM   11  C19 UNL     1      -1.063  49.011 -17.205  1.00  0.00     0.023 C 
HETATM   12  C20 UNL     1      -2.665  50.840 -16.705  1.00  0.00     0.023 C 
HETATM   13  C21 UNL     1      -0.457  51.401 -17.639  1.00  0.00     0.135 C 
HETATM   14  O1  UNL     1       0.427  51.367 -16.785  1.00  0.00    -0.297 OA
HETATM   15  C22 UNL     1      -0.523  52.527 -18.636  1.00  0.00     0.080 C 
HETATM   16  C23 UNL     1      -0.388  51.979 -20.046  1.00  0.00     0.017 C 
HETATM   17  C24 UNL     1      -1.196  50.670 -20.330  1.00  0.00    -0.031 C 
HETATM   18  C25 UNL     1      -0.180  49.512 -20.522  1.00  0.00     0.016 C 
HETATM   19  C26 UNL     1      -2.064  50.883 -21.648  1.00  0.00     0.024 C 
HETATM   20  C27 UNL     1      -1.189  51.170 -22.890  1.00  0.00     0.010 C 
HETATM   21  C28 UNL     1      -1.423  50.203 -24.041  1.00  0.00     0.011 C 
HETATM   22  C29 UNL     1      -2.903  50.173 -24.495  1.00  0.00    -0.029 C 
HETATM   23  C30 UNL     1      -3.292  51.560 -25.060  1.00  0.00     0.016 C 
ENDROOT
BRANCH   1  24
HETATM   24  C7  UNL     1      -3.057  49.380 -27.098  1.00  0.00    -0.014 C 
HETATM   25  C8  UNL     1      -4.308  48.851 -27.810  1.00  0.00     0.010 C 
BRANCH  24  26
HETATM   26  C6  UNL     1      -2.914  50.915 -27.313  1.00  0.00     0.008 C 
BRANCH  26  27
HETATM   27  C5  UNL     1      -1.578  51.393 -27.907  1.00  0.00     0.028 C 
BRANCH  27  28
HETATM   28  C4  UNL     1      -0.407  51.220 -26.976  1.00  0.00    -0.025 C 
HETATM   29  C2  UNL     1       0.897  51.454 -27.222  1.00  0.00    -0.091 C 
HETATM   30  C1  UNL     1       1.933  51.206 -26.155  1.00  0.00     0.042 C 
HETATM   31  C3  UNL     1       1.465  51.961 -28.518  1.00  0.00     0.042 C 
ENDBRANCH  27  28
ENDBRANCH  26  27
ENDBRANCH  24  26
ENDBRANCH   1  24
TORSDOF 4
ENDMDL
