MODEL 1
REMARK minimizedAffinity -9.46068764
REMARK CNNscore 0.553758323
REMARK CNNaffinity 7.17671824
REMARK  7 active torsions:
REMARK  status: ('A' for Active; 'I' for Inactive)
REMARK    1  A    between atoms: C2_2  and  C30_33 
REMARK    2  A    between atoms: C3_3  and  C4_4 
REMARK    3  A    between atoms: C4_4  and  O1_5 
REMARK    4  A    between atoms: C4_4  and  C5_6 
REMARK    5  A    between atoms: C5_6  and  C6_7 
REMARK    6  A    between atoms: C6_7  and  C8_9 
REMARK    7  A    between atoms: C30_33  and  O5_35 
ROOT
HETATM    1  C8  UNL     1      -6.081   7.299  14.356  1.00  0.00    -0.002 C 
HETATM    2  C9  UNL     1      -5.798   8.615  15.139  1.00  0.00     0.007 C 
HETATM    3  C10 UNL     1      -4.295   8.921  15.012  1.00  0.00     0.015 C 
HETATM    4  C11 UNL     1      -3.792   7.997  13.888  1.00  0.00    -0.005 C 
HETATM    5  C12 UNL     1      -4.109   8.706  12.536  1.00  0.00     0.021 C 
HETATM    6  C13 UNL     1      -2.318   7.632  13.804  1.00  0.00    -0.000 C 
HETATM    7  C14 UNL     1      -1.907   6.450  13.276  1.00  0.00    -0.060 C 
HETATM    8  C15 UNL     1      -2.939   5.410  12.814  1.00  0.00     0.036 C 
HETATM    9  C16 UNL     1      -4.432   5.741  13.011  1.00  0.00     0.015 C 
HETATM   10  C17 UNL     1      -4.650   6.702  14.187  1.00  0.00    -0.028 C 
HETATM   11  C18 UNL     1      -4.237   5.982  15.511  1.00  0.00     0.016 C 
HETATM   12  C19 UNL     1      -0.420   6.047  13.127  1.00  0.00    -0.014 C 
HETATM   13  C20 UNL     1      -0.118   4.993  14.231  1.00  0.00     0.020 C 
HETATM   14  C21 UNL     1      -0.168   5.380  11.742  1.00  0.00     0.021 C 
HETATM   15  C22 UNL     1       1.271   5.505  11.276  1.00  0.00     0.080 C 
HETATM   16  C23 UNL     1       1.581   6.963  11.026  1.00  0.00     0.135 C 
HETATM   17  O2  UNL     1       2.286   7.288  10.070  1.00  0.00    -0.297 OA
HETATM   18  C24 UNL     1       0.998   7.996  12.010  1.00  0.00     0.018 C 
HETATM   19  C25 UNL     1       2.125   9.015  12.300  1.00  0.00     0.023 C 
HETATM   20  C26 UNL     1      -0.139   8.736  11.292  1.00  0.00     0.023 C 
HETATM   21  C27 UNL     1       0.578   7.250  13.330  1.00  0.00     0.020 C 
HETATM   22  C28 UNL     1       0.103   8.156  14.471  1.00  0.00     0.090 C 
HETATM   23  C29 UNL     1      -1.308   8.629  14.271  1.00  0.00     0.157 C 
HETATM   24  O3  UNL     1      -1.620   9.792  14.508  1.00  0.00    -0.293 OA
ENDROOT
BRANCH   1  25
HETATM   25  C6  UNL     1      -7.222   6.460  15.019  1.00  0.00    -0.011 C 
HETATM   26  C7  UNL     1      -7.196   6.551  16.545  1.00  0.00     0.010 C 
BRANCH  25  27
HETATM   27  C5  UNL     1      -7.135   4.979  14.530  1.00  0.00     0.040 C 
BRANCH  27  28
HETATM   28  C4  UNL     1      -7.691   4.717  13.117  1.00  0.00     0.142 C 
BRANCH  28  29
HETATM   29  C3  UNL     1      -6.686   4.048  12.222  1.00  0.00     0.018 C 
HETATM   30  C2  UNL     1      -6.485   2.718  12.110  1.00  0.00     0.010 C 
HETATM   31  C1  UNL     1      -7.217   1.658  12.880  1.00  0.00     0.055 C 
BRANCH  30  32
HETATM   32  C30 UNL     1      -5.427   2.283  11.165  1.00  0.00     0.171 C 
HETATM   33  O4  UNL     1      -4.297   1.929  11.451  1.00  0.00    -0.646 OA
BRANCH  32  34
HETATM   34  O5  UNL     1      -5.840   2.311   9.887  1.00  0.00    -0.773 OA
HETATM   35  H44 UNL     1      -5.057   2.002   9.387  1.00  0.00     0.167 HD
ENDBRANCH  32  34
ENDBRANCH  30  32
ENDBRANCH  28  29
BRANCH  28  36
HETATM   36  O1  UNL     1      -8.813   3.845  13.196  1.00  0.00    -0.392 OA
HETATM   37  H6  UNL     1      -8.482   2.957  13.417  1.00  0.00     0.210 HD
ENDBRANCH  28  36
ENDBRANCH  27  28
ENDBRANCH  25  27
ENDBRANCH   1  25
TORSDOF 7
ENDMDL
