MODEL 1
REMARK minimizedAffinity -8.48676968
REMARK CNNscore 0.468163937
REMARK CNNaffinity 6.63976288
REMARK  10 active torsions:
REMARK  status: ('A' for Active; 'I' for Inactive)
REMARK    1  A    between atoms: C3_3  and  O1_4 
REMARK    2  A    between atoms: N1_14  and  O2_16 
REMARK    3  A    between atoms: O2_16  and  C13_17 
REMARK    4  A    between atoms: C13_17  and  C14_18 
REMARK       I    between atoms: C14_18  and  N2_20 
REMARK    5  A    between atoms: N2_20  and  C15_21 
REMARK    6  A    between atoms: C15_21  and  C16_22 
REMARK       I    between atoms: C16_22  and  N3_24 
REMARK    7  A    between atoms: N3_24  and  C17_25 
REMARK    8  A    between atoms: C17_25  and  C18_26 
REMARK    9  A    between atoms: C17_25  and  C19_29 
REMARK   10  A    between atoms: C18_26  and  O6_28 
ROOT
HETATM    1  C1  UNL     1       0.018  55.605 -26.986  1.00  0.00     0.015 C 
HETATM    2  C2  UNL     1      -0.262  54.437 -26.977  1.00  0.00    -0.078 C 
HETATM    3  C3  UNL     1      -0.611  53.007 -26.990  1.00  0.00     0.128 C 
HETATM    4  C4  UNL     1       0.592  52.124 -27.336  1.00  0.00     0.052 C 
HETATM    5  C5  UNL     1       0.089  50.729 -26.977  1.00  0.00     0.010 C 
HETATM    6  C6  UNL     1      -0.634  50.937 -25.640  1.00  0.00     0.002 C 
HETATM    7  C7  UNL     1      -1.671  49.862 -25.240  1.00  0.00    -0.004 C 
HETATM    8  C8  UNL     1      -2.607  49.352 -26.349  1.00  0.00     0.010 C 
HETATM    9  C9  UNL     1      -3.539  48.254 -25.839  1.00  0.00     0.035 C 
HETATM   10  C10 UNL     1      -4.270  48.606 -24.562  1.00  0.00    -0.069 C 
HETATM   11  C11 UNL     1      -5.578  48.318 -24.442  1.00  0.00     0.030 C 
HETATM   12  C12 UNL     1      -6.299  48.456 -23.150  1.00  0.00     0.032 C 
HETATM   13  N1  UNL     1      -7.561  48.128 -23.127  1.00  0.00    -0.271 N 
ATOM     14  H1  UNL     1      -8.095  47.844 -23.949  1.00  0.00     0.194 HD
HETATM   15  C22 UNL     1      -5.503  48.877 -21.931  1.00  0.00     0.060 C 
HETATM   16  C23 UNL     1      -4.358  49.804 -22.327  1.00  0.00     0.020 C 
HETATM   17  C24 UNL     1      -3.439  49.220 -23.439  1.00  0.00    -0.016 C 
HETATM   18  C25 UNL     1      -2.582  48.097 -22.795  1.00  0.00     0.020 C 
HETATM   19  C26 UNL     1      -2.493  50.347 -24.017  1.00  0.00     0.002 C 
HETATM   20  C27 UNL     1      -3.235  51.672 -24.338  1.00  0.00     0.007 C 
HETATM   21  C28 UNL     1      -2.643  52.532 -25.458  1.00  0.00     0.014 C 
HETATM   22  C29 UNL     1      -1.118  52.426 -25.620  1.00  0.00     0.003 C 
HETATM   23  C30 UNL     1      -0.444  53.134 -24.411  1.00  0.00     0.020 C 
ENDROOT
BRANCH   3  24
HETATM   24  O1  UNL     1      -1.584  52.794 -28.021  1.00  0.00    -0.377 OA
HETATM   25  H2  UNL     1      -1.352  53.386 -28.756  1.00  0.00     0.211 HD
ENDBRANCH   3  24
BRANCH  13  26
HETATM   26  O2  UNL     1      -8.094  48.214 -21.835  1.00  0.00    -0.271 OA
BRANCH  26  27
HETATM   27  C13 UNL     1      -8.739  46.982 -21.521  1.00  0.00     0.303 C 
BRANCH  27  28
HETATM   28  C14 UNL     1     -10.098  47.245 -20.882  1.00  0.00     0.244 C 
HETATM   29  O3  UNL     1     -10.234  47.915 -19.861  1.00  0.00    -0.271 OA
HETATM   30  N2  UNL     1     -11.168  46.739 -21.591  1.00  0.00    -0.350 N 
HETATM   31  H16 UNL     1     -10.950  45.979 -22.232  1.00  0.00     0.163 HD
BRANCH  30  32
HETATM   32  C15 UNL     1     -12.503  46.742 -21.029  1.00  0.00     0.225 C 
BRANCH  32  33
HETATM   33  C16 UNL     1     -13.517  47.134 -22.108  1.00  0.00     0.236 C 
HETATM   34  O4  UNL     1     -14.522  47.800 -21.860  1.00  0.00    -0.272 OA
HETATM   35  N3  UNL     1     -13.245  46.609 -23.356  1.00  0.00    -0.345 N 
HETATM   36  H19 UNL     1     -12.264  46.423 -23.540  1.00  0.00     0.163 HD
BRANCH  35  37
HETATM   37  C17 UNL     1     -14.005  47.051 -24.532  1.00  0.00     0.185 C 
BRANCH  37  38
HETATM   38  C18 UNL     1     -13.112  47.049 -25.783  1.00  0.00     0.163 C 
HETATM   39  O5  UNL     1     -13.179  47.827 -26.721  1.00  0.00    -0.648 OA
BRANCH  38  40
HETATM   40  O6  UNL     1     -12.234  46.021 -25.816  1.00  0.00    -0.775 OA
HETATM   41  H21 UNL     1     -11.728  46.164 -26.645  1.00  0.00     0.167 HD
ENDBRANCH  38  40
ENDBRANCH  37  38
BRANCH  37  42
HETATM   42  C19 UNL     1     -15.261  46.184 -24.765  1.00  0.00     0.010 C 
HETATM   43  C20 UNL     1     -16.572  46.915 -24.456  1.00  0.00     0.012 C 
HETATM   44  C21 UNL     1     -15.294  45.640 -26.197  1.00  0.00     0.012 C 
ENDBRANCH  37  42
ENDBRANCH  35  37
ENDBRANCH  32  33
ENDBRANCH  30  32
ENDBRANCH  27  28
ENDBRANCH  26  27
ENDBRANCH  13  26
TORSDOF 10
ENDMDL
