MODEL 1
REMARK minimizedAffinity -9.28592587
REMARK CNNscore 0.569231749
REMARK CNNaffinity 7.39837456
REMARK  7 active torsions:
REMARK  status: ('A' for Active; 'I' for Inactive)
REMARK    1  A    between atoms: C2_2  and  C30_32 
REMARK    2  A    between atoms: C3_3  and  C4_4 
REMARK    3  A    between atoms: C4_4  and  O1_5 
REMARK    4  A    between atoms: C4_4  and  C5_6 
REMARK    5  A    between atoms: C5_6  and  C6_7 
REMARK    6  A    between atoms: C6_7  and  C8_9 
REMARK    7  A    between atoms: C30_32  and  O4_34 
ROOT
HETATM    1  C8  UNL     1      -5.308   5.319  14.349  1.00  0.00    -0.002 C 
HETATM    2  C9  UNL     1      -4.802   6.281  15.465  1.00  0.00     0.007 C 
HETATM    3  C10 UNL     1      -5.955   7.239  15.814  1.00  0.00     0.015 C 
HETATM    4  C11 UNL     1      -7.197   6.615  15.148  1.00  0.00    -0.013 C 
HETATM    5  C12 UNL     1      -7.719   5.529  16.139  1.00  0.00     0.021 C 
HETATM    6  C13 UNL     1      -8.383   7.521  14.850  1.00  0.00    -0.070 C 
HETATM    7  C14 UNL     1      -8.612   8.684  15.485  1.00  0.00    -0.022 C 
HETATM    8  C15 UNL     1      -9.849   9.490  15.224  1.00  0.00     0.034 C 
HETATM    9  C16 UNL     1     -11.032   8.526  15.054  1.00  0.00     0.013 C 
HETATM   10  C17 UNL     1     -12.441   9.193  15.130  1.00  0.00     0.018 C 
HETATM   11  C18 UNL     1     -12.830   9.434  16.605  1.00  0.00     0.023 C 
HETATM   12  C19 UNL     1     -12.523  10.547  14.402  1.00  0.00     0.023 C 
HETATM   13  C20 UNL     1     -13.493   8.231  14.559  1.00  0.00     0.135 C 
HETATM   14  O2  UNL     1     -14.587   8.628  14.153  1.00  0.00    -0.297 OA
HETATM   15  C21 UNL     1     -13.190   6.748  14.606  1.00  0.00     0.080 C 
HETATM   16  C22 UNL     1     -11.795   6.361  14.102  1.00  0.00     0.017 C 
HETATM   17  C23 UNL     1     -10.829   7.547  13.842  1.00  0.00    -0.031 C 
HETATM   18  C24 UNL     1     -11.204   8.178  12.473  1.00  0.00     0.016 C 
HETATM   19  C25 UNL     1      -9.301   7.101  13.699  1.00  0.00     0.024 C 
HETATM   20  C26 UNL     1      -9.088   5.640  13.233  1.00  0.00     0.010 C 
HETATM   21  C27 UNL     1      -7.619   5.181  13.086  1.00  0.00     0.011 C 
HETATM   22  C28 UNL     1      -6.579   6.063  13.812  1.00  0.00    -0.029 C 
HETATM   23  C29 UNL     1      -6.113   7.189  12.834  1.00  0.00     0.016 C 
ENDROOT
BRANCH   1  24
HETATM   24  C6  UNL     1      -4.167   4.908  13.365  1.00  0.00    -0.011 C 
HETATM   25  C7  UNL     1      -3.276   6.098  12.996  1.00  0.00     0.010 C 
BRANCH  24  26
HETATM   26  C5  UNL     1      -4.772   4.275  12.076  1.00  0.00     0.040 C 
BRANCH  26  27
HETATM   27  C4  UNL     1      -4.825   2.736  12.067  1.00  0.00     0.142 C 
BRANCH  27  28
HETATM   28  C3  UNL     1      -3.460   2.151  11.840  1.00  0.00     0.018 C 
HETATM   29  C2  UNL     1      -2.509   2.568  10.977  1.00  0.00     0.010 C 
HETATM   30  C1  UNL     1      -2.604   3.734  10.041  1.00  0.00     0.055 C 
BRANCH  29  31
HETATM   31  C30 UNL     1      -1.247   1.783  10.970  1.00  0.00     0.171 C 
HETATM   32  O3  UNL     1      -0.133   2.192  11.249  1.00  0.00    -0.646 OA
BRANCH  31  33
HETATM   33  O4  UNL     1      -1.442   0.503  10.619  1.00  0.00    -0.773 OA
HETATM   34  H46 UNL     1      -0.543   0.115  10.655  1.00  0.00     0.167 HD
ENDBRANCH  31  33
ENDBRANCH  29  31
ENDBRANCH  27  28
BRANCH  27  35
HETATM   35  O1  UNL     1      -5.666   2.284  11.012  1.00  0.00    -0.392 OA
HETATM   36  H6  UNL     1      -5.283   2.590  10.172  1.00  0.00     0.210 HD
ENDBRANCH  27  35
ENDBRANCH  26  27
ENDBRANCH  24  26
ENDBRANCH   1  24
TORSDOF 7
ENDMDL
