MODEL 1
REMARK minimizedAffinity -8.92134094
REMARK CNNscore 0.690990746
REMARK CNNaffinity 7.29534292
REMARK  12 active torsions:
REMARK  status: ('A' for Active; 'I' for Inactive)
REMARK    1  A    between atoms: C12_13  and  O2_14 
REMARK    2  A    between atoms: C19_21  and  O3_22 
REMARK    3  A    between atoms: C19_21  and  C20_23 
REMARK    4  A    between atoms: C20_23  and  C21_25 
REMARK    5  A    between atoms: C21_25  and  O5_26 
REMARK    6  A    between atoms: O5_26  and  C22_27 
REMARK    7  A    between atoms: C22_27  and  C23_29 
REMARK    8  A    between atoms: C23_29  and  C24_30 
REMARK    9  A    between atoms: C24_30  and  C25_31 
REMARK       I    between atoms: C25_31  and  N1_33 
REMARK   10  A    between atoms: N1_33  and  C26_34 
REMARK   11  A    between atoms: C26_34  and  C27_35 
REMARK   12  A    between atoms: C27_35  and  C28_36 
ROOT
HETATM    1  C1  UNL     1       4.282   8.357   9.804  1.00  0.00     0.020 C 
HETATM    2  C2  UNL     1       3.390   7.092   9.707  1.00  0.00    -0.014 C 
HETATM    3  C3  UNL     1       4.377   5.890   9.688  1.00  0.00     0.022 C 
HETATM    4  C4  UNL     1       3.766   4.602   9.165  1.00  0.00     0.084 C 
HETATM    5  C5  UNL     1       3.213   4.827   7.782  1.00  0.00     0.149 C 
HETATM    6  O1  UNL     1       3.206   3.947   6.926  1.00  0.00    -0.293 OA
HETATM    7  C6  UNL     1       2.555   6.126   7.504  1.00  0.00     0.053 C 
HETATM    8  C7  UNL     1       2.586   7.127   8.400  1.00  0.00    -0.068 C 
HETATM    9  C8  UNL     1       1.674   8.317   8.242  1.00  0.00     0.035 C 
HETATM   10  C9  UNL     1       0.648   8.308   9.377  1.00  0.00     0.010 C 
HETATM   11  C10 UNL     1       1.288   8.190  10.778  1.00  0.00    -0.002 C 
HETATM   12  C11 UNL     1       2.310   6.997  10.849  1.00  0.00     0.031 C 
HETATM   13  C12 UNL     1       2.856   6.777  12.287  1.00  0.00     0.124 C 
HETATM   14  C13 UNL     1       1.750   6.740  13.364  1.00  0.00     0.045 C 
HETATM   15  C14 UNL     1       0.776   7.940  13.298  1.00  0.00     0.001 C 
HETATM   16  C15 UNL     1       1.496   9.254  13.707  1.00  0.00     0.019 C 
HETATM   17  C16 UNL     1       0.214   7.979  11.855  1.00  0.00     0.002 C 
HETATM   18  C17 UNL     1      -0.931   8.978  11.941  1.00  0.00     0.009 C 
HETATM   19  C18 UNL     1      -1.520   8.770  13.348  1.00  0.00     0.047 C 
HETATM   20  C19 UNL     1      -0.560   7.802  14.103  1.00  0.00     0.128 C 
ENDROOT
BRANCH  20  21
HETATM   21  O3  UNL     1      -1.123   6.495  13.932  1.00  0.00    -0.381 OA
HETATM   22  H27 UNL     1      -0.663   5.889  14.540  1.00  0.00     0.211 HD
ENDBRANCH  20  21
BRANCH  20  23
HETATM   23  C20 UNL     1      -0.464   8.157  15.614  1.00  0.00     0.185 C 
HETATM   24  O4  UNL     1       0.157   7.458  16.419  1.00  0.00    -0.292 OA
BRANCH  23  25
HETATM   25  C21 UNL     1      -1.246   9.369  16.111  1.00  0.00     0.260 C 
BRANCH  25  26
HETATM   26  O5  UNL     1      -0.821   9.777  17.413  1.00  0.00    -0.314 OA
BRANCH  26  27
HETATM   27  C22 UNL     1      -1.385  10.940  17.845  1.00  0.00     0.259 C 
HETATM   28  O6  UNL     1      -0.822  12.026  17.838  1.00  0.00    -0.265 OA
BRANCH  27  29
HETATM   29  C23 UNL     1      -2.743  10.707  18.467  1.00  0.00     0.120 C 
BRANCH  29  30
HETATM   30  C24 UNL     1      -3.892  11.433  17.776  1.00  0.00     0.112 C 
BRANCH  30  31
HETATM   31  C25 UNL     1      -4.115  10.934  16.364  1.00  0.00     0.218 C 
HETATM   32  O7  UNL     1      -3.907  11.619  15.371  1.00  0.00    -0.274 OA
HETATM   33  N1  UNL     1      -4.563   9.634  16.314  1.00  0.00    -0.361 N 
HETATM   34  H34 UNL     1      -4.772   9.142  17.173  1.00  0.00     0.162 HD
BRANCH  33  35
HETATM   35  C26 UNL     1      -4.869   8.978  15.054  1.00  0.00     0.127 C 
BRANCH  35  36
HETATM   36  C27 UNL     1      -4.993   7.459  15.204  1.00  0.00     0.060 C 
BRANCH  36  37
HETATM   37  C28 UNL     1      -6.183   6.920  14.476  1.00  0.00    -0.029 A 
HETATM   38  C29 UNL     1      -6.163   6.013  13.435  1.00  0.00     0.096 A 
HETATM   39  N2  UNL     1      -7.453   5.769  13.052  1.00  0.00    -0.365 N 
HETATM   40  C30 UNL     1      -8.326   6.496  13.827  1.00  0.00     0.042 A 
HETATM   41  H40 UNL     1      -7.732   5.140  12.312  1.00  0.00     0.165 HD
HETATM   42  C31 UNL     1      -9.724   6.554  13.797  1.00  0.00     0.030 A 
HETATM   43  C35 UNL     1      -7.558   7.235  14.726  1.00  0.00    -0.002 A 
HETATM   44  C32 UNL     1     -10.356   7.397  14.716  1.00  0.00     0.002 A 
HETATM   45  C33 UNL     1      -9.619   8.151  15.626  1.00  0.00     0.001 A 
HETATM   46  C34 UNL     1      -8.222   8.078  15.641  1.00  0.00     0.014 A 
ENDBRANCH  36  37
ENDBRANCH  35  36
ENDBRANCH  33  35
ENDBRANCH  30  31
ENDBRANCH  29  30
ENDBRANCH  27  29
ENDBRANCH  26  27
ENDBRANCH  25  26
ENDBRANCH  23  25
ENDBRANCH  20  23
BRANCH  13  47
HETATM   47  O2  UNL     1       3.818   7.762  12.631  1.00  0.00    -0.395 OA
HETATM   48  H16 UNL     1       4.239   7.494  13.467  1.00  0.00     0.210 HD
ENDBRANCH  13  47
TORSDOF 12
ENDMDL
