MODEL 1
REMARK minimizedAffinity -9.67708778
REMARK  9 active torsions:
REMARK  status: ('A' for Active; 'I' for Inactive)
REMARK    1  A    between atoms: C5_5  and  O1_6 
REMARK    2  A    between atoms: C8_9  and  C9_10 
REMARK    3  A    between atoms: C19_20  and  C20_21 
REMARK    4  A    between atoms: C20_21  and  C22_23 
REMARK    5  A    between atoms: C23_24  and  C24_25 
REMARK    6  A    between atoms: C24_25  and  O2_27 
REMARK    7  A    between atoms: C24_25  and  C26_28 
REMARK    8  A    between atoms: C26_28  and  C28_30 
REMARK    9  A    between atoms: C28_30  and  O3_31 
ROOT
HETATM    1  C9  UNL     1      -7.790   5.760  12.659  1.00  0.00     0.004 C 
HETATM    2  C10 UNL     1      -7.062   4.639  12.853  1.00  0.00    -0.075 C 
HETATM    3  C11 UNL     1      -7.591   3.325  13.368  1.00  0.00     0.034 C 
HETATM    4  C12 UNL     1      -7.228   2.192  12.415  1.00  0.00     0.005 C 
HETATM    5  C13 UNL     1      -5.714   2.074  12.273  1.00  0.00     0.010 C 
HETATM    6  C14 UNL     1      -5.027   3.376  11.775  1.00  0.00    -0.032 C 
HETATM    7  C15 UNL     1      -5.300   3.561  10.269  1.00  0.00     0.016 C 
HETATM    8  C16 UNL     1      -5.582   4.648  12.505  1.00  0.00     0.023 C 
HETATM    9  C17 UNL     1      -4.646   4.843  13.691  1.00  0.00     0.010 C 
HETATM   10  C18 UNL     1      -3.291   4.608  13.038  1.00  0.00     0.007 C 
HETATM   11  C19 UNL     1      -3.496   3.330  12.197  1.00  0.00     0.002 C 
ENDROOT
BRANCH  11  12
HETATM   12  C20 UNL     1      -2.430   3.092  11.090  1.00  0.00     0.009 C 
HETATM   13  C21 UNL     1      -1.909   1.646  11.132  1.00  0.00     0.014 C 
BRANCH  12  14
HETATM   14  C22 UNL     1      -1.302   4.115  11.160  1.00  0.00    -0.023 C 
HETATM   15  C23 UNL     1      -1.290   5.290  11.816  1.00  0.00     0.007 C 
BRANCH  15  16
HETATM   16  C24 UNL     1      -0.149   6.297  11.887  1.00  0.00     0.077 C 
HETATM   17  C25 UNL     1      -0.322   7.367  12.974  1.00  0.00     0.051 C 
BRANCH  16  18
HETATM   18  O2  UNL     1       0.999   5.532  12.301  1.00  0.00    -0.386 OA
HETATM   19  H37 UNL     1       1.134   4.819  11.657  1.00  0.00     0.211 HD
ENDBRANCH  16  18
BRANCH  16  20
HETATM   20  C26 UNL     1       0.146   6.878  10.466  1.00  0.00     0.043 C 
HETATM   21  C27 UNL     1       1.482   6.385   9.887  1.00  0.00     0.015 C 
BRANCH  20  22
HETATM   22  C28 UNL     1       0.059   8.411  10.375  1.00  0.00     0.171 C 
BRANCH  22  23
HETATM   23  O3  UNL     1      -0.035   8.858   9.031  1.00  0.00    -0.400 OA
HETATM   24  H44 UNL     1      -0.068   9.830   9.053  1.00  0.00     0.209 HD
ENDBRANCH  22  23
ENDBRANCH  20  22
ENDBRANCH  16  20
ENDBRANCH  15  16
ENDBRANCH  12  14
ENDBRANCH  11  12
BRANCH   1  25
HETATM   25  C8  UNL     1      -9.208   5.946  12.900  1.00  0.00     0.008 C 
HETATM   26  C7  UNL     1      -9.771   6.578  13.951  1.00  0.00    -0.050 C 
HETATM   27  C2  UNL     1      -9.056   7.173  15.074  1.00  0.00    -0.061 C 
HETATM   28  C6  UNL     1     -11.276   6.795  14.008  1.00  0.00     0.070 C 
HETATM   29  C1  UNL     1      -8.274   6.452  15.892  1.00  0.00     0.019 C 
HETATM   30  C3  UNL     1      -9.341   8.633  15.342  1.00  0.00     0.041 C 
HETATM   31  C4  UNL     1     -10.526   9.179  14.537  1.00  0.00     0.036 C 
HETATM   32  C5  UNL     1     -11.693   8.190  14.519  1.00  0.00     0.122 C 
BRANCH  32  33
HETATM   33  O1  UNL     1     -12.236   8.070  15.837  1.00  0.00    -0.395 OA
HETATM   34  H8  UNL     1     -12.513   8.957  16.123  1.00  0.00     0.210 HD
ENDBRANCH  32  33
ENDBRANCH   1  25
TORSDOF 9
ENDMDL
