MODEL 1
REMARK minimizedAffinity -6.50773048
REMARK CNNscore 0.364391595
REMARK CNNaffinity 6.60031652
REMARK  8 active torsions:
REMARK  status: ('A' for Active; 'I' for Inactive)
REMARK    1  A    between atoms: C3_3  and  C5_5 
REMARK       I    between atoms: C5_5  and  N1_7 
REMARK    2  A    between atoms: N1_7  and  C6_8 
REMARK    3  A    between atoms: C7_9  and  O2_10 
REMARK    4  A    between atoms: O2_10  and  C8_11 
REMARK    5  A    between atoms: C22_27  and  C23_28 
REMARK    6  A    between atoms: C23_28  and  N2_30 
REMARK    7  A    between atoms: C29_35  and  O5_36 
REMARK    8  A    between atoms: O5_36  and  C30_37 
ROOT
HETATM    1  C6  UNL     1       2.973  55.953  -9.461  1.00  0.00     0.144 C 
HETATM    2  C7  UNL     1       4.018  54.888  -9.047  1.00  0.00     0.162 C 
HETATM    3  C10 UNL     1       5.155  55.556  -8.244  1.00  0.00     0.026 C 
HETATM    4  C11 UNL     1       6.293  54.581  -7.909  1.00  0.00     0.008 C 
HETATM    5  C12 UNL     1       7.506  55.323  -7.351  1.00  0.00     0.006 C 
HETATM    6  C13 UNL     1       7.150  56.200  -6.144  1.00  0.00    -0.005 C 
HETATM    7  C14 UNL     1       5.957  57.161  -6.471  1.00  0.00    -0.001 C 
HETATM    8  C15 UNL     1       5.672  58.175  -5.326  1.00  0.00     0.007 C 
HETATM    9  C16 UNL     1       6.929  58.892  -4.787  1.00  0.00     0.013 C 
HETATM   10  C17 UNL     1       8.028  57.894  -4.416  1.00  0.00    -0.004 C 
HETATM   11  C18 UNL     1       7.578  57.019  -3.219  1.00  0.00     0.019 C 
HETATM   12  C19 UNL     1       8.332  57.063  -5.705  1.00  0.00     0.004 C 
HETATM   13  C20 UNL     1       9.709  56.440  -5.423  1.00  0.00     0.041 C 
HETATM   14  C21 UNL     1      10.419  57.550  -4.681  1.00  0.00     0.160 A 
HETATM   15  O4  UNL     1      10.227  58.857  -5.223  1.00  0.00    -0.366 OA
HETATM   16  C22 UNL     1       9.398  58.499  -4.095  1.00  0.00     0.125 A 
HETATM   17  C26 UNL     1       4.689  56.369  -6.987  1.00  0.00    -0.032 C 
HETATM   18  C27 UNL     1       4.134  55.476  -5.847  1.00  0.00     0.016 C 
HETATM   19  C28 UNL     1       3.582  57.371  -7.436  1.00  0.00     0.044 C 
HETATM   20  C29 UNL     1       2.434  56.772  -8.271  1.00  0.00     0.158 C 
ENDROOT
BRANCH   1  21
HETATM   21  N1  UNL     1       1.874  55.338 -10.208  1.00  0.00    -0.347 N 
HETATM   22  C5  UNL     1       0.992  54.479  -9.603  1.00  0.00     0.247 C 
HETATM   23  O1  UNL     1       1.165  54.030  -8.475  1.00  0.00    -0.268 OA
HETATM   24  H8  UNL     1       1.650  55.754 -11.100  1.00  0.00     0.163 HD
BRANCH  22  25
HETATM   25  C3  UNL     1      -0.213  54.132 -10.425  1.00  0.00     0.002 C 
HETATM   26  C2  UNL     1      -1.394  54.571  -9.948  1.00  0.00    -0.019 C 
HETATM   27  C1  UNL     1      -2.747  54.379 -10.552  1.00  0.00     0.036 C 
HETATM   28  C4  UNL     1      -0.010  53.410 -11.720  1.00  0.00     0.054 C 
ENDBRANCH  22  25
ENDBRANCH   1  21
BRANCH   2  29
HETATM   29  O2  UNL     1       3.368  53.855  -8.277  1.00  0.00    -0.314 OA
BRANCH  29  30
HETATM   30  C8  UNL     1       3.817  52.582  -8.426  1.00  0.00     0.255 C 
HETATM   31  C9  UNL     1       4.058  52.302  -9.877  1.00  0.00     0.126 C 
HETATM   32  O3  UNL     1       4.002  51.773  -7.530  1.00  0.00    -0.266 OA
ENDBRANCH  29  30
ENDBRANCH   2  29
BRANCH  20  33
HETATM   33  O5  UNL     1       1.575  55.935  -7.466  1.00  0.00    -0.314 OA
BRANCH  33  34
HETATM   34  C30 UNL     1       0.511  56.547  -6.880  1.00  0.00     0.255 C 
HETATM   35  C31 UNL     1       0.659  56.524  -5.389  1.00  0.00     0.126 C 
HETATM   36  O6  UNL     1      -0.419  57.078  -7.468  1.00  0.00    -0.266 OA
ENDBRANCH  33  34
ENDBRANCH  20  33
BRANCH  16  37
HETATM   37  C23 UNL     1       9.631  59.312  -2.835  1.00  0.00     0.253 C 
HETATM   38  C24 UNL     1       9.273  58.545  -1.557  1.00  0.00     0.046 C 
BRANCH  37  39
HETATM   39  N2  UNL     1       8.866  60.564  -2.950  1.00  0.00     0.086 N 
HETATM   40  C25 UNL     1       9.704  61.716  -3.248  1.00  0.00     0.307 C 
HETATM   41  H36 UNL     1       8.361  60.730  -2.080  1.00  0.00     0.316 HD
ENDBRANCH  37  39
ENDBRANCH  16  37
TORSDOF 8
ENDMDL
