MODEL 1
REMARK minimizedAffinity -6.3741827
REMARK CNNscore 0.808036208
REMARK CNNaffinity 6.95851898
REMARK  7 active torsions:
REMARK  status: ('A' for Active; 'I' for Inactive)
REMARK    1  A    between atoms: C2_2  and  C3_3 
REMARK    2  A    between atoms: C2_2  and  C9_10 
REMARK    3  A    between atoms: C3_3  and  C4_4 
REMARK    4  A    between atoms: C5_5  and  C6_6 
REMARK    5  A    between atoms: C6_6  and  O1_9 
REMARK    6  A    between atoms: C17_18  and  C18_19 
REMARK    7  A    between atoms: C18_19  and  O2_22 
ROOT
HETATM    1  C9  UNL     1     -13.831 -11.983  28.158  1.00  0.00    -0.002 C 
HETATM    2  C10 UNL     1     -15.372 -12.088  27.912  1.00  0.00     0.006 C 
HETATM    3  C11 UNL     1     -16.003 -10.745  28.336  1.00  0.00     0.011 C 
HETATM    4  C12 UNL     1     -14.880 -10.026  29.105  1.00  0.00    -0.032 C 
HETATM    5  C13 UNL     1     -14.897 -10.650  30.543  1.00  0.00     0.016 C 
HETATM    6  C14 UNL     1     -14.987  -8.476  29.156  1.00  0.00     0.003 C 
HETATM    7  C15 UNL     1     -16.325  -7.938  29.693  1.00  0.00     0.009 C 
HETATM    8  C16 UNL     1     -16.266  -6.505  30.212  1.00  0.00     0.042 C 
HETATM    9  C17 UNL     1     -15.267  -5.550  29.507  1.00  0.00     0.095 C 
HETATM   10  O3  UNL     1     -15.168  -4.355  30.325  1.00  0.00    -0.377 OA
HETATM   11  C21 UNL     1     -14.325  -4.458  31.462  1.00  0.00     0.169 C 
HETATM   12  C22 UNL     1     -12.875  -4.562  31.042  1.00  0.00     0.027 C 
HETATM   13  C23 UNL     1     -12.684  -5.306  29.728  1.00  0.00     0.010 C 
HETATM   14  C24 UNL     1     -13.846  -6.227  29.298  1.00  0.00     0.032 C 
HETATM   15  C25 UNL     1     -13.721  -7.754  29.747  1.00  0.00    -0.033 C 
HETATM   16  C26 UNL     1     -13.576  -7.897  31.278  1.00  0.00     0.016 C 
HETATM   17  C27 UNL     1     -12.407  -8.364  29.126  1.00  0.00     0.011 C 
HETATM   18  C28 UNL     1     -12.363  -9.901  28.947  1.00  0.00     0.011 C 
HETATM   19  C29 UNL     1     -13.622 -10.437  28.239  1.00  0.00    -0.032 C 
HETATM   20  C30 UNL     1     -13.614  -9.870  26.780  1.00  0.00     0.016 C 
ENDROOT
BRANCH   1  21
HETATM   21  C2  UNL     1     -13.019 -12.827  27.134  1.00  0.00    -0.010 C 
HETATM   22  C1  UNL     1     -13.564 -12.709  25.706  1.00  0.00     0.010 C 
BRANCH  21  23
HETATM   23  C3  UNL     1     -11.503 -12.486  27.149  1.00  0.00     0.031 C 
BRANCH  23  24
HETATM   24  C4  UNL     1     -10.830 -12.529  25.802  1.00  0.00    -0.027 C 
HETATM   25  C5  UNL     1      -9.496 -12.593  25.643  1.00  0.00     0.006 C 
BRANCH  25  26
HETATM   26  C6  UNL     1      -8.718 -12.612  24.351  1.00  0.00     0.068 C 
HETATM   27  C7  UNL     1      -7.733 -13.777  24.206  1.00  0.00     0.050 C 
HETATM   28  C8  UNL     1      -7.993 -11.277  24.161  1.00  0.00     0.050 C 
BRANCH  26  29
HETATM   29  O1  UNL     1      -9.699 -12.733  23.315  1.00  0.00    -0.387 OA
HETATM   30  H15 UNL     1      -9.228 -12.814  22.471  1.00  0.00     0.211 HD
ENDBRANCH  26  29
ENDBRANCH  25  26
ENDBRANCH  23  24
ENDBRANCH  21  23
ENDBRANCH   1  21
BRANCH   9  31
HETATM   31  C18 UNL     1     -15.869  -5.024  28.115  1.00  0.00     0.082 C 
HETATM   32  C19 UNL     1     -15.979  -3.485  28.074  1.00  0.00     0.049 C 
HETATM   33  C20 UNL     1     -17.276  -5.586  27.822  1.00  0.00     0.049 C 
BRANCH  31  34
HETATM   34  O2  UNL     1     -15.028  -5.413  27.021  1.00  0.00    -0.388 OA
HETATM   35  H35 UNL     1     -15.436  -5.089  26.201  1.00  0.00     0.210 HD
ENDBRANCH  31  34
ENDBRANCH   9  31
TORSDOF 7
ENDMDL
