MODEL 1
REMARK minimizedAffinity -7.74657154
REMARK CNNscore 0.541946292
REMARK CNNaffinity 7.08372259
REMARK  16 active torsions:
REMARK  status: ('A' for Active; 'I' for Inactive)
REMARK    1  A    between atoms: C2_2  and  C3_3 
REMARK    2  A    between atoms: C2_2  and  C4_5 
REMARK    3  A    between atoms: C12_13  and  O2_14 
REMARK    4  A    between atoms: O2_14  and  C13_15 
REMARK    5  A    between atoms: C13_15  and  C14_17 
REMARK    6  A    between atoms: C14_17  and  C16_19 
REMARK    7  A    between atoms: C16_19  and  O4_20 
REMARK    8  A    between atoms: C16_19  and  C17_21 
REMARK    9  A    between atoms: C19_23  and  C20_24 
REMARK   10  A    between atoms: C20_24  and  C21_25 
REMARK   11  A    between atoms: C20_24  and  C22_27 
REMARK   12  A    between atoms: C21_25  and  O5_26 
REMARK   13  A    between atoms: C22_27  and  C23_28 
REMARK   14  A    between atoms: C23_28  and  C24_29 
REMARK   15  A    between atoms: C24_29  and  C25_30 
REMARK   16  A    between atoms: C25_30  and  C26_31 
ROOT
HETATM    1  C13 UNL     1      -1.351   8.926  12.766  1.00  0.00     0.266 C 
HETATM    2  O3  UNL     1      -1.600  10.091  13.047  1.00  0.00    -0.265 OA
ENDROOT
BRANCH   1   3
HETATM    3  O2  UNL     1      -0.105   8.440  12.505  1.00  0.00    -0.312 OA
BRANCH   3   4
HETATM    4  C12 UNL     1       0.437   8.768  11.210  1.00  0.00     0.170 C 
HETATM    5  C11 UNL     1      -0.429   8.104  10.142  1.00  0.00     0.036 C 
HETATM    6  C10 UNL     1       0.164   8.171   8.736  1.00  0.00     0.007 C 
HETATM    7  C8  UNL     1       1.708   8.215   8.677  1.00  0.00    -0.007 C 
HETATM    8  C6  UNL     1       2.380   7.547   9.919  1.00  0.00    -0.003 C 
HETATM    9  C9  UNL     1       2.176   7.676   7.322  1.00  0.00     0.011 C 
HETATM   10  C5  UNL     1       3.936   7.681   9.846  1.00  0.00     0.030 C 
HETATM   11  C7  UNL     1       2.034   6.042  10.019  1.00  0.00     0.019 C 
HETATM   12  C28 UNL     1       1.887   8.304  11.163  1.00  0.00     0.129 A 
HETATM   13  C4  UNL     1       4.668   7.125  11.091  1.00  0.00     0.094 C 
HETATM   14  C30 UNL     1       4.038   7.525  12.427  1.00  0.00     0.167 C 
HETATM   15  C29 UNL     1       2.755   8.266  12.410  1.00  0.00     0.230 A 
HETATM   16  O7  UNL     1       4.516   7.192  13.507  1.00  0.00    -0.294 OA
HETATM   17  O6  UNL     1       2.755   9.403  11.549  1.00  0.00    -0.358 OA
BRANCH  13  18
HETATM   18  C2  UNL     1       6.151   7.432  11.142  1.00  0.00    -0.018 C 
HETATM   19  C1  UNL     1       7.164   6.549  11.161  1.00  0.00     0.022 C 
BRANCH  18  20
HETATM   20  C3  UNL     1       6.520   8.883  11.196  1.00  0.00     0.265 C 
HETATM   21  O1  UNL     1       7.301   9.411  10.412  1.00  0.00    -0.302 OA
ENDBRANCH  18  20
ENDBRANCH  13  18
ENDBRANCH   3   4
ENDBRANCH   1   3
BRANCH   1  22
HETATM   22  C14 UNL     1      -2.397   7.830  12.732  1.00  0.00     0.114 C 
HETATM   23  C15 UNL     1      -3.781   8.464  12.872  1.00  0.00     0.023 C 
BRANCH  22  24
HETATM   24  C16 UNL     1      -2.096   6.771  13.805  1.00  0.00     0.159 C 
BRANCH  24  25
HETATM   25  O4  UNL     1      -0.780   6.256  13.603  1.00  0.00    -0.390 OA
HETATM   26  H24 UNL     1      -0.681   5.487  14.192  1.00  0.00     0.210 HD
ENDBRANCH  24  25
BRANCH  24  27
HETATM   27  C17 UNL     1      -3.050   5.581  13.811  1.00  0.00    -0.058 C 
HETATM   28  C18 UNL     1      -4.031   5.529  14.956  1.00  0.00     0.046 C 
HETATM   29  C19 UNL     1      -3.012   4.676  12.809  1.00  0.00    -0.015 C 
BRANCH  29  30
HETATM   30  C20 UNL     1      -3.895   3.452  12.637  1.00  0.00     0.032 C 
BRANCH  30  31
HETATM   31  C21 UNL     1      -3.166   2.337  11.860  1.00  0.00     0.172 C 
BRANCH  31  32
HETATM   32  O5  UNL     1      -4.077   1.325  11.441  1.00  0.00    -0.400 OA
HETATM   33  H32 UNL     1      -4.603   1.057  12.212  1.00  0.00     0.209 HD
ENDBRANCH  31  32
ENDBRANCH  30  31
BRANCH  30  34
HETATM   34  C22 UNL     1      -5.263   3.798  12.006  1.00  0.00     0.010 C 
BRANCH  34  35
HETATM   35  C23 UNL     1      -6.532   3.571  12.844  1.00  0.00     0.001 C 
BRANCH  35  36
HETATM   36  C24 UNL     1      -7.686   4.524  12.524  1.00  0.00     0.000 C 
BRANCH  36  37
HETATM   37  C25 UNL     1      -8.089   5.415  13.706  1.00  0.00    -0.000 C 
BRANCH  37  38
HETATM   38  C26 UNL     1      -9.289   6.330  13.451  1.00  0.00    -0.005 C 
HETATM   39  C27 UNL     1      -9.750   7.123  14.661  1.00  0.00     0.005 C 
ENDBRANCH  37  38
ENDBRANCH  36  37
ENDBRANCH  35  36
ENDBRANCH  34  35
ENDBRANCH  30  34
ENDBRANCH  29  30
ENDBRANCH  24  27
ENDBRANCH  22  24
ENDBRANCH   1  22
TORSDOF 16
ENDMDL
