MODEL 1
REMARK minimizedAffinity -8.39173603
REMARK CNNscore 0.483871222
REMARK CNNaffinity 7.45403099
REMARK  9 active torsions:
REMARK  status: ('A' for Active; 'I' for Inactive)
REMARK    1  A    between atoms: O1_2  and  C2_3 
REMARK    2  A    between atoms: C2_3  and  C3_4 
REMARK    3  A    between atoms: C3_4  and  N1_5 
REMARK       I    between atoms: N1_5  and  C4_6 
REMARK    4  A    between atoms: C4_6  and  C5_8 
REMARK    5  A    between atoms: C5_8  and  C7_10 
REMARK    6  A    between atoms: C15_20  and  C16_21 
REMARK    7  A    between atoms: C16_21  and  O3_22 
REMARK    8  A    between atoms: O3_22  and  C17_23 
REMARK    9  A    between atoms: C26_34  and  O4_35 
ROOT
HETATM    1  C7  UNL     1      -1.681  51.097 -23.684  1.00  0.00     0.027 C 
HETATM    2  C8  UNL     1      -2.602  50.069 -23.014  1.00  0.00     0.009 C 
HETATM    3  C9  UNL     1      -1.967  49.466 -21.766  1.00  0.00     0.010 C 
HETATM    4  C10 UNL     1      -1.546  50.522 -20.721  1.00  0.00    -0.033 C 
HETATM    5  C11 UNL     1      -2.817  51.197 -20.144  1.00  0.00     0.016 C 
HETATM    6  C12 UNL     1      -0.804  49.770 -19.571  1.00  0.00     0.058 C 
HETATM    7  C13 UNL     1      -0.125  50.744 -18.677  1.00  0.00     0.008 A 
HETATM    8  C14 UNL     1       0.222  52.031 -19.017  1.00  0.00     0.027 A 
HETATM    9  N2  UNL     1       0.794  52.764 -17.995  1.00  0.00    -0.354 N 
ATOM     10  H2  UNL     1       1.061  53.746 -18.056  1.00  0.00     0.166 HD
HETATM   11  C15 UNL     1       0.942  52.002 -16.926  1.00  0.00     0.076 A 
HETATM   12  S1  UNL     1       0.322  50.401 -17.073  1.00  0.00    -0.077 SA
HETATM   13  C23 UNL     1      -0.050  52.652 -20.370  1.00  0.00     0.040 C 
HETATM   14  C24 UNL     1       1.207  53.389 -20.855  1.00  0.00     0.017 C 
HETATM   15  C25 UNL     1      -0.570  51.563 -21.394  1.00  0.00     0.033 C 
HETATM   16  C26 UNL     1      -1.207  52.177 -22.674  1.00  0.00     0.128 C 
ENDROOT
BRANCH   1  17
HETATM   17  C5  UNL     1      -2.286  51.711 -24.982  1.00  0.00     0.080 C 
HETATM   18  C6  UNL     1      -3.625  51.111 -25.416  1.00  0.00     0.020 C 
BRANCH  17  19
HETATM   19  C4  UNL     1      -1.254  51.752 -26.113  1.00  0.00     0.222 C 
HETATM   20  N1  UNL     1      -0.828  52.996 -26.509  1.00  0.00    -0.359 N 
HETATM   21  H8  UNL     1      -1.056  53.818 -25.969  1.00  0.00     0.162 HD
HETATM   22  O2  UNL     1      -0.880  50.722 -26.671  1.00  0.00    -0.273 OA
BRANCH  20  23
HETATM   23  C3  UNL     1       0.093  53.168 -27.621  1.00  0.00     0.148 C 
BRANCH  23  24
HETATM   24  C2  UNL     1       0.625  51.849 -28.187  1.00  0.00     0.186 C 
BRANCH  24  25
HETATM   25  O1  UNL     1       2.057  51.814 -28.129  1.00  0.00    -0.394 OA
HETATM   26  C1  UNL     1       2.544  51.580 -26.815  1.00  0.00     0.201 C 
ENDBRANCH  24  25
ENDBRANCH  23  24
ENDBRANCH  20  23
ENDBRANCH  17  19
ENDBRANCH   1  17
BRANCH  16  27
HETATM   27  O4  UNL     1      -0.241  52.991 -23.327  1.00  0.00    -0.395 OA
HETATM   28  H35 UNL     1      -0.704  53.652 -23.870  1.00  0.00     0.210 HD
ENDBRANCH  16  27
BRANCH  11  29
HETATM   29  C16 UNL     1       1.574  52.458 -15.646  1.00  0.00     0.240 C 
BRANCH  29  30
HETATM   30  O3  UNL     1       2.733  51.665 -15.361  1.00  0.00    -0.345 OA
BRANCH  30  31
HETATM   31  C17 UNL     1       2.825  51.042 -14.146  1.00  0.00     0.070 A 
HETATM   32  C18 UNL     1       2.856  49.665 -13.921  1.00  0.00     0.037 A 
HETATM   33  C19 UNL     1       2.947  49.167 -12.616  1.00  0.00     0.004 A 
HETATM   34  C20 UNL     1       3.000  50.042 -11.532  1.00  0.00     0.024 A 
HETATM   35  C21 UNL     1       2.960  51.415 -11.757  1.00  0.00     0.036 A 
HETATM   36 CL1  UNL     1       3.020  52.501 -10.422  1.00  0.00    -0.084 Cl
HETATM   37  C22 UNL     1       2.871  51.915 -13.054  1.00  0.00     0.060 A 
ENDBRANCH  30  31
ENDBRANCH  29  30
ENDBRANCH  11  29
TORSDOF 9
ENDMDL
