MODEL 1
REMARK minimizedAffinity -8.17522812
REMARK CNNscore 0.883197129
REMARK CNNaffinity 6.5345521
REMARK  12 active torsions:
REMARK  status: ('A' for Active; 'I' for Inactive)
REMARK    1  A    between atoms: C2_2  and  C3_3 
REMARK    2  A    between atoms: C2_2  and  C9_11 
REMARK    3  A    between atoms: C4_4  and  C5_5 
REMARK    4  A    between atoms: C5_5  and  C6_6 
REMARK    5  A    between atoms: C6_6  and  O1_8 
REMARK    6  A    between atoms: C6_6  and  C8_9 
REMARK    7  A    between atoms: C8_9  and  O2_10 
REMARK    8  A    between atoms: C10_12  and  O3_13 
REMARK    9  A    between atoms: C11_14  and  O4_15 
REMARK   10  A    between atoms: C22_26  and  O5_27 
REMARK   11  A    between atoms: C25_30  and  O6_31 
REMARK   12  A    between atoms: C27_33  and  O7_34 
ROOT
HETATM    1  C9  UNL     1     -12.612 -11.745  26.129  1.00  0.00     0.033 C 
HETATM    2  C10 UNL     1     -13.485 -11.273  24.918  1.00  0.00     0.152 C 
HETATM    3  C11 UNL     1     -14.146  -9.936  25.342  1.00  0.00     0.155 C 
HETATM    4  C12 UNL     1     -13.438  -9.575  26.643  1.00  0.00     0.060 C 
HETATM    5  C13 UNL     1     -13.232 -10.960  27.335  1.00  0.00    -0.028 C 
HETATM    6  C14 UNL     1     -14.522 -11.664  27.823  1.00  0.00     0.016 C 
HETATM    7  C15 UNL     1     -12.294 -10.725  28.535  1.00  0.00     0.011 C 
HETATM    8  C16 UNL     1     -12.815  -9.631  29.485  1.00  0.00     0.009 C 
HETATM    9  C17 UNL     1     -13.078  -8.288  28.761  1.00  0.00     0.029 C 
HETATM   10  C18 UNL     1     -13.441  -7.097  29.733  1.00  0.00    -0.031 C 
HETATM   11  C19 UNL     1     -14.649  -7.452  30.636  1.00  0.00     0.016 C 
HETATM   12  C20 UNL     1     -12.227  -6.815  30.692  1.00  0.00     0.012 C 
HETATM   13  C21 UNL     1     -11.848  -5.336  30.858  1.00  0.00     0.032 C 
HETATM   14  C22 UNL     1     -13.044  -4.394  30.907  1.00  0.00     0.118 C 
HETATM   15  C23 UNL     1     -14.010  -4.583  29.730  1.00  0.00     0.039 C 
HETATM   16  C24 UNL     1     -13.678  -5.817  28.868  1.00  0.00     0.025 C 
HETATM   17  C25 UNL     1     -14.668  -6.002  27.704  1.00  0.00     0.126 C 
HETATM   18  C26 UNL     1     -14.215  -7.142  26.786  1.00  0.00     0.071 C 
HETATM   19  C27 UNL     1     -14.049  -8.475  27.544  1.00  0.00     0.071 C 
ENDROOT
BRANCH   1  20
HETATM   20  C2  UNL     1     -12.423 -13.285  26.219  1.00  0.00     0.011 C 
HETATM   21  C1  UNL     1     -12.357 -13.811  27.658  1.00  0.00     0.015 C 
BRANCH  20  22
HETATM   22  C3  UNL     1     -11.199 -13.710  25.417  1.00  0.00    -0.026 C 
HETATM   23  C4  UNL     1     -10.158 -12.939  25.060  1.00  0.00    -0.027 C 
BRANCH  23  24
HETATM   24  C5  UNL     1      -8.978 -13.439  24.263  1.00  0.00     0.066 C 
BRANCH  24  25
HETATM   25  C6  UNL     1      -8.535 -12.496  23.116  1.00  0.00     0.078 C 
HETATM   26  C7  UNL     1      -9.675 -11.610  22.607  1.00  0.00     0.048 C 
BRANCH  25  27
HETATM   27  O1  UNL     1      -8.032 -13.285  22.018  1.00  0.00    -0.388 OA
HETATM   28  H12 UNL     1      -8.792 -13.756  21.633  1.00  0.00     0.210 HD
ENDBRANCH  25  27
BRANCH  25  29
HETATM   29  C8  UNL     1      -7.363 -11.607  23.583  1.00  0.00     0.201 C 
BRANCH  29  30
HETATM   30  O2  UNL     1      -6.736 -10.983  22.462  1.00  0.00    -0.398 OA
HETATM   31  H15 UNL     1      -7.479 -10.651  21.918  1.00  0.00     0.209 HD
ENDBRANCH  29  30
ENDBRANCH  25  29
ENDBRANCH  24  25
ENDBRANCH  23  24
ENDBRANCH  20  22
ENDBRANCH   1  20
BRANCH   2  32
HETATM   32  O3  UNL     1     -14.496 -12.220  24.577  1.00  0.00    -0.393 OA
HETATM   33  H18 UNL     1     -15.027 -11.841  23.856  1.00  0.00     0.210 HD
ENDBRANCH   2  32
BRANCH   3  34
HETATM   34  O4  UNL     1     -13.918  -8.939  24.346  1.00  0.00    -0.392 OA
HETATM   35  H20 UNL     1     -14.450  -9.181  23.569  1.00  0.00     0.210 HD
ENDBRANCH   3  34
BRANCH  19  36
HETATM   36  O7  UNL     1     -15.339  -8.911  27.965  1.00  0.00    -0.389 OA
HETATM   37  H46 UNL     1     -15.890  -8.111  28.107  1.00  0.00     0.210 HD
ENDBRANCH  19  36
BRANCH  17  38
HETATM   38  O6  UNL     1     -15.991  -6.285  28.151  1.00  0.00    -0.395 OA
HETATM   39  H43 UNL     1     -16.313  -5.509  28.645  1.00  0.00     0.210 HD
ENDBRANCH  17  38
BRANCH  14  40
HETATM   40  O5  UNL     1     -13.760  -4.583  32.125  1.00  0.00    -0.396 OA
HETATM   41  H38 UNL     1     -13.131  -4.480  32.859  1.00  0.00     0.210 HD
ENDBRANCH  14  40
TORSDOF 12
ENDMDL
