MODEL 1
REMARK minimizedAffinity -9.53938198
REMARK  9 active torsions:
REMARK  status: ('A' for Active; 'I' for Inactive)
REMARK    1  A    between atoms: C2_2  and  C3_3 
REMARK    2  A    between atoms: C2_2  and  C27_31 
REMARK    3  A    between atoms: C3_3  and  C4_4 
REMARK    4  A    between atoms: C4_4  and  C5_5 
REMARK    5  A    between atoms: C5_5  and  C7_7 
REMARK    6  A    between atoms: C22_24  and  O3_26 
REMARK    7  A    between atoms: C26_29  and  O4_30 
REMARK    8  A    between atoms: C27_31  and  C29_33 
REMARK    9  A    between atoms: C29_33  and  O6_35 
ROOT
HETATM    1  C7  UNL     1      -1.167  50.612 -22.319  1.00  0.00    -0.002 C 
HETATM    2  C8  UNL     1      -1.271  51.096 -20.853  1.00  0.00     0.006 C 
HETATM    3  C9  UNL     1      -2.745  51.038 -20.463  1.00  0.00     0.010 C 
HETATM    4  C10 UNL     1      -3.467  50.312 -21.605  1.00  0.00     0.027 C 
HETATM    5  C11 UNL     1      -4.604  49.431 -21.130  1.00  0.00    -0.036 C 
HETATM    6  C12 UNL     1      -4.542  48.081 -21.056  1.00  0.00     0.002 C 
HETATM    7  C13 UNL     1      -3.196  47.430 -21.292  1.00  0.00     0.157 C 
HETATM    8  O1  UNL     1      -3.032  46.223 -21.112  1.00  0.00    -0.293 OA
HETATM    9  C14 UNL     1      -1.996  48.279 -21.655  1.00  0.00     0.093 C 
HETATM   10  C15 UNL     1      -2.360  49.583 -22.391  1.00  0.00    -0.026 C 
HETATM   11  C16 UNL     1      -2.838  49.216 -23.806  1.00  0.00     0.016 C 
HETATM   12  C17 UNL     1      -5.764  47.178 -20.720  1.00  0.00    -0.006 C 
HETATM   13  C18 UNL     1      -5.907  46.113 -21.842  1.00  0.00     0.021 C 
HETATM   14  C19 UNL     1      -5.513  46.496 -19.344  1.00  0.00     0.022 C 
HETATM   15  C20 UNL     1      -6.703  45.722 -18.795  1.00  0.00     0.083 C 
HETATM   16  C21 UNL     1      -7.892  46.640 -18.707  1.00  0.00     0.161 C 
HETATM   17  O2  UNL     1      -8.449  46.865 -17.632  1.00  0.00    -0.295 OA
HETATM   18  C22 UNL     1      -8.332  47.273 -20.034  1.00  0.00     0.119 C 
HETATM   19  C23 UNL     1      -9.571  48.152 -19.817  1.00  0.00     0.055 C 
HETATM   20  C24 UNL     1      -7.118  48.024 -20.669  1.00  0.00     0.043 C 
HETATM   21  C25 UNL     1      -6.864  49.381 -19.986  1.00  0.00     0.045 C 
HETATM   22  C26 UNL     1      -5.842  50.199 -20.763  1.00  0.00     0.148 C 
ENDROOT
BRANCH   1  23
HETATM   23  C5  UNL     1      -1.190  51.771 -23.379  1.00  0.00    -0.014 C 
HETATM   24  C6  UNL     1      -2.628  52.257 -23.652  1.00  0.00     0.010 C 
BRANCH  23  25
HETATM   25  C4  UNL     1      -0.533  51.449 -24.748  1.00  0.00     0.009 C 
BRANCH  25  26
HETATM   26  C3  UNL     1       0.707  52.290 -25.085  1.00  0.00     0.034 C 
BRANCH  26  27
HETATM   27  C2  UNL     1       1.209  52.039 -26.501  1.00  0.00    -0.075 C 
HETATM   28  C1  UNL     1       2.451  51.555 -26.685  1.00  0.00     0.015 C 
BRANCH  27  29
HETATM   29  C27 UNL     1       0.229  52.354 -27.632  1.00  0.00     0.107 C 
HETATM   30  C28 UNL     1      -0.966  51.407 -27.760  1.00  0.00     0.026 C 
BRANCH  29  31
HETATM   31  C29 UNL     1      -0.310  53.777 -27.502  1.00  0.00     0.147 C 
HETATM   32  O5  UNL     1       0.177  54.713 -26.889  1.00  0.00    -0.650 OA
BRANCH  31  33
HETATM   33  O6  UNL     1      -1.477  53.944 -28.162  1.00  0.00    -0.776 OA
HETATM   34  H42 UNL     1      -1.704  54.885 -28.000  1.00  0.00     0.167 HD
ENDBRANCH  31  33
ENDBRANCH  29  31
ENDBRANCH  27  29
ENDBRANCH  26  27
ENDBRANCH  25  26
ENDBRANCH  23  25
ENDBRANCH   1  23
BRANCH  22  35
HETATM   35  O4  UNL     1      -6.426  50.662 -21.977  1.00  0.00    -0.391 OA
HETATM   36  H37 UNL     1      -7.128  51.292 -21.744  1.00  0.00     0.210 HD
ENDBRANCH  22  35
BRANCH  18  37
HETATM   37  O3  UNL     1      -8.746  46.215 -20.903  1.00  0.00    -0.382 OA
HETATM   38  H32 UNL     1      -9.242  46.604 -21.645  1.00  0.00     0.211 HD
ENDBRANCH  18  37
TORSDOF 9
ENDMDL
