MODEL 1
REMARK minimizedAffinity -8.90847969
REMARK  4 active torsions:
REMARK  status: ('A' for Active; 'I' for Inactive)
REMARK    1  A    between atoms: C10_11  and  O2_12 
REMARK    2  A    between atoms: C14_16  and  C15_17 
REMARK    3  A    between atoms: C15_17  and  O3_18 
REMARK    4  A    between atoms: C16_20  and  O5_21 
ROOT
HETATM    1  C1  UNL     1       9.242  63.019 -33.795  1.00  0.00     0.023 C 
HETATM    2  C2  UNL     1       8.382  62.682 -35.020  1.00  0.00     0.018 C 
HETATM    3  C3  UNL     1       9.289  61.986 -36.059  1.00  0.00     0.023 C 
HETATM    4  C4  UNL     1       7.303  61.662 -34.602  1.00  0.00     0.135 C 
HETATM    5  O1  UNL     1       7.572  60.481 -34.375  1.00  0.00    -0.297 OA
HETATM    6  C5  UNL     1       5.875  62.158 -34.489  1.00  0.00     0.080 C 
HETATM    7  C6  UNL     1       5.893  63.548 -33.878  1.00  0.00     0.022 C 
HETATM    8  C7  UNL     1       6.546  64.614 -34.807  1.00  0.00    -0.007 C 
HETATM    9  C8  UNL     1       7.048  65.738 -33.860  1.00  0.00     0.021 C 
HETATM   10  C9  UNL     1       5.663  65.310 -35.873  1.00  0.00     0.003 A 
HETATM   11  C10 UNL     1       4.261  65.311 -35.891  1.00  0.00     0.107 A 
HETATM   12  C11 UNL     1       3.584  65.964 -36.913  1.00  0.00     0.112 A 
HETATM   13  C12 UNL     1       4.229  66.633 -37.932  1.00  0.00     0.015 A 
HETATM   14  C13 UNL     1       3.224  67.245 -38.830  1.00  0.00     0.079 C 
HETATM   15  C14 UNL     1       1.968  66.506 -38.340  1.00  0.00     0.157 C 
HETATM   16  O4  UNL     1       2.211  66.004 -37.000  1.00  0.00    -0.340 OA
HETATM   17  C16 UNL     1       5.608  66.672 -37.955  1.00  0.00     0.089 A 
HETATM   18  C17 UNL     1       6.328  66.025 -36.931  1.00  0.00     0.053 A 
HETATM   19  C18 UNL     1       7.826  66.096 -36.926  1.00  0.00     0.163 C 
HETATM   20  O6  UNL     1       8.430  67.061 -37.386  1.00  0.00    -0.292 OA
HETATM   21  C19 UNL     1       8.597  64.960 -36.283  1.00  0.00     0.091 C 
HETATM   22  C20 UNL     1       7.666  63.911 -35.669  1.00  0.00     0.021 C 
ENDROOT
BRANCH  15  23
HETATM   23  C15 UNL     1       0.729  67.399 -38.339  1.00  0.00     0.196 C 
BRANCH  23  24
HETATM   24  O3  UNL     1       0.026  67.298 -37.107  1.00  0.00    -0.398 OA
HETATM   25  H20 UNL     1       0.489  67.855 -36.457  1.00  0.00     0.209 HD
ENDBRANCH  23  24
ENDBRANCH  15  23
BRANCH  17  26
HETATM   26  O5  UNL     1       6.249  67.289 -38.987  1.00  0.00    -0.359 OA
HETATM   27  H21 UNL     1       5.659  67.929 -39.414  1.00  0.00     0.217 HD
ENDBRANCH  17  26
BRANCH  11  28
HETATM   28  O2  UNL     1       3.507  64.687 -34.946  1.00  0.00    -0.357 OA
HETATM   29  H14 UNL     1       2.573  64.862 -35.173  1.00  0.00     0.217 HD
ENDBRANCH  11  28
TORSDOF 4
ENDMDL
