MODEL 1
REMARK minimizedAffinity -9.84506035
REMARK CNNscore 0.726059079
REMARK CNNaffinity 8.00160122
REMARK  9 active torsions:
REMARK  status: ('A' for Active; 'I' for Inactive)
REMARK    1  A    between atoms: C3_3  and  O1_4 
REMARK    2  A    between atoms: N1_14  and  O2_16 
REMARK    3  A    between atoms: O2_16  and  C13_17 
REMARK    4  A    between atoms: C13_17  and  C14_18 
REMARK       I    between atoms: C14_18  and  N2_20 
REMARK    5  A    between atoms: N2_20  and  C15_21 
REMARK    6  A    between atoms: C15_21  and  C16_22 
REMARK    7  A    between atoms: C15_21  and  C18_26 
REMARK    8  A    between atoms: C16_22  and  C17_23 
REMARK    9  A    between atoms: C17_23  and  O5_25 
ROOT
HETATM    1  C1  UNL     1      -9.791   7.239  13.759  1.00  0.00     0.015 C 
HETATM    2  C2  UNL     1      -8.868   6.619  14.216  1.00  0.00    -0.078 C 
HETATM    3  C3  UNL     1      -7.734   5.847  14.752  1.00  0.00     0.128 C 
HETATM    4  C4  UNL     1      -7.330   6.305  16.156  1.00  0.00     0.052 C 
HETATM    5  C5  UNL     1      -5.848   5.946  16.293  1.00  0.00     0.010 C 
HETATM    6  C6  UNL     1      -5.374   5.416  14.920  1.00  0.00     0.002 C 
HETATM    7  C7  UNL     1      -3.891   5.764  14.645  1.00  0.00    -0.004 C 
HETATM    8  C8  UNL     1      -3.259   4.779  13.631  1.00  0.00     0.010 C 
HETATM    9  C9  UNL     1      -2.149   5.371  12.767  1.00  0.00     0.035 C 
HETATM   10  C10 UNL     1      -1.359   6.373  13.555  1.00  0.00    -0.069 C 
HETATM   11  C11 UNL     1      -0.065   6.152  13.846  1.00  0.00     0.030 C 
HETATM   12  C12 UNL     1       0.715   7.092  14.689  1.00  0.00     0.032 C 
HETATM   13  N1  UNL     1       2.005   6.914  14.754  1.00  0.00    -0.271 N 
ATOM     14  H1  UNL     1       2.508   6.175  14.263  1.00  0.00     0.194 HD
HETATM   15  C25 UNL     1      -0.022   8.214  15.397  1.00  0.00     0.060 C 
HETATM   16  C26 UNL     1      -1.535   8.000  15.423  1.00  0.00     0.020 C 
HETATM   17  C27 UNL     1      -2.137   7.588  14.048  1.00  0.00    -0.016 C 
HETATM   18  C28 UNL     1      -1.935   8.741  13.041  1.00  0.00     0.020 C 
HETATM   19  C29 UNL     1      -3.672   7.256  14.269  1.00  0.00     0.002 C 
HETATM   20  C30 UNL     1      -4.631   7.657  13.130  1.00  0.00     0.007 C 
HETATM   21  C31 UNL     1      -6.093   7.435  13.528  1.00  0.00     0.014 C 
HETATM   22  C32 UNL     1      -6.422   5.970  13.913  1.00  0.00     0.003 C 
HETATM   23  C33 UNL     1      -6.517   5.121  12.630  1.00  0.00     0.020 C 
ENDROOT
BRANCH   3  24
HETATM   24  O1  UNL     1      -8.123   4.472  14.845  1.00  0.00    -0.377 OA
HETATM   25  H2  UNL     1      -9.037   4.452  15.174  1.00  0.00     0.211 HD
ENDBRANCH   3  24
BRANCH  13  26
HETATM   26  O2  UNL     1       2.616   7.867  15.585  1.00  0.00    -0.271 OA
BRANCH  26  27
HETATM   27  C13 UNL     1       3.876   8.208  15.026  1.00  0.00     0.303 C 
BRANCH  27  28
HETATM   28  C14 UNL     1       3.774   8.543  13.540  1.00  0.00     0.244 C 
HETATM   29  O3  UNL     1       3.032   9.402  13.075  1.00  0.00    -0.271 OA
HETATM   30  N2  UNL     1       4.625   7.783  12.749  1.00  0.00    -0.354 N 
HETATM   31  H16 UNL     1       4.911   6.891  13.140  1.00  0.00     0.162 HD
BRANCH  30  32
HETATM   32  C15 UNL     1       4.598   7.885  11.291  1.00  0.00     0.098 C 
BRANCH  32  33
HETATM   33  C16 UNL     1       5.241   9.182  10.774  1.00  0.00     0.135 C 
BRANCH  33  34
HETATM   34  C17 UNL     1       6.739   9.264  10.832  1.00  0.00     0.141 C 
HETATM   35  O4  UNL     1       7.426  10.088  10.249  1.00  0.00    -0.650 OA
BRANCH  34  36
HETATM   36  O5  UNL     1       7.326   8.296  11.561  1.00  0.00    -0.776 OA
HETATM   37  H20 UNL     1       8.286   8.449  11.412  1.00  0.00     0.167 HD
ENDBRANCH  34  36
ENDBRANCH  33  34
ENDBRANCH  32  33
BRANCH  32  38
HETATM   38  C18 UNL     1       3.196   7.565  10.696  1.00  0.00     0.014 C 
HETATM   39  C19 UNL     1       2.577   6.231  11.133  1.00  0.00     0.033 C 
HETATM   40  C20 UNL     1       1.248   5.979  10.432  1.00  0.00     0.169 C 
HETATM   41  O6  UNL     1       1.391   6.024   9.018  1.00  0.00    -0.381 OA
HETATM   42  C21 UNL     1       1.895   7.261   8.496  1.00  0.00     0.054 C 
HETATM   43  C22 UNL     1       2.111   7.024   6.993  1.00  0.00     0.045 C 
HETATM   44  C23 UNL     1       0.864   8.386   8.659  1.00  0.00     0.045 C 
HETATM   45  C24 UNL     1       3.245   7.604   9.153  1.00  0.00     0.044 C 
ENDBRANCH  32  38
ENDBRANCH  30  32
ENDBRANCH  27  28
ENDBRANCH  26  27
ENDBRANCH  13  26
TORSDOF 9
ENDMDL
