MODEL 1
REMARK minimizedAffinity -9.05496025
REMARK CNNscore 0.509870172
REMARK CNNaffinity 7.18639326
REMARK  11 active torsions:
REMARK  status: ('A' for Active; 'I' for Inactive)
REMARK    1  A    between atoms: C2_2  and  C4_4 
REMARK    2  A    between atoms: C5_5  and  C6_6 
REMARK    3  A    between atoms: C6_6  and  C7_7 
REMARK    4  A    between atoms: C7_7  and  C9_9 
REMARK    5  A    between atoms: C27_28  and  O2_29 
REMARK    6  A    between atoms: O2_29  and  C28_30 
REMARK    7  A    between atoms: C29_32  and  C30_33 
REMARK    8  A    between atoms: C30_33  and  O4_34 
REMARK    9  A    between atoms: C31_35  and  O5_36 
REMARK   10  A    between atoms: C32_37  and  O6_38 
REMARK   11  A    between atoms: C33_39  and  O7_40 
ROOT
HETATM    1  C9  UNL     1      -2.066   6.388  13.793  1.00  0.00    -0.002 C 
HETATM    2  C10 UNL     1      -0.778   6.225  12.920  1.00  0.00     0.006 C 
HETATM    3  C11 UNL     1       0.105   7.467  13.151  1.00  0.00     0.011 C 
HETATM    4  C12 UNL     1      -0.485   8.131  14.407  1.00  0.00    -0.029 C 
HETATM    5  C13 UNL     1       0.084   7.333  15.626  1.00  0.00     0.016 C 
HETATM    6  C14 UNL     1      -0.180   9.658  14.554  1.00  0.00     0.028 C 
HETATM    7  C15 UNL     1       1.302   9.969  14.689  1.00  0.00    -0.021 C 
HETATM    8  C16 UNL     1       1.775  10.782  15.652  1.00  0.00     0.008 C 
HETATM    9  C17 UNL     1       0.843  11.423  16.670  1.00  0.00     0.092 C 
HETATM   10  O1  UNL     1       0.140  12.429  15.901  1.00  0.00    -0.374 OA
HETATM   11  C18 UNL     1      -1.100  11.862  15.455  1.00  0.00     0.179 C 
HETATM   12  C19 UNL     1      -1.050  10.336  15.703  1.00  0.00    -0.004 C 
HETATM   13  C20 UNL     1      -2.514   9.815  15.773  1.00  0.00     0.014 C 
HETATM   14  C21 UNL     1      -2.764   8.333  15.449  1.00  0.00     0.011 C 
HETATM   15  C22 UNL     1      -2.029   7.906  14.165  1.00  0.00    -0.032 C 
HETATM   16  C23 UNL     1      -2.611   8.728  12.972  1.00  0.00     0.016 C 
HETATM   17  C24 UNL     1      -0.226  10.340  17.013  1.00  0.00     0.036 C 
HETATM   18  C25 UNL     1      -0.970  10.630  18.313  1.00  0.00     0.011 C 
HETATM   19  C26 UNL     1      -0.005  10.717  19.502  1.00  0.00     0.033 C 
HETATM   20  C27 UNL     1       1.443  11.068  19.115  1.00  0.00     0.136 C 
HETATM   21  C34 UNL     1       1.503  12.090  17.943  1.00  0.00     0.014 C 
HETATM   22  C35 UNL     1       2.980  12.508  17.712  1.00  0.00     0.021 C 
HETATM   23  C36 UNL     1       0.782  13.409  18.336  1.00  0.00     0.021 C 
ENDROOT
BRANCH  20  24
HETATM   24  O2  UNL     1       2.152  11.592  20.243  1.00  0.00    -0.352 OA
BRANCH  24  25
HETATM   25  C28 UNL     1       3.550  11.331  20.254  1.00  0.00     0.292 C 
HETATM   26  O3  UNL     1       3.853  10.011  20.704  1.00  0.00    -0.348 OA
HETATM   27  C29 UNL     1       3.723   9.745  22.116  1.00  0.00     0.179 C 
HETATM   28  C31 UNL     1       4.366  10.811  23.011  1.00  0.00     0.180 C 
HETATM   29  C32 UNL     1       4.021  12.235  22.571  1.00  0.00     0.183 C 
HETATM   30  C33 UNL     1       4.272  12.419  21.072  1.00  0.00     0.204 C 
BRANCH  27  31
HETATM   31  C30 UNL     1       2.285   9.395  22.545  1.00  0.00     0.198 C 
BRANCH  31  32
HETATM   32  O4  UNL     1       1.940   8.042  22.261  1.00  0.00    -0.398 OA
HETATM   33  H44 UNL     1       0.989   7.941  22.460  1.00  0.00     0.209 HD
ENDBRANCH  31  32
ENDBRANCH  27  31
BRANCH  28  34
HETATM   34  O5  UNL     1       5.807  10.670  22.954  1.00  0.00    -0.390 OA
HETATM   35  H46 UNL     1       6.128  11.445  23.469  1.00  0.00     0.210 HD
ENDBRANCH  28  34
BRANCH  29  36
HETATM   36  O6  UNL     1       4.854  13.141  23.334  1.00  0.00    -0.390 OA
HETATM   37  H48 UNL     1       5.384  13.646  22.683  1.00  0.00     0.210 HD
ENDBRANCH  29  36
BRANCH  30  38
HETATM   38  O7  UNL     1       5.695  12.408  20.829  1.00  0.00    -0.388 OA
HETATM   39  H50 UNL     1       6.016  11.534  21.141  1.00  0.00     0.210 HD
ENDBRANCH  30  38
ENDBRANCH  24  25
ENDBRANCH  20  24
BRANCH   1  40
HETATM   40  C7  UNL     1      -3.322   5.792  13.079  1.00  0.00    -0.010 C 
HETATM   41  C8  UNL     1      -4.481   5.518  14.043  1.00  0.00     0.010 C 
BRANCH  40  42
HETATM   42  C6  UNL     1      -3.006   4.511  12.259  1.00  0.00     0.031 C 
BRANCH  42  43
HETATM   43  C5  UNL     1      -4.021   3.402  12.383  1.00  0.00    -0.026 C 
HETATM   44  C4  UNL     1      -5.294   3.530  11.971  1.00  0.00     0.002 C 
BRANCH  44  45
HETATM   45  C2  UNL     1      -6.334   2.514  12.058  1.00  0.00    -0.072 C 
HETATM   46  C1  UNL     1      -6.189   1.354  11.389  1.00  0.00     0.018 C 
HETATM   47  C3  UNL     1      -7.567   2.776  12.884  1.00  0.00     0.047 C 
ENDBRANCH  44  45
ENDBRANCH  42  43
ENDBRANCH  40  42
ENDBRANCH   1  40
TORSDOF 11
ENDMDL
