MODEL 1
REMARK minimizedAffinity -8.99823475
REMARK CNNscore 0.752135396
REMARK CNNaffinity 7.48127985
REMARK  11 active torsions:
REMARK  status: ('A' for Active; 'I' for Inactive)
REMARK    1  A    between atoms: C2_2  and  C4_4 
REMARK    2  A    between atoms: C4_4  and  C6_6 
REMARK    3  A    between atoms: C7_8  and  C8_9 
REMARK    4  A    between atoms: C8_9  and  O2_10 
REMARK    5  A    between atoms: C25_28  and  O4_29 
REMARK    6  A    between atoms: C26_30  and  O5_31 
REMARK    7  A    between atoms: C27_32  and  O6_33 
REMARK    8  A    between atoms: C31_37  and  C32_38 
REMARK    9  A    between atoms: C32_38  and  C33_39 
REMARK   10  A    between atoms: C33_39  and  C34_40 
REMARK   11  A    between atoms: C38_44  and  O7_45 
ROOT
HETATM    1  C8  UNL     1      -3.141  51.417 -11.007  1.00  0.00     0.094 C 
HETATM    2  C9  UNL     1      -4.004  52.653 -10.619  1.00  0.00     0.067 C 
HETATM    3  C10 UNL     1      -3.482  54.044 -10.871  1.00  0.00    -0.027 C 
HETATM    4  C11 UNL     1      -2.337  54.580 -10.422  1.00  0.00    -0.025 C 
HETATM    5  C12 UNL     1      -1.280  53.856  -9.624  1.00  0.00     0.021 C 
HETATM    6  C13 UNL     1      -0.125  54.835  -9.250  1.00  0.00     0.019 C 
HETATM    7  C14 UNL     1       1.027  54.159  -8.460  1.00  0.00     0.028 C 
HETATM    8  C15 UNL     1       1.488  52.895  -9.200  1.00  0.00    -0.037 C 
HETATM    9  C16 UNL     1       2.748  52.687  -9.613  1.00  0.00     0.057 C 
HETATM   10  C17 UNL     1       3.772  53.748  -9.513  1.00  0.00     0.155 C 
HETATM   11  O3  UNL     1       4.930  53.479  -9.819  1.00  0.00    -0.293 OA
HETATM   12  C18 UNL     1       3.326  55.139  -9.079  1.00  0.00     0.075 C 
HETATM   13  C19 UNL     1       4.505  55.994  -8.562  1.00  0.00     0.029 C 
HETATM   14  C20 UNL     1       4.016  57.437  -8.321  1.00  0.00     0.008 C 
HETATM   15  C21 UNL     1       2.852  57.506  -7.343  1.00  0.00     0.001 C 
HETATM   16  C22 UNL     1       1.735  56.538  -7.737  1.00  0.00     0.011 C 
HETATM   17  C23 UNL     1       2.224  55.080  -7.998  1.00  0.00    -0.019 C 
HETATM   18  C24 UNL     1       2.808  54.522  -6.650  1.00  0.00     0.045 C 
HETATM   19  C25 UNL     1       4.323  54.304  -6.592  1.00  0.00     0.148 C 
HETATM   20  C26 UNL     1       5.184  55.348  -7.330  1.00  0.00     0.151 C 
HETATM   21  C27 UNL     1       0.366  51.921  -9.436  1.00  0.00     0.090 C 
HETATM   22  C28 UNL     1       0.544  50.551 -10.098  1.00  0.00     0.044 C 
HETATM   23  C29 UNL     1      -0.904  50.129 -10.455  1.00  0.00     0.012 C 
HETATM   24  C30 UNL     1      -1.809  51.377 -10.209  1.00  0.00     0.035 C 
HETATM   25  C31 UNL     1      -0.773  52.556 -10.312  1.00  0.00     0.009 C 
ENDROOT
BRANCH   1  26
HETATM   26  C7  UNL     1      -3.885  50.096 -10.764  1.00  0.00     0.186 A 
HETATM   27  C6  UNL     1      -5.351  49.865 -11.101  1.00  0.00     0.158 A 
HETATM   28  O1  UNL     1      -4.288  49.402 -11.955  1.00  0.00    -0.372 OA
BRANCH  27  29
HETATM   29  C4  UNL     1      -6.228  48.756 -10.552  1.00  0.00     0.017 C 
HETATM   30  C5  UNL     1      -6.460  47.629 -11.565  1.00  0.00     0.013 C 
BRANCH  29  31
HETATM   31  C2  UNL     1      -7.566  49.324  -9.979  1.00  0.00    -0.016 C 
HETATM   32  C1  UNL     1      -7.952  48.657  -8.649  1.00  0.00     0.010 C 
HETATM   33  C3  UNL     1      -8.737  49.165 -10.956  1.00  0.00     0.010 C 
ENDBRANCH  29  31
ENDBRANCH  27  29
ENDBRANCH   1  26
BRANCH   1  34
HETATM   34  O2  UNL     1      -2.881  51.463 -12.412  1.00  0.00    -0.386 OA
HETATM   35  H14 UNL     1      -3.683  51.128 -12.863  1.00  0.00     0.210 HD
ENDBRANCH   1  34
BRANCH  25  36
HETATM   36  C32 UNL     1      -0.400  52.787 -11.844  1.00  0.00     0.018 C 
BRANCH  36  37
HETATM   37  C33 UNL     1      -0.268  51.611 -12.814  1.00  0.00     0.039 C 
BRANCH  37  38
HETATM   38  C34 UNL     1       0.942  51.763 -13.714  1.00  0.00    -0.056 A 
HETATM   39  C35 UNL     1       2.227  51.464 -13.241  1.00  0.00     0.007 A 
HETATM   40  C36 UNL     1       3.342  51.623 -14.068  1.00  0.00     0.003 A 
HETATM   41  C37 UNL     1       3.183  52.076 -15.378  1.00  0.00     0.036 A 
HETATM   42  C38 UNL     1       1.909  52.380 -15.845  1.00  0.00     0.066 A 
HETATM   43  C39 UNL     1       0.793  52.232 -15.027  1.00  0.00     0.043 A 
BRANCH  42  44
HETATM   44  O7  UNL     1       1.706  52.830 -17.116  1.00  0.00    -0.361 OA
HETATM   45  H51 UNL     1       2.568  52.913 -17.555  1.00  0.00     0.217 HD
ENDBRANCH  42  44
ENDBRANCH  37  38
ENDBRANCH  36  37
ENDBRANCH  25  36
BRANCH  21  46
HETATM   46  O6  UNL     1      -0.115  51.629  -8.104  1.00  0.00    -0.384 OA
HETATM   47  H38 UNL     1       0.618  51.210  -7.620  1.00  0.00     0.211 HD
ENDBRANCH  21  46
BRANCH  19  48
HETATM   48  O4  UNL     1       4.727  54.222  -5.219  1.00  0.00    -0.393 OA
HETATM   49  H35 UNL     1       4.678  55.131  -4.876  1.00  0.00     0.210 HD
ENDBRANCH  19  48
BRANCH  20  50
HETATM   50  O5  UNL     1       5.648  56.334  -6.399  1.00  0.00    -0.393 OA
HETATM   51  H37 UNL     1       6.354  55.899  -5.885  1.00  0.00     0.210 HD
ENDBRANCH  20  50
TORSDOF 11
ENDMDL
