MODEL 1
REMARK minimizedAffinity -9.93267727
REMARK  7 active torsions:
REMARK  status: ('A' for Active; 'I' for Inactive)
REMARK    1  A    between atoms: C2_2  and  C30_33 
REMARK    2  A    between atoms: C3_3  and  C4_4 
REMARK    3  A    between atoms: C4_4  and  O1_5 
REMARK    4  A    between atoms: C4_4  and  C5_6 
REMARK    5  A    between atoms: C5_6  and  C6_7 
REMARK    6  A    between atoms: C6_7  and  C8_9 
REMARK    7  A    between atoms: C30_33  and  O5_35 
ROOT
HETATM    1  C8  UNL     1       0.046  51.005 -21.384  1.00  0.00    -0.002 C 
HETATM    2  C9  UNL     1      -0.108  50.996 -19.834  1.00  0.00     0.007 C 
HETATM    3  C10 UNL     1      -1.473  50.366 -19.503  1.00  0.00     0.015 C 
HETATM    4  C11 UNL     1      -1.937  49.707 -20.815  1.00  0.00    -0.005 C 
HETATM    5  C12 UNL     1      -1.248  48.310 -20.893  1.00  0.00     0.021 C 
HETATM    6  C13 UNL     1      -3.415  49.428 -21.047  1.00  0.00    -0.000 C 
HETATM    7  C14 UNL     1      -3.948  49.417 -22.295  1.00  0.00    -0.060 C 
HETATM    8  C15 UNL     1      -3.075  49.762 -23.512  1.00  0.00     0.036 C 
HETATM    9  C16 UNL     1      -1.607  50.157 -23.255  1.00  0.00     0.015 C 
HETATM   10  C17 UNL     1      -1.420  50.772 -21.862  1.00  0.00    -0.028 C 
HETATM   11  C18 UNL     1      -2.199  52.126 -21.799  1.00  0.00     0.016 C 
HETATM   12  C19 UNL     1      -5.434  49.099 -22.592  1.00  0.00    -0.014 C 
HETATM   13  C20 UNL     1      -6.132  50.445 -22.936  1.00  0.00     0.020 C 
HETATM   14  C21 UNL     1      -5.558  48.161 -23.830  1.00  0.00     0.021 C 
HETATM   15  C22 UNL     1      -6.836  47.342 -23.828  1.00  0.00     0.080 C 
HETATM   16  C23 UNL     1      -6.802  46.382 -22.663  1.00  0.00     0.135 C 
HETATM   17  O2  UNL     1      -7.244  45.240 -22.791  1.00  0.00    -0.297 OA
HETATM   18  C24 UNL     1      -6.215  46.894 -21.333  1.00  0.00     0.018 C 
HETATM   19  C25 UNL     1      -7.152  46.387 -20.211  1.00  0.00     0.023 C 
HETATM   20  C26 UNL     1      -4.843  46.231 -21.141  1.00  0.00     0.023 C 
HETATM   21  C27 UNL     1      -6.195  48.466 -21.365  1.00  0.00     0.020 C 
HETATM   22  C28 UNL     1      -5.765  49.143 -20.059  1.00  0.00     0.090 C 
HETATM   23  C29 UNL     1      -4.276  49.113 -19.868  1.00  0.00     0.157 C 
HETATM   24  O3  UNL     1      -3.789  48.860 -18.769  1.00  0.00    -0.293 OA
ENDROOT
BRANCH   1  25
HETATM   25  C6  UNL     1       0.861  52.243 -21.881  1.00  0.00    -0.011 C 
HETATM   26  C7  UNL     1       1.232  53.190 -20.739  1.00  0.00     0.010 C 
BRANCH  25  27
HETATM   27  C5  UNL     1       0.060  52.981 -23.002  1.00  0.00     0.040 C 
BRANCH  27  28
HETATM   28  C4  UNL     1       0.905  53.512 -24.175  1.00  0.00     0.142 C 
BRANCH  28  29
HETATM   29  C3  UNL     1       0.113  53.620 -25.448  1.00  0.00     0.018 C 
HETATM   30  C2  UNL     1      -0.108  52.624 -26.332  1.00  0.00     0.010 C 
HETATM   31  C1  UNL     1       0.420  51.224 -26.216  1.00  0.00     0.055 C 
BRANCH  30  32
HETATM   32  C30 UNL     1      -0.916  52.965 -27.528  1.00  0.00     0.171 C 
HETATM   33  O4  UNL     1      -2.057  53.390 -27.538  1.00  0.00    -0.646 OA
BRANCH  32  34
HETATM   34  O5  UNL     1      -0.247  52.755 -28.674  1.00  0.00    -0.773 OA
HETATM   35  H44 UNL     1      -0.887  53.022 -29.365  1.00  0.00     0.167 HD
ENDBRANCH  32  34
ENDBRANCH  30  32
ENDBRANCH  28  29
BRANCH  28  36
HETATM   36  O1  UNL     1       1.375  54.821 -23.874  1.00  0.00    -0.392 OA
HETATM   37  H6  UNL     1       0.615  55.427 -23.923  1.00  0.00     0.210 HD
ENDBRANCH  28  36
ENDBRANCH  27  28
ENDBRANCH  25  27
ENDBRANCH   1  25
TORSDOF 7
ENDMDL
