MODEL 1
REMARK minimizedAffinity -6.38421774
REMARK CNNscore 0.652472973
REMARK CNNaffinity 6.20420647
REMARK  12 active torsions:
REMARK  status: ('A' for Active; 'I' for Inactive)
REMARK    1  A    between atoms: O1_2  and  P1_3 
REMARK    2  A    between atoms: P1_3  and  O3_5 
REMARK    3  A    between atoms: P1_3  and  O4_6 
REMARK    4  A    between atoms: O4_6  and  C2_7 
REMARK    5  A    between atoms: C4_10  and  C5_11 
REMARK    6  A    between atoms: C5_11  and  C7_13 
REMARK    7  A    between atoms: C20_26  and  O6_27 
REMARK    8  A    between atoms: C21_28  and  O7_29 
REMARK    9  A    between atoms: C23_31  and  O8_32 
REMARK   10  A    between atoms: C24_33  and  O9_34 
REMARK   11  A    between atoms: O9_34  and  S1_35 
REMARK   12  A    between atoms: S1_35  and  O12_38 
ROOT
HETATM    1  C2  UNL     1       0.866  53.735  -6.363  1.00  0.00     0.168 C 
HETATM    2  C3  UNL     1       1.836  54.906  -6.097  1.00  0.00     0.157 C 
HETATM    3  O5  UNL     1       2.972  54.534  -5.332  1.00  0.00    -0.377 OA
HETATM    4  C4  UNL     1       4.067  55.464  -5.364  1.00  0.00     0.126 C 
HETATM    5  C10 UNL     1       3.670  56.842  -5.955  1.00  0.00     0.037 C 
HETATM    6  C11 UNL     1       2.936  56.775  -7.316  1.00  0.00    -0.009 C 
HETATM    7  C12 UNL     1       3.864  57.141  -8.475  1.00  0.00     0.010 C 
HETATM    8  C13 UNL     1       2.288  55.395  -7.480  1.00  0.00     0.030 C 
HETATM    9  C14 UNL     1       1.033  55.187  -8.357  1.00  0.00    -0.031 C 
HETATM   10  C15 UNL     1      -0.056  56.248  -8.083  1.00  0.00     0.016 C 
HETATM   11  C16 UNL     1       1.309  55.087  -9.862  1.00  0.00     0.010 C 
HETATM   12  C17 UNL     1       0.074  54.603 -10.644  1.00  0.00     0.007 C 
HETATM   13  C18 UNL     1      -0.597  53.326 -10.065  1.00  0.00     0.001 C 
HETATM   14  C19 UNL     1      -0.660  53.258  -8.508  1.00  0.00     0.029 C 
HETATM   15  C20 UNL     1      -0.974  51.805  -8.067  1.00  0.00     0.152 C 
HETATM   16  C21 UNL     1      -1.847  51.044  -9.089  1.00  0.00     0.154 C 
HETATM   17  C22 UNL     1      -2.835  52.014  -9.759  1.00  0.00     0.057 C 
HETATM   18  C23 UNL     1      -4.039  51.311 -10.426  1.00  0.00     0.156 C 
HETATM   19  C24 UNL     1      -3.682  50.639 -11.754  1.00  0.00     0.173 C 
HETATM   20  C25 UNL     1      -3.014  51.644 -12.699  1.00  0.00     0.037 C 
HETATM   21  C26 UNL     1      -1.777  52.294 -12.080  1.00  0.00     0.012 C 
HETATM   22  C27 UNL     1      -2.022  52.981 -10.703  1.00  0.00    -0.031 C 
HETATM   23  C28 UNL     1      -2.843  54.277 -10.923  1.00  0.00     0.016 C 
HETATM   24  C29 UNL     1       0.659  53.752  -7.894  1.00  0.00     0.033 C 
ENDROOT
BRANCH   1  25
HETATM   25  O4  UNL     1      -0.376  53.931  -5.703  1.00  0.00    -0.288 OA
BRANCH  25  26
HETATM   26  P1  UNL     1      -0.490  53.603  -4.132  1.00  0.00     0.393 P 
HETATM   27  O2  UNL     1      -1.555  52.605  -3.808  1.00  0.00    -0.631 OA
BRANCH  26  28
HETATM   28  O1  UNL     1      -0.621  55.007  -3.380  1.00  0.00    -0.302 OA
HETATM   29  C1  UNL     1      -1.926  55.384  -2.987  1.00  0.00     0.214 C 
ENDBRANCH  26  28
BRANCH  26  30
HETATM   30  O3  UNL     1       0.957  53.069  -3.701  1.00  0.00    -0.307 OA
HETATM   31  H4  UNL     1       0.861  52.352  -3.047  1.00  0.00     0.222 HD
ENDBRANCH  26  30
ENDBRANCH  25  26
ENDBRANCH   1  25
BRANCH   4  32
HETATM   32  C5  UNL     1       5.309  54.802  -6.037  1.00  0.00     0.014 C 
HETATM   33  C6  UNL     1       4.932  54.172  -7.389  1.00  0.00     0.013 C 
BRANCH  32  34
HETATM   34  C7  UNL     1       6.547  55.735  -6.232  1.00  0.00    -0.017 C 
HETATM   35  C8  UNL     1       6.366  57.106  -5.570  1.00  0.00     0.010 C 
HETATM   36  C9  UNL     1       6.971  55.902  -7.693  1.00  0.00     0.010 C 
ENDBRANCH  32  34
ENDBRANCH   4  32
BRANCH  15  37
HETATM   37  O6  UNL     1      -1.686  51.774  -6.822  1.00  0.00    -0.393 OA
HETATM   38  H36 UNL     1      -2.058  52.660  -6.643  1.00  0.00     0.210 HD
ENDBRANCH  15  37
BRANCH  16  39
HETATM   39  O7  UNL     1      -2.516  49.956  -8.426  1.00  0.00    -0.392 OA
HETATM   40  H38 UNL     1      -2.587  50.269  -7.494  1.00  0.00     0.210 HD
ENDBRANCH  16  39
BRANCH  18  41
HETATM   41  O8  UNL     1      -5.101  52.239 -10.659  1.00  0.00    -0.392 OA
HETATM   42  H41 UNL     1      -5.544  52.404  -9.809  1.00  0.00     0.210 HD
ENDBRANCH  18  41
BRANCH  19  43
HETATM   43  O9  UNL     1      -2.796  49.548 -11.530  1.00  0.00    -0.256 OA
BRANCH  43  44
HETATM   44  S1  UNL     1      -3.399  48.043 -11.431  1.00  0.00     0.240 S 
HETATM   45  O10 UNL     1      -2.476  47.115 -12.046  1.00  0.00    -0.579 OA
HETATM   46  O11 UNL     1      -3.881  47.842 -10.089  1.00  0.00    -0.579 OA
BRANCH  44  47
HETATM   47  O12 UNL     1      -4.672  48.130 -12.410  1.00  0.00    -0.274 OA
HETATM   48  H43 UNL     1      -4.365  48.472 -13.288  1.00  0.00     0.234 HD
ENDBRANCH  44  47
ENDBRANCH  43  44
ENDBRANCH  19  43
TORSDOF 12
ENDMDL
