MODEL 1
REMARK minimizedAffinity -8.14689064
REMARK CNNscore 0.68538928
REMARK CNNaffinity 7.38727713
REMARK  14 active torsions:
REMARK  status: ('A' for Active; 'I' for Inactive)
REMARK    1  A    between atoms: C19_21  and  O3_22 
REMARK    2  A    between atoms: C19_21  and  C20_23 
REMARK    3  A    between atoms: C20_23  and  C21_25 
REMARK    4  A    between atoms: C21_25  and  O5_26 
REMARK    5  A    between atoms: O5_26  and  C22_27 
REMARK    6  A    between atoms: C22_27  and  C23_29 
REMARK    7  A    between atoms: C23_29  and  C24_30 
REMARK    8  A    between atoms: C24_30  and  C25_31 
REMARK       I    between atoms: C25_31  and  N1_33 
REMARK    9  A    between atoms: N1_33  and  C26_34 
REMARK   10  A    between atoms: C26_34  and  C27_35 
REMARK   11  A    between atoms: C26_34  and  C30_40 
REMARK   12  A    between atoms: C27_35  and  C28_36 
REMARK   13  A    between atoms: C28_36  and  C29_37 
REMARK       I    between atoms: C29_37  and  N2_38 
REMARK   14  A    between atoms: C30_40  and  O10_42 
ROOT
HETATM    1  C20 UNL     1      -5.590  48.220 -26.241  1.00  0.00     0.185 C 
HETATM    2  O4  UNL     1      -6.464  47.351 -26.163  1.00  0.00    -0.292 OA
ENDROOT
BRANCH   1   3
HETATM    3  C19 UNL     1      -5.057  48.966 -24.983  1.00  0.00     0.128 C 
HETATM    4  C14 UNL     1      -3.612  49.545 -25.137  1.00  0.00     0.005 C 
HETATM    5  C13 UNL     1      -3.500  50.936 -25.772  1.00  0.00     0.091 C 
HETATM    6  C15 UNL     1      -2.705  48.558 -25.921  1.00  0.00     0.019 C 
HETATM    7  C16 UNL     1      -3.213  49.695 -23.645  1.00  0.00     0.002 C 
HETATM    8  C12 UNL     1      -2.095  51.494 -25.577  1.00  0.00     0.133 C 
HETATM    9  C11 UNL     1      -1.560  51.540 -24.130  1.00  0.00     0.072 C 
HETATM   10  O2  UNL     1      -1.489  51.950 -26.544  1.00  0.00    -0.297 OA
HETATM   11  C2  UNL     1      -0.103  52.107 -23.963  1.00  0.00    -0.009 C 
HETATM   12  C10 UNL     1      -1.760  50.155 -23.446  1.00  0.00     0.003 C 
HETATM   13  C1  UNL     1       0.942  51.296 -24.764  1.00  0.00     0.021 C 
HETATM   14  C3  UNL     1      -0.086  53.593 -24.436  1.00  0.00     0.022 C 
HETATM   15  C7  UNL     1       0.289  52.035 -22.476  1.00  0.00    -0.067 C 
HETATM   16  C4  UNL     1       1.137  54.373 -23.971  1.00  0.00     0.084 C 
HETATM   17  C5  UNL     1       1.251  54.311 -22.472  1.00  0.00     0.149 C 
HETATM   18  O1  UNL     1       1.711  55.233 -21.803  1.00  0.00    -0.293 OA
HETATM   19  C6  UNL     1       0.862  53.050 -21.802  1.00  0.00     0.053 C 
HETATM   20  C8  UNL     1       0.029  50.728 -21.763  1.00  0.00     0.035 C 
HETATM   21  C9  UNL     1      -1.405  50.251 -21.957  1.00  0.00     0.010 C 
HETATM   22  C17 UNL     1      -3.625  48.365 -23.034  1.00  0.00     0.009 C 
HETATM   23  C18 UNL     1      -4.923  47.993 -23.772  1.00  0.00     0.047 C 
BRANCH   3  24
HETATM   24  O3  UNL     1      -5.946  49.999 -24.543  1.00  0.00    -0.381 OA
HETATM   25  H25 UNL     1      -6.129  50.586 -25.298  1.00  0.00     0.211 HD
ENDBRANCH   3  24
ENDBRANCH   1   3
BRANCH   1  26
HETATM   26  C21 UNL     1      -4.883  48.468 -27.574  1.00  0.00     0.260 C 
BRANCH  26  27
HETATM   27  O5  UNL     1      -5.183  47.519 -28.598  1.00  0.00    -0.314 OA
BRANCH  27  28
HETATM   28  C22 UNL     1      -5.955  48.011 -29.611  1.00  0.00     0.259 C 
HETATM   29  O6  UNL     1      -5.567  48.807 -30.451  1.00  0.00    -0.265 OA
BRANCH  28  30
HETATM   30  C23 UNL     1      -7.315  47.349 -29.644  1.00  0.00     0.120 C 
BRANCH  30  31
HETATM   31  C24 UNL     1      -8.007  47.404 -31.003  1.00  0.00     0.112 C 
BRANCH  31  32
HETATM   32  C25 UNL     1      -7.129  46.854 -32.109  1.00  0.00     0.218 C 
HETATM   33  O7  UNL     1      -6.918  45.660 -32.272  1.00  0.00    -0.274 OA
HETATM   34  N1  UNL     1      -6.588  47.831 -32.907  1.00  0.00    -0.347 N 
HETATM   35  H32 UNL     1      -6.625  48.804 -32.620  1.00  0.00     0.163 HD
BRANCH  34  36
HETATM   36  C26 UNL     1      -5.670  47.518 -34.007  1.00  0.00     0.182 C 
BRANCH  36  37
HETATM   37  C27 UNL     1      -6.117  48.167 -35.323  1.00  0.00     0.045 C 
BRANCH  37  38
HETATM   38  C28 UNL     1      -7.370  47.527 -35.929  1.00  0.00     0.105 C 
BRANCH  38  39
HETATM   39  C29 UNL     1      -7.659  48.057 -37.317  1.00  0.00     0.215 C 
HETATM   40  N2  UNL     1      -6.745  48.967 -37.766  1.00  0.00    -0.370 N 
HETATM   41  H38 UNL     1      -5.843  49.087 -37.327  1.00  0.00     0.159 HD
HETATM   42  H39 UNL     1      -6.859  49.295 -38.717  1.00  0.00     0.159 HD
HETATM   43  O8  UNL     1      -8.612  47.726 -38.009  1.00  0.00    -0.274 OA
ENDBRANCH  38  39
ENDBRANCH  37  38
ENDBRANCH  36  37
BRANCH  36  44
HETATM   44  C30 UNL     1      -4.239  47.932 -33.647  1.00  0.00     0.163 C 
HETATM   45  O9  UNL     1      -3.471  47.339 -32.905  1.00  0.00    -0.648 OA
BRANCH  44  46
HETATM   46  O10 UNL     1      -3.833  49.066 -34.267  1.00  0.00    -0.775 OA
HETATM   47  H40 UNL     1      -2.925  49.202 -33.919  1.00  0.00     0.167 HD
ENDBRANCH  44  46
ENDBRANCH  36  44
ENDBRANCH  34  36
ENDBRANCH  31  32
ENDBRANCH  30  31
ENDBRANCH  28  30
ENDBRANCH  27  28
ENDBRANCH  26  27
ENDBRANCH   1  26
TORSDOF 14
ENDMDL
