MODEL 1
REMARK minimizedAffinity -9.35829449
REMARK  12 active torsions:
REMARK  status: ('A' for Active; 'I' for Inactive)
REMARK    1  A    between atoms: C2_2  and  C3_3 
REMARK    2  A    between atoms: C2_2  and  C5_6 
REMARK    3  A    between atoms: C3_3  and  C4_4 
REMARK    4  A    between atoms: C4_4  and  O1_5 
REMARK    5  A    between atoms: C5_6  and  C6_7 
REMARK    6  A    between atoms: C6_7  and  C7_8 
REMARK    7  A    between atoms: C7_8  and  C9_10 
REMARK    8  A    between atoms: C10_11  and  O2_12 
REMARK    9  A    between atoms: C11_13  and  O3_14 
REMARK   10  A    between atoms: C22_25  and  O4_26 
REMARK   11  A    between atoms: C25_29  and  O5_30 
REMARK   12  A    between atoms: C27_32  and  O6_33 
ROOT
HETATM    1  C9  UNL     1      -2.118  50.673 -24.576  1.00  0.00     0.029 C 
HETATM    2  C10 UNL     1      -3.193  51.710 -25.018  1.00  0.00     0.152 C 
HETATM    3  C11 UNL     1      -4.576  51.127 -24.638  1.00  0.00     0.155 C 
HETATM    4  C12 UNL     1      -4.237  50.202 -23.474  1.00  0.00     0.060 C 
HETATM    5  C13 UNL     1      -2.959  49.482 -23.991  1.00  0.00    -0.029 C 
HETATM    6  C14 UNL     1      -3.196  48.509 -25.191  1.00  0.00     0.016 C 
HETATM    7  C15 UNL     1      -2.351  48.653 -22.849  1.00  0.00     0.011 C 
HETATM    8  C16 UNL     1      -3.381  47.697 -22.219  1.00  0.00     0.009 C 
HETATM    9  C17 UNL     1      -4.662  48.433 -21.745  1.00  0.00     0.029 C 
HETATM   10  C18 UNL     1      -5.641  47.513 -20.916  1.00  0.00    -0.031 C 
HETATM   11  C19 UNL     1      -6.015  46.217 -21.675  1.00  0.00     0.016 C 
HETATM   12  C20 UNL     1      -4.895  47.068 -19.604  1.00  0.00     0.012 C 
HETATM   13  C21 UNL     1      -5.830  46.911 -18.412  1.00  0.00     0.032 C 
HETATM   14  C22 UNL     1      -6.471  48.249 -18.044  1.00  0.00     0.118 C 
HETATM   15  C23 UNL     1      -6.748  49.137 -19.263  1.00  0.00     0.039 C 
HETATM   16  C24 UNL     1      -6.960  48.288 -20.533  1.00  0.00     0.025 C 
HETATM   17  C25 UNL     1      -7.548  49.147 -21.666  1.00  0.00     0.126 C 
HETATM   18  C26 UNL     1      -6.520  50.053 -22.342  1.00  0.00     0.071 C 
HETATM   19  C27 UNL     1      -5.321  49.260 -22.900  1.00  0.00     0.071 C 
ENDROOT
BRANCH   1  20
HETATM   20  C7  UNL     1      -0.988  51.283 -23.689  1.00  0.00    -0.011 C 
HETATM   21  C8  UNL     1      -1.457  52.240 -22.581  1.00  0.00     0.010 C 
BRANCH  20  22
HETATM   22  C6  UNL     1       0.081  52.033 -24.534  1.00  0.00     0.005 C 
BRANCH  22  23
HETATM   23  C5  UNL     1       0.458  51.324 -25.841  1.00  0.00     0.005 C 
BRANCH  23  24
HETATM   24  C2  UNL     1       1.128  52.254 -26.881  1.00  0.00    -0.017 C 
HETATM   25  C1  UNL     1       2.463  51.636 -27.311  1.00  0.00     0.010 C 
BRANCH  24  26
HETATM   26  C3  UNL     1       0.188  52.537 -28.076  1.00  0.00     0.030 C 
BRANCH  26  27
HETATM   27  C4  UNL     1      -0.477  53.913 -28.055  1.00  0.00     0.164 C 
BRANCH  27  28
HETATM   28  O1  UNL     1      -1.885  53.784 -28.188  1.00  0.00    -0.401 OA
HETATM   29  H9  UNL     1      -2.259  54.681 -28.156  1.00  0.00     0.209 HD
ENDBRANCH  27  28
ENDBRANCH  26  27
ENDBRANCH  24  26
ENDBRANCH  23  24
ENDBRANCH  22  23
ENDBRANCH  20  22
ENDBRANCH   1  20
BRANCH   2  30
HETATM   30  O2  UNL     1      -3.121  51.935 -26.425  1.00  0.00    -0.393 OA
HETATM   31  H20 UNL     1      -3.805  52.597 -26.632  1.00  0.00     0.210 HD
ENDBRANCH   2  30
BRANCH   3  32
HETATM   32  O3  UNL     1      -5.438  52.193 -24.248  1.00  0.00    -0.392 OA
HETATM   33  H22 UNL     1      -6.262  52.083 -24.757  1.00  0.00     0.210 HD
ENDBRANCH   3  32
BRANCH  19  34
HETATM   34  O6  UNL     1      -5.786  48.416 -23.948  1.00  0.00    -0.389 OA
HETATM   35  H48 UNL     1      -6.714  48.171 -23.745  1.00  0.00     0.210 HD
ENDBRANCH  19  34
BRANCH  17  36
HETATM   36  O5  UNL     1      -8.122  48.302 -22.670  1.00  0.00    -0.395 OA
HETATM   37  H45 UNL     1      -8.833  47.788 -22.242  1.00  0.00     0.210 HD
ENDBRANCH  17  36
BRANCH  14  38
HETATM   38  O4  UNL     1      -7.693  47.974 -17.363  1.00  0.00    -0.396 OA
HETATM   39  H40 UNL     1      -8.027  48.817 -17.008  1.00  0.00     0.210 HD
ENDBRANCH  14  38
TORSDOF 12
ENDMDL
