MODEL 1
REMARK minimizedAffinity -9.99430656
REMARK CNNscore 0.798114836
REMARK CNNaffinity 7.89969969
REMARK  8 active torsions:
REMARK  status: ('A' for Active; 'I' for Inactive)
REMARK    1  A    between atoms: C4_4  and  C5_5 
REMARK    2  A    between atoms: C5_5  and  C6_6 
REMARK    3  A    between atoms: C12_14  and  O3_15 
REMARK    4  A    between atoms: C20_24  and  O5_25 
REMARK    5  A    between atoms: C27_33  and  C28_34 
REMARK    6  A    between atoms: C28_34  and  C29_35 
REMARK    7  A    between atoms: C30_36  and  C32_38 
REMARK    8  A    between atoms: C32_38  and  O8_40 
ROOT
HETATM    1  C6  UNL     1      -2.316  51.226 -24.109  1.00  0.00     0.014 A 
HETATM    2  C7  UNL     1      -2.179  51.073 -22.718  1.00  0.00     0.096 A 
HETATM    3  O1  UNL     1      -3.198  50.443 -22.045  1.00  0.00    -0.333 OA
HETATM    4  C8  UNL     1      -2.922  49.998 -20.708  1.00  0.00     0.126 C 
HETATM    5  C9  UNL     1      -2.288  51.153 -19.911  1.00  0.00     0.129 C 
HETATM    6  C10 UNL     1      -0.987  51.489 -20.604  1.00  0.00     0.174 C 
HETATM    7  O2  UNL     1       0.067  51.725 -20.025  1.00  0.00    -0.292 OA
HETATM    8  C11 UNL     1      -1.038  51.559 -22.075  1.00  0.00     0.078 A 
HETATM    9  C12 UNL     1       0.013  52.123 -22.810  1.00  0.00     0.095 A 
HETATM   10  C13 UNL     1      -0.087  52.243 -24.202  1.00  0.00     0.032 A 
HETATM   11  C14 UNL     1      -1.255  51.805 -24.842  1.00  0.00     0.092 A 
HETATM   12  O4  UNL     1      -1.428  51.882 -26.199  1.00  0.00    -0.335 OA
HETATM   13  C15 UNL     1      -0.464  52.577 -27.012  1.00  0.00     0.078 C 
HETATM   14  C16 UNL     1      -1.159  53.832 -27.556  1.00  0.00     0.051 C 
HETATM   15  C17 UNL     1      -0.129  51.627 -28.169  1.00  0.00     0.051 C 
HETATM   16  C18 UNL     1       0.810  52.972 -26.309  1.00  0.00     0.012 C 
HETATM   17  C19 UNL     1       0.994  52.817 -24.996  1.00  0.00     0.016 C 
HETATM   18  C20 UNL     1      -2.078  50.778 -18.439  1.00  0.00     0.144 C 
HETATM   19  C21 UNL     1      -2.361  49.289 -18.243  1.00  0.00     0.089 C 
HETATM   20  C22 UNL     1      -1.540  48.483 -19.258  1.00  0.00     0.025 C 
HETATM   21  C23 UNL     1      -2.117  48.662 -20.690  1.00  0.00     0.060 C 
HETATM   22  C24 UNL     1      -3.207  47.609 -21.076  1.00  0.00     0.062 C 
HETATM   23  C25 UNL     1      -3.287  47.383 -22.592  1.00  0.00     0.046 C 
HETATM   24  C26 UNL     1      -3.071  46.232 -20.416  1.00  0.00     0.046 C 
HETATM   25  O6  UNL     1      -4.465  48.172 -20.650  1.00  0.00    -0.358 OA
HETATM   26  C27 UNL     1      -4.210  49.451 -20.022  1.00  0.00     0.158 C 
HETATM   27  C33 UNL     1      -3.833  49.106 -18.561  1.00  0.00     0.171 C 
HETATM   28  O9  UNL     1      -4.617  48.690 -17.712  1.00  0.00    -0.294 OA
ENDROOT
BRANCH  26  29
HETATM   29  C28 UNL     1      -5.476  50.323 -20.027  1.00  0.00     0.077 C 
BRANCH  29  30
HETATM   30  C29 UNL     1      -6.786  49.594 -19.848  1.00  0.00    -0.010 C 
HETATM   31  C30 UNL     1      -7.595  49.108 -20.811  1.00  0.00     0.008 C 
HETATM   32  C31 UNL     1      -8.877  48.397 -20.503  1.00  0.00     0.055 C 
BRANCH  31  33
HETATM   33  C32 UNL     1      -7.259  49.242 -22.245  1.00  0.00     0.171 C 
HETATM   34  O7  UNL     1      -6.872  48.366 -22.995  1.00  0.00    -0.646 OA
BRANCH  33  35
HETATM   35  O8  UNL     1      -7.461  50.499 -22.678  1.00  0.00    -0.773 OA
HETATM   36  H38 UNL     1      -7.164  50.454 -23.610  1.00  0.00     0.167 HD
ENDBRANCH  33  35
ENDBRANCH  31  33
ENDBRANCH  29  30
ENDBRANCH  26  29
BRANCH  18  37
HETATM   37  O5  UNL     1      -2.963  51.566 -17.644  1.00  0.00    -0.394 OA
HETATM   38  H21 UNL     1      -2.886  51.280 -16.714  1.00  0.00     0.210 HD
ENDBRANCH  18  37
BRANCH   1  39
HETATM   39  C5  UNL     1      -3.594  50.824 -24.825  1.00  0.00     0.072 C 
BRANCH  39  40
HETATM   40  C4  UNL     1      -3.317  49.968 -26.035  1.00  0.00    -0.020 C 
HETATM   41  C2  UNL     1      -3.985  48.878 -26.461  1.00  0.00    -0.091 C 
HETATM   42  C1  UNL     1      -5.186  48.274 -25.787  1.00  0.00     0.042 C 
HETATM   43  C3  UNL     1      -3.548  48.152 -27.706  1.00  0.00     0.042 C 
ENDBRANCH  39  40
ENDBRANCH   1  39
BRANCH   9  44
HETATM   44  O3  UNL     1       1.156  52.581 -22.198  1.00  0.00    -0.359 OA
HETATM   45  H11 UNL     1       1.102  52.387 -21.235  1.00  0.00     0.217 HD
ENDBRANCH   9  44
TORSDOF 8
ENDMDL
