MODEL 1
REMARK minimizedAffinity -9.12539005
REMARK CNNscore 0.431176424
REMARK CNNaffinity 7.0429368
REMARK  11 active torsions:
REMARK  status: ('A' for Active; 'I' for Inactive)
REMARK    1  A    between atoms: C3_3  and  O1_4 
REMARK    2  A    between atoms: N1_14  and  O2_16 
REMARK    3  A    between atoms: O2_16  and  C13_17 
REMARK    4  A    between atoms: C13_17  and  C14_18 
REMARK       I    between atoms: C14_18  and  N2_20 
REMARK    5  A    between atoms: N2_20  and  C15_21 
REMARK    6  A    between atoms: C15_21  and  C16_22 
REMARK    7  A    between atoms: C15_21  and  C17_25 
REMARK    8  A    between atoms: C16_22  and  O5_24 
REMARK    9  A    between atoms: C17_25  and  O6_26 
REMARK   10  A    between atoms: C17_25  and  C18_27 
REMARK   11  A    between atoms: C22_31  and  N3_32 
ROOT
HETATM    1  C1  UNL     1     -12.821   3.085  30.606  1.00  0.00     0.015 C 
HETATM    2  C2  UNL     1     -13.107   2.704  29.502  1.00  0.00    -0.078 C 
HETATM    3  C3  UNL     1     -13.459   2.229  28.154  1.00  0.00     0.128 C 
HETATM    4  C4  UNL     1     -12.220   1.971  27.288  1.00  0.00     0.052 C 
HETATM    5  C5  UNL     1     -12.665   2.201  25.837  1.00  0.00     0.010 C 
HETATM    6  C6  UNL     1     -14.137   2.653  25.892  1.00  0.00     0.002 C 
HETATM    7  C7  UNL     1     -14.593   3.593  24.755  1.00  0.00    -0.004 C 
HETATM    8  C8  UNL     1     -14.305   2.977  23.380  1.00  0.00     0.010 C 
HETATM    9  C9  UNL     1     -14.870   3.845  22.267  1.00  0.00     0.035 C 
HETATM   10  C10 UNL     1     -14.340   5.257  22.332  1.00  0.00    -0.069 C 
HETATM   11  C11 UNL     1     -13.862   5.833  21.215  1.00  0.00     0.030 C 
HETATM   12  C12 UNL     1     -13.488   7.268  21.164  1.00  0.00     0.032 C 
HETATM   13  N1  UNL     1     -13.138   7.754  20.006  1.00  0.00    -0.271 N 
ATOM     14  H1  UNL     1     -13.051   7.197  19.156  1.00  0.00     0.194 HD
HETATM   15  C24 UNL     1     -13.626   8.087  22.430  1.00  0.00     0.060 C 
HETATM   16  C25 UNL     1     -13.497   7.214  23.672  1.00  0.00     0.020 C 
HETATM   17  C26 UNL     1     -14.440   5.975  23.681  1.00  0.00    -0.016 C 
HETATM   18  C27 UNL     1     -15.900   6.449  23.860  1.00  0.00     0.020 C 
HETATM   19  C28 UNL     1     -13.983   5.016  24.854  1.00  0.00     0.002 C 
HETATM   20  C29 UNL     1     -14.243   5.596  26.257  1.00  0.00     0.007 C 
HETATM   21  C30 UNL     1     -13.729   4.682  27.372  1.00  0.00     0.014 C 
HETATM   22  C31 UNL     1     -14.301   3.240  27.316  1.00  0.00     0.003 C 
HETATM   23  C32 UNL     1     -15.783   3.245  27.742  1.00  0.00     0.020 C 
ENDROOT
BRANCH   3  24
HETATM   24  O1  UNL     1     -14.156   0.988  28.279  1.00  0.00    -0.377 OA
HETATM   25  H2  UNL     1     -13.662   0.453  28.923  1.00  0.00     0.211 HD
ENDBRANCH   3  24
BRANCH  13  26
HETATM   26  O2  UNL     1     -12.896   9.134  20.067  1.00  0.00    -0.271 OA
BRANCH  26  27
HETATM   27  C13 UNL     1     -11.755   9.424  19.266  1.00  0.00     0.303 C 
BRANCH  27  28
HETATM   28  C14 UNL     1     -12.166   9.495  17.804  1.00  0.00     0.244 C 
HETATM   29  O3  UNL     1     -13.216  10.012  17.434  1.00  0.00    -0.271 OA
HETATM   30  N2  UNL     1     -11.282   8.884  16.939  1.00  0.00    -0.342 N 
HETATM   31  H16 UNL     1     -10.327   8.767  17.275  1.00  0.00     0.163 HD
BRANCH  30  32
HETATM   32  C15 UNL     1     -11.466   8.935  15.482  1.00  0.00     0.216 C 
BRANCH  32  33
HETATM   33  C16 UNL     1     -10.665  10.111  14.921  1.00  0.00     0.166 C 
HETATM   34  O4  UNL     1      -9.781  10.717  15.511  1.00  0.00    -0.648 OA
BRANCH  33  35
HETATM   35  O5  UNL     1     -11.021  10.487  13.669  1.00  0.00    -0.775 OA
HETATM   36  H18 UNL     1     -10.402  11.216  13.446  1.00  0.00     0.167 HD
ENDBRANCH  33  35
ENDBRANCH  32  33
BRANCH  32  37
HETATM   37  C17 UNL     1     -10.975   7.663  14.739  1.00  0.00     0.184 C 
BRANCH  37  38
HETATM   38  O6  UNL     1     -11.809   6.532  15.031  1.00  0.00    -0.388 OA
HETATM   39  H20 UNL     1     -12.721   6.752  14.757  1.00  0.00     0.210 HD
ENDBRANCH  37  38
BRANCH  37  40
HETATM   40  C18 UNL     1      -9.562   7.241  15.096  1.00  0.00    -0.025 A 
HETATM   41  C19 UNL     1      -9.047   7.489  16.378  1.00  0.00     0.010 A 
HETATM   42  C20 UNL     1      -7.752   7.092  16.721  1.00  0.00     0.003 A 
HETATM   43  C21 UNL     1      -6.952   6.433  15.790  1.00  0.00     0.036 A 
HETATM   44  C22 UNL     1      -7.453   6.183  14.507  1.00  0.00     0.103 A 
HETATM   45  C23 UNL     1      -8.746   6.588  14.154  1.00  0.00     0.045 A 
BRANCH  44  46
HETATM   46  N3  UNL     1      -6.614   5.488  13.522  1.00  0.00    -0.116 N 
HETATM   47  O7  UNL     1      -5.388   5.481  13.703  1.00  0.00    -0.532 OA
HETATM   48  O8  UNL     1      -7.186   4.936  12.568  1.00  0.00    -0.532 OA
ENDBRANCH  44  46
ENDBRANCH  37  40
ENDBRANCH  32  37
ENDBRANCH  30  32
ENDBRANCH  27  28
ENDBRANCH  26  27
ENDBRANCH  13  26
TORSDOF 11
ENDMDL
