MODEL 1
REMARK minimizedAffinity -9.14461708
REMARK  8 active torsions:
REMARK  status: ('A' for Active; 'I' for Inactive)
REMARK    1  A    between atoms: C2_2  and  C3_3 
REMARK    2  A    between atoms: C2_2  and  C9_12 
REMARK    3  A    between atoms: C3_3  and  C4_4 
REMARK    4  A    between atoms: C4_4  and  C5_5 
REMARK    5  A    between atoms: C6_6  and  C7_7 
REMARK    6  A    between atoms: C6_6  and  C8_9 
REMARK    7  A    between atoms: C7_7  and  O1_8 
REMARK    8  A    between atoms: C8_9  and  O3_11 
ROOT
HETATM    1  C9  UNL     1       0.137   7.404  10.614  1.00  0.00    -0.002 C 
HETATM    2  C10 UNL     1       0.275   5.864  10.587  1.00  0.00     0.006 C 
HETATM    3  C11 UNL     1      -0.350   5.359  11.900  1.00  0.00     0.006 C 
HETATM    4  C12 UNL     1      -0.933   6.609  12.561  1.00  0.00    -0.001 C 
HETATM    5  C13 UNL     1      -1.215   6.557  14.071  1.00  0.00    -0.000 C 
HETATM    6  C14 UNL     1      -2.238   5.430  14.325  1.00  0.00     0.006 C 
HETATM    7  C15 UNL     1      -3.099   5.562  15.571  1.00  0.00     0.007 C 
HETATM    8  C16 UNL     1      -3.829   6.911  15.703  1.00  0.00     0.010 C 
HETATM    9  C17 UNL     1      -5.138   7.071  14.848  1.00  0.00     0.018 C 
HETATM   10  C18 UNL     1      -6.203   6.052  15.309  1.00  0.00     0.023 C 
HETATM   11  C19 UNL     1      -4.959   6.919  13.330  1.00  0.00     0.023 C 
HETATM   12  C20 UNL     1      -5.697   8.491  15.077  1.00  0.00     0.135 C 
HETATM   13  O4  UNL     1      -6.876   8.710  15.358  1.00  0.00    -0.297 OA
HETATM   14  C21 UNL     1      -4.736   9.638  14.874  1.00  0.00     0.080 C 
HETATM   15  C22 UNL     1      -3.560   9.433  15.802  1.00  0.00     0.018 C 
HETATM   16  C23 UNL     1      -2.874   8.100  15.533  1.00  0.00    -0.026 A 
HETATM   17  C24 UNL     1      -1.500   8.021  16.144  1.00  0.00     0.021 A 
HETATM   18  C25 UNL     1      -1.626   7.947  14.626  1.00  0.00    -0.028 A 
HETATM   19  C26 UNL     1      -1.021   9.182  13.927  1.00  0.00     0.011 C 
HETATM   20  C27 UNL     1      -0.710   9.040  12.436  1.00  0.00     0.011 C 
HETATM   21  C28 UNL     1       0.026   7.733  12.132  1.00  0.00    -0.036 C 
HETATM   22  C29 UNL     1       1.386   7.694  12.856  1.00  0.00     0.016 C 
ENDROOT
BRANCH   1  23
HETATM   23  C2  UNL     1       1.148   8.209   9.750  1.00  0.00    -0.014 C 
HETATM   24  C1  UNL     1       0.667   8.201   8.287  1.00  0.00     0.010 C 
BRANCH  23  25
HETATM   25  C3  UNL     1       2.612   7.719   9.810  1.00  0.00     0.008 C 
BRANCH  25  26
HETATM   26  C4  UNL     1       2.743   6.192   9.731  1.00  0.00     0.028 C 
BRANCH  26  27
HETATM   27  C5  UNL     1       2.889   5.736   8.301  1.00  0.00    -0.011 C 
HETATM   28  C6  UNL     1       3.475   4.605   7.854  1.00  0.00     0.035 C 
BRANCH  28  29
HETATM   29  C7  UNL     1       3.531   4.242   6.402  1.00  0.00     0.209 C 
BRANCH  29  30
HETATM   30  O1  UNL     1       3.724   2.838   6.260  1.00  0.00    -0.396 OA
HETATM   31  H12 UNL     1       4.459   2.585   6.846  1.00  0.00     0.209 HD
ENDBRANCH  29  30
ENDBRANCH  28  29
BRANCH  28  32
HETATM   32  C8  UNL     1       4.112   3.662   8.795  1.00  0.00     0.173 C 
HETATM   33  O2  UNL     1       5.264   3.266   8.760  1.00  0.00    -0.646 OA
BRANCH  32  34
HETATM   34  O3  UNL     1       3.265   3.275   9.763  1.00  0.00    -0.773 OA
HETATM   35  H13 UNL     1       3.798   2.655  10.302  1.00  0.00     0.167 HD
ENDBRANCH  32  34
ENDBRANCH  28  32
ENDBRANCH  26  27
ENDBRANCH  25  26
ENDBRANCH  23  25
ENDBRANCH   1  23
TORSDOF 8
ENDMDL
