MODEL 1
REMARK minimizedAffinity -9.63291645
REMARK CNNscore 0.393326461
REMARK CNNaffinity 7.25033379
REMARK  10 active torsions:
REMARK  status: ('A' for Active; 'I' for Inactive)
REMARK    1  A    between atoms: O1_2  and  C2_3 
REMARK    2  A    between atoms: C2_3  and  C3_5 
REMARK    3  A    between atoms: C3_5  and  C4_6 
REMARK    4  A    between atoms: C3_5  and  N1_13 
REMARK    5  A    between atoms: C4_6  and  C5_7 
REMARK       I    between atoms: N1_13  and  C11_14 
REMARK    6  A    between atoms: C11_14  and  C12_16 
REMARK    7  A    between atoms: C12_16  and  O4_17 
REMARK    8  A    between atoms: O4_17  and  N2_18 
REMARK    9  A    between atoms: C27_34  and  O5_35 
REMARK   10  A    between atoms: C27_34  and  C28_36 
ROOT
HETATM    1  N2  UNL     1      -0.159  51.011 -16.160  1.00  0.00    -0.271 N 
ATOM      2  H2  UNL     1      -0.430  50.171 -15.650  1.00  0.00     0.194 HD
HETATM    3  C13 UNL     1      -0.183  51.115 -17.458  1.00  0.00     0.032 C 
HETATM    4  C14 UNL     1      -0.573  49.912 -18.235  1.00  0.00     0.030 C 
HETATM    5  C15 UNL     1      -0.571  49.897 -19.580  1.00  0.00    -0.069 C 
HETATM    6  C16 UNL     1      -0.822  48.598 -20.304  1.00  0.00     0.035 C 
HETATM    7  C17 UNL     1      -1.863  48.744 -21.405  1.00  0.00     0.010 C 
HETATM    8  C18 UNL     1      -1.467  49.849 -22.391  1.00  0.00    -0.004 C 
HETATM    9  C19 UNL     1      -1.314  51.205 -21.635  1.00  0.00     0.002 C 
HETATM   10  C20 UNL     1      -1.058  52.379 -22.616  1.00  0.00     0.007 C 
HETATM   11  C21 UNL     1      -2.051  52.429 -23.792  1.00  0.00     0.013 C 
HETATM   12  C22 UNL     1      -2.129  51.090 -24.549  1.00  0.00    -0.002 C 
HETATM   13  C23 UNL     1      -0.774  50.802 -25.253  1.00  0.00     0.019 C 
HETATM   14  C24 UNL     1      -2.511  50.012 -23.503  1.00  0.00     0.002 C 
HETATM   15  C25 UNL     1      -2.858  48.793 -24.348  1.00  0.00     0.009 C 
HETATM   16  C26 UNL     1      -3.496  49.377 -25.622  1.00  0.00     0.047 C 
HETATM   17  C27 UNL     1      -3.308  50.920 -25.555  1.00  0.00     0.125 C 
HETATM   18  C30 UNL     1      -0.283  51.131 -20.443  1.00  0.00    -0.016 C 
HETATM   19  C31 UNL     1       1.174  51.033 -20.948  1.00  0.00     0.020 C 
HETATM   20  C32 UNL     1      -0.443  52.417 -19.582  1.00  0.00     0.020 C 
HETATM   21  C33 UNL     1       0.245  52.346 -18.225  1.00  0.00     0.060 C 
ENDROOT
BRANCH   1  22
HETATM   22  O4  UNL     1       0.284  52.194 -15.548  1.00  0.00    -0.271 OA
BRANCH  22  23
HETATM   23  C12 UNL     1       1.528  51.928 -14.909  1.00  0.00     0.303 C 
BRANCH  23  24
HETATM   24  C11 UNL     1       1.299  51.870 -13.407  1.00  0.00     0.244 C 
HETATM   25  N1  UNL     1       0.622  52.955 -12.894  1.00  0.00    -0.345 N 
HETATM   26  H12 UNL     1       0.450  53.766 -13.483  1.00  0.00     0.163 HD
HETATM   27  O3  UNL     1       1.671  50.929 -12.710  1.00  0.00    -0.271 OA
BRANCH  25  28
HETATM   28  C3  UNL     1       0.340  53.076 -11.460  1.00  0.00     0.188 C 
BRANCH  28  29
HETATM   29  C2  UNL     1      -1.157  52.840 -11.267  1.00  0.00     0.281 C 
HETATM   30  O2  UNL     1      -1.925  52.539 -12.175  1.00  0.00    -0.263 OA
BRANCH  29  31
HETATM   31  O1  UNL     1      -1.511  53.005  -9.962  1.00  0.00    -0.325 OA
HETATM   32  C1  UNL     1      -2.903  53.248  -9.755  1.00  0.00     0.213 C 
ENDBRANCH  29  31
ENDBRANCH  28  29
BRANCH  28  33
HETATM   33  C4  UNL     1       0.729  54.468 -10.940  1.00  0.00     0.074 C 
BRANCH  33  34
HETATM   34  C5  UNL     1       2.197  54.594 -10.613  1.00  0.00    -0.056 A 
HETATM   35  C6  UNL     1       2.943  53.456 -10.278  1.00  0.00     0.007 A 
HETATM   36  C7  UNL     1       4.297  53.565  -9.959  1.00  0.00     0.001 A 
HETATM   37  C8  UNL     1       4.918  54.813  -9.978  1.00  0.00     0.000 A 
HETATM   38  C9  UNL     1       4.186  55.951 -10.314  1.00  0.00     0.001 A 
HETATM   39  C10 UNL     1       2.831  55.843 -10.629  1.00  0.00     0.007 A 
ENDBRANCH  33  34
ENDBRANCH  28  33
ENDBRANCH  25  28
ENDBRANCH  23  24
ENDBRANCH  22  23
ENDBRANCH   1  22
BRANCH  17  40
HETATM   40  O5  UNL     1      -4.509  51.483 -25.007  1.00  0.00    -0.381 OA
HETATM   41  H34 UNL     1      -5.255  51.176 -25.556  1.00  0.00     0.211 HD
ENDBRANCH  17  40
BRANCH  17  42
HETATM   42  C28 UNL     1      -3.088  51.549 -26.950  1.00  0.00     0.158 C 
HETATM   43  C29 UNL     1      -3.129  50.634 -28.149  1.00  0.00     0.094 C 
HETATM   44  O6  UNL     1      -2.879  52.755 -27.105  1.00  0.00    -0.295 OA
ENDBRANCH  17  42
TORSDOF 10
ENDMDL
