MODEL 1
REMARK minimizedAffinity -9.9305706
REMARK  9 active torsions:
REMARK  status: ('A' for Active; 'I' for Inactive)
REMARK    1  A    between atoms: C3_3  and  O1_4 
REMARK    2  A    between atoms: C14_15  and  O2_16 
REMARK    3  A    between atoms: C18_20  and  C19_21 
REMARK    4  A    between atoms: C19_21  and  C20_22 
REMARK    5  A    between atoms: C20_22  and  C21_23 
REMARK    6  A    between atoms: C22_24  and  C23_25 
REMARK    7  A    between atoms: C22_24  and  C24_27 
REMARK    8  A    between atoms: C23_25  and  O3_26 
REMARK    9  A    between atoms: C24_27  and  O4_28 
ROOT
HETATM    1  C1  UNL     1      -7.135  47.451 -26.951  1.00  0.00     0.013 C 
HETATM    2  C2  UNL     1      -7.156  47.638 -25.428  1.00  0.00     0.015 C 
HETATM    3  C3  UNL     1      -8.507  48.260 -24.991  1.00  0.00     0.122 C 
HETATM    4  C4  UNL     1      -8.576  48.576 -23.493  1.00  0.00     0.033 C 
HETATM    5  C5  UNL     1      -7.345  49.330 -22.962  1.00  0.00     0.012 C 
HETATM    6  C6  UNL     1      -6.000  48.665 -23.353  1.00  0.00    -0.033 C 
HETATM    7  C7  UNL     1      -5.959  47.261 -22.661  1.00  0.00     0.016 C 
HETATM    8  C8  UNL     1      -5.999  48.535 -24.915  1.00  0.00     0.000 C 
HETATM    9  C9  UNL     1      -4.594  48.215 -25.419  1.00  0.00     0.007 C 
HETATM   10  C10 UNL     1      -3.660  49.420 -25.222  1.00  0.00     0.011 C 
HETATM   11  C11 UNL     1      -3.891  50.267 -23.921  1.00  0.00    -0.029 C 
HETATM   12  C12 UNL     1      -4.708  51.530 -24.340  1.00  0.00     0.016 C 
HETATM   13  C13 UNL     1      -4.685  49.415 -22.841  1.00  0.00     0.032 C 
HETATM   14  C14 UNL     1      -4.808  50.107 -21.444  1.00  0.00     0.124 C 
HETATM   15  C15 UNL     1      -3.460  50.616 -20.896  1.00  0.00     0.042 C 
HETATM   16  C16 UNL     1      -2.779  51.488 -21.940  1.00  0.00     0.029 C 
HETATM   17  C17 UNL     1      -1.447  52.102 -21.742  1.00  0.00    -0.033 C 
HETATM   18  C18 UNL     1      -0.494  52.150 -20.819  1.00  0.00     0.023 C 
HETATM   19  C25 UNL     1       0.707  52.589 -21.567  1.00  0.00     0.290 C 
HETATM   20  O5  UNL     1       1.815  52.767 -21.091  1.00  0.00    -0.260 OA
HETATM   21  O6  UNL     1       0.413  52.673 -22.905  1.00  0.00    -0.308 OA
HETATM   22  C26 UNL     1      -0.992  52.656 -23.032  1.00  0.00     0.163 C 
HETATM   23  C27 UNL     1      -1.602  51.707 -24.078  1.00  0.00     0.047 C 
HETATM   24  C28 UNL     1      -2.494  50.702 -23.266  1.00  0.00    -0.026 C 
HETATM   25  C29 UNL     1      -1.561  49.462 -22.985  1.00  0.00     0.016 C 
ENDROOT
BRANCH  18  26
HETATM   26  C19 UNL     1      -0.436  51.679 -19.411  1.00  0.00     0.049 C 
BRANCH  26  27
HETATM   27  C20 UNL     1       0.658  52.392 -18.602  1.00  0.00     0.032 C 
BRANCH  27  28
HETATM   28  C21 UNL     1       0.693  51.956 -17.162  1.00  0.00    -0.019 C 
HETATM   29  C22 UNL     1       1.697  52.126 -16.275  1.00  0.00    -0.037 C 
BRANCH  29  30
HETATM   30  C23 UNL     1       1.580  51.566 -14.883  1.00  0.00     0.200 C 
BRANCH  30  31
HETATM   31  O3  UNL     1       1.245  52.622 -13.996  1.00  0.00    -0.397 OA
HETATM   32  H35 UNL     1       1.085  52.215 -13.129  1.00  0.00     0.209 HD
ENDBRANCH  30  31
ENDBRANCH  29  30
BRANCH  29  33
HETATM   33  C24 UNL     1       2.992  52.828 -16.579  1.00  0.00     0.200 C 
BRANCH  33  34
HETATM   34  O4  UNL     1       3.750  52.968 -15.384  1.00  0.00    -0.397 OA
HETATM   35  H38 UNL     1       3.150  53.333 -14.711  1.00  0.00     0.209 HD
ENDBRANCH  33  34
ENDBRANCH  29  33
ENDBRANCH  27  28
ENDBRANCH  26  27
ENDBRANCH  18  26
BRANCH  14  36
HETATM   36  O2  UNL     1      -5.709  51.208 -21.504  1.00  0.00    -0.395 OA
HETATM   37  H24 UNL     1      -5.826  51.549 -20.601  1.00  0.00     0.210 HD
ENDBRANCH  14  36
BRANCH   3  38
HETATM   38  O1  UNL     1      -8.734  49.467 -25.724  1.00  0.00    -0.395 OA
HETATM   39  H6  UNL     1      -9.581  49.841 -25.427  1.00  0.00     0.210 HD
ENDBRANCH   3  38
TORSDOF 9
ENDMDL
