MODEL 1
REMARK minimizedAffinity -6.61432886
REMARK CNNscore 0.359064907
REMARK CNNaffinity 6.44803953
REMARK  21 active torsions:
REMARK  status: ('A' for Active; 'I' for Inactive)
REMARK    1  A    between atoms: C2_2  and  C3_3 
REMARK    2  A    between atoms: C2_2  and  C27_33 
REMARK    3  A    between atoms: C4_4  and  C5_5 
REMARK    4  A    between atoms: C6_6  and  C7_7 
REMARK    5  A    between atoms: C6_6  and  C10_12 
REMARK    6  A    between atoms: C7_7  and  O1_8 
REMARK    7  A    between atoms: O1_8  and  C8_9 
REMARK    8  A    between atoms: C8_9  and  C9_10 
REMARK    9  A    between atoms: C9_10  and  O2_11 
REMARK   10  A    between atoms: C14_16  and  O3_17 
REMARK   11  A    between atoms: C15_18  and  C16_19 
REMARK   12  A    between atoms: C16_19  and  C17_20 
REMARK   13  A    between atoms: C17_20  and  C18_21 
REMARK   14  A    between atoms: C18_21  and  O4_22 
REMARK   15  A    between atoms: C20_24  and  C22_26 
REMARK   16  A    between atoms: C25_30  and  O6_32 
REMARK   17  A    between atoms: C27_33  and  C28_34 
REMARK   18  A    between atoms: C28_34  and  C29_35 
REMARK   19  A    between atoms: C30_36  and  C32_38 
REMARK   20  A    between atoms: C32_38  and  N1_39 
REMARK   21  A    between atoms: N1_39  and  C33_40 
ROOT
HETATM    1  C10 UNL     1      -3.148  47.763 -21.102  1.00  0.00     0.046 C 
HETATM    2  C11 UNL     1      -1.665  47.405 -21.020  1.00  0.00     0.013 C 
HETATM    3  C12 UNL     1      -0.992  48.674 -20.471  1.00  0.00     0.017 C 
HETATM    4  C13 UNL     1      -2.126  49.663 -19.970  1.00  0.00     0.024 C 
HETATM    5  C14 UNL     1      -3.341  48.679 -19.875  1.00  0.00     0.138 C 
HETATM    6  C15 UNL     1      -2.354  50.777 -21.109  1.00  0.00     0.029 C 
HETATM    7  C19 UNL     1      -1.059  51.591 -21.329  1.00  0.00    -0.066 C 
HETATM    8  C20 UNL     1      -0.422  51.712 -22.523  1.00  0.00    -0.021 C 
HETATM    9  C21 UNL     1       0.863  52.453 -22.769  1.00  0.00     0.052 C 
HETATM   10  C23 UNL     1      -0.564  52.232 -20.047  1.00  0.00     0.038 C 
HETATM   11  C24 UNL     1      -0.437  51.244 -18.887  1.00  0.00     0.042 C 
HETATM   12  C25 UNL     1      -1.700  50.379 -18.637  1.00  0.00     0.065 C 
HETATM   13  C26 UNL     1      -1.408  49.477 -17.420  1.00  0.00     0.047 C 
ENDROOT
BRANCH   1  14
HETATM   14  C6  UNL     1      -4.182  46.671 -21.355  1.00  0.00    -0.050 C 
HETATM   15  C5  UNL     1      -5.419  46.765 -21.893  1.00  0.00     0.005 C 
BRANCH  15  16
HETATM   16  C4  UNL     1      -6.083  47.913 -22.458  1.00  0.00     0.001 C 
HETATM   17  C3  UNL     1      -5.834  48.596 -23.590  1.00  0.00     0.006 C 
BRANCH  17  18
HETATM   18  C2  UNL     1      -4.874  48.433 -24.689  1.00  0.00    -0.067 C 
HETATM   19  C1  UNL     1      -3.575  48.661 -24.407  1.00  0.00     0.019 C 
BRANCH  18  20
HETATM   20  C27 UNL     1      -5.353  48.033 -26.075  1.00  0.00     0.041 C 
BRANCH  20  21
HETATM   21  C28 UNL     1      -6.824  47.622 -26.285  1.00  0.00     0.032 C 
BRANCH  21  22
HETATM   22  C29 UNL     1      -7.168  47.348 -27.726  1.00  0.00    -0.022 C 
HETATM   23  C30 UNL     1      -7.750  46.237 -28.225  1.00  0.00    -0.060 C 
HETATM   24  C31 UNL     1      -8.080  45.020 -27.401  1.00  0.00     0.045 C 
BRANCH  23  25
HETATM   25  C32 UNL     1      -8.067  46.123 -29.704  1.00  0.00     0.303 C 
BRANCH  25  26
HETATM   26  N1  UNL     1      -8.584  47.386 -30.223  1.00  0.00     0.086 N 
HETATM   27  H50 UNL     1      -8.150  48.162 -29.730  1.00  0.00     0.316 HD
BRANCH  26  28
HETATM   28  C33 UNL     1     -10.038  47.493 -30.116  1.00  0.00     0.265 C 
HETATM   29  C34 UNL     1     -10.773  46.846 -31.283  1.00  0.00     0.037 C 
ENDBRANCH  26  28
ENDBRANCH  25  26
ENDBRANCH  23  25
ENDBRANCH  21  22
ENDBRANCH  20  21
ENDBRANCH  18  20
ENDBRANCH  17  18
ENDBRANCH  15  16
BRANCH  14  30
HETATM   30  C7  UNL     1      -3.738  45.290 -20.869  1.00  0.00     0.202 C 
BRANCH  30  31
HETATM   31  O1  UNL     1      -4.450  44.865 -19.708  1.00  0.00    -0.385 OA
BRANCH  31  32
HETATM   32  C8  UNL     1      -5.350  43.774 -19.942  1.00  0.00     0.194 C 
BRANCH  32  33
HETATM   33  C9  UNL     1      -5.000  42.634 -18.983  1.00  0.00     0.190 C 
BRANCH  33  34
HETATM   34  O2  UNL     1      -3.783  42.006 -19.391  1.00  0.00    -0.399 OA
HETATM   35  H12 UNL     1      -3.665  41.211 -18.838  1.00  0.00     0.209 HD
ENDBRANCH  33  34
ENDBRANCH  32  33
ENDBRANCH  31  32
ENDBRANCH  30  31
ENDBRANCH  14  30
ENDBRANCH   1  14
BRANCH   5  36
HETATM   36  O3  UNL     1      -3.297  47.881 -18.694  1.00  0.00    -0.394 OA
HETATM   37  H19 UNL     1      -4.106  47.339 -18.693  1.00  0.00     0.210 HD
ENDBRANCH   5  36
BRANCH   6  38
HETATM   38  C16 UNL     1      -3.510  51.819 -21.012  1.00  0.00     0.012 C 
BRANCH  38  39
HETATM   39  C17 UNL     1      -4.715  51.615 -21.931  1.00  0.00     0.027 C 
BRANCH  39  40
HETATM   40  C18 UNL     1      -4.409  51.995 -23.377  1.00  0.00     0.164 C 
BRANCH  40  41
HETATM   41  O4  UNL     1      -5.617  52.070 -24.122  1.00  0.00    -0.401 OA
HETATM   42  H27 UNL     1      -5.373  52.289 -25.039  1.00  0.00     0.209 HD
ENDBRANCH  40  41
ENDBRANCH  39  40
ENDBRANCH  38  39
ENDBRANCH   6  38
BRANCH  12  43
HETATM   43  O6  UNL     1      -2.763  51.252 -18.222  1.00  0.00    -0.389 OA
HETATM   44  H39 UNL     1      -2.515  51.636 -17.362  1.00  0.00     0.210 HD
ENDBRANCH  12  43
BRANCH   8  45
HETATM   45  C22 UNL     1      -0.990  51.114 -23.777  1.00  0.00     0.265 C 
HETATM   46  O5  UNL     1      -0.367  51.047 -24.832  1.00  0.00    -0.302 OA
ENDBRANCH   8  45
TORSDOF 21
ENDMDL
