MODEL 1
REMARK minimizedAffinity -9.06465149
REMARK  4 active torsions:
REMARK  status: ('A' for Active; 'I' for Inactive)
REMARK    1  A    between atoms: C2_2  and  C3_3 
REMARK    2  A    between atoms: C2_2  and  C9_9 
REMARK    3  A    between atoms: C3_3  and  C4_4 
REMARK    4  A    between atoms: C4_4  and  C5_5 
ROOT
HETATM    1  C9  UNL     1      -6.391   6.978  13.901  1.00  0.00     0.018 C 
HETATM    2  C10 UNL     1      -6.305   8.237  14.791  1.00  0.00     0.010 C 
HETATM    3  C11 UNL     1      -4.814   8.459  15.113  1.00  0.00     0.011 C 
HETATM    4  C12 UNL     1      -4.024   7.605  14.087  1.00  0.00    -0.032 C 
HETATM    5  C13 UNL     1      -3.982   8.434  12.770  1.00  0.00     0.016 C 
HETATM    6  C14 UNL     1      -4.968   6.384  14.004  1.00  0.00     0.002 C 
HETATM    7  C15 UNL     1      -4.585   5.397  12.918  1.00  0.00     0.006 C 
HETATM    8  C16 UNL     1      -3.092   5.370  12.594  1.00  0.00     0.006 C 
HETATM    9  C17 UNL     1      -2.089   5.845  13.691  1.00  0.00     0.003 C 
HETATM   10  C18 UNL     1      -0.603   5.969  13.129  1.00  0.00    -0.035 C 
HETATM   11  C19 UNL     1       0.406   5.839  14.306  1.00  0.00     0.016 C 
HETATM   12  C20 UNL     1      -0.277   4.829  12.126  1.00  0.00     0.017 C 
HETATM   13  C21 UNL     1       1.151   4.863  11.602  1.00  0.00     0.080 C 
HETATM   14  C22 UNL     1       1.699   6.266  11.461  1.00  0.00     0.135 C 
HETATM   15  O1  UNL     1       2.920   6.429  11.381  1.00  0.00    -0.297 OA
HETATM   16  C23 UNL     1       0.709   7.434  11.333  1.00  0.00     0.017 C 
HETATM   17  C24 UNL     1       0.150   7.366   9.890  1.00  0.00     0.023 C 
HETATM   18  C25 UNL     1       1.499   8.755  11.431  1.00  0.00     0.023 C 
HETATM   19  C26 UNL     1      -0.482   7.326  12.374  1.00  0.00     0.009 C 
HETATM   20  C27 UNL     1      -0.638   8.515  13.334  1.00  0.00     0.007 C 
HETATM   21  C28 UNL     1      -1.568   8.316  14.533  1.00  0.00     0.011 C 
HETATM   22  C29 UNL     1      -2.572   7.119  14.534  1.00  0.00    -0.032 C 
HETATM   23  C30 UNL     1      -2.593   6.646  16.033  1.00  0.00     0.016 C 
ENDROOT
BRANCH   1  24
HETATM   24  C2  UNL     1      -7.584   6.090  14.227  1.00  0.00    -0.084 C 
HETATM   25  C1  UNL     1      -8.767   6.537  14.688  1.00  0.00     0.014 C 
BRANCH  24  26
HETATM   26  C3  UNL     1      -7.368   4.590  14.077  1.00  0.00     0.037 C 
BRANCH  26  27
HETATM   27  C4  UNL     1      -7.706   4.064  12.677  1.00  0.00     0.031 C 
BRANCH  27  28
HETATM   28  C5  UNL     1      -7.119   2.696  12.449  1.00  0.00    -0.024 C 
HETATM   29  C6  UNL     1      -6.203   2.344  11.526  1.00  0.00    -0.091 C 
HETATM   30  C7  UNL     1      -5.623   3.271  10.491  1.00  0.00     0.042 C 
HETATM   31  C8  UNL     1      -5.687   0.930  11.450  1.00  0.00     0.042 C 
ENDBRANCH  27  28
ENDBRANCH  26  27
ENDBRANCH  24  26
ENDBRANCH   1  24
TORSDOF 4
ENDMDL
