MODEL 1
REMARK minimizedAffinity -7.73779917
REMARK  8 active torsions:
REMARK  status: ('A' for Active; 'I' for Inactive)
REMARK    1  A    between atoms: O1_2  and  C2_3 
REMARK    2  A    between atoms: C2_3  and  C3_4 
REMARK    3  A    between atoms: C3_4  and  O2_5 
REMARK    4  A    between atoms: O2_5  and  C4_6 
REMARK    5  A    between atoms: C7_9  and  C8_10 
REMARK    6  A    between atoms: C9_14  and  C10_15 
REMARK    7  A    between atoms: N2_19  and  C14_20 
REMARK    8  A    between atoms: C14_20  and  C15_21 
ROOT
HETATM    1  C8  UNL     1      16.828  34.991  14.065  1.00  0.00     0.139 A 
HETATM    2  N1  UNL     1      17.401  35.171  15.266  1.00  0.00    -0.242 N 
ATOM      3  H1  UNL     1      18.333  34.887  15.568  1.00  0.00     0.196 HD
HETATM    4  O3  UNL     1      16.422  35.835  16.004  1.00  0.00    -0.220 OA
HETATM    5  C9  UNL     1      15.344  35.975  15.181  1.00  0.00     0.182 A 
HETATM    6  N4  UNL     1      15.535  35.458  13.986  1.00  0.00    -0.321 N 
ATOM      7  H4  UNL     1      14.888  35.415  13.198  1.00  0.00     0.169 HD
ENDROOT
BRANCH   5   8
HETATM    8  C10 UNL     1      14.137  36.655  15.764  1.00  0.00     0.299 C 
HETATM    9  C11 UNL     1      14.532  37.892  16.572  1.00  0.00     0.046 C 
HETATM   10  C12 UNL     1      14.618  37.423  18.019  1.00  0.00     0.033 C 
HETATM   11  C13 UNL     1      14.127  35.984  18.013  1.00  0.00     0.274 C 
HETATM   12  N2  UNL     1      13.433  35.779  16.733  1.00  0.00     0.105 N 
BRANCH  12  13
HETATM   13  C14 UNL     1      12.002  36.092  16.851  1.00  0.00     0.314 C 
BRANCH  13  14
HETATM   14  C15 UNL     1      11.408  35.416  18.051  1.00  0.00    -0.002 A 
HETATM   15  C16 UNL     1      12.031  34.470  18.846  1.00  0.00     0.100 A 
HETATM   16  N3  UNL     1      11.161  34.093  19.833  1.00  0.00    -0.360 N 
HETATM   17  C17 UNL     1      11.454  33.123  20.864  1.00  0.00     0.155 C 
HETATM   18  C18 UNL     1       9.967  34.768  19.705  1.00  0.00     0.044 A 
HETATM   19  C19 UNL     1       8.791  34.717  20.471  1.00  0.00     0.030 A 
HETATM   20  C23 UNL     1      10.094  35.605  18.593  1.00  0.00     0.000 A 
HETATM   21  C20 UNL     1       7.726  35.542  20.097  1.00  0.00     0.002 A 
HETATM   22  C21 UNL     1       7.827  36.386  18.997  1.00  0.00     0.001 A 
HETATM   23  C22 UNL     1       9.001  36.424  18.237  1.00  0.00     0.014 A 
ENDBRANCH  13  14
ENDBRANCH  12  13
ENDBRANCH   5   8
BRANCH   1  24
HETATM   24  C7  UNL     1      17.489  34.357  12.939  1.00  0.00     0.025 A 
HETATM   25  C6  UNL     1      17.123  33.089  12.475  1.00  0.00     0.021 A 
HETATM   26  C5  UNL     1      17.800  32.527  11.391  1.00  0.00     0.057 A 
HETATM   27  C4  UNL     1      18.824  33.250  10.803  1.00  0.00     0.141 A 
HETATM   28  N5  UNL     1      19.208  34.473  11.220  1.00  0.00    -0.346 N 
HETATM   29  C24 UNL     1      18.533  34.996  12.275  1.00  0.00     0.105 A 
ATOM     30  H5  UNL     1      19.968  34.979  10.766  1.00  0.00     0.167 HD
BRANCH  27  31
HETATM   31  O2  UNL     1      19.469  32.646   9.745  1.00  0.00    -0.334 OA
BRANCH  31  32
HETATM   32  C3  UNL     1      18.858  31.440   9.278  1.00  0.00     0.203 C 
BRANCH  32  33
HETATM   33  C2  UNL     1      18.438  31.553   7.810  1.00  0.00     0.193 C 
BRANCH  33  34
HETATM   34  O1  UNL     1      18.125  30.279   7.241  1.00  0.00    -0.394 OA
HETATM   35  C1  UNL     1      19.150  29.787   6.389  1.00  0.00     0.201 C 
ENDBRANCH  33  34
ENDBRANCH  32  33
ENDBRANCH  31  32
ENDBRANCH  27  31
ENDBRANCH   1  24
TORSDOF 8
ENDMDL
