MODEL 1
REMARK minimizedAffinity -9.13024902
REMARK  5 active torsions:
REMARK  status: ('A' for Active; 'I' for Inactive)
REMARK    1  A    between atoms: C2_2  and  C3_3 
REMARK    2  A    between atoms: C2_2  and  C9_10 
REMARK    3  A    between atoms: C3_3  and  C4_4 
REMARK    4  A    between atoms: C5_5  and  C6_6 
REMARK    5  A    between atoms: C6_6  and  O1_9 
ROOT
HETATM    1  C9  UNL     1      -5.616   7.209  14.033  1.00  0.00    -0.002 C 
HETATM    2  C10 UNL     1      -5.669   8.654  14.615  1.00  0.00     0.006 C 
HETATM    3  C11 UNL     1      -4.212   9.134  14.764  1.00  0.00     0.011 C 
HETATM    4  C12 UNL     1      -3.385   8.156  13.901  1.00  0.00    -0.032 C 
HETATM    5  C13 UNL     1      -3.525   8.660  12.424  1.00  0.00     0.016 C 
HETATM    6  C14 UNL     1      -1.874   8.041  14.280  1.00  0.00     0.003 C 
HETATM    7  C15 UNL     1      -1.093   9.351  13.998  1.00  0.00     0.007 C 
HETATM    8  C16 UNL     1       0.386   9.204  14.347  1.00  0.00     0.011 C 
HETATM    9  C17 UNL     1       1.125   8.115  13.496  1.00  0.00    -0.030 C 
HETATM   10  C18 UNL     1       2.074   7.363  14.464  1.00  0.00     0.016 C 
HETATM   11  C19 UNL     1       0.071   7.189  12.788  1.00  0.00     0.003 C 
HETATM   12  C20 UNL     1       0.720   6.059  11.959  1.00  0.00     0.013 C 
HETATM   13  C21 UNL     1       2.079   6.396  11.360  1.00  0.00     0.079 C 
HETATM   14  C22 UNL     1       2.346   7.874  11.220  1.00  0.00     0.131 C 
HETATM   15  O2  UNL     1       2.936   8.296  10.217  1.00  0.00    -0.298 OA
HETATM   16  C23 UNL     1       1.949   8.820  12.352  1.00  0.00     0.060 C 
HETATM   17  C24 UNL     1       3.206   9.569  12.807  1.00  0.00     0.018 C 
HETATM   18  C25 UNL     1      -1.169   6.744  13.671  1.00  0.00    -0.035 C 
HETATM   19  C26 UNL     1      -0.704   5.803  14.820  1.00  0.00     0.016 C 
HETATM   20  C27 UNL     1      -2.145   5.881  12.796  1.00  0.00     0.011 C 
HETATM   21  C28 UNL     1      -3.589   5.682  13.304  1.00  0.00     0.011 C 
HETATM   22  C29 UNL     1      -4.121   6.797  14.229  1.00  0.00    -0.032 C 
HETATM   23  C30 UNL     1      -3.930   6.332  15.706  1.00  0.00     0.016 C 
ENDROOT
BRANCH   1  24
HETATM   24  C2  UNL     1      -6.825   6.320  14.454  1.00  0.00    -0.010 C 
HETATM   25  C1  UNL     1      -6.669   5.463  15.718  1.00  0.00     0.010 C 
BRANCH  24  26
HETATM   26  C3  UNL     1      -7.332   5.468  13.264  1.00  0.00     0.031 C 
BRANCH  26  27
HETATM   27  C4  UNL     1      -6.332   4.452  12.782  1.00  0.00    -0.027 C 
HETATM   28  C5  UNL     1      -6.521   3.658  11.717  1.00  0.00     0.006 C 
BRANCH  28  29
HETATM   29  C6  UNL     1      -5.558   2.610  11.204  1.00  0.00     0.068 C 
HETATM   30  C7  UNL     1      -6.161   1.206  11.316  1.00  0.00     0.050 C 
HETATM   31  C8  UNL     1      -4.234   2.679  11.971  1.00  0.00     0.050 C 
BRANCH  29  32
HETATM   32  O1  UNL     1      -5.269   2.859   9.826  1.00  0.00    -0.387 OA
HETATM   33  H15 UNL     1      -6.091   2.675   9.330  1.00  0.00     0.211 HD
ENDBRANCH  29  32
ENDBRANCH  28  29
ENDBRANCH  26  27
ENDBRANCH  24  26
ENDBRANCH   1  24
TORSDOF 5
ENDMDL
