MODEL 1
REMARK minimizedAffinity -7.35502243
REMARK CNNscore 0.814656615
REMARK CNNaffinity 7.04846191
REMARK  12 active torsions:
REMARK  status: ('A' for Active; 'I' for Inactive)
REMARK    1  A    between atoms: O1_2  and  C2_3 
REMARK    2  A    between atoms: C3_5  and  C4_6 
REMARK    3  A    between atoms: C4_6  and  O3_7 
REMARK    4  A    between atoms: C4_6  and  C5_8 
REMARK    5  A    between atoms: C5_8  and  O4_10 
REMARK    6  A    between atoms: C5_8  and  C7_11 
REMARK    7  A    between atoms: C7_11  and  O5_12 
REMARK    8  A    between atoms: C9_14  and  C10_15 
REMARK    9  A    between atoms: C23_28  and  O6_29 
REMARK   10  A    between atoms: O6_29  and  C24_30 
REMARK   11  A    between atoms: C24_30  and  C25_32 
REMARK   12  A    between atoms: C34_41  and  O8_42 
ROOT
HETATM    1  C10 UNL     1      -0.890  52.158 -12.087  1.00  0.00     0.004 C 
HETATM    2  C11 UNL     1       0.077  51.056 -12.583  1.00  0.00     0.007 C 
HETATM    3  C12 UNL     1       0.978  50.701 -11.396  1.00  0.00     0.011 C 
HETATM    4  C13 UNL     1       1.050  51.988 -10.592  1.00  0.00    -0.021 A 
HETATM    5  C14 UNL     1      -0.028  52.111  -9.547  1.00  0.00     0.022 A 
HETATM    6  C15 UNL     1      -0.195  52.803 -10.889  1.00  0.00    -0.027 A 
HETATM    7  C16 UNL     1      -0.217  54.314 -10.812  1.00  0.00     0.011 C 
HETATM    8  C17 UNL     1       1.168  54.964 -10.829  1.00  0.00     0.007 C 
HETATM    9  C18 UNL     1       2.179  54.209  -9.935  1.00  0.00     0.005 C 
HETATM   10  C19 UNL     1       3.486  55.035  -9.548  1.00  0.00    -0.035 C 
HETATM   11  C20 UNL     1       4.240  55.546 -10.800  1.00  0.00     0.016 C 
HETATM   12  C21 UNL     1       3.063  56.285  -8.714  1.00  0.00     0.012 C 
HETATM   13  C22 UNL     1       4.221  57.010  -8.032  1.00  0.00     0.034 C 
HETATM   14  C23 UNL     1       5.061  56.082  -7.152  1.00  0.00     0.140 C 
HETATM   15  C29 UNL     1       5.588  54.825  -7.913  1.00  0.00    -0.016 C 
HETATM   16  C30 UNL     1       6.204  53.877  -6.845  1.00  0.00     0.018 C 
HETATM   17  C31 UNL     1       6.741  55.185  -8.875  1.00  0.00     0.018 C 
HETATM   18  C32 UNL     1       4.362  54.122  -8.608  1.00  0.00     0.007 C 
HETATM   19  C33 UNL     1       4.676  52.760  -9.271  1.00  0.00     0.038 C 
HETATM   20  C34 UNL     1       3.393  51.970  -9.577  1.00  0.00     0.128 C 
HETATM   21  C35 UNL     1       2.415  52.748 -10.504  1.00  0.00    -0.005 C 
HETATM   22  C36 UNL     1       3.026  52.784 -11.936  1.00  0.00     0.019 C 
ENDROOT
BRANCH   1  23
HETATM   23  C9  UNL     1      -2.353  51.726 -11.895  1.00  0.00     0.048 C 
HETATM   24  C2  UNL     1      -2.927  50.616 -12.778  1.00  0.00     0.264 C 
HETATM   25  O2  UNL     1      -3.969  49.972 -12.014  1.00  0.00    -0.353 OA
HETATM   26  C3  UNL     1      -4.102  50.669 -10.753  1.00  0.00     0.157 C 
HETATM   27  C8  UNL     1      -2.718  51.248 -10.503  1.00  0.00     0.044 C 
BRANCH  24  28
HETATM   28  O1  UNL     1      -3.465  51.187 -13.965  1.00  0.00    -0.366 OA
HETATM   29  C1  UNL     1      -2.736  50.799 -15.121  1.00  0.00     0.204 C 
ENDBRANCH  24  28
BRANCH  26  30
HETATM   30  C4  UNL     1      -4.553  49.678  -9.663  1.00  0.00     0.183 C 
BRANCH  30  31
HETATM   31  O3  UNL     1      -3.502  48.727  -9.434  1.00  0.00    -0.390 OA
HETATM   32  H7  UNL     1      -3.079  48.592 -10.304  1.00  0.00     0.210 HD
ENDBRANCH  30  31
BRANCH  30  33
HETATM   33  C5  UNL     1      -5.889  48.957  -9.986  1.00  0.00     0.103 C 
HETATM   34  C6  UNL     1      -7.075  49.892  -9.696  1.00  0.00     0.051 C 
BRANCH  33  35
HETATM   35  O4  UNL     1      -5.926  48.666 -11.398  1.00  0.00    -0.385 OA
HETATM   36  H11 UNL     1      -6.701  48.077 -11.509  1.00  0.00     0.210 HD
ENDBRANCH  33  35
BRANCH  33  37
HETATM   37  C7  UNL     1      -6.063  47.621  -9.238  1.00  0.00     0.204 C 
BRANCH  37  38
HETATM   38  O5  UNL     1      -6.030  47.866  -7.825  1.00  0.00    -0.398 OA
HETATM   39  H14 UNL     1      -6.320  47.040  -7.392  1.00  0.00     0.209 HD
ENDBRANCH  37  38
ENDBRANCH  33  37
ENDBRANCH  30  33
ENDBRANCH  26  30
ENDBRANCH   1  23
BRANCH  20  40
HETATM   40  O8  UNL     1       2.762  51.663  -8.329  1.00  0.00    -0.395 OA
HETATM   41  H55 UNL     1       3.374  51.107  -7.819  1.00  0.00     0.210 HD
ENDBRANCH  20  40
BRANCH  14  42
HETATM   42  O6  UNL     1       6.184  56.825  -6.633  1.00  0.00    -0.312 OA
BRANCH  42  43
HETATM   43  C24 UNL     1       6.005  57.441  -5.442  1.00  0.00     0.283 C 
HETATM   44  O7  UNL     1       5.113  57.224  -4.637  1.00  0.00    -0.260 OA
BRANCH  43  45
HETATM   45  C25 UNL     1       7.105  58.388  -5.157  1.00  0.00     0.084 C 
HETATM   46  C26 UNL     1       7.060  59.539  -4.458  1.00  0.00    -0.082 C 
HETATM   47  C27 UNL     1       5.855  60.088  -3.742  1.00  0.00     0.043 C 
HETATM   48  C28 UNL     1       8.299  60.386  -4.317  1.00  0.00     0.043 C 
ENDBRANCH  43  45
ENDBRANCH  42  43
ENDBRANCH  14  42
TORSDOF 12
ENDMDL
