MODEL 1
REMARK minimizedAffinity -9.28557301
REMARK  9 active torsions:
REMARK  status: ('A' for Active; 'I' for Inactive)
REMARK    1  A    between atoms: C2_2  and  C3_3 
REMARK    2  A    between atoms: C3_3  and  N1_4 
REMARK    3  A    between atoms: N1_4  and  C4_5 
REMARK    4  A    between atoms: C4_5  and  C5_6 
REMARK    5  A    between atoms: C7_8  and  O1_9 
REMARK    6  A    between atoms: C25_28  and  N2_29 
REMARK    7  A    between atoms: C25_28  and  C26_30 
REMARK    8  A    between atoms: C26_30  and  C27_31 
REMARK    9  A    between atoms: C27_31  and  O3_32 
ROOT
HETATM    1  C5  UNL     1       0.380  50.962 -17.045  1.00  0.00    -0.021 A 
HETATM    2  C6  UNL     1       0.424  49.723 -16.377  1.00  0.00     0.045 A 
HETATM    3  C7  UNL     1      -0.577  48.780 -16.537  1.00  0.00     0.066 A 
HETATM    4  C8  UNL     1      -1.686  49.052 -17.318  1.00  0.00     0.045 A 
HETATM    5  C9  UNL     1      -1.816  50.295 -17.967  1.00  0.00    -0.037 A 
HETATM    6  C10 UNL     1      -0.754  51.257 -17.867  1.00  0.00    -0.042 A 
HETATM    7  C11 UNL     1      -0.770  52.543 -18.713  1.00  0.00     0.044 C 
HETATM    8  C12 UNL     1      -0.285  52.229 -20.142  1.00  0.00    -0.010 C 
HETATM    9  C13 UNL     1       1.061  52.815 -20.594  1.00  0.00     0.005 C 
HETATM   10  C14 UNL     1       1.448  52.281 -21.994  1.00  0.00     0.001 C 
HETATM   11  C15 UNL     1       0.307  52.257 -23.037  1.00  0.00     0.007 C 
HETATM   12  C16 UNL     1      -1.002  51.725 -22.417  1.00  0.00     0.022 C 
HETATM   13  C17 UNL     1      -1.307  52.636 -21.217  1.00  0.00     0.012 C 
HETATM   14  C18 UNL     1      -2.177  51.419 -23.378  1.00  0.00     0.082 C 
HETATM   15  C19 UNL     1      -2.521  52.581 -24.335  1.00  0.00     0.040 C 
HETATM   16  C20 UNL     1      -3.698  52.154 -25.233  1.00  0.00     0.013 C 
HETATM   17  C21 UNL     1      -3.965  50.624 -25.059  1.00  0.00     0.059 C 
HETATM   18  C22 UNL     1      -2.583  49.915 -25.262  1.00  0.00     0.061 C 
HETATM   19  C23 UNL     1      -2.628  48.376 -25.283  1.00  0.00     0.046 C 
HETATM   20  C24 UNL     1      -1.901  50.313 -26.592  1.00  0.00     0.046 C 
HETATM   21  O2  UNL     1      -1.713  50.301 -24.182  1.00  0.00    -0.368 OA
HETATM   22  C25 UNL     1      -4.542  50.373 -23.605  1.00  0.00     0.180 C 
HETATM   23  C28 UNL     1      -3.522  51.048 -22.631  1.00  0.00     0.139 C 
HETATM   24  C29 UNL     1      -3.358  50.404 -21.297  1.00  0.00    -0.096 C 
HETATM   25  C30 UNL     1      -3.222  50.287 -20.106  1.00  0.00    -0.101 C 
HETATM   26  C31 UNL     1      -3.151  50.537 -18.654  1.00  0.00     0.133 C 
ENDROOT
BRANCH  22  27
HETATM   27  N2  UNL     1      -4.739  48.926 -23.393  1.00  0.00     0.090 N 
HETATM   28  H37 UNL     1      -3.945  48.541 -22.878  1.00  0.00     0.313 HD
HETATM   29  H38 UNL     1      -5.544  48.768 -22.776  1.00  0.00     0.313 HD
ENDBRANCH  22  27
BRANCH  22  30
HETATM   30  C26 UNL     1      -5.973  51.005 -23.455  1.00  0.00     0.069 C 
BRANCH  30  31
HETATM   31  C27 UNL     1      -7.034  50.165 -22.730  1.00  0.00     0.166 C 
BRANCH  31  32
HETATM   32  O3  UNL     1      -6.891  50.223 -21.317  1.00  0.00    -0.401 OA
HETATM   33  H43 UNL     1      -7.609  50.790 -20.980  1.00  0.00     0.209 HD
ENDBRANCH  31  32
ENDBRANCH  30  31
ENDBRANCH  22  30
BRANCH   3  34
HETATM   34  O1  UNL     1      -0.443  47.592 -15.880  1.00  0.00    -0.361 OA
HETATM   35  H12 UNL     1      -1.179  47.013 -16.132  1.00  0.00     0.217 HD
ENDBRANCH   3  34
BRANCH   1  36
HETATM   36  C4  UNL     1       1.476  51.996 -16.805  1.00  0.00     0.308 C 
BRANCH  36  37
HETATM   37  N1  UNL     1       1.623  52.540 -15.451  1.00  0.00     0.087 N 
HETATM   38  H8  UNL     1       0.716  52.637 -15.003  1.00  0.00     0.316 HD
BRANCH  37  39
HETATM   39  C3  UNL     1       2.554  51.775 -14.624  1.00  0.00     0.269 C 
BRANCH  39  40
HETATM   40  C2  UNL     1       3.932  51.685 -15.288  1.00  0.00     0.025 C 
HETATM   41  C1  UNL     1       4.347  52.966 -15.997  1.00  0.00     0.007 C 
ENDBRANCH  39  40
ENDBRANCH  37  39
ENDBRANCH  36  37
ENDBRANCH   1  36
TORSDOF 9
ENDMDL
