MODEL 1
REMARK minimizedAffinity -9.47717094
REMARK CNNscore 0.471368462
REMARK CNNaffinity 6.99527502
REMARK  14 active torsions:
REMARK  status: ('A' for Active; 'I' for Inactive)
REMARK    1  A    between atoms: O1_2  and  C2_3 
REMARK    2  A    between atoms: C2_3  and  C5_6 
REMARK    3  A    between atoms: C6_7  and  C7_8 
REMARK    4  A    between atoms: C7_8  and  C8_9 
REMARK    5  A    between atoms: C8_9  and  C10_11 
REMARK    6  A    between atoms: C16_17  and  O2_18 
REMARK    7  A    between atoms: C22_24  and  O3_25 
REMARK    8  A    between atoms: O3_25  and  C23_26 
REMARK    9  A    between atoms: C24_28  and  C25_29 
REMARK   10  A    between atoms: C25_29  and  O5_30 
REMARK   11  A    between atoms: C26_31  and  O6_32 
REMARK   12  A    between atoms: C27_33  and  O7_34 
REMARK   13  A    between atoms: C28_35  and  O8_36 
REMARK   14  A    between atoms: C32_40  and  C33_41 
ROOT
HETATM    1  C10 UNL     1      -1.630  50.698 -21.683  1.00  0.00    -0.002 C 
HETATM    2  C11 UNL     1      -2.883  51.585 -21.598  1.00  0.00     0.006 C 
HETATM    3  C12 UNL     1      -3.899  50.688 -20.910  1.00  0.00     0.011 C 
HETATM    4  C13 UNL     1      -3.107  50.029 -19.758  1.00  0.00    -0.029 C 
HETATM    5  C14 UNL     1      -3.085  51.059 -18.588  1.00  0.00     0.016 C 
HETATM    6  C15 UNL     1      -3.710  48.669 -19.231  1.00  0.00     0.043 C 
HETATM    7  C16 UNL     1      -5.028  48.775 -18.418  1.00  0.00     0.147 C 
HETATM    8  C17 UNL     1      -6.291  48.589 -19.187  1.00  0.00     0.009 C 
HETATM    9  C18 UNL     1      -6.387  48.024 -20.404  1.00  0.00    -0.066 C 
HETATM   10  C19 UNL     1      -5.147  47.489 -21.111  1.00  0.00     0.031 C 
HETATM   11  C20 UNL     1      -5.436  46.103 -21.715  1.00  0.00     0.013 C 
HETATM   12  C21 UNL     1      -6.621  46.147 -22.672  1.00  0.00     0.034 C 
HETATM   13  C22 UNL     1      -7.898  46.608 -21.958  1.00  0.00     0.136 C 
HETATM   14  C29 UNL     1      -7.706  47.979 -21.213  1.00  0.00     0.002 C 
HETATM   15  C30 UNL     1      -8.970  48.198 -20.342  1.00  0.00     0.022 C 
HETATM   16  C31 UNL     1      -7.669  49.152 -22.222  1.00  0.00     0.022 C 
HETATM   17  C32 UNL     1      -3.795  47.527 -20.301  1.00  0.00     0.027 C 
HETATM   18  C34 UNL     1      -2.623  47.613 -21.321  1.00  0.00     0.018 C 
HETATM   19  C35 UNL     1      -1.397  48.314 -20.744  1.00  0.00     0.011 C 
HETATM   20  C36 UNL     1      -1.637  49.812 -20.368  1.00  0.00    -0.032 C 
HETATM   21  C37 UNL     1      -0.529  50.143 -19.347  1.00  0.00     0.016 C 
ENDROOT
BRANCH  13  22
HETATM   22  O3  UNL     1      -9.008  46.754 -22.854  1.00  0.00    -0.352 OA
BRANCH  22  23
HETATM   23  C23 UNL     1      -8.756  47.463 -24.066  1.00  0.00     0.292 C 
HETATM   24  O4  UNL     1      -9.941  48.171 -24.441  1.00  0.00    -0.348 OA
HETATM   25  C24 UNL     1     -10.028  48.576 -25.810  1.00  0.00     0.179 C 
HETATM   26  C26 UNL     1      -8.715  48.408 -26.594  1.00  0.00     0.180 C 
HETATM   27  C27 UNL     1      -8.177  46.982 -26.509  1.00  0.00     0.183 C 
HETATM   28  C28 UNL     1      -8.367  46.390 -25.111  1.00  0.00     0.204 C 
BRANCH  25  29
HETATM   29  C25 UNL     1     -11.286  47.969 -26.472  1.00  0.00     0.198 C 
BRANCH  29  30
HETATM   30  O5  UNL     1     -12.075  48.870 -27.237  1.00  0.00    -0.398 OA
HETATM   31  H40 UNL     1     -12.173  49.719 -26.757  1.00  0.00     0.209 HD
ENDBRANCH  29  30
ENDBRANCH  25  29
BRANCH  26  32
HETATM   32  O6  UNL     1      -8.866  48.802 -27.957  1.00  0.00    -0.390 OA
HETATM   33  H42 UNL     1      -7.983  49.071 -28.268  1.00  0.00     0.210 HD
ENDBRANCH  26  32
BRANCH  27  34
HETATM   34  O7  UNL     1      -6.780  47.022 -26.847  1.00  0.00    -0.390 OA
HETATM   35  H44 UNL     1      -6.514  46.104 -27.034  1.00  0.00     0.210 HD
ENDBRANCH  27  34
BRANCH  28  36
HETATM   36  O8  UNL     1      -9.404  45.394 -25.192  1.00  0.00    -0.388 OA
HETATM   37  H46 UNL     1      -9.642  45.187 -24.264  1.00  0.00     0.210 HD
ENDBRANCH  28  36
ENDBRANCH  22  23
ENDBRANCH  13  22
BRANCH  17  38
HETATM   38  C33 UNL     1      -3.656  46.211 -19.509  1.00  0.00     0.241 C 
HETATM   39  O9  UNL     1      -4.587  45.602 -18.986  1.00  0.00    -0.306 OA
ENDBRANCH  17  38
BRANCH   7  40
HETATM   40  O2  UNL     1      -5.035  47.759 -17.413  1.00  0.00    -0.391 OA
HETATM   41  H28 UNL     1      -5.761  47.963 -16.799  1.00  0.00     0.210 HD
ENDBRANCH   7  40
BRANCH   1  42
HETATM   42  C8  UNL     1      -0.375  51.489 -22.169  1.00  0.00    -0.010 C 
HETATM   43  C9  UNL     1       0.568  51.853 -21.014  1.00  0.00     0.010 C 
BRANCH  42  44
HETATM   44  C7  UNL     1      -0.663  52.620 -23.193  1.00  0.00     0.031 C 
BRANCH  44  45
HETATM   45  C6  UNL     1      -0.457  52.299 -24.647  1.00  0.00    -0.027 C 
HETATM   46  C5  UNL     1       0.738  52.397 -25.259  1.00  0.00     0.006 C 
BRANCH  46  47
HETATM   47  C2  UNL     1       1.090  52.132 -26.710  1.00  0.00     0.070 C 
HETATM   48  C3  UNL     1       2.510  51.549 -26.809  1.00  0.00     0.050 C 
HETATM   49  C4  UNL     1       0.131  51.148 -27.399  1.00  0.00     0.050 C 
BRANCH  47  50
HETATM   50  O1  UNL     1       0.961  53.350 -27.463  1.00  0.00    -0.382 OA
HETATM   51  C1  UNL     1      -0.347  53.748 -27.851  1.00  0.00     0.202 C 
ENDBRANCH  47  50
ENDBRANCH  46  47
ENDBRANCH  44  45
ENDBRANCH  42  44
ENDBRANCH   1  42
TORSDOF 14
ENDMDL
