MODEL 1
REMARK minimizedAffinity -10.7310305
REMARK  4 active torsions:
REMARK  status: ('A' for Active; 'I' for Inactive)
REMARK    1  A    between atoms: C4_4  and  C5_5 
REMARK    2  A    between atoms: C5_5  and  C6_6 
REMARK    3  A    between atoms: C6_6  and  C7_7 
REMARK    4  A    between atoms: C25_26  and  O2_27 
ROOT
HETATM    1  C7  UNL     1      -7.143   5.750  14.645  1.00  0.00     0.023 C 
HETATM    2  C8  UNL     1      -6.173   6.545  14.203  1.00  0.00    -0.034 C 
HETATM    3  C9  UNL     1      -6.319   7.921  14.722  1.00  0.00     0.163 C 
HETATM    4  C10 UNL     1      -4.882   8.361  15.025  1.00  0.00     0.048 C 
HETATM    5  C11 UNL     1      -3.970   7.166  14.568  1.00  0.00    -0.019 C 
HETATM    6  C12 UNL     1      -3.775   6.281  15.855  1.00  0.00     0.017 C 
HETATM    7  C13 UNL     1      -4.870   6.447  13.506  1.00  0.00     0.027 C 
HETATM    8  C14 UNL     1      -4.267   5.136  13.029  1.00  0.00     0.010 C 
HETATM    9  C15 UNL     1      -2.871   5.392  12.432  1.00  0.00     0.007 C 
HETATM   10  C16 UNL     1      -1.929   6.167  13.391  1.00  0.00     0.011 C 
HETATM   11  C17 UNL     1      -0.422   6.237  12.906  1.00  0.00    -0.032 C 
HETATM   12  C18 UNL     1       0.225   4.871  13.324  1.00  0.00     0.016 C 
HETATM   13  C19 UNL     1      -0.249   6.348  11.365  1.00  0.00     0.017 C 
HETATM   14  C20 UNL     1       1.081   6.970  10.917  1.00  0.00     0.079 C 
HETATM   15  C21 UNL     1       2.184   6.891  11.958  1.00  0.00     0.131 C 
HETATM   16  O1  UNL     1       3.324   6.550  11.640  1.00  0.00    -0.298 OA
HETATM   17  C22 UNL     1       1.852   7.339  13.384  1.00  0.00     0.059 C 
HETATM   18  C23 UNL     1       2.587   8.652  13.639  1.00  0.00     0.018 C 
HETATM   19  C24 UNL     1       0.319   7.468  13.536  1.00  0.00     0.041 C 
HETATM   20  C25 UNL     1      -0.162   7.786  14.955  1.00  0.00     0.194 C 
HETATM   21  C26 UNL     1      -1.644   8.172  14.936  1.00  0.00     0.165 C 
HETATM   22  O3  UNL     1      -2.061   9.004  15.747  1.00  0.00    -0.294 OA
HETATM   23  C27 UNL     1      -2.571   7.518  13.895  1.00  0.00     0.032 C 
HETATM   24  C28 UNL     1      -2.724   8.551  12.749  1.00  0.00     0.025 C 
HETATM   25  O4  UNL     1      -7.208   7.772  15.800  1.00  0.00    -0.308 OA
HETATM   26  C29 UNL     1      -7.883   6.593  15.612  1.00  0.00     0.290 C 
HETATM   27  O5  UNL     1      -8.902   6.272  16.199  1.00  0.00    -0.260 OA
ENDROOT
BRANCH   1  28
HETATM   28  C6  UNL     1      -7.468   4.315  14.421  1.00  0.00     0.049 C 
BRANCH  28  29
HETATM   29  C5  UNL     1      -7.751   3.911  12.964  1.00  0.00     0.032 C 
BRANCH  29  30
HETATM   30  C4  UNL     1      -7.200   2.570  12.550  1.00  0.00    -0.024 C 
HETATM   31  C2  UNL     1      -6.287   2.322  11.591  1.00  0.00    -0.091 C 
HETATM   32  C1  UNL     1      -5.689   3.366  10.690  1.00  0.00     0.042 C 
HETATM   33  C3  UNL     1      -5.790   0.920  11.359  1.00  0.00     0.042 C 
ENDBRANCH  29  30
ENDBRANCH  28  29
ENDBRANCH   1  28
BRANCH  20  34
HETATM   34  O2  UNL     1       0.095   6.723  15.853  1.00  0.00    -0.388 OA
HETATM   35  H37 UNL     1      -0.243   6.997  16.725  1.00  0.00     0.210 HD
ENDBRANCH  20  34
TORSDOF 4
ENDMDL
