MODEL 1
REMARK minimizedAffinity -10.6805239
REMARK  6 active torsions:
REMARK  status: ('A' for Active; 'I' for Inactive)
REMARK    1  A    between atoms: C3_3  and  O1_4 
REMARK    2  A    between atoms: N1_14  and  O2_16 
REMARK    3  A    between atoms: O2_16  and  C13_17 
REMARK    4  A    between atoms: C13_17  and  C14_18 
REMARK       I    between atoms: C14_18  and  N2_20 
REMARK    5  A    between atoms: N2_20  and  C15_21 
REMARK    6  A    between atoms: C15_21  and  C17_23 
ROOT
HETATM    1  C1  UNL     1      -8.934   5.853  11.969  1.00  0.00     0.015 C 
HETATM    2  C2  UNL     1      -8.444   6.019  13.052  1.00  0.00    -0.078 C 
HETATM    3  C3  UNL     1      -7.832   6.214  14.385  1.00  0.00     0.128 C 
HETATM    4  C4  UNL     1      -7.908   7.710  14.796  1.00  0.00     0.052 C 
HETATM    5  C5  UNL     1      -6.518   8.318  14.511  1.00  0.00     0.010 C 
HETATM    6  C6  UNL     1      -5.749   7.211  13.792  1.00  0.00     0.002 C 
HETATM    7  C7  UNL     1      -4.216   7.267  13.774  1.00  0.00    -0.004 C 
HETATM    8  C8  UNL     1      -3.714   8.581  13.163  1.00  0.00     0.010 C 
HETATM    9  C9  UNL     1      -2.192   8.623  13.151  1.00  0.00     0.035 C 
HETATM   10  C10 UNL     1      -1.593   7.444  12.424  1.00  0.00    -0.069 C 
HETATM   11  C11 UNL     1      -0.623   7.655  11.516  1.00  0.00     0.030 C 
HETATM   12  C12 UNL     1       0.122   6.540  10.879  1.00  0.00     0.032 C 
HETATM   13  N1  UNL     1       1.112   6.854  10.089  1.00  0.00    -0.271 N 
ATOM     14  H1  UNL     1       1.381   7.811   9.864  1.00  0.00     0.194 HD
HETATM   15  C23 UNL     1      -0.258   5.124  11.252  1.00  0.00     0.060 C 
HETATM   16  C24 UNL     1      -1.712   5.035  11.702  1.00  0.00     0.020 C 
HETATM   17  C25 UNL     1      -2.099   6.052  12.816  1.00  0.00    -0.016 C 
HETATM   18  C26 UNL     1      -1.412   5.650  14.141  1.00  0.00     0.020 C 
HETATM   19  C27 UNL     1      -3.674   6.056  12.952  1.00  0.00     0.002 C 
HETATM   20  C28 UNL     1      -4.261   4.715  13.470  1.00  0.00     0.007 C 
HETATM   21  C29 UNL     1      -5.795   4.721  13.597  1.00  0.00     0.014 C 
HETATM   22  C30 UNL     1      -6.302   5.915  14.428  1.00  0.00     0.003 C 
HETATM   23  C31 UNL     1      -5.857   5.711  15.907  1.00  0.00     0.020 C 
ENDROOT
BRANCH   3  24
HETATM   24  O1  UNL     1      -8.549   5.417  15.319  1.00  0.00    -0.377 OA
HETATM   25  H2  UNL     1      -9.493   5.582  15.160  1.00  0.00     0.211 HD
ENDBRANCH   3  24
BRANCH  13  26
HETATM   26  O2  UNL     1       1.763   5.716   9.587  1.00  0.00    -0.271 OA
BRANCH  26  27
HETATM   27  C13 UNL     1       2.800   6.127   8.701  1.00  0.00     0.303 C 
BRANCH  27  28
HETATM   28  C14 UNL     1       3.723   7.118   9.391  1.00  0.00     0.244 C 
HETATM   29  O3  UNL     1       3.754   8.309   9.102  1.00  0.00    -0.271 OA
HETATM   30  N2  UNL     1       4.569   6.539  10.316  1.00  0.00    -0.351 N 
HETATM   31  H16 UNL     1       4.331   5.603  10.633  1.00  0.00     0.163 HD
BRANCH  30  32
HETATM   32  C15 UNL     1       5.496   7.323  11.114  1.00  0.00     0.113 C 
HETATM   33  C16 UNL     1       6.872   6.654  11.209  1.00  0.00     0.037 C 
BRANCH  32  34
HETATM   34  C17 UNL     1       4.920   7.570  12.500  1.00  0.00    -0.036 A 
HETATM   35  C18 UNL     1       3.536   7.686  12.711  1.00  0.00     0.009 A 
HETATM   36  C19 UNL     1       3.024   7.892  13.994  1.00  0.00     0.001 A 
HETATM   37  C20 UNL     1       3.887   7.980  15.085  1.00  0.00     0.000 A 
HETATM   38  C21 UNL     1       5.263   7.876  14.891  1.00  0.00     0.001 A 
HETATM   39  C22 UNL     1       5.776   7.678  13.608  1.00  0.00     0.009 A 
ENDBRANCH  32  34
ENDBRANCH  30  32
ENDBRANCH  27  28
ENDBRANCH  26  27
ENDBRANCH  13  26
TORSDOF 6
ENDMDL
