MODEL 1
REMARK minimizedAffinity -7.50254822
REMARK CNNscore 0.682015717
REMARK CNNaffinity 6.81506777
REMARK  11 active torsions:
REMARK  status: ('A' for Active; 'I' for Inactive)
REMARK    1  A    between atoms: C2_2  and  C3_3 
REMARK    2  A    between atoms: C2_2  and  C30_36 
REMARK    3  A    between atoms: C3_3  and  C4_5 
REMARK    4  A    between atoms: C4_5  and  O2_6 
REMARK    5  A    between atoms: C4_5  and  C5_7 
REMARK    6  A    between atoms: C5_7  and  C7_9 
REMARK    7  A    between atoms: C8_10  and  O3_11 
REMARK    8  A    between atoms: O3_11  and  C9_12 
REMARK    9  A    between atoms: C22_27  and  O6_28 
REMARK   10  A    between atoms: C30_36  and  C32_38 
REMARK   11  A    between atoms: C32_38  and  O7_39 
ROOT
HETATM    1  C7  UNL     1       1.825  53.116 -11.259  1.00  0.00     0.031 C 
HETATM    2  C8  UNL     1       0.777  54.277 -11.179  1.00  0.00     0.138 C 
HETATM    3  C11 UNL     1       1.342  55.323 -10.191  1.00  0.00     0.043 C 
HETATM    4  C12 UNL     1       2.800  54.904  -9.928  1.00  0.00    -0.030 C 
HETATM    5  C13 UNL     1       3.654  55.528 -11.075  1.00  0.00     0.016 C 
HETATM    6  C14 UNL     1       3.343  55.348  -8.542  1.00  0.00     0.004 C 
HETATM    7  C15 UNL     1       3.568  56.859  -8.414  1.00  0.00     0.007 C 
HETATM    8  C16 UNL     1       4.027  57.215  -7.004  1.00  0.00     0.007 C 
HETATM    9  C17 UNL     1       5.439  56.678  -6.754  1.00  0.00     0.008 C 
HETATM   10  C18 UNL     1       5.925  56.888  -5.304  1.00  0.00     0.056 C 
HETATM   11  C19 UNL     1       5.808  58.339  -4.831  1.00  0.00     0.018 C 
HETATM   12  C20 UNL     1       7.376  56.412  -5.215  1.00  0.00     0.133 C 
HETATM   13  O5  UNL     1       8.256  57.071  -4.658  1.00  0.00    -0.297 OA
HETATM   14  C21 UNL     1       7.673  55.016  -5.720  1.00  0.00     0.111 C 
HETATM   15  C22 UNL     1       7.068  54.779  -7.097  1.00  0.00     0.134 C 
HETATM   16  C23 UNL     1       5.604  55.198  -7.132  1.00  0.00    -0.001 A 
HETATM   17  C24 UNL     1       4.619  54.173  -6.626  1.00  0.00     0.024 A 
HETATM   18  C25 UNL     1       4.585  54.537  -8.103  1.00  0.00    -0.025 A 
HETATM   19  C26 UNL     1       5.128  53.506  -9.094  1.00  0.00     0.011 C 
HETATM   20  C27 UNL     1       4.113  52.766  -9.986  1.00  0.00     0.011 C 
HETATM   21  C28 UNL     1       2.689  53.338  -9.968  1.00  0.00    -0.030 C 
HETATM   22  C29 UNL     1       1.947  52.720  -8.747  1.00  0.00     0.016 C 
ENDROOT
BRANCH   1  23
HETATM   23  C5  UNL     1       1.221  51.706 -11.564  1.00  0.00     0.025 C 
HETATM   24  C6  UNL     1       2.256  50.598 -11.313  1.00  0.00     0.013 C 
BRANCH  23  25
HETATM   25  C4  UNL     1       0.707  51.628 -13.027  1.00  0.00     0.196 C 
BRANCH  25  26
HETATM   26  C3  UNL     1       1.796  51.388 -14.095  1.00  0.00     0.184 C 
HETATM   27  O1  UNL     1       2.985  51.334 -13.758  1.00  0.00    -0.290 OA
BRANCH  26  28
HETATM   28  C2  UNL     1       1.423  51.246 -15.540  1.00  0.00    -0.013 C 
HETATM   29  C1  UNL     1       1.039  50.016 -15.918  1.00  0.00     0.023 C 
BRANCH  28  30
HETATM   30  C30 UNL     1       1.564  52.436 -16.457  1.00  0.00     0.041 C 
HETATM   31  C31 UNL     1       3.046  52.744 -16.710  1.00  0.00     0.017 C 
BRANCH  30  32
HETATM   32  C32 UNL     1       0.799  52.274 -17.783  1.00  0.00     0.173 C 
BRANCH  32  33
HETATM   33  O7  UNL     1       0.856  53.493 -18.521  1.00  0.00    -0.400 OA
HETATM   34  H48 UNL     1       0.361  53.352 -19.348  1.00  0.00     0.209 HD
ENDBRANCH  32  33
ENDBRANCH  30  32
ENDBRANCH  28  30
ENDBRANCH  26  28
ENDBRANCH  25  26
BRANCH  25  35
HETATM   35  O2  UNL     1       0.014  52.844 -13.337  1.00  0.00    -0.387 OA
HETATM   36  H4  UNL     1       0.141  52.990 -14.296  1.00  0.00     0.210 HD
ENDBRANCH  25  35
ENDBRANCH  23  25
ENDBRANCH   1  23
BRANCH   2  37
HETATM   37  O3  UNL     1      -0.491  53.799 -10.692  1.00  0.00    -0.316 OA
BRANCH  37  38
HETATM   38  C9  UNL     1      -1.180  54.668  -9.897  1.00  0.00     0.255 C 
HETATM   39  C10 UNL     1      -1.345  54.101  -8.520  1.00  0.00     0.126 C 
HETATM   40  O4  UNL     1      -1.633  55.746 -10.250  1.00  0.00    -0.266 OA
ENDBRANCH  37  38
ENDBRANCH   2  37
BRANCH  15  41
HETATM   41  O6  UNL     1       7.778  55.504  -8.096  1.00  0.00    -0.394 OA
HETATM   42  H32 UNL     1       8.699  55.191  -8.092  1.00  0.00     0.210 HD
ENDBRANCH  15  41
TORSDOF 11
ENDMDL
