MODEL 1
REMARK minimizedAffinity -7.39403963
REMARK CNNscore 0.673660815
REMARK CNNaffinity 7.39922094
REMARK  6 active torsions:
REMARK  status: ('A' for Active; 'I' for Inactive)
REMARK    1  A    between atoms: C3_3  and  C4_4 
REMARK    2  A    between atoms: C4_4  and  O1_5 
REMARK    3  A    between atoms: C7_9  and  O3_10 
REMARK    4  A    between atoms: C21_24  and  O4_26 
REMARK    5  A    between atoms: C23_27  and  O5_28 
REMARK    6  A    between atoms: C30_36  and  C31_37 
ROOT
HETATM    1  C1  UNL     1     -19.150  17.050   5.114  1.00  0.00     0.013 C 
HETATM    2  C2  UNL     1     -17.690  16.959   5.538  1.00  0.00     0.023 C 
HETATM    3  C3  UNL     1     -17.404  15.905   6.605  1.00  0.00     0.047 C 
HETATM    4  C5  UNL     1     -16.069  16.370   7.201  1.00  0.00     0.160 C 
HETATM    5  O2  UNL     1     -16.167  17.810   7.171  1.00  0.00    -0.373 OA
HETATM    6  C6  UNL     1     -17.181  18.221   6.233  1.00  0.00     0.167 C 
HETATM    7  C7  UNL     1     -16.647  19.309   5.282  1.00  0.00     0.226 C 
HETATM    8  C8  UNL     1     -15.210  19.182   4.930  1.00  0.00    -0.072 C 
HETATM    9  C9  UNL     1     -14.041  19.159   4.667  1.00  0.00    -0.103 C 
HETATM   10  C10 UNL     1     -12.655  19.291   4.195  1.00  0.00     0.099 C 
HETATM   11  C11 UNL     1     -11.508  18.405   4.790  1.00  0.00     0.009 C 
HETATM   12  C12 UNL     1     -10.272  18.883   3.936  1.00  0.00     0.016 C 
HETATM   13  C13 UNL     1      -9.169  17.908   3.413  1.00  0.00     0.027 C 
HETATM   14  C14 UNL     1      -9.445  16.439   3.591  1.00  0.00    -0.030 C 
HETATM   15  C15 UNL     1      -8.992  15.468   2.770  1.00  0.00    -0.006 C 
HETATM   16  C16 UNL     1      -9.304  14.001   2.939  1.00  0.00     0.043 C 
HETATM   17  C17 UNL     1     -10.577  13.758   3.740  1.00  0.00     0.013 C 
HETATM   18  C18 UNL     1     -10.576  14.601   5.018  1.00  0.00     0.026 C 
HETATM   19  C19 UNL     1     -11.893  14.609   5.826  1.00  0.00     0.016 C 
HETATM   20  C20 UNL     1     -12.145  16.121   6.182  1.00  0.00     0.034 C 
HETATM   21  C21 UNL     1     -13.431  16.344   7.057  1.00  0.00     0.087 C 
HETATM   22  C22 UNL     1     -13.427  17.737   7.700  1.00  0.00     0.049 C 
HETATM   23  C23 UNL     1     -14.787  15.848   6.468  1.00  0.00     0.181 C 
HETATM   24  C24 UNL     1     -11.649  16.845   4.858  1.00  0.00     0.003 C 
HETATM   25  C25 UNL     1     -12.451  16.452   3.589  1.00  0.00     0.019 C 
HETATM   26  C26 UNL     1     -10.223  16.115   4.829  1.00  0.00     0.098 C 
HETATM   27  O6  UNL     1      -9.351  16.244   5.981  1.00  0.00    -0.363 OA
HETATM   28  C27 UNL     1      -8.923  17.422   6.615  1.00  0.00     0.263 C 
HETATM   29  C28 UNL     1      -7.456  17.532   6.493  1.00  0.00    -0.080 C 
HETATM   30  C29 UNL     1      -6.270  17.602   6.319  1.00  0.00    -0.093 C 
HETATM   31  C30 UNL     1      -4.809  17.594   6.024  1.00  0.00     0.121 C 
HETATM   32  C37 UNL     1      -4.418  18.645   4.948  1.00  0.00     0.190 C 
HETATM   33  O7  UNL     1      -4.609  18.206   3.585  1.00  0.00    -0.384 OA
HETATM   34  C38 UNL     1      -5.970  18.157   3.161  1.00  0.00     0.122 C 
HETATM   35  C39 UNL     1      -6.569  19.564   3.007  1.00  0.00     0.033 C 
HETATM   36  C40 UNL     1      -7.789  19.612   2.071  1.00  0.00     0.013 C 
HETATM   37  C41 UNL     1      -8.581  18.280   1.991  1.00  0.00    -0.026 C 
HETATM   38  C42 UNL     1      -9.716  18.409   0.941  1.00  0.00     0.016 C 
HETATM   39  C43 UNL     1      -7.593  17.205   1.432  1.00  0.00     0.071 C 
HETATM   40  C44 UNL     1      -6.118  17.368   1.864  1.00  0.00     0.045 C 
HETATM   41  C45 UNL     1      -8.068  15.781   1.644  1.00  0.00     0.161 C 
HETATM   42  O8  UNL     1      -7.693  14.887   0.888  1.00  0.00    -0.292 OA
ENDROOT
BRANCH  31  43
HETATM   43  C31 UNL     1      -4.031  17.787   7.317  1.00  0.00    -0.040 A 
HETATM   44  C32 UNL     1      -4.600  18.439   8.422  1.00  0.00     0.008 A 
HETATM   45  C33 UNL     1      -3.876  18.589   9.604  1.00  0.00     0.001 A 
HETATM   46  C34 UNL     1      -2.580  18.085   9.701  1.00  0.00     0.000 A 
HETATM   47  C35 UNL     1      -2.005  17.444   8.608  1.00  0.00     0.001 A 
HETATM   48  C36 UNL     1      -2.722  17.294   7.424  1.00  0.00     0.008 A 
ENDBRANCH  31  43
BRANCH  21  49
HETATM   49  O4  UNL     1     -13.241  15.454   8.215  1.00  0.00    -0.387 OA
HETATM   50  H30 UNL     1     -12.455  15.751   8.702  1.00  0.00     0.210 HD
ENDBRANCH  21  49
BRANCH  23  51
HETATM   51  O5  UNL     1     -14.901  16.049   5.067  1.00  0.00    -0.390 OA
HETATM   52  H32 UNL     1     -14.535  15.254   4.651  1.00  0.00     0.210 HD
ENDBRANCH  23  51
BRANCH   7  53
HETATM   53  O3  UNL     1     -16.832  20.594   5.897  1.00  0.00    -0.381 OA
HETATM   54  H12 UNL     1     -16.393  21.225   5.305  1.00  0.00     0.211 HD
ENDBRANCH   7  53
BRANCH   3  55
HETATM   55  C4  UNL     1     -17.430  14.457   6.142  1.00  0.00     0.172 C 
BRANCH  55  56
HETATM   56  O1  UNL     1     -16.489  13.713   6.898  1.00  0.00    -0.400 OA
HETATM   57  H8  UNL     1     -16.292  12.891   6.426  1.00  0.00     0.209 HD
ENDBRANCH  55  56
ENDBRANCH   3  55
TORSDOF 6
ENDMDL
