MODEL 1
REMARK minimizedAffinity -7.19197178
REMARK CNNscore 0.444144934
REMARK CNNaffinity 6.98232603
REMARK  13 active torsions:
REMARK  status: ('A' for Active; 'I' for Inactive)
REMARK    1  A    between atoms: O1_2  and  C2_3 
REMARK    2  A    between atoms: C2_3  and  C3_5 
REMARK    3  A    between atoms: C16_18  and  C17_19 
REMARK    4  A    between atoms: C17_19  and  C18_20 
REMARK    5  A    between atoms: C18_20  and  O4_22 
REMARK    6  A    between atoms: C24_32  and  C25_33 
REMARK    7  A    between atoms: C25_33  and  C26_34 
REMARK    8  A    between atoms: C26_34  and  C27_35 
REMARK    9  A    between atoms: C27_35  and  O9_36 
REMARK   10  A    between atoms: C29_39  and  C30_40 
REMARK   11  A    between atoms: C30_40  and  C32_42 
REMARK   12  A    between atoms: C43_53  and  O10_54 
REMARK   13  A    between atoms: C44_55  and  O11_56 
ROOT
HETATM    1  C3  UNL     1      -3.559  50.211 -23.270  1.00  0.00     0.020 C 
HETATM    2  C4  UNL     1      -3.984  50.389 -22.003  1.00  0.00     0.003 C 
HETATM    3  C5  UNL     1      -4.806  49.372 -21.173  1.00  0.00     0.026 C 
HETATM    4  C6  UNL     1      -6.114  50.128 -20.946  1.00  0.00    -0.012 C 
HETATM    5  C7  UNL     1      -7.096  49.806 -20.097  1.00  0.00     0.002 C 
HETATM    6  C8  UNL     1      -7.159  48.482 -19.421  1.00  0.00     0.144 C 
HETATM    7  C9  UNL     1      -6.211  48.518 -18.235  1.00  0.00     0.036 C 
HETATM    8  C10 UNL     1      -4.745  48.277 -18.682  1.00  0.00     0.009 C 
HETATM    9  C11 UNL     1      -4.074  49.212 -19.769  1.00  0.00     0.007 C 
HETATM   10  C12 UNL     1      -2.564  48.824 -19.874  1.00  0.00     0.033 C 
HETATM   11  C13 UNL     1      -1.931  48.061 -21.014  1.00  0.00    -0.030 C 
HETATM   12  C14 UNL     1      -2.355  47.616 -22.206  1.00  0.00    -0.023 C 
HETATM   13  C15 UNL     1      -3.703  47.736 -22.901  1.00  0.00     0.047 C 
HETATM   14  C16 UNL     1      -3.755  48.875 -23.963  1.00  0.00     0.044 C 
HETATM   15  C19 UNL     1      -4.844  47.925 -21.870  1.00  0.00     0.149 C 
HETATM   16  O5  UNL     1      -6.030  47.247 -22.315  1.00  0.00    -0.351 OA
HETATM   17  C20 UNL     1      -7.036  47.883 -23.065  1.00  0.00     0.297 C 
HETATM   18  O6  UNL     1      -8.029  48.405 -22.175  1.00  0.00    -0.347 OA
HETATM   19  C21 UNL     1      -8.783  47.379 -21.507  1.00  0.00     0.191 C 
HETATM   20  C22 UNL     1      -9.415  47.986 -20.240  1.00  0.00     0.204 C 
HETATM   21  O7  UNL     1      -8.511  48.155 -19.097  1.00  0.00    -0.379 OA
HETATM   22  C23 UNL     1      -9.723  46.733 -22.577  1.00  0.00     0.148 A 
HETATM   23  O8  UNL     1     -11.053  47.269 -22.417  1.00  0.00    -0.332 OA
HETATM   24  C24 UNL     1     -12.098  46.415 -22.139  1.00  0.00     0.075 A 
HETATM   25  C28 UNL     1     -11.939  45.090 -22.057  1.00  0.00     0.072 A 
HETATM   26  N1  UNL     1     -12.790  44.047 -21.816  1.00  0.00    -0.357 N 
HETATM   27  C29 UNL     1     -12.136  42.826 -21.893  1.00  0.00     0.014 A 
HETATM   28  C38 UNL     1     -10.816  43.022 -22.140  1.00  0.00     0.039 A 
HETATM   29  C39 UNL     1     -10.643  44.459 -22.253  1.00  0.00     0.001 A 
HETATM   30  C40 UNL     1      -9.560  45.204 -22.507  1.00  0.00    -0.027 A 
HETATM   31  C41 UNL     1      -8.165  44.677 -22.773  1.00  0.00     0.041 C 
HETATM   32  C42 UNL     1      -7.434  45.394 -23.921  1.00  0.00     0.050 C 
HETATM   33  C43 UNL     1      -7.727  46.909 -24.096  1.00  0.00     0.136 C 
HETATM   34  C44 UNL     1      -9.246  47.161 -24.005  1.00  0.00     0.199 C 
HETATM   35  H34 UNL     1     -13.796  44.145 -21.884  1.00  0.00     0.166 HD
ENDROOT
BRANCH  27  36
HETATM   36  C30 UNL     1     -12.831  41.498 -21.699  1.00  0.00     0.035 C 
HETATM   37  C31 UNL     1     -13.691  41.147 -22.923  1.00  0.00     0.017 C 
BRANCH  36  38
HETATM   38  C32 UNL     1     -13.591  41.430 -20.341  1.00  0.00    -0.005 C 
HETATM   39  C33 UNL     1     -15.134  41.542 -20.439  1.00  0.00     0.005 C 
HETATM   40  C34 UNL     1     -15.865  40.325 -19.884  1.00  0.00     0.000 C 
HETATM   41  C35 UNL     1     -15.453  39.999 -18.452  1.00  0.00     0.000 C 
HETATM   42  C36 UNL     1     -13.943  40.116 -18.210  1.00  0.00     0.000 C 
HETATM   43  C37 UNL     1     -13.151  40.209 -19.511  1.00  0.00     0.005 C 
ENDBRANCH  36  38
ENDBRANCH  27  36
BRANCH  24  44
HETATM   44  C25 UNL     1     -13.409  47.121 -21.897  1.00  0.00     0.069 C 
BRANCH  44  45
HETATM   45  C26 UNL     1     -14.376  47.050 -23.084  1.00  0.00     0.033 C 
BRANCH  45  46
HETATM   46  C27 UNL     1     -15.761  46.531 -22.712  1.00  0.00     0.164 C 
BRANCH  46  47
HETATM   47  O9  UNL     1     -16.023  46.754 -21.333  1.00  0.00    -0.401 OA
HETATM   48  H33 UNL     1     -16.101  47.714 -21.203  1.00  0.00     0.209 HD
ENDBRANCH  46  47
ENDBRANCH  45  46
ENDBRANCH  44  45
ENDBRANCH  24  44
BRANCH  34  49
HETATM   49  O11 UNL     1      -9.916  46.492 -25.100  1.00  0.00    -0.389 OA
HETATM   50  H57 UNL     1     -10.349  45.684 -24.753  1.00  0.00     0.210 HD
ENDBRANCH  34  49
BRANCH  33  51
HETATM   51  O10 UNL     1      -7.276  47.254 -25.425  1.00  0.00    -0.382 OA
HETATM   52  H55 UNL     1      -8.001  46.975 -26.023  1.00  0.00     0.210 HD
ENDBRANCH  33  51
BRANCH  14  53
HETATM   53  C17 UNL     1      -3.095  48.582 -25.319  1.00  0.00     0.120 C 
BRANCH  53  54
HETATM   54  C18 UNL     1      -3.885  48.587 -26.600  1.00  0.00     0.140 C 
HETATM   55  O3  UNL     1      -3.486  48.287 -27.718  1.00  0.00    -0.650 OA
BRANCH  54  56
HETATM   56  O4  UNL     1      -5.205  48.757 -26.379  1.00  0.00    -0.776 OA
HETATM   57  H21 UNL     1      -5.606  48.723 -27.272  1.00  0.00     0.167 HD
ENDBRANCH  54  56
ENDBRANCH  53  54
ENDBRANCH  14  53
BRANCH   1  58
HETATM   58  C2  UNL     1      -2.981  51.365 -23.997  1.00  0.00     0.289 C 
HETATM   59  O2  UNL     1      -3.626  52.175 -24.635  1.00  0.00    -0.260 OA
BRANCH  58  60
HETATM   60  O1  UNL     1      -1.647  51.432 -23.732  1.00  0.00    -0.323 OA
HETATM   61  C1  UNL     1      -0.882  52.114 -24.725  1.00  0.00     0.213 C 
ENDBRANCH  58  60
ENDBRANCH   1  58
TORSDOF 13
ENDMDL
