MODEL 1
REMARK minimizedAffinity -9.05054092
REMARK CNNscore 0.570200145
REMARK CNNaffinity 7.39961195
REMARK  6 active torsions:
REMARK  status: ('A' for Active; 'I' for Inactive)
REMARK    1  A    between atoms: C2_2  and  C30_32 
REMARK    2  A    between atoms: C3_3  and  C4_4 
REMARK    3  A    between atoms: C4_4  and  C5_5 
REMARK    4  A    between atoms: C5_5  and  C6_6 
REMARK    5  A    between atoms: C6_6  and  C8_8 
REMARK    6  A    between atoms: C30_32  and  O3_33 
ROOT
HETATM    1  C8  UNL     1      -5.843   7.515  14.512  1.00  0.00    -0.002 C 
HETATM    2  C9  UNL     1      -5.463   8.824  15.260  1.00  0.00     0.007 C 
HETATM    3  C10 UNL     1      -3.945   9.022  15.078  1.00  0.00     0.015 C 
HETATM    4  C11 UNL     1      -3.555   8.079  13.921  1.00  0.00    -0.005 C 
HETATM    5  C12 UNL     1      -3.902   8.818  12.591  1.00  0.00     0.021 C 
HETATM    6  C13 UNL     1      -2.113   7.627  13.739  1.00  0.00    -0.000 C 
HETATM    7  C14 UNL     1      -1.810   6.437  13.161  1.00  0.00    -0.060 C 
HETATM    8  C15 UNL     1      -2.932   5.462  12.762  1.00  0.00     0.036 C 
HETATM    9  C16 UNL     1      -4.389   5.866  13.076  1.00  0.00     0.015 C 
HETATM   10  C17 UNL     1      -4.466   6.833  14.264  1.00  0.00    -0.028 C 
HETATM   11  C18 UNL     1      -3.999   6.069  15.538  1.00  0.00     0.016 C 
HETATM   12  C19 UNL     1      -0.363   5.956  12.893  1.00  0.00    -0.014 C 
HETATM   13  C20 UNL     1      -0.038   4.857  13.942  1.00  0.00     0.020 C 
HETATM   14  C21 UNL     1      -0.252   5.323  11.477  1.00  0.00     0.021 C 
HETATM   15  C22 UNL     1       1.153   5.389  10.905  1.00  0.00     0.080 C 
HETATM   16  C23 UNL     1       1.506   6.835  10.660  1.00  0.00     0.135 C 
HETATM   17  O1  UNL     1       2.116   7.157   9.641  1.00  0.00    -0.297 OA
HETATM   18  C24 UNL     1       1.076   7.865  11.723  1.00  0.00     0.018 C 
HETATM   19  C25 UNL     1      -0.065   8.700  11.124  1.00  0.00     0.023 C 
HETATM   20  C26 UNL     1       2.285   8.799  11.954  1.00  0.00     0.023 C 
HETATM   21  C27 UNL     1       0.712   7.099  13.050  1.00  0.00     0.020 C 
HETATM   22  C28 UNL     1       0.376   7.989  14.249  1.00  0.00     0.090 C 
HETATM   23  C29 UNL     1      -1.019   8.545  14.171  1.00  0.00     0.157 C 
HETATM   24  O2  UNL     1      -1.244   9.709  14.491  1.00  0.00    -0.293 OA
ENDROOT
BRANCH   1  25
HETATM   25  C6  UNL     1      -7.069   6.772  15.128  1.00  0.00    -0.014 C 
HETATM   26  C7  UNL     1      -6.774   5.830  16.298  1.00  0.00     0.010 C 
BRANCH  25  27
HETATM   27  C5  UNL     1      -7.912   6.076  14.032  1.00  0.00     0.008 C 
BRANCH  27  28
HETATM   28  C4  UNL     1      -7.692   4.558  13.908  1.00  0.00     0.028 C 
BRANCH  28  29
HETATM   29  C3  UNL     1      -6.768   4.165  12.789  1.00  0.00    -0.022 C 
HETATM   30  C2  UNL     1      -6.616   2.942  12.234  1.00  0.00    -0.064 C 
HETATM   31  C1  UNL     1      -7.411   1.734  12.657  1.00  0.00     0.045 C 
BRANCH  30  32
HETATM   32  C30 UNL     1      -5.609   2.641  11.144  1.00  0.00     0.197 C 
BRANCH  32  33
HETATM   33  O3  UNL     1      -5.335   1.251  11.033  1.00  0.00    -0.397 OA
HETATM   34  H46 UNL     1      -4.978   0.978  11.895  1.00  0.00     0.209 HD
ENDBRANCH  32  33
ENDBRANCH  30  32
ENDBRANCH  28  29
ENDBRANCH  27  28
ENDBRANCH  25  27
ENDBRANCH   1  25
TORSDOF 6
ENDMDL
