MODEL 1
REMARK minimizedAffinity -10.1471653
REMARK  7 active torsions:
REMARK  status: ('A' for Active; 'I' for Inactive)
REMARK    1  A    between atoms: C2_2  and  C4_4 
REMARK    2  A    between atoms: C7_7  and  O1_9 
REMARK    3  A    between atoms: C9_10  and  C10_11 
REMARK    4  A    between atoms: C11_12  and  C12_13 
REMARK    5  A    between atoms: C14_15  and  C15_16 
REMARK    6  A    between atoms: C24_26  and  C26_28 
REMARK    7  A    between atoms: C29_32  and  O4_34 
ROOT
HETATM    1  C15 UNL     1      -2.329  50.593 -27.462  1.00  0.00     0.149 C 
HETATM    2  C16 UNL     1      -1.636  50.152 -26.178  1.00  0.00     0.054 C 
HETATM    3  C17 UNL     1      -1.329  51.464 -25.424  1.00  0.00     0.050 C 
HETATM    4  C18 UNL     1      -2.599  52.252 -25.849  1.00  0.00     0.272 C 
HETATM    5  O2  UNL     1      -3.774  51.908 -25.119  1.00  0.00    -0.360 OA
HETATM    6  C19 UNL     1      -3.947  52.654 -23.930  1.00  0.00     0.171 C 
HETATM    7  C20 UNL     1      -3.363  51.920 -22.736  1.00  0.00     0.027 C 
HETATM    8  C21 UNL     1      -2.394  50.794 -23.083  1.00  0.00     0.012 C 
HETATM    9  C22 UNL     1      -1.133  51.191 -23.882  1.00  0.00     0.032 C 
HETATM   10  C23 UNL     1      -0.319  52.282 -23.152  1.00  0.00    -0.066 C 
HETATM   11  C24 UNL     1       0.387  52.087 -22.010  1.00  0.00    -0.021 C 
HETATM   12  C25 UNL     1       1.157  53.158 -21.289  1.00  0.00     0.052 C 
HETATM   13  C27 UNL     1      -0.329  53.619 -23.852  1.00  0.00     0.038 C 
HETATM   14  C28 UNL     1       0.211  53.530 -25.278  1.00  0.00     0.042 C 
HETATM   15  C29 UNL     1      -0.013  52.165 -25.972  1.00  0.00     0.067 C 
HETATM   16  C30 UNL     1       1.257  51.295 -25.822  1.00  0.00     0.047 C 
HETATM   17  O5  UNL     1      -2.883  51.892 -27.211  1.00  0.00    -0.351 OA
ENDROOT
BRANCH   1  18
HETATM   18  C14 UNL     1      -3.453  49.676 -27.857  1.00  0.00     0.011 C 
HETATM   19  C12 UNL     1      -4.044  48.715 -27.116  1.00  0.00    -0.064 C 
HETATM   20  C13 UNL     1      -3.680  48.428 -25.682  1.00  0.00     0.048 C 
BRANCH  19  21
HETATM   21  C11 UNL     1      -5.112  47.923 -27.728  1.00  0.00     0.003 C 
HETATM   22  C10 UNL     1      -5.524  47.993 -29.004  1.00  0.00    -0.018 C 
BRANCH  22  23
HETATM   23  C9  UNL     1      -6.626  47.183 -29.659  1.00  0.00     0.050 C 
HETATM   24  C4  UNL     1      -6.248  45.859 -30.398  1.00  0.00     0.024 C 
HETATM   25  C5  UNL     1      -7.571  45.074 -30.364  1.00  0.00     0.013 C 
HETATM   26  C6  UNL     1      -8.080  45.306 -28.951  1.00  0.00     0.039 C 
HETATM   27  C7  UNL     1      -7.796  46.792 -28.687  1.00  0.00     0.062 C 
HETATM   28  C8  UNL     1      -7.562  47.029 -27.196  1.00  0.00     0.046 C 
BRANCH  24  29
HETATM   29  C2  UNL     1      -5.637  46.042 -31.789  1.00  0.00    -0.088 C 
HETATM   30  C1  UNL     1      -4.358  45.769 -32.103  1.00  0.00     0.014 C 
HETATM   31  C3  UNL     1      -6.541  46.619 -32.850  1.00  0.00     0.043 C 
ENDBRANCH  24  29
BRANCH  27  32
HETATM   32  O1  UNL     1      -8.966  47.552 -29.033  1.00  0.00    -0.390 OA
HETATM   33  H14 UNL     1      -9.169  47.390 -29.970  1.00  0.00     0.210 HD
ENDBRANCH  27  32
ENDBRANCH  22  23
ENDBRANCH  19  21
ENDBRANCH   1  18
BRANCH  15  34
HETATM   34  O4  UNL     1      -0.110  52.438 -27.374  1.00  0.00    -0.389 OA
HETATM   35  H44 UNL     1       0.720  52.851 -27.674  1.00  0.00     0.210 HD
ENDBRANCH  15  34
BRANCH  11  36
HETATM   36  C26 UNL     1       0.475  50.755 -21.334  1.00  0.00     0.265 C 
HETATM   37  O3  UNL     1      -0.144  50.459 -20.322  1.00  0.00    -0.302 OA
ENDBRANCH  11  36
TORSDOF 7
ENDMDL
