MODEL 1
REMARK minimizedAffinity -7.85139656
REMARK CNNscore 0.333521903
REMARK CNNaffinity 6.54631758
REMARK  11 active torsions:
REMARK  status: ('A' for Active; 'I' for Inactive)
REMARK    1  A    between atoms: C2_2  and  C3_3 
REMARK    2  A    between atoms: C2_2  and  C4_5 
REMARK    3  A    between atoms: C3_3  and  O1_4 
REMARK    4  A    between atoms: C13_14  and  C14_15 
REMARK    5  A    between atoms: C14_15  and  C16_17 
REMARK    6  A    between atoms: C16_17  and  C17_18 
REMARK    7  A    between atoms: C17_18  and  C18_19 
REMARK    8  A    between atoms: C27_28  and  C28_29 
REMARK    9  A    between atoms: C28_29  and  C29_30 
REMARK   10  A    between atoms: C29_30  and  C30_31 
REMARK   11  A    between atoms: C30_31  and  O3_33 
ROOT
HETATM    1  C4  UNL     1      -5.315  48.187 -23.695  1.00  0.00     0.025 C 
HETATM    2  C5  UNL     1      -5.274  47.422 -22.361  1.00  0.00     0.010 C 
HETATM    3  C6  UNL     1      -3.883  47.450 -21.751  1.00  0.00     0.007 C 
HETATM    4  C7  UNL     1      -3.571  48.871 -21.270  1.00  0.00     0.004 C 
HETATM    5  C8  UNL     1      -3.639  49.887 -22.441  1.00  0.00    -0.027 A 
HETATM    6  C9  UNL     1      -2.394  50.771 -22.663  1.00  0.00     0.011 C 
HETATM    7  C10 UNL     1      -1.553  51.180 -21.440  1.00  0.00     0.011 C 
HETATM    8  C11 UNL     1      -1.953  50.485 -20.136  1.00  0.00    -0.032 C 
HETATM    9  C12 UNL     1      -3.165  51.253 -19.548  1.00  0.00     0.016 C 
HETATM   10  C13 UNL     1      -0.813  50.359 -19.076  1.00  0.00    -0.002 C 
HETATM   11  C22 UNL     1      -1.186  49.096 -18.263  1.00  0.00     0.006 C 
HETATM   12  C23 UNL     1      -2.312  48.385 -19.039  1.00  0.00     0.011 C 
HETATM   13  C24 UNL     1      -2.250  48.977 -20.462  1.00  0.00    -0.032 C 
HETATM   14  C25 UNL     1      -1.103  48.224 -21.211  1.00  0.00     0.016 C 
HETATM   15  C26 UNL     1      -4.969  50.586 -22.650  1.00  0.00     0.022 A 
HETATM   16  C27 UNL     1      -4.570  49.552 -23.671  1.00  0.00    -0.024 A 
ENDROOT
BRANCH  10  17
HETATM   17  C14 UNL     1      -0.276  51.591 -18.291  1.00  0.00    -0.014 C 
HETATM   18  C15 UNL     1       0.613  52.438 -19.226  1.00  0.00     0.010 C 
BRANCH  17  19
HETATM   19  C16 UNL     1       0.435  51.446 -16.925  1.00  0.00     0.008 C 
BRANCH  19  20
HETATM   20  C17 UNL     1       1.615  52.373 -16.629  1.00  0.00     0.028 C 
BRANCH  20  21
HETATM   21  C18 UNL     1       2.458  51.826 -15.506  1.00  0.00    -0.025 C 
HETATM   22  C19 UNL     1       2.126  51.705 -14.205  1.00  0.00    -0.091 C 
HETATM   23  C20 UNL     1       3.116  51.156 -13.211  1.00  0.00     0.042 C 
HETATM   24  C21 UNL     1       0.793  52.066 -13.612  1.00  0.00     0.042 C 
ENDBRANCH  20  21
ENDBRANCH  19  20
ENDBRANCH  17  19
ENDBRANCH  10  17
BRANCH  16  25
HETATM   25  C28 UNL     1      -4.065  49.998 -25.059  1.00  0.00     0.021 C 
BRANCH  25  26
HETATM   26  C29 UNL     1      -3.634  48.895 -26.018  1.00  0.00     0.111 C 
BRANCH  26  27
HETATM   27  C30 UNL     1      -3.311  49.416 -27.388  1.00  0.00     0.139 C 
HETATM   28  O2  UNL     1      -3.896  49.162 -28.427  1.00  0.00    -0.650 OA
BRANCH  27  29
HETATM   29  O3  UNL     1      -2.271  50.277 -27.377  1.00  0.00    -0.776 OA
HETATM   30  H48 UNL     1      -2.159  50.506 -28.326  1.00  0.00     0.167 HD
ENDBRANCH  27  29
ENDBRANCH  26  27
ENDBRANCH  25  26
ENDBRANCH  16  25
BRANCH   1  31
HETATM   31  C2  UNL     1      -6.746  48.169 -24.249  1.00  0.00    -0.061 C 
HETATM   32  C1  UNL     1      -7.096  47.272 -25.194  1.00  0.00     0.017 C 
BRANCH  31  33
HETATM   33  C3  UNL     1      -7.799  49.075 -23.657  1.00  0.00     0.198 C 
BRANCH  33  34
HETATM   34  O1  UNL     1      -8.432  49.847 -24.659  1.00  0.00    -0.397 OA
HETATM   35  H5  UNL     1      -8.681  49.240 -25.381  1.00  0.00     0.209 HD
ENDBRANCH  33  34
ENDBRANCH  31  33
ENDBRANCH   1  31
TORSDOF 11
ENDMDL
