MODEL 1
REMARK minimizedAffinity -10.757802
REMARK CNNscore 0.434377879
REMARK CNNaffinity 7.02362204
REMARK  12 active torsions:
REMARK  status: ('A' for Active; 'I' for Inactive)
REMARK    1  A    between atoms: C2_2  and  C3_3 
REMARK    2  A    between atoms: C4_4  and  C18_19 
REMARK    3  A    between atoms: C19_20  and  O1_21 
REMARK    4  A    between atoms: N2_22  and  C20_23 
REMARK    5  A    between atoms: C20_23  and  C21_24 
REMARK    6  A    between atoms: C21_24  and  O3_26 
REMARK    7  A    between atoms: O3_26  and  C22_27 
REMARK    8  A    between atoms: C25_30  and  C26_31 
REMARK    9  A    between atoms: C32_38  and  C33_39 
REMARK   10  A    between atoms: C39_47  and  O7_48 
REMARK   11  A    between atoms: C43_52  and  O8_53 
REMARK   12  A    between atoms: C45_55  and  O9_56 
ROOT
HETATM    1  C22 UNL     1       0.314  11.203  16.967  1.00  0.00     0.164 C 
HETATM    2  C23 UNL     1      -0.092  10.969  18.420  1.00  0.00     0.042 C 
HETATM    3  C24 UNL     1       0.746  11.809  19.373  1.00  0.00     0.032 C 
HETATM    4  C25 UNL     1       2.239  11.362  19.388  1.00  0.00     0.076 C 
HETATM    5  C27 UNL     1       3.124  12.496  20.010  1.00  0.00     0.019 C 
HETATM    6  C28 UNL     1       2.692  12.971  21.408  1.00  0.00     0.008 C 
HETATM    7  C29 UNL     1       3.505  14.200  21.839  1.00  0.00     0.013 C 
HETATM    8  C30 UNL     1       5.046  13.973  21.854  1.00  0.00    -0.005 C 
HETATM    9  C31 UNL     1       5.397  13.124  23.094  1.00  0.00     0.019 C 
HETATM   10  C32 UNL     1       5.759  15.377  21.852  1.00  0.00     0.028 C 
HETATM   11  C37 UNL     1       5.958  15.726  20.357  1.00  0.00     0.013 C 
HETATM   12  C38 UNL     1       5.545  14.504  19.534  1.00  0.00     0.040 C 
HETATM   13  C39 UNL     1       5.521  13.323  20.513  1.00  0.00     0.070 C 
HETATM   14  C40 UNL     1       4.631  12.129  20.059  1.00  0.00     0.027 C 
HETATM   15  C41 UNL     1       5.119  11.448  18.767  1.00  0.00     0.011 C 
HETATM   16  C42 UNL     1       4.142  11.599  17.612  1.00  0.00     0.040 C 
HETATM   17  C43 UNL     1       2.733  11.027  17.920  1.00  0.00     0.082 C 
HETATM   18  C44 UNL     1       1.792  11.586  16.826  1.00  0.00     0.080 C 
HETATM   19 BR1  UNL     1       1.817   9.815  17.805  1.00  0.00    -0.120 Br
ENDROOT
BRANCH   1  20
HETATM   20  O3  UNL     1      -0.054  10.004  16.245  1.00  0.00    -0.307 OA
BRANCH  20  21
HETATM   21  C21 UNL     1      -0.057  10.065  14.890  1.00  0.00     0.286 C 
HETATM   22  O2  UNL     1      -0.633  10.909  14.220  1.00  0.00    -0.263 OA
BRANCH  21  23
HETATM   23  C20 UNL     1       0.778   8.940  14.294  1.00  0.00     0.352 C 
BRANCH  23  24
HETATM   24  N2  UNL     1       0.026   7.612  13.913  1.00  0.00    -0.021 N 
HETATM   25  C6  UNL     1       1.119   6.526  13.568  1.00  0.00     0.214 C 
HETATM   26  C5  UNL     1       0.446   5.149  13.713  1.00  0.00     0.041 C 
HETATM   27  C7  UNL     1       1.677   6.692  12.117  1.00  0.00     0.109 C 
HETATM   28  C4  UNL     1      -1.062   5.301  13.477  1.00  0.00     0.004 C 
HETATM   29  C3  UNL     1      -1.612   5.904  14.797  1.00  0.00     0.047 C 
HETATM   30  C45 UNL     1      -0.788   7.185  15.133  1.00  0.00     0.329 C 
HETATM   31  N1  UNL     1       2.726   7.742  11.954  1.00  0.00    -0.279 NA
HETATM   32  C15 UNL     1       0.578   7.080  11.082  1.00  0.00     0.035 C 
HETATM   33  C8  UNL     1       4.068   7.458  12.470  1.00  0.00     0.117 C 
HETATM   34  C9  UNL     1       2.684   7.933  10.528  1.00  0.00     0.018 A 
HETATM   35  C10 UNL     1       3.655   8.499   9.718  1.00  0.00     0.024 A 
HETATM   36  C14 UNL     1       1.461   7.500   9.962  1.00  0.00    -0.024 A 
HETATM   37  C11 UNL     1       3.409   8.590   8.342  1.00  0.00     0.002 A 
HETATM   38  C12 UNL     1       2.199   8.131   7.790  1.00  0.00     0.001 A 
HETATM   39  C13 UNL     1       1.208   7.589   8.604  1.00  0.00     0.010 A 
HETATM   40  C16 UNL     1      -0.250   8.292  11.520  1.00  0.00     0.053 C 
HETATM   41  C19 UNL     1      -0.524   6.027  10.984  1.00  0.00     0.139 C 
HETATM   42  C17 UNL     1      -0.951   7.727  12.724  1.00  0.00     0.203 C 
HETATM   43  C18 UNL     1      -1.334   6.272  12.297  1.00  0.00     0.051 C 
BRANCH  29  44
HETATM   44  C2  UNL     1      -3.126   6.198  14.793  1.00  0.00     0.005 C 
HETATM   45  C1  UNL     1      -3.613   6.862  13.517  1.00  0.00     0.005 C 
ENDBRANCH  29  44
BRANCH  30  46
HETATM   46  O9  UNL     1       0.052   6.934  16.234  1.00  0.00    -0.369 OA
HETATM   47  H59 UNL     1      -0.529   6.826  17.022  1.00  0.00     0.212 HD
ENDBRANCH  30  46
BRANCH  41  48
HETATM   48  O1  UNL     1      -0.038   4.705  10.897  1.00  0.00    -0.394 OA
HETATM   49  H24 UNL     1      -0.214   4.365   9.994  1.00  0.00     0.210 HD
ENDBRANCH  41  48
ENDBRANCH  23  24
ENDBRANCH  21  23
ENDBRANCH  20  21
ENDBRANCH   1  20
BRANCH  17  50
HETATM   50  O8  UNL     1       2.760   9.599  17.707  1.00  0.00    -0.388 OA
HETATM   51  H55 UNL     1       3.693   9.306  17.692  1.00  0.00     0.210 HD
ENDBRANCH  17  50
BRANCH   4  52
HETATM   52  C26 UNL     1       2.356  10.110  20.272  1.00  0.00     0.253 C 
HETATM   53  O4  UNL     1       3.400   9.711  20.785  1.00  0.00    -0.305 OA
ENDBRANCH   4  52
BRANCH  13  54
HETATM   54  O7  UNL     1       6.851  12.841  20.696  1.00  0.00    -0.389 OA
HETATM   55  H49 UNL     1       7.324  12.796  19.839  1.00  0.00     0.210 HD
ENDBRANCH  13  54
BRANCH  10  56
HETATM   56  C33 UNL     1       7.042  15.518  22.634  1.00  0.00    -0.045 A 
HETATM   57  C34 UNL     1       7.224  15.607  23.951  1.00  0.00     0.087 A 
HETATM   58  C35 UNL     1       8.663  15.699  24.190  1.00  0.00     0.283 A 
HETATM   59  O5  UNL     1       9.182  15.806  25.284  1.00  0.00    -0.260 OA
HETATM   60  O6  UNL     1       9.314  15.650  22.997  1.00  0.00    -0.314 OA
HETATM   61  C36 UNL     1       8.357  15.529  21.947  1.00  0.00     0.213 A 
ENDBRANCH  10  56
TORSDOF 12
ENDMDL
