MODEL 1
REMARK minimizedAffinity -9.1428175
REMARK CNNscore 0.629078388
REMARK CNNaffinity 7.12945318
REMARK  11 active torsions:
REMARK  status: ('A' for Active; 'I' for Inactive)
REMARK    1  A    between atoms: C3_3  and  O1_4 
REMARK    2  A    between atoms: N1_14  and  O2_16 
REMARK    3  A    between atoms: O2_16  and  C13_17 
REMARK    4  A    between atoms: C13_17  and  C14_18 
REMARK       I    between atoms: C14_18  and  N2_20 
REMARK    5  A    between atoms: N2_20  and  C15_21 
REMARK    6  A    between atoms: C15_21  and  C16_22 
REMARK    7  A    between atoms: C15_21  and  C17_25 
REMARK    8  A    between atoms: C16_22  and  O5_24 
REMARK    9  A    between atoms: C17_25  and  O6_26 
REMARK   10  A    between atoms: C17_25  and  C18_27 
REMARK   11  A    between atoms: C22_31  and  N3_32 
ROOT
HETATM    1  C1  UNL     1     -13.115   2.842  30.763  1.00  0.00     0.015 C 
HETATM    2  C2  UNL     1     -13.281   2.469  29.632  1.00  0.00    -0.078 C 
HETATM    3  C3  UNL     1     -13.513   2.006  28.254  1.00  0.00     0.128 C 
HETATM    4  C4  UNL     1     -12.207   1.833  27.463  1.00  0.00     0.052 C 
HETATM    5  C5  UNL     1     -12.562   2.114  25.994  1.00  0.00     0.010 C 
HETATM    6  C6  UNL     1     -14.068   2.436  25.965  1.00  0.00     0.002 C 
HETATM    7  C7  UNL     1     -14.540   3.356  24.821  1.00  0.00    -0.004 C 
HETATM    8  C8  UNL     1     -14.131   2.787  23.457  1.00  0.00     0.010 C 
HETATM    9  C9  UNL     1     -14.728   3.609  22.325  1.00  0.00     0.035 C 
HETATM   10  C10 UNL     1     -14.359   5.070  22.424  1.00  0.00    -0.069 C 
HETATM   11  C11 UNL     1     -13.945   5.715  21.316  1.00  0.00     0.030 C 
HETATM   12  C12 UNL     1     -13.753   7.186  21.287  1.00  0.00     0.032 C 
HETATM   13  N1  UNL     1     -13.550   7.734  20.122  1.00  0.00    -0.271 N 
ATOM     14  H1  UNL     1     -13.455   7.204  19.255  1.00  0.00     0.194 HD
HETATM   15  C24 UNL     1     -13.904   7.959  22.580  1.00  0.00     0.060 C 
HETATM   16  C25 UNL     1     -13.712   7.068  23.805  1.00  0.00     0.020 C 
HETATM   17  C26 UNL     1     -14.554   5.756  23.782  1.00  0.00    -0.016 C 
HETATM   18  C27 UNL     1     -16.052   6.108  23.920  1.00  0.00     0.020 C 
HETATM   19  C28 UNL     1     -14.059   4.823  24.962  1.00  0.00     0.002 C 
HETATM   20  C29 UNL     1     -14.409   5.358  26.369  1.00  0.00     0.007 C 
HETATM   21  C30 UNL     1     -13.889   4.454  27.490  1.00  0.00     0.014 C 
HETATM   22  C31 UNL     1     -14.363   2.981  27.383  1.00  0.00     0.003 C 
HETATM   23  C32 UNL     1     -15.865   2.882  27.719  1.00  0.00     0.020 C 
ENDROOT
BRANCH   3  24
HETATM   24  O1  UNL     1     -14.151   0.726  28.310  1.00  0.00    -0.377 OA
HETATM   25  H2  UNL     1     -13.685   0.204  28.989  1.00  0.00     0.211 HD
ENDBRANCH   3  24
BRANCH  13  26
HETATM   26  O2  UNL     1     -13.476   9.132  20.192  1.00  0.00    -0.271 OA
BRANCH  26  27
HETATM   27  C13 UNL     1     -13.175   9.626  18.892  1.00  0.00     0.303 C 
BRANCH  27  28
HETATM   28  C14 UNL     1     -11.776   9.212  18.441  1.00  0.00     0.244 C 
HETATM   29  O3  UNL     1     -10.850   9.038  19.231  1.00  0.00    -0.271 OA
HETATM   30  N2  UNL     1     -11.622   9.118  17.070  1.00  0.00    -0.342 N 
HETATM   31  H16 UNL     1     -12.350   9.587  16.534  1.00  0.00     0.163 HD
BRANCH  30  32
HETATM   32  C15 UNL     1     -10.264   9.126  16.476  1.00  0.00     0.216 C 
BRANCH  32  33
HETATM   33  C16 UNL     1      -9.904  10.550  16.050  1.00  0.00     0.166 C 
HETATM   34  O4  UNL     1     -10.100  11.574  16.685  1.00  0.00    -0.648 OA
BRANCH  33  35
HETATM   35  O5  UNL     1      -9.257  10.621  14.861  1.00  0.00    -0.775 OA
HETATM   36  H18 UNL     1      -9.168  11.588  14.700  1.00  0.00     0.167 HD
ENDBRANCH  33  35
ENDBRANCH  32  33
BRANCH  32  37
HETATM   37  C17 UNL     1     -10.225   8.192  15.247  1.00  0.00     0.184 C 
BRANCH  37  38
HETATM   38  O6  UNL     1     -11.448   7.440  15.157  1.00  0.00    -0.388 OA
HETATM   39  H20 UNL     1     -12.144   8.004  15.544  1.00  0.00     0.210 HD
ENDBRANCH  37  38
BRANCH  37  40
HETATM   40  C18 UNL     1      -9.083   7.197  15.268  1.00  0.00    -0.025 A 
HETATM   41  C19 UNL     1      -8.223   7.134  16.379  1.00  0.00     0.010 A 
HETATM   42  C20 UNL     1      -7.193   6.190  16.438  1.00  0.00     0.003 A 
HETATM   43  C21 UNL     1      -6.996   5.301  15.381  1.00  0.00     0.036 A 
HETATM   44  C22 UNL     1      -7.838   5.366  14.263  1.00  0.00     0.103 A 
HETATM   45  C23 UNL     1      -8.876   6.308  14.202  1.00  0.00     0.045 A 
BRANCH  44  46
HETATM   46  N3  UNL     1      -7.645   4.415  13.157  1.00  0.00    -0.116 N 
HETATM   47  O7  UNL     1      -6.550   4.420  12.576  1.00  0.00    -0.532 OA
HETATM   48  O8  UNL     1      -8.592   3.673  12.857  1.00  0.00    -0.532 OA
ENDBRANCH  44  46
ENDBRANCH  37  40
ENDBRANCH  32  37
ENDBRANCH  30  32
ENDBRANCH  27  28
ENDBRANCH  26  27
ENDBRANCH  13  26
TORSDOF 11
ENDMDL
