MODEL 1
REMARK minimizedAffinity -9.58160019
REMARK  12 active torsions:
REMARK  status: ('A' for Active; 'I' for Inactive)
REMARK    1  A    between atoms: C2_2  and  C3_3 
REMARK    2  A    between atoms: C2_2  and  C26_31 
REMARK    3  A    between atoms: C3_3  and  C4_4 
REMARK    4  A    between atoms: C4_4  and  C5_5 
REMARK    5  A    between atoms: C5_5  and  C7_7 
REMARK    6  A    between atoms: C8_8  and  O1_9 
REMARK    7  A    between atoms: C9_10  and  O2_11 
REMARK    8  A    between atoms: C11_13  and  O3_14 
REMARK    9  A    between atoms: C13_16  and  O4_17 
REMARK   10  A    between atoms: C16_20  and  O5_21 
REMARK   11  A    between atoms: C26_31  and  C28_33 
REMARK   12  A    between atoms: C28_33  and  O6_34 
ROOT
HETATM    1  C7  UNL     1      -0.815  50.183 -19.043  1.00  0.00     0.029 C 
HETATM    2  C8  UNL     1      -2.246  49.664 -18.839  1.00  0.00     0.152 C 
HETATM    3  C9  UNL     1      -3.127  50.664 -19.595  1.00  0.00     0.155 C 
HETATM    4  C10 UNL     1      -2.263  51.188 -20.770  1.00  0.00     0.060 C 
HETATM    5  C11 UNL     1      -2.845  51.172 -22.208  1.00  0.00     0.071 C 
HETATM    6  C12 UNL     1      -4.171  51.938 -22.337  1.00  0.00     0.071 C 
HETATM    7  C13 UNL     1      -4.751  51.816 -23.745  1.00  0.00     0.126 C 
HETATM    8  C14 UNL     1      -5.216  50.382 -24.025  1.00  0.00     0.025 C 
HETATM    9  C15 UNL     1      -6.616  50.174 -23.395  1.00  0.00     0.039 C 
HETATM   10  C16 UNL     1      -7.186  48.792 -23.686  1.00  0.00     0.118 C 
HETATM   11  C17 UNL     1      -6.224  47.670 -23.319  1.00  0.00     0.032 C 
HETATM   12  C18 UNL     1      -4.895  48.172 -22.757  1.00  0.00     0.012 C 
HETATM   13  C19 UNL     1      -4.182  49.261 -23.617  1.00  0.00    -0.031 C 
HETATM   14  C20 UNL     1      -3.736  48.560 -24.941  1.00  0.00     0.016 C 
HETATM   15  C21 UNL     1      -2.829  49.786 -22.926  1.00  0.00     0.029 C 
HETATM   16  C22 UNL     1      -2.127  48.708 -22.071  1.00  0.00     0.009 C 
HETATM   17  C23 UNL     1      -0.805  49.165 -21.454  1.00  0.00     0.011 C 
HETATM   18  C24 UNL     1      -0.865  50.478 -20.610  1.00  0.00    -0.029 C 
HETATM   19  C25 UNL     1       0.317  51.347 -21.092  1.00  0.00     0.016 C 
ENDROOT
BRANCH   1  20
HETATM   20  C5  UNL     1      -0.346  51.413 -18.164  1.00  0.00    -0.011 C 
HETATM   21  C6  UNL     1       0.075  52.570 -19.091  1.00  0.00     0.010 C 
BRANCH  20  22
HETATM   22  C4  UNL     1       0.783  51.145 -17.140  1.00  0.00     0.009 C 
BRANCH  22  23
HETATM   23  C3  UNL     1       1.692  52.360 -16.865  1.00  0.00     0.034 C 
BRANCH  23  24
HETATM   24  C2  UNL     1       2.796  52.165 -15.830  1.00  0.00    -0.083 C 
HETATM   25  C1  UNL     1       3.993  52.776 -15.912  1.00  0.00     0.015 C 
BRANCH  24  26
HETATM   26  C26 UNL     1       2.429  51.189 -14.699  1.00  0.00     0.033 C 
HETATM   27  C27 UNL     1       3.611  50.389 -14.134  1.00  0.00     0.017 C 
BRANCH  26  28
HETATM   28  C28 UNL     1       1.671  51.891 -13.557  1.00  0.00     0.172 C 
BRANCH  28  29
HETATM   29  O6  UNL     1       0.813  52.920 -14.039  1.00  0.00    -0.400 OA
HETATM   30  H48 UNL     1       0.202  52.501 -14.672  1.00  0.00     0.209 HD
ENDBRANCH  28  29
ENDBRANCH  26  28
ENDBRANCH  24  26
ENDBRANCH  23  24
ENDBRANCH  22  23
ENDBRANCH  20  22
ENDBRANCH   1  20
BRANCH   2  31
HETATM   31  O1  UNL     1      -2.662  49.479 -17.497  1.00  0.00    -0.393 OA
HETATM   32  H13 UNL     1      -3.316  48.756 -17.498  1.00  0.00     0.210 HD
ENDBRANCH   2  31
BRANCH   3  33
HETATM   33  O2  UNL     1      -4.348  50.045 -19.961  1.00  0.00    -0.392 OA
HETATM   34  H15 UNL     1      -4.886  50.012 -19.150  1.00  0.00     0.210 HD
ENDBRANCH   3  33
BRANCH   5  35
HETATM   35  O3  UNL     1      -1.885  51.989 -22.943  1.00  0.00    -0.389 OA
HETATM   36  H17 UNL     1      -2.321  52.241 -23.785  1.00  0.00     0.210 HD
ENDBRANCH   5  35
BRANCH   7  37
HETATM   37  O4  UNL     1      -3.766  52.218 -24.698  1.00  0.00    -0.395 OA
HETATM   38  H21 UNL     1      -3.995  51.847 -25.578  1.00  0.00     0.210 HD
ENDBRANCH   7  37
BRANCH  10  39
HETATM   39  O5  UNL     1      -7.505  48.685 -25.071  1.00  0.00    -0.396 OA
HETATM   40  H26 UNL     1      -8.191  49.348 -25.268  1.00  0.00     0.210 HD
ENDBRANCH  10  39
TORSDOF 12
ENDMDL
