MODEL 1
REMARK minimizedAffinity -7.43845081
REMARK CNNscore 0.742848814
REMARK CNNaffinity 7.02665758
REMARK  7 active torsions:
REMARK  status: ('A' for Active; 'I' for Inactive)
REMARK    1  A    between atoms: C2_2  and  C3_3 
REMARK    2  A    between atoms: C2_2  and  C9_11 
REMARK    3  A    between atoms: C3_3  and  C4_4 
REMARK    4  A    between atoms: C5_5  and  C6_6 
REMARK    5  A    between atoms: C6_6  and  O1_9 
REMARK    6  A    between atoms: O1_9  and  O2_10 
REMARK    7  A    between atoms: C10_12  and  O3_13 
ROOT
HETATM    1  C9  UNL     1      -2.475  52.540  -9.991  1.00  0.00     0.028 C 
HETATM    2  C10 UNL     1      -1.964  52.655 -11.457  1.00  0.00     0.124 C 
HETATM    3  C11 UNL     1      -0.707  53.559 -11.430  1.00  0.00     0.046 C 
HETATM    4  C12 UNL     1      -0.631  54.112  -9.986  1.00  0.00    -0.010 C 
HETATM    5  C13 UNL     1      -1.511  55.403  -9.959  1.00  0.00     0.021 C 
HETATM    6  C14 UNL     1       0.726  54.542  -9.438  1.00  0.00    -0.070 C 
HETATM    7  C15 UNL     1       1.668  55.099 -10.228  1.00  0.00    -0.022 C 
HETATM    8  C16 UNL     1       2.976  55.657  -9.736  1.00  0.00     0.034 C 
HETATM    9  C17 UNL     1       3.243  55.308  -8.262  1.00  0.00     0.013 C 
HETATM   10  C18 UNL     1       4.574  55.859  -7.659  1.00  0.00     0.018 C 
HETATM   11  C19 UNL     1       5.774  55.421  -8.524  1.00  0.00     0.023 C 
HETATM   12  C20 UNL     1       4.629  57.383  -7.500  1.00  0.00     0.023 C 
HETATM   13  C21 UNL     1       4.761  55.233  -6.265  1.00  0.00     0.135 C 
HETATM   14  O4  UNL     1       5.834  55.295  -5.661  1.00  0.00    -0.297 OA
HETATM   15  C22 UNL     1       3.578  54.511  -5.653  1.00  0.00     0.080 C 
HETATM   16  C23 UNL     1       2.311  55.325  -5.878  1.00  0.00     0.017 C 
HETATM   17  C24 UNL     1       1.947  55.511  -7.381  1.00  0.00    -0.031 C 
HETATM   18  C25 UNL     1       1.301  56.916  -7.525  1.00  0.00     0.016 C 
HETATM   19  C26 UNL     1       0.928  54.416  -7.910  1.00  0.00     0.024 C 
HETATM   20  C27 UNL     1      -0.409  54.310  -7.132  1.00  0.00     0.010 C 
HETATM   21  C28 UNL     1      -1.465  53.342  -7.717  1.00  0.00     0.011 C 
HETATM   22  C29 UNL     1      -1.192  52.902  -9.167  1.00  0.00    -0.026 C 
HETATM   23  C30 UNL     1      -0.238  51.666  -9.144  1.00  0.00     0.016 C 
ENDROOT
BRANCH   1  24
HETATM   24  C2  UNL     1      -3.214  51.226  -9.579  1.00  0.00    -0.008 C 
HETATM   25  C1  UNL     1      -2.321  50.081  -9.086  1.00  0.00     0.011 C 
BRANCH  24  26
HETATM   26  C3  UNL     1      -4.173  50.712 -10.687  1.00  0.00     0.031 C 
BRANCH  26  27
HETATM   27  C4  UNL     1      -5.540  50.300 -10.219  1.00  0.00    -0.027 C 
HETATM   28  C5  UNL     1      -6.032  49.056 -10.355  1.00  0.00     0.009 C 
BRANCH  28  29
HETATM   29  C6  UNL     1      -7.392  48.534  -9.913  1.00  0.00     0.106 C 
HETATM   30  C7  UNL     1      -8.281  49.596  -9.244  1.00  0.00     0.053 C 
HETATM   31  C8  UNL     1      -7.218  47.365  -8.930  1.00  0.00     0.053 C 
BRANCH  29  32
HETATM   32  O1  UNL     1      -8.141  48.098 -11.071  1.00  0.00    -0.229 OA
BRANCH  32  33
HETATM   33  O2  UNL     1      -8.904  49.234 -11.583  1.00  0.00    -0.249 OA
HETATM   34  H15 UNL     1      -9.781  48.867 -11.373  1.00  0.00     0.253 HD
ENDBRANCH  32  33
ENDBRANCH  29  32
ENDBRANCH  28  29
ENDBRANCH  26  27
ENDBRANCH  24  26
ENDBRANCH   1  24
BRANCH   2  35
HETATM   35  O3  UNL     1      -2.959  53.211 -12.306  1.00  0.00    -0.395 OA
HETATM   36  H18 UNL     1      -3.127  54.127 -12.030  1.00  0.00     0.210 HD
ENDBRANCH   2  35
TORSDOF 7
ENDMDL
