MODEL 1
REMARK minimizedAffinity -9.59136868
REMARK  7 active torsions:
REMARK  status: ('A' for Active; 'I' for Inactive)
REMARK    1  A    between atoms: C2_2  and  C30_32 
REMARK    2  A    between atoms: C3_3  and  C4_4 
REMARK    3  A    between atoms: C4_4  and  O1_5 
REMARK    4  A    between atoms: C4_4  and  C5_6 
REMARK    5  A    between atoms: C5_6  and  C6_7 
REMARK    6  A    between atoms: C6_7  and  C8_9 
REMARK    7  A    between atoms: C30_32  and  O4_34 
ROOT
HETATM    1  C8  UNL     1       0.852   8.214  12.961  1.00  0.00    -0.002 C 
HETATM    2  C9  UNL     1       0.948   9.044  14.261  1.00  0.00     0.006 C 
HETATM    3  C10 UNL     1      -0.375   8.826  15.028  1.00  0.00     0.011 C 
HETATM    4  C11 UNL     1      -1.058   7.627  14.335  1.00  0.00    -0.032 C 
HETATM    5  C12 UNL     1      -0.448   6.333  14.960  1.00  0.00     0.016 C 
HETATM    6  C13 UNL     1      -2.606   7.589  14.464  1.00  0.00     0.004 C 
HETATM    7  C14 UNL     1      -3.115   7.185  15.856  1.00  0.00     0.007 C 
HETATM    8  C15 UNL     1      -4.638   7.285  15.907  1.00  0.00     0.007 C 
HETATM    9  C16 UNL     1      -5.280   6.199  15.034  1.00  0.00     0.010 C 
HETATM   10  C17 UNL     1      -6.840   6.265  14.949  1.00  0.00     0.018 C 
HETATM   11  C18 UNL     1      -7.468   5.688  16.231  1.00  0.00     0.023 C 
HETATM   12  C19 UNL     1      -7.389   7.686  14.743  1.00  0.00     0.023 C 
HETATM   13  C20 UNL     1      -7.322   5.386  13.782  1.00  0.00     0.135 C 
HETATM   14  O2  UNL     1      -8.442   5.508  13.286  1.00  0.00    -0.297 OA
HETATM   15  C21 UNL     1      -6.408   4.272  13.333  1.00  0.00     0.080 C 
HETATM   16  C22 UNL     1      -5.028   4.790  12.947  1.00  0.00     0.018 C 
HETATM   17  C23 UNL     1      -4.658   6.095  13.640  1.00  0.00    -0.026 A 
HETATM   18  C24 UNL     1      -4.550   7.321  12.770  1.00  0.00     0.021 A 
HETATM   19  C25 UNL     1      -3.271   6.734  13.352  1.00  0.00    -0.027 A 
HETATM   20  C26 UNL     1      -2.350   5.998  12.368  1.00  0.00     0.011 C 
HETATM   21  C27 UNL     1      -0.993   6.637  12.023  1.00  0.00     0.011 C 
HETATM   22  C28 UNL     1      -0.668   7.893  12.834  1.00  0.00    -0.032 C 
HETATM   23  C29 UNL     1      -1.432   9.082  12.196  1.00  0.00     0.016 C 
ENDROOT
BRANCH   1  24
HETATM   24  C6  UNL     1       1.715   8.655  11.746  1.00  0.00    -0.011 C 
HETATM   25  C7  UNL     1       0.980   8.290  10.440  1.00  0.00     0.010 C 
BRANCH  24  26
HETATM   26  C5  UNL     1       3.218   8.302  11.624  1.00  0.00     0.040 C 
BRANCH  26  27
HETATM   27  C4  UNL     1       3.808   7.923  10.261  1.00  0.00     0.142 C 
BRANCH  27  28
HETATM   28  C3  UNL     1       3.962   6.429  10.164  1.00  0.00     0.018 C 
HETATM   29  C2  UNL     1       3.480   5.595   9.219  1.00  0.00     0.010 C 
HETATM   30  C1  UNL     1       2.653   5.987   8.027  1.00  0.00     0.055 C 
BRANCH  29  31
HETATM   31  C30 UNL     1       3.747   4.131   9.294  1.00  0.00     0.171 C 
HETATM   32  O3  UNL     1       4.634   3.549   8.694  1.00  0.00    -0.646 OA
BRANCH  31  33
HETATM   33  O4  UNL     1       2.915   3.464  10.108  1.00  0.00    -0.773 OA
HETATM   34  H46 UNL     1       3.226   2.537  10.051  1.00  0.00     0.167 HD
ENDBRANCH  31  33
ENDBRANCH  29  31
ENDBRANCH  27  28
BRANCH  27  35
HETATM   35  O1  UNL     1       5.110   8.476  10.116  1.00  0.00    -0.392 OA
HETATM   36  H6  UNL     1       5.509   8.082   9.322  1.00  0.00     0.210 HD
ENDBRANCH  27  35
ENDBRANCH  26  27
ENDBRANCH  24  26
ENDBRANCH   1  24
TORSDOF 7
ENDMDL
