MODEL 1
REMARK minimizedAffinity -7.6079812
REMARK  7 active torsions:
REMARK  status: ('A' for Active; 'I' for Inactive)
REMARK       I    between atoms: C1_2  and  N1_3 
REMARK    1  A    between atoms: C1_2  and  C8_12 
REMARK    2  A    between atoms: N1_3  and  C2_4 
REMARK    3  A    between atoms: C2_4  and  C3_5 
REMARK    4  A    between atoms: C14_19  and  C15_20 
REMARK    5  A    between atoms: C15_20  and  N4_21 
REMARK    6  A    between atoms: C17_23  and  C18_24 
REMARK    7  A    between atoms: C18_24  and  C19_25 
ROOT
HETATM    1  C8  UNL     1      16.930  36.994  17.764  1.00  0.00     0.110 C 
HETATM    2  C9  UNL     1      15.408  37.239  17.794  1.00  0.00     0.287 C 
HETATM    3  N3  UNL     1      14.735  36.422  18.839  1.00  0.00     0.095 N 
HETATM    4  C10 UNL     1      15.483  36.583  20.114  1.00  0.00     0.273 C 
HETATM    5  C11 UNL     1      16.895  35.973  20.016  1.00  0.00     0.036 C 
HETATM    6  C12 UNL     1      17.217  35.688  18.538  1.00  0.00     0.004 C 
HETATM    7  C13 UNL     1      16.240  34.591  18.058  1.00  0.00     0.043 C 
HETATM    8  C14 UNL     1      14.794  34.973  18.460  1.00  0.00     0.242 C 
ENDROOT
BRANCH   8   9
HETATM    9  C15 UNL     1      13.755  34.611  17.383  1.00  0.00     0.181 C 
BRANCH   9  10
HETATM   10  N4  UNL     1      12.396  34.830  17.832  1.00  0.00    -0.283 N 
HETATM   11  C16 UNL     1      11.494  35.734  17.356  1.00  0.00     0.134 A 
HETATM   12  C17 UNL     1      10.375  35.522  18.130  1.00  0.00     0.041 A 
HETATM   13  N5  UNL     1      10.632  34.509  19.018  1.00  0.00    -0.287 N 
HETATM   14  N6  UNL     1      11.874  34.091  18.822  1.00  0.00    -0.020 NA
ATOM     15  H5  UNL     1       9.979  34.142  19.711  1.00  0.00     0.184 HD
BRANCH  12  16
HETATM   16  C18 UNL     1       9.055  36.205  18.105  1.00  0.00     0.064 C 
BRANCH  16  17
HETATM   17  C19 UNL     1       8.465  36.443  19.511  1.00  0.00    -0.009 C 
HETATM   18  C20 UNL     1       7.188  35.601  19.719  1.00  0.00     0.005 C 
HETATM   19  C21 UNL     1       7.470  34.295  20.454  1.00  0.00     0.000 C 
HETATM   20  C22 UNL     1       8.052  34.542  21.846  1.00  0.00     0.000 C 
HETATM   21  C23 UNL     1       8.866  35.832  21.943  1.00  0.00     0.000 C 
HETATM   22  C24 UNL     1       9.516  36.188  20.612  1.00  0.00     0.005 C 
ENDBRANCH  16  17
ENDBRANCH  12  16
ENDBRANCH   9  10
ENDBRANCH   8   9
BRANCH   1  23
HETATM   23  C1  UNL     1      17.480  37.000  16.342  1.00  0.00     0.224 C 
HETATM   24  O1  UNL     1      18.531  37.548  16.030  1.00  0.00    -0.273 OA
HETATM   25  N1  UNL     1      16.667  36.360  15.430  1.00  0.00    -0.356 N 
HETATM   26  H1  UNL     1      15.718  36.135  15.695  1.00  0.00     0.162 HD
BRANCH  25  27
HETATM   27  C2  UNL     1      16.969  36.369  14.014  1.00  0.00     0.162 C 
BRANCH  27  28
HETATM   28  C3  UNL     1      17.184  34.977  13.498  1.00  0.00    -0.025 A 
HETATM   29  C4  UNL     1      16.486  34.496  12.386  1.00  0.00     0.011 A 
HETATM   30  C5  UNL     1      16.696  33.193  11.947  1.00  0.00     0.018 A 
HETATM   31  C6  UNL     1      17.599  32.406  12.642  1.00  0.00     0.087 A 
HETATM   32  N2  UNL     1      18.288  32.830  13.723  1.00  0.00    -0.375 N 
HETATM   33  C7  UNL     1      18.067  34.102  14.123  1.00  0.00     0.096 A 
ATOM     34  H2  UNL     1      18.943  32.221  14.213  1.00  0.00     0.164 HD
ENDBRANCH  27  28
ENDBRANCH  25  27
ENDBRANCH   1  23
TORSDOF 7
ENDMDL
