MODEL 1
REMARK minimizedAffinity -9.07294083
REMARK CNNscore 0.596747577
REMARK CNNaffinity 6.8127284
REMARK  12 active torsions:
REMARK  status: ('A' for Active; 'I' for Inactive)
REMARK    1  A    between atoms: C4_5  and  C5_6 
REMARK    2  A    between atoms: C5_6  and  O2_7 
REMARK    3  A    between atoms: C5_6  and  C6_8 
REMARK    4  A    between atoms: C6_8  and  O3_10 
REMARK    5  A    between atoms: C6_8  and  C8_11 
REMARK    6  A    between atoms: C11_14  and  O4_15 
REMARK    7  A    between atoms: C17_22  and  O6_23 
REMARK    8  A    between atoms: O6_23  and  C18_24 
REMARK    9  A    between atoms: C18_24  and  C19_25 
REMARK   10  A    between atoms: C19_25  and  C20_26 
REMARK   11  A    between atoms: C35_41  and  C36_42 
REMARK   12  A    between atoms: C36_42  and  O7_43 
ROOT
HETATM    1  C8  UNL     1      -1.835  51.016 -11.429  1.00  0.00     0.034 C 
HETATM    2  C9  UNL     1      -0.492  50.287 -11.213  1.00  0.00     0.012 C 
HETATM    3  C10 UNL     1       0.210  50.372 -12.553  1.00  0.00     0.044 C 
HETATM    4  C11 UNL     1      -0.888  49.957 -13.535  1.00  0.00     0.089 C 
HETATM    5  C12 UNL     1      -0.692  50.359 -14.985  1.00  0.00    -0.037 C 
HETATM    6  C13 UNL     1       0.439  50.886 -15.486  1.00  0.00     0.057 C 
HETATM    7  C14 UNL     1       0.523  51.343 -16.898  1.00  0.00     0.154 C 
HETATM    8  O5  UNL     1       1.600  51.752 -17.321  1.00  0.00    -0.293 OA
HETATM    9  C15 UNL     1      -0.760  51.363 -17.715  1.00  0.00     0.071 C 
HETATM   10  C16 UNL     1      -0.478  51.475 -19.217  1.00  0.00     0.045 C 
HETATM   11  C17 UNL     1      -1.770  51.532 -20.033  1.00  0.00     0.122 C 
HETATM   12  C26 UNL     1      -2.711  50.370 -19.704  1.00  0.00     0.033 C 
HETATM   13  C27 UNL     1      -2.966  50.240 -18.200  1.00  0.00     0.013 C 
HETATM   14  C28 UNL     1      -1.659  50.149 -17.366  1.00  0.00    -0.026 C 
HETATM   15  C29 UNL     1      -0.958  48.801 -17.717  1.00  0.00     0.016 C 
HETATM   16  C30 UNL     1      -1.942  50.147 -15.823  1.00  0.00     0.026 C 
HETATM   17  C31 UNL     1      -3.009  51.142 -15.329  1.00  0.00     0.011 C 
HETATM   18  C32 UNL     1      -2.855  51.579 -13.856  1.00  0.00     0.014 C 
HETATM   19  C33 UNL     1      -2.234  50.521 -12.908  1.00  0.00    -0.002 C 
HETATM   20  C34 UNL     1      -3.297  49.401 -12.725  1.00  0.00     0.019 C 
ENDROOT
BRANCH   1  21
HETATM   21  C6  UNL     1      -1.813  52.555 -11.082  1.00  0.00     0.087 C 
HETATM   22  C7  UNL     1      -3.232  53.059 -10.730  1.00  0.00     0.049 C 
BRANCH  21  23
HETATM   23  C5  UNL     1      -0.858  53.006  -9.907  1.00  0.00     0.181 C 
BRANCH  23  24
HETATM   24  C4  UNL     1      -0.123  54.352 -10.094  1.00  0.00     0.159 C 
HETATM   25  O1  UNL     1       0.219  54.960  -8.835  1.00  0.00    -0.382 OA
HETATM   26  C3  UNL     1       1.509  55.574  -8.943  1.00  0.00     0.173 C 
HETATM   27  C2  UNL     1       1.841  55.615 -10.423  1.00  0.00     0.014 C 
HETATM   28  C1  UNL     1       3.323  55.787 -10.709  1.00  0.00     0.012 C 
HETATM   29  C35 UNL     1       1.159  54.351 -10.956  1.00  0.00     0.046 C 
BRANCH  29  30
HETATM   30  C36 UNL     1       2.024  53.084 -10.913  1.00  0.00     0.172 C 
BRANCH  30  31
HETATM   31  O7  UNL     1       2.771  52.884 -12.099  1.00  0.00    -0.400 OA
HETATM   32  H52 UNL     1       3.458  53.588 -12.099  1.00  0.00     0.209 HD
ENDBRANCH  30  31
ENDBRANCH  29  30
ENDBRANCH  23  24
BRANCH  23  33
HETATM   33  O2  UNL     1      -1.566  52.943  -8.656  1.00  0.00    -0.390 OA
HETATM   34  H9  UNL     1      -2.256  52.259  -8.789  1.00  0.00     0.210 HD
ENDBRANCH  23  33
ENDBRANCH  21  23
BRANCH  21  35
HETATM   35  O3  UNL     1      -1.338  53.284 -12.234  1.00  0.00    -0.387 OA
HETATM   36  H13 UNL     1      -1.597  54.218 -12.132  1.00  0.00     0.210 HD
ENDBRANCH  21  35
ENDBRANCH   1  21
BRANCH   4  37
HETATM   37  O4  UNL     1      -0.913  48.522 -13.542  1.00  0.00    -0.384 OA
HETATM   38  H19 UNL     1      -0.055  48.219 -13.886  1.00  0.00     0.211 HD
ENDBRANCH   4  37
BRANCH  11  39
HETATM   39  O6  UNL     1      -1.419  51.451 -21.416  1.00  0.00    -0.386 OA
BRANCH  39  40
HETATM   40  C18 UNL     1      -0.072  51.830 -21.702  1.00  0.00     0.172 C 
BRANCH  40  41
HETATM   41  C19 UNL     1      -0.017  52.802 -22.883  1.00  0.00     0.064 C 
BRANCH  41  42
HETATM   42  C20 UNL     1       0.013  52.090 -24.210  1.00  0.00    -0.056 A 
HETATM   43  C21 UNL     1      -1.103  51.370 -24.658  1.00  0.00     0.007 A 
HETATM   44  C22 UNL     1      -1.066  50.701 -25.882  1.00  0.00     0.001 A 
HETATM   45  C23 UNL     1       0.085  50.742 -26.667  1.00  0.00     0.000 A 
HETATM   46  C24 UNL     1       1.201  51.451 -26.228  1.00  0.00     0.001 A 
HETATM   47  C25 UNL     1       1.167  52.121 -25.003  1.00  0.00     0.007 A 
ENDBRANCH  41  42
ENDBRANCH  40  41
ENDBRANCH  39  40
ENDBRANCH  11  39
TORSDOF 12
ENDMDL
