MODEL 1
REMARK minimizedAffinity -9.37378693
REMARK  4 active torsions:
REMARK  status: ('A' for Active; 'I' for Inactive)
REMARK    1  A    between atoms: C4_4  and  C5_5 
REMARK    2  A    between atoms: C5_5  and  C6_6 
REMARK    3  A    between atoms: C6_6  and  C7_7 
REMARK    4  A    between atoms: C7_7  and  C9_9 
ROOT
HETATM    1  C9  UNL     1      -8.726   6.590  13.803  1.00  0.00    -0.002 C 
HETATM    2  C10 UNL     1      -9.107   5.483  12.818  1.00  0.00     0.007 C 
HETATM    3  C11 UNL     1      -7.769   5.036  12.266  1.00  0.00     0.015 C 
HETATM    4  C12 UNL     1      -6.856   4.886  13.510  1.00  0.00    -0.013 C 
HETATM    5  C13 UNL     1      -7.061   3.451  14.066  1.00  0.00     0.021 C 
HETATM    6  C14 UNL     1      -5.358   4.990  13.143  1.00  0.00    -0.070 C 
HETATM    7  C15 UNL     1      -4.887   4.499  11.977  1.00  0.00    -0.022 C 
HETATM    8  C16 UNL     1      -3.445   4.433  11.580  1.00  0.00     0.034 C 
HETATM    9  C17 UNL     1      -2.474   4.697  12.747  1.00  0.00     0.013 C 
HETATM   10  C18 UNL     1      -0.967   4.712  12.303  1.00  0.00     0.018 C 
HETATM   11  C19 UNL     1      -0.700   5.371  10.936  1.00  0.00     0.023 C 
HETATM   12  C20 UNL     1      -0.445   3.260  12.217  1.00  0.00     0.023 C 
HETATM   13  C21 UNL     1      -0.126   5.410  13.373  1.00  0.00     0.135 C 
HETATM   14  O1  UNL     1       0.977   5.900  13.140  1.00  0.00    -0.297 OA
HETATM   15  C22 UNL     1      -0.686   5.401  14.770  1.00  0.00     0.080 C 
HETATM   16  C23 UNL     1      -1.989   6.180  14.812  1.00  0.00     0.017 C 
HETATM   17  C24 UNL     1      -2.955   5.922  13.609  1.00  0.00    -0.031 C 
HETATM   18  C25 UNL     1      -3.009   7.216  12.753  1.00  0.00     0.016 C 
HETATM   19  C26 UNL     1      -4.397   5.564  14.182  1.00  0.00     0.024 C 
HETATM   20  C27 UNL     1      -4.998   6.712  15.026  1.00  0.00     0.010 C 
HETATM   21  C28 UNL     1      -6.359   7.184  14.537  1.00  0.00     0.011 C 
HETATM   22  C29 UNL     1      -7.398   6.037  14.483  1.00  0.00    -0.029 C 
HETATM   23  C30 UNL     1      -7.654   5.512  15.916  1.00  0.00     0.016 C 
ENDROOT
BRANCH   1  24
HETATM   24  C7  UNL     1      -9.916   7.055  14.707  1.00  0.00    -0.014 C 
HETATM   25  C8  UNL     1      -9.789   8.539  15.071  1.00  0.00     0.010 C 
BRANCH  24  26
HETATM   26  C6  UNL     1     -11.287   6.773  14.028  1.00  0.00     0.008 C 
BRANCH  26  27
HETATM   27  C5  UNL     1     -11.837   7.891  13.125  1.00  0.00     0.028 C 
BRANCH  27  28
HETATM   28  C4  UNL     1     -13.310   7.767  12.840  1.00  0.00    -0.025 C 
HETATM   29  C2  UNL     1     -14.181   6.858  13.323  1.00  0.00    -0.091 C 
HETATM   30  C1  UNL     1     -15.629   6.890  12.904  1.00  0.00     0.042 C 
HETATM   31  C3  UNL     1     -13.846   5.752  14.284  1.00  0.00     0.042 C 
ENDBRANCH  27  28
ENDBRANCH  26  27
ENDBRANCH  24  26
ENDBRANCH   1  24
TORSDOF 4
ENDMDL
