MODEL 1
REMARK minimizedAffinity -9.10301971
REMARK CNNscore 0.4580881
REMARK CNNaffinity 7.49370956
REMARK  14 active torsions:
REMARK  status: ('A' for Active; 'I' for Inactive)
REMARK    1  A    between atoms: C2_2  and  C3_3 
REMARK    2  A    between atoms: C2_2  and  C35_44 
REMARK    3  A    between atoms: C3_3  and  C4_4 
REMARK    4  A    between atoms: C4_4  and  C5_5 
REMARK    5  A    between atoms: C5_5  and  C6_6 
REMARK    6  A    between atoms: C5_5  and  C7_9 
REMARK    7  A    between atoms: C6_6  and  O2_8 
REMARK    8  A    between atoms: C28_31  and  O4_32 
REMARK    9  A    between atoms: O4_32  and  C29_33 
REMARK   10  A    between atoms: C30_35  and  C31_36 
REMARK   11  A    between atoms: C31_36  and  O6_37 
REMARK   12  A    between atoms: C32_38  and  O7_39 
REMARK   13  A    between atoms: C33_40  and  O8_41 
REMARK   14  A    between atoms: C34_42  and  O9_43 
ROOT
HETATM    1  C7  UNL     1      -2.862   8.593  15.086  1.00  0.00     0.009 C 
HETATM    2  C8  UNL     1      -1.732   8.465  16.138  1.00  0.00     0.007 C 
HETATM    3  C9  UNL     1      -0.397   8.437  15.362  1.00  0.00     0.015 C 
HETATM    4  C10 UNL     1      -0.737   8.859  13.918  1.00  0.00    -0.010 C 
HETATM    5  C11 UNL     1      -0.748  10.419  13.887  1.00  0.00     0.021 C 
HETATM    6  C12 UNL     1       0.168   8.427  12.757  1.00  0.00    -0.039 C 
HETATM    7  C13 UNL     1      -0.373   8.260  11.516  1.00  0.00    -0.066 C 
HETATM    8  C14 UNL     1      -1.874   8.471  11.265  1.00  0.00     0.036 C 
HETATM    9  C15 UNL     1      -2.791   8.700  12.484  1.00  0.00     0.015 C 
HETATM   10  C16 UNL     1      -2.151   8.172  13.767  1.00  0.00    -0.028 C 
HETATM   11  C17 UNL     1      -2.079   6.615  13.679  1.00  0.00     0.016 C 
HETATM   12  C18 UNL     1       0.474   7.777  10.309  1.00  0.00    -0.015 C 
HETATM   13  C19 UNL     1       0.169   6.263  10.174  1.00  0.00     0.020 C 
HETATM   14  C20 UNL     1       0.075   8.510   9.006  1.00  0.00     0.021 C 
HETATM   15  C21 UNL     1       0.938   8.131   7.814  1.00  0.00     0.080 C 
HETATM   16  C22 UNL     1       2.400   8.379   8.081  1.00  0.00     0.135 C 
HETATM   17  O3  UNL     1       3.104   8.894   7.207  1.00  0.00    -0.297 OA
HETATM   18  C23 UNL     1       2.993   7.851   9.399  1.00  0.00     0.018 C 
HETATM   19  C24 UNL     1       3.382   6.379   9.190  1.00  0.00     0.023 C 
HETATM   20  C25 UNL     1       4.304   8.637   9.665  1.00  0.00     0.023 C 
HETATM   21  C26 UNL     1       1.988   8.114  10.571  1.00  0.00     0.016 C 
HETATM   22  C27 UNL     1       2.420   7.526  11.929  1.00  0.00     0.043 C 
HETATM   23  C28 UNL     1       1.641   8.202  13.069  1.00  0.00     0.155 C 
ENDROOT
BRANCH  23  24
HETATM   24  O4  UNL     1       2.257   9.476  13.299  1.00  0.00    -0.349 OA
BRANCH  24  25
HETATM   25  C29 UNL     1       3.312   9.426  14.273  1.00  0.00     0.292 C 
HETATM   26  O5  UNL     1       4.340  10.310  13.827  1.00  0.00    -0.348 OA
HETATM   27  C30 UNL     1       5.679  10.033  14.252  1.00  0.00     0.179 C 
HETATM   28  C32 UNL     1       5.764   9.171  15.522  1.00  0.00     0.180 C 
HETATM   29  C33 UNL     1       4.922   7.889  15.434  1.00  0.00     0.183 C 
HETATM   30  C34 UNL     1       3.808   7.973  14.383  1.00  0.00     0.204 C 
BRANCH  27  31
HETATM   31  C31 UNL     1       6.476   9.450  13.075  1.00  0.00     0.198 C 
BRANCH  31  32
HETATM   32  O6  UNL     1       5.655   9.314  11.923  1.00  0.00    -0.398 OA
HETATM   33  H45 UNL     1       6.239   9.040  11.193  1.00  0.00     0.209 HD
ENDBRANCH  31  32
ENDBRANCH  27  31
BRANCH  28  34
HETATM   34  O7  UNL     1       5.252   9.960  16.618  1.00  0.00    -0.390 OA
HETATM   35  H47 UNL     1       5.653   9.605  17.435  1.00  0.00     0.210 HD
ENDBRANCH  28  34
BRANCH  29  36
HETATM   36  O8  UNL     1       5.760   6.761  15.148  1.00  0.00    -0.390 OA
HETATM   37  H49 UNL     1       5.291   5.970  15.472  1.00  0.00     0.210 HD
ENDBRANCH  29  36
BRANCH  30  38
HETATM   38  O9  UNL     1       2.761   7.070  14.779  1.00  0.00    -0.388 OA
HETATM   39  H51 UNL     1       2.886   6.241  14.279  1.00  0.00     0.210 HD
ENDBRANCH  30  38
ENDBRANCH  24  25
ENDBRANCH  23  24
BRANCH   1  40
HETATM   40  C5  UNL     1      -4.227   7.933  15.441  1.00  0.00     0.089 C 
BRANCH  40  41
HETATM   41  C4  UNL     1      -5.345   7.995  14.376  1.00  0.00     0.020 C 
BRANCH  41  42
HETATM   42  C3  UNL     1      -5.544   6.713  13.543  1.00  0.00     0.034 C 
BRANCH  42  43
HETATM   43  C2  UNL     1      -6.805   5.894  13.749  1.00  0.00    -0.086 C 
HETATM   44  C1  UNL     1      -6.902   4.581  13.465  1.00  0.00     0.014 C 
BRANCH  43  45
HETATM   45  C35 UNL     1      -8.010   6.624  14.342  1.00  0.00     0.005 C 
HETATM   46  C36 UNL     1      -9.282   6.425  13.510  1.00  0.00     0.014 C 
HETATM   47  C37 UNL     1      -8.248   6.225  15.801  1.00  0.00     0.014 C 
ENDBRANCH  43  45
ENDBRANCH  42  43
ENDBRANCH  41  42
ENDBRANCH  40  41
BRANCH  40  48
HETATM   48  C6  UNL     1      -3.951   6.488  15.821  1.00  0.00     0.144 C 
HETATM   49  O1  UNL     1      -2.946   5.854  15.548  1.00  0.00    -0.650 OA
BRANCH  48  50
HETATM   50  O2  UNL     1      -4.975   5.897  16.470  1.00  0.00    -0.776 OA
HETATM   51  H8  UNL     1      -4.666   4.977  16.617  1.00  0.00     0.167 HD
ENDBRANCH  48  50
ENDBRANCH  40  48
ENDBRANCH   1  40
TORSDOF 14
ENDMDL
