MODEL 1
REMARK minimizedAffinity -7.79260683
REMARK CNNscore 0.493628263
REMARK CNNaffinity 6.62297678
REMARK  11 active torsions:
REMARK  status: ('A' for Active; 'I' for Inactive)
REMARK    1  A    between atoms: C12_13  and  O2_14 
REMARK    2  A    between atoms: C19_21  and  O3_22 
REMARK    3  A    between atoms: C19_21  and  C20_23 
REMARK    4  A    between atoms: C20_23  and  C21_25 
REMARK    5  A    between atoms: C21_25  and  O5_26 
REMARK    6  A    between atoms: O5_26  and  C22_27 
REMARK    7  A    between atoms: C22_27  and  C23_29 
REMARK    8  A    between atoms: C23_29  and  C24_30 
REMARK    9  A    between atoms: C24_30  and  C25_31 
REMARK       I    between atoms: C25_31  and  N1_33 
REMARK   10  A    between atoms: N1_33  and  C26_34 
REMARK   11  A    between atoms: C26_34  and  C27_35 
ROOT
HETATM    1  C1  UNL     1      -1.185  53.664  -7.557  1.00  0.00     0.025 C 
HETATM    2  C2  UNL     1      -0.292  53.353  -8.790  1.00  0.00     0.004 A 
HETATM    3  C3  UNL     1       1.009  52.840  -8.186  1.00  0.00    -0.009 A 
HETATM    4  C4  UNL     1       2.209  53.412  -8.355  1.00  0.00     0.052 A 
HETATM    5  C5  UNL     1       2.355  54.634  -9.170  1.00  0.00     0.172 A 
HETATM    6  O1  UNL     1       3.449  55.154  -9.346  1.00  0.00    -0.289 OA
HETATM    7  C6  UNL     1       1.124  55.217  -9.744  1.00  0.00     0.058 A 
HETATM    8  C7  UNL     1      -0.086  54.656  -9.562  1.00  0.00    -0.064 A 
HETATM    9  C8  UNL     1      -1.318  55.279 -10.192  1.00  0.00     0.036 C 
HETATM   10  C9  UNL     1      -2.366  54.244 -10.621  1.00  0.00     0.010 C 
HETATM   11  C10 UNL     1      -1.695  52.907 -10.963  1.00  0.00    -0.002 C 
HETATM   12  C11 UNL     1      -1.020  52.279  -9.708  1.00  0.00     0.035 C 
HETATM   13  C12 UNL     1      -0.154  51.097 -10.202  1.00  0.00     0.124 C 
HETATM   14  C13 UNL     1      -1.041  50.006 -10.804  1.00  0.00     0.045 C 
HETATM   15  C14 UNL     1      -2.123  50.457 -11.825  1.00  0.00     0.001 C 
HETATM   16  C15 UNL     1      -3.331  49.490 -11.576  1.00  0.00     0.019 C 
HETATM   17  C16 UNL     1      -2.660  51.912 -11.636  1.00  0.00     0.002 C 
HETATM   18  C17 UNL     1      -3.076  52.388 -13.050  1.00  0.00     0.009 C 
HETATM   19  C18 UNL     1      -2.797  51.241 -14.014  1.00  0.00     0.047 C 
HETATM   20  C19 UNL     1      -1.712  50.396 -13.343  1.00  0.00     0.128 C 
ENDROOT
BRANCH  20  21
HETATM   21  O3  UNL     1      -1.897  49.046 -13.826  1.00  0.00    -0.381 OA
HETATM   22  H25 UNL     1      -1.003  48.651 -13.956  1.00  0.00     0.211 HD
ENDBRANCH  20  21
BRANCH  20  23
HETATM   23  C20 UNL     1      -0.243  50.723 -13.720  1.00  0.00     0.185 C 
HETATM   24  O4  UNL     1       0.638  49.917 -13.369  1.00  0.00    -0.292 OA
BRANCH  23  25
HETATM   25  C21 UNL     1       0.169  52.008 -14.446  1.00  0.00     0.260 C 
BRANCH  25  26
HETATM   26  O5  UNL     1       1.243  51.980 -15.372  1.00  0.00    -0.314 OA
BRANCH  26  27
HETATM   27  C22 UNL     1       0.946  51.482 -16.602  1.00  0.00     0.259 C 
HETATM   28  O6  UNL     1       0.686  50.314 -16.846  1.00  0.00    -0.265 OA
BRANCH  27  29
HETATM   29  C23 UNL     1       0.959  52.601 -17.607  1.00  0.00     0.120 C 
BRANCH  29  30
HETATM   30  C24 UNL     1       0.190  52.233 -18.865  1.00  0.00     0.112 C 
BRANCH  30  31
HETATM   31  C25 UNL     1       0.705  53.000 -20.067  1.00  0.00     0.218 C 
HETATM   32  O7  UNL     1       1.434  53.984 -19.983  1.00  0.00    -0.274 OA
HETATM   33  N1  UNL     1       0.280  52.472 -21.262  1.00  0.00    -0.357 N 
HETATM   34  H32 UNL     1      -0.245  51.605 -21.264  1.00  0.00     0.162 HD
BRANCH  33  35
HETATM   35  C26 UNL     1       0.687  53.020 -22.534  1.00  0.00     0.161 C 
BRANCH  35  36
HETATM   36  C27 UNL     1       0.098  52.222 -23.663  1.00  0.00    -0.038 A 
HETATM   37  C28 UNL     1       0.718  52.208 -24.914  1.00  0.00     0.025 A 
HETATM   38  C29 UNL     1       0.162  51.436 -25.921  1.00  0.00     0.088 A 
HETATM   39  N2  UNL     1      -0.952  50.686 -25.767  1.00  0.00    -0.375 N 
HETATM   40  C30 UNL     1      -1.534  50.711 -24.549  1.00  0.00     0.088 A 
ATOM     41  H2  UNL     1      -1.334  50.130 -26.532  1.00  0.00     0.164 HD
HETATM   42  C31 UNL     1      -1.053  51.448 -23.481  1.00  0.00     0.025 A 
ENDBRANCH  35  36
ENDBRANCH  33  35
ENDBRANCH  30  31
ENDBRANCH  29  30
ENDBRANCH  27  29
ENDBRANCH  26  27
ENDBRANCH  25  26
ENDBRANCH  23  25
ENDBRANCH  20  23
BRANCH  13  43
HETATM   43  O2  UNL     1       0.787  51.519 -11.175  1.00  0.00    -0.395 OA
HETATM   44  H14 UNL     1       1.470  50.815 -11.234  1.00  0.00     0.210 HD
ENDBRANCH  13  43
TORSDOF 11
ENDMDL
