MODEL 1
REMARK minimizedAffinity -9.02988148
REMARK CNNscore 0.860543668
REMARK CNNaffinity 7.59282112
REMARK  8 active torsions:
REMARK  status: ('A' for Active; 'I' for Inactive)
REMARK    1  A    between atoms: C5_5  and  O1_6 
REMARK    2  A    between atoms: C9_10  and  C10_11 
REMARK    3  A    between atoms: C10_11  and  C11_12 
REMARK    4  A    between atoms: C11_12  and  C12_13 
REMARK    5  A    between atoms: C14_15  and  C15_16 
REMARK    6  A    between atoms: C15_16  and  C16_17 
REMARK    7  A    between atoms: C16_17  and  C17_18 
REMARK    8  A    between atoms: C23_24  and  O2_25 
ROOT
HETATM    1  C12 UNL     1      -4.740  48.330 -21.620  1.00  0.00    -0.087 C 
HETATM    2  C13 UNL     1      -5.894  47.669 -20.907  1.00  0.00     0.043 C 
HETATM    3  C14 UNL     1      -3.545  48.585 -21.046  1.00  0.00    -0.024 C 
ENDROOT
BRANCH   3   4
HETATM    4  C15 UNL     1      -3.155  48.266 -19.629  1.00  0.00     0.030 C 
BRANCH   4   5
HETATM    5  C16 UNL     1      -1.768  48.763 -19.181  1.00  0.00     0.042 C 
BRANCH   5   6
HETATM    6  C17 UNL     1      -1.470  50.287 -19.264  1.00  0.00     0.065 C 
HETATM    7  C18 UNL     1      -2.731  51.116 -18.965  1.00  0.00     0.046 C 
HETATM    8  C19 UNL     1      -0.340  50.572 -18.252  1.00  0.00     0.043 C 
HETATM    9  C20 UNL     1       0.149  52.006 -18.348  1.00  0.00     0.044 C 
HETATM   10  C21 UNL     1       0.359  52.389 -19.782  1.00  0.00    -0.021 A 
HETATM   11  C22 UNL     1       1.145  53.509 -20.088  1.00  0.00     0.046 A 
HETATM   12  C27 UNL     1      -0.247  51.664 -20.818  1.00  0.00     0.082 A 
HETATM   13  C23 UNL     1       1.338  53.879 -21.414  1.00  0.00     0.066 A 
HETATM   14  C24 UNL     1       0.755  53.155 -22.446  1.00  0.00     0.046 A 
HETATM   15  C25 UNL     1      -0.039  52.038 -22.158  1.00  0.00    -0.025 A 
HETATM   16  C26 UNL     1      -0.678  51.267 -23.274  1.00  0.00     0.051 C 
HETATM   17  O3  UNL     1      -1.037  50.563 -20.609  1.00  0.00    -0.340 OA
BRANCH  13  18
HETATM   18  O2  UNL     1       2.102  54.958 -21.748  1.00  0.00    -0.361 OA
HETATM   19  H36 UNL     1       2.472  55.338 -20.935  1.00  0.00     0.217 HD
ENDBRANCH  13  18
ENDBRANCH   5   6
ENDBRANCH   4   5
ENDBRANCH   3   4
BRANCH   1  20
HETATM   20  C11 UNL     1      -4.976  48.617 -23.095  1.00  0.00     0.034 C 
BRANCH  20  21
HETATM   21  C10 UNL     1      -3.723  48.403 -23.962  1.00  0.00     0.014 C 
BRANCH  21  22
HETATM   22  C9  UNL     1      -3.394  49.617 -24.872  1.00  0.00     0.024 C 
HETATM   23  C2  UNL     1      -4.166  50.907 -24.611  1.00  0.00    -0.084 C 
HETATM   24  C1  UNL     1      -5.331  51.008 -23.954  1.00  0.00     0.015 C 
HETATM   25  C3  UNL     1      -3.533  52.129 -25.245  1.00  0.00     0.036 C 
HETATM   26  C4  UNL     1      -2.867  51.797 -26.584  1.00  0.00     0.037 C 
HETATM   27  C5  UNL     1      -3.555  50.611 -27.261  1.00  0.00     0.127 C 
HETATM   28  C6  UNL     1      -3.439  49.288 -26.420  1.00  0.00    -0.014 C 
HETATM   29  C7  UNL     1      -2.158  48.506 -26.798  1.00  0.00     0.018 C 
HETATM   30  C8  UNL     1      -4.647  48.398 -26.792  1.00  0.00     0.018 C 
BRANCH  27  31
HETATM   31  O1  UNL     1      -3.049  50.454 -28.586  1.00  0.00    -0.395 OA
HETATM   32  H8  UNL     1      -2.078  50.453 -28.542  1.00  0.00     0.210 HD
ENDBRANCH  27  31
ENDBRANCH  21  22
ENDBRANCH  20  21
ENDBRANCH   1  20
TORSDOF 8
ENDMDL
