MODEL 1
REMARK minimizedAffinity -6.8059864
REMARK CNNscore 0.446493894
REMARK CNNaffinity 5.62764597
REMARK  4 active torsions:
REMARK  status: ('A' for Active; 'I' for Inactive)
REMARK    1  A    between atoms: C4_4  and  C5_5 
REMARK    2  A    between atoms: C5_5  and  C6_6 
REMARK    3  A    between atoms: C6_6  and  C7_7 
REMARK    4  A    between atoms: C7_7  and  C9_9 
ROOT
HETATM    1  C9  UNL     1       5.061   7.938  12.289  1.00  0.00    -0.002 C 
HETATM    2  C10 UNL     1       4.110   7.826  13.503  1.00  0.00     0.006 C 
HETATM    3  C11 UNL     1       4.701   8.670  14.630  1.00  0.00     0.011 C 
HETATM    4  C12 UNL     1       5.799   9.566  13.992  1.00  0.00    -0.032 C 
HETATM    5  C13 UNL     1       5.046  10.776  13.370  1.00  0.00     0.016 C 
HETATM    6  C14 UNL     1       6.830  10.025  15.110  1.00  0.00     0.004 C 
HETATM    7  C15 UNL     1       7.131  11.537  15.246  1.00  0.00     0.007 C 
HETATM    8  C16 UNL     1       8.173  12.065  14.274  1.00  0.00     0.007 C 
HETATM    9  C17 UNL     1       9.508  11.305  14.243  1.00  0.00     0.010 C 
HETATM   10  C18 UNL     1      10.758  12.051  14.817  1.00  0.00     0.018 C 
HETATM   11  C19 UNL     1      11.158  13.216  13.892  1.00  0.00     0.023 C 
HETATM   12  C20 UNL     1      10.556  12.600  16.237  1.00  0.00     0.023 C 
HETATM   13  C21 UNL     1      11.943  11.063  14.835  1.00  0.00     0.135 C 
HETATM   14  O1  UNL     1      12.950  11.258  15.519  1.00  0.00    -0.297 OA
HETATM   15  C22 UNL     1      11.868   9.876  13.896  1.00  0.00     0.080 C 
HETATM   16  C23 UNL     1      10.618   9.036  14.156  1.00  0.00     0.018 C 
HETATM   17  C24 UNL     1       9.473   9.860  14.738  1.00  0.00    -0.026 A 
HETATM   18  C25 UNL     1       9.131   9.536  16.180  1.00  0.00     0.021 A 
HETATM   19  C26 UNL     1       8.127   9.207  15.097  1.00  0.00    -0.027 A 
HETATM   20  C27 UNL     1       7.894   7.742  14.872  1.00  0.00     0.011 C 
HETATM   21  C28 UNL     1       7.270   7.447  13.518  1.00  0.00     0.011 C 
HETATM   22  C29 UNL     1       6.373   8.563  12.903  1.00  0.00    -0.032 C 
HETATM   23  C30 UNL     1       7.176   9.321  11.826  1.00  0.00     0.016 C 
ENDROOT
BRANCH   1  24
HETATM   24  C7  UNL     1       5.113   6.609  11.475  1.00  0.00    -0.014 C 
HETATM   25  C8  UNL     1       6.474   6.343  10.830  1.00  0.00     0.010 C 
BRANCH  24  26
HETATM   26  C6  UNL     1       3.995   6.509  10.401  1.00  0.00     0.008 C 
BRANCH  26  27
HETATM   27  C5  UNL     1       3.788   7.764   9.543  1.00  0.00     0.028 C 
BRANCH  27  28
HETATM   28  C4  UNL     1       2.322   8.092   9.446  1.00  0.00    -0.025 C 
HETATM   29  C2  UNL     1       1.493   7.914   8.397  1.00  0.00    -0.091 C 
HETATM   30  C1  UNL     1       0.039   8.303   8.498  1.00  0.00     0.042 C 
HETATM   31  C3  UNL     1       1.879   7.326   7.068  1.00  0.00     0.042 C 
ENDBRANCH  27  28
ENDBRANCH  26  27
ENDBRANCH  24  26
ENDBRANCH   1  24
TORSDOF 4
ENDMDL
