MODEL 1
REMARK minimizedAffinity -7.08643007
REMARK CNNscore 0.70701617
REMARK CNNaffinity 6.91647911
REMARK  11 active torsions:
REMARK  status: ('A' for Active; 'I' for Inactive)
REMARK    1  A    between atoms: C2_2  and  O1_3 
REMARK    2  A    between atoms: O1_3  and  C3_4 
REMARK    3  A    between atoms: C3_4  and  C4_6 
REMARK    4  A    between atoms: C5_7  and  C6_8 
REMARK    5  A    between atoms: C10_13  and  C11_14 
REMARK    6  A    between atoms: C11_14  and  O4_15 
REMARK    7  A    between atoms: C13_18  and  C14_19 
REMARK    8  A    between atoms: C25_32  and  C26_33 
REMARK    9  A    between atoms: C26_33  and  O7_34 
REMARK   10  A    between atoms: C33_42  and  O9_44 
REMARK   11  A    between atoms: C36_46  and  O10_47 
ROOT
HETATM    1  C4  UNL     1       0.923  55.882  -7.442  1.00  0.00     0.165 C 
HETATM    2  C5  UNL     1       2.191  56.269  -7.694  1.00  0.00     0.053 C 
HETATM    3  C7  UNL     1       3.081  55.294  -8.344  1.00  0.00    -0.002 C 
HETATM    4  C8  UNL     1       4.384  55.099  -7.985  1.00  0.00    -0.066 C 
HETATM    5  C9  UNL     1       5.202  53.868  -8.373  1.00  0.00     0.049 C 
HETATM    6  C10 UNL     1       5.884  53.234  -7.150  1.00  0.00     0.084 C 
HETATM    7  C12 UNL     1       6.782  54.241  -6.444  1.00  0.00     0.142 C 
HETATM    8  O5  UNL     1       7.552  53.873  -5.554  1.00  0.00    -0.297 OA
HETATM    9  C13 UNL     1       6.654  55.691  -6.896  1.00  0.00     0.092 C 
HETATM   10  C22 UNL     1       5.154  56.027  -7.044  1.00  0.00     0.052 C 
HETATM   11  C23 UNL     1       2.357  54.371  -9.274  1.00  0.00     0.044 C 
HETATM   12  C24 UNL     1       1.053  53.993  -8.863  1.00  0.00     0.101 C 
HETATM   13  O6  UNL     1       0.463  54.601  -7.765  1.00  0.00    -0.302 OA
HETATM   14  C25 UNL     1       0.290  53.046  -9.565  1.00  0.00     0.034 C 
HETATM   15  C27 UNL     1       0.850  52.544 -10.729  1.00  0.00     0.090 C 
HETATM   16  O8  UNL     1       0.260  51.599 -11.532  1.00  0.00    -0.341 OA
HETATM   17  C28 UNL     1       1.032  51.657 -12.773  1.00  0.00     0.171 C 
HETATM   18  C29 UNL     1       2.430  52.218 -12.447  1.00  0.00     0.057 C 
HETATM   19  C30 UNL     1       3.500  51.142 -12.217  1.00  0.00     0.012 C 
HETATM   20  C31 UNL     1       2.931  49.839 -11.665  1.00  0.00     0.004 C 
HETATM   21  C32 UNL     1       1.818  49.240 -12.528  1.00  0.00     0.040 C 
HETATM   22  C33 UNL     1       1.052  50.252 -13.400  1.00  0.00     0.081 C 
HETATM   23  C34 UNL     1       1.602  50.295 -14.830  1.00  0.00     0.049 C 
HETATM   24  C35 UNL     1       2.088  52.956 -11.199  1.00  0.00     0.017 C 
HETATM   25  C36 UNL     1       2.826  53.909 -10.513  1.00  0.00     0.091 C 
ENDROOT
BRANCH   2  26
HETATM   26  C6  UNL     1       2.627  57.622  -7.290  1.00  0.00     0.273 C 
HETATM   27  O3  UNL     1       2.934  57.883  -6.135  1.00  0.00    -0.301 OA
ENDBRANCH   2  26
BRANCH   1  28
HETATM   28  C3  UNL     1      -0.064  56.805  -6.822  1.00  0.00     0.318 C 
HETATM   29  O2  UNL     1      -0.629  57.709  -7.418  1.00  0.00    -0.257 OA
BRANCH  28  30
HETATM   30  O1  UNL     1      -0.250  56.452  -5.522  1.00  0.00    -0.316 OA
BRANCH  30  31
HETATM   31  C2  UNL     1       0.054  57.469  -4.559  1.00  0.00     0.175 C 
HETATM   32  C1  UNL     1      -1.191  57.829  -3.770  1.00  0.00     0.034 C 
ENDBRANCH  30  31
ENDBRANCH  28  30
ENDBRANCH   1  28
BRANCH  25  33
HETATM   33  O10 UNL     1       4.011  54.321 -11.057  1.00  0.00    -0.354 OA
HETATM   34  C37 UNL     1       3.933  55.697 -11.438  1.00  0.00     0.210 C 
ENDBRANCH  25  33
BRANCH   6  35
HETATM   35  C11 UNL     1       6.690  51.993  -7.527  1.00  0.00     0.176 C 
BRANCH  35  36
HETATM   36  O4  UNL     1       7.078  52.040  -8.895  1.00  0.00    -0.400 OA
HETATM   37  H12 UNL     1       7.750  51.346  -9.022  1.00  0.00     0.209 HD
ENDBRANCH  35  36
ENDBRANCH   6  35
BRANCH   9  38
HETATM   38  C14 UNL     1       7.365  56.695  -5.998  1.00  0.00    -0.046 A 
HETATM   39  C15 UNL     1       8.706  56.485  -5.646  1.00  0.00     0.010 A 
HETATM   40  C16 UNL     1       9.408  57.382  -4.832  1.00  0.00     0.031 A 
HETATM   41  C17 UNL     1       8.723  58.511  -4.374  1.00  0.00     0.042 A 
HETATM   42  N1  UNL     1       9.146  59.546  -3.572  1.00  0.00    -0.365 N 
HETATM   43  C20 UNL     1       7.390  58.763  -4.697  1.00  0.00    -0.008 A 
HETATM   44  C18 UNL     1       8.128  60.441  -3.373  1.00  0.00     0.089 A 
HETATM   45  H16 UNL     1      10.075  59.626  -3.183  1.00  0.00     0.165 HD
HETATM   46  C19 UNL     1       7.027  59.981  -4.059  1.00  0.00     0.030 A 
HETATM   47  C21 UNL     1       6.704  57.844  -5.517  1.00  0.00     0.021 A 
ENDBRANCH   9  38
BRANCH  14  48
HETATM   48  C26 UNL     1      -1.081  52.646  -9.116  1.00  0.00     0.208 C 
BRANCH  48  49
HETATM   49  O7  UNL     1      -1.969  53.732  -9.335  1.00  0.00    -0.396 OA
HETATM   50  H24 UNL     1      -2.846  53.441  -9.034  1.00  0.00     0.209 HD
ENDBRANCH  48  49
ENDBRANCH  14  48
BRANCH  22  51
HETATM   51  O9  UNL     1      -0.301  49.780 -13.525  1.00  0.00    -0.388 OA
HETATM   52  H36 UNL     1      -0.749  49.995 -12.685  1.00  0.00     0.210 HD
ENDBRANCH  22  51
TORSDOF 11
ENDMDL
