MODEL 1
REMARK minimizedAffinity -7.52504444
REMARK CNNscore 0.805011392
REMARK CNNaffinity 7.14669037
REMARK  9 active torsions:
REMARK  status: ('A' for Active; 'I' for Inactive)
REMARK    1  A    between atoms: C2_2  and  O1_3 
REMARK    2  A    between atoms: O1_3  and  C3_4 
REMARK    3  A    between atoms: C14_15  and  O2_16 
REMARK    4  A    between atoms: O2_16  and  C15_17 
REMARK    5  A    between atoms: C21_24  and  O4_25 
REMARK    6  A    between atoms: O4_25  and  C22_26 
REMARK    7  A    between atoms: C24_29  and  O6_30 
REMARK    8  A    between atoms: C25_31  and  O7_32 
REMARK    9  A    between atoms: C26_33  and  O8_34 
ROOT
HETATM    1  C3  UNL     1       6.734  56.332  -5.679  1.00  0.00     0.260 C 
HETATM    2  C4  UNL     1       7.448  55.594  -6.844  1.00  0.00     0.065 C 
HETATM    3  C5  UNL     1       6.697  55.602  -8.202  1.00  0.00    -0.007 C 
HETATM    4  C6  UNL     1       7.158  54.402  -9.021  1.00  0.00     0.010 C 
HETATM    5  C7  UNL     1       5.191  55.737  -7.925  1.00  0.00     0.027 C 
HETATM    6  C8  UNL     1       4.862  55.153  -6.543  1.00  0.00     0.130 C 
HETATM    7  C9  UNL     1       3.342  54.981  -6.557  1.00  0.00     0.042 C 
HETATM    8  C10 UNL     1       3.113  54.388  -7.967  1.00  0.00    -0.029 C 
HETATM    9  C11 UNL     1       3.642  52.912  -7.945  1.00  0.00     0.016 C 
HETATM   10  C12 UNL     1       1.650  54.399  -8.473  1.00  0.00     0.006 C 
HETATM   11  C13 UNL     1       0.752  53.431  -7.693  1.00  0.00     0.039 C 
HETATM   12  C14 UNL     1      -0.682  53.413  -8.232  1.00  0.00     0.138 C 
HETATM   13  C17 UNL     1      -0.683  52.748  -9.636  1.00  0.00     0.035 C 
HETATM   14  C18 UNL     1      -2.090  52.568 -10.330  1.00  0.00    -0.015 C 
HETATM   15  C19 UNL     1      -2.813  53.919 -10.521  1.00  0.00     0.018 C 
HETATM   16  C20 UNL     1      -3.029  51.677  -9.476  1.00  0.00     0.018 C 
HETATM   17  C21 UNL     1      -1.893  51.829 -11.705  1.00  0.00     0.133 C 
HETATM   18  C27 UNL     1      -0.867  52.528 -12.598  1.00  0.00     0.034 C 
HETATM   19  C28 UNL     1       0.475  52.655 -11.892  1.00  0.00     0.013 C 
HETATM   20  C29 UNL     1       0.329  53.418 -10.591  1.00  0.00    -0.025 A 
HETATM   21  C30 UNL     1       0.414  54.916 -10.679  1.00  0.00     0.021 A 
HETATM   22  C31 UNL     1       1.563  54.172 -10.007  1.00  0.00    -0.027 A 
HETATM   23  C32 UNL     1       2.881  54.125 -10.820  1.00  0.00     0.011 C 
HETATM   24  C33 UNL     1       4.191  54.646 -10.191  1.00  0.00     0.011 C 
HETATM   25  C34 UNL     1       3.989  55.349  -8.857  1.00  0.00    -0.030 C 
HETATM   26  C35 UNL     1       3.296  56.719  -9.186  1.00  0.00     0.016 C 
HETATM   27  O9  UNL     1       5.331  56.044  -5.551  1.00  0.00    -0.356 OA
ENDROOT
BRANCH  17  28
HETATM   28  O4  UNL     1      -3.163  51.753 -12.367  1.00  0.00    -0.353 OA
BRANCH  28  29
HETATM   29  C22 UNL     1      -3.446  50.491 -12.984  1.00  0.00     0.291 C 
HETATM   30  O5  UNL     1      -3.148  49.392 -12.124  1.00  0.00    -0.356 OA
HETATM   31  C23 UNL     1      -1.754  49.081 -12.072  1.00  0.00     0.205 C 
HETATM   32  C24 UNL     1      -1.237  48.588 -13.431  1.00  0.00     0.173 C 
HETATM   33  C25 UNL     1      -2.163  49.029 -14.567  1.00  0.00     0.182 C 
HETATM   34  C26 UNL     1      -2.645  50.447 -14.310  1.00  0.00     0.204 C 
BRANCH  32  35
HETATM   35  O6  UNL     1      -1.126  47.159 -13.454  1.00  0.00    -0.391 OA
HETATM   36  H39 UNL     1      -0.864  46.938 -14.372  1.00  0.00     0.210 HD
ENDBRANCH  32  35
BRANCH  33  37
HETATM   37  O7  UNL     1      -1.452  48.954 -15.813  1.00  0.00    -0.390 OA
HETATM   38  H41 UNL     1      -2.035  49.402 -16.460  1.00  0.00     0.210 HD
ENDBRANCH  33  37
BRANCH  34  39
HETATM   39  O8  UNL     1      -3.439  50.886 -15.426  1.00  0.00    -0.388 OA
HETATM   40  H43 UNL     1      -3.710  51.802 -15.223  1.00  0.00     0.210 HD
ENDBRANCH  34  39
ENDBRANCH  28  29
ENDBRANCH  17  28
BRANCH  12  41
HETATM   41  O2  UNL     1      -1.460  52.635  -7.297  1.00  0.00    -0.316 OA
BRANCH  41  42
HETATM   42  C15 UNL     1      -1.383  53.028  -5.996  1.00  0.00     0.255 C 
HETATM   43  C16 UNL     1      -0.814  51.926  -5.154  1.00  0.00     0.126 C 
HETATM   44  O3  UNL     1      -1.714  54.122  -5.559  1.00  0.00    -0.266 OA
ENDBRANCH  41  42
ENDBRANCH  12  41
BRANCH   1  45
HETATM   45  O1  UNL     1       7.424  55.944  -4.483  1.00  0.00    -0.362 OA
BRANCH  45  46
HETATM   46  C2  UNL     1       8.730  55.421  -4.701  1.00  0.00     0.166 C 
HETATM   47  C1  UNL     1       9.128  54.376  -3.679  1.00  0.00     0.033 C 
ENDBRANCH  45  46
ENDBRANCH   1  45
TORSDOF 9
ENDMDL
