MODEL 1
REMARK minimizedAffinity -9.20121288
REMARK  10 active torsions:
REMARK  status: ('A' for Active; 'I' for Inactive)
REMARK    1  A    between atoms: C5_5  and  C6_6 
REMARK    2  A    between atoms: C6_6  and  C8_8 
REMARK    3  A    between atoms: C8_8  and  O1_9 
REMARK    4  A    between atoms: C15_17  and  O3_18 
REMARK    5  A    between atoms: C18_21  and  O4_23 
REMARK    6  A    between atoms: O4_23  and  C20_24 
REMARK    7  A    between atoms: C20_24  and  C21_26 
REMARK    8  A    between atoms: C21_26  and  C22_27 
REMARK    9  A    between atoms: C21_26  and  O6_29 
REMARK   10  A    between atoms: O6_29  and  C24_30 
ROOT
HETATM    1  C1  UNL     1      -5.058  50.744 -20.375  1.00  0.00     0.015 C 
HETATM    2  C2  UNL     1      -4.260  50.815 -21.453  1.00  0.00    -0.082 C 
HETATM    3  C3  UNL     1      -4.607  51.652 -22.648  1.00  0.00     0.034 C 
HETATM    4  C4  UNL     1      -4.775  50.719 -23.835  1.00  0.00     0.010 C 
HETATM    5  C5  UNL     1      -3.507  49.923 -24.228  1.00  0.00    -0.001 C 
HETATM    6  C9  UNL     1      -2.482  49.772 -23.069  1.00  0.00     0.033 C 
HETATM    7  C10 UNL     1      -1.182  50.619 -23.130  1.00  0.00     0.162 C 
HETATM    8  O2  UNL     1      -1.394  51.471 -22.035  1.00  0.00    -0.376 OA
HETATM    9  C11 UNL     1      -1.774  50.686 -20.933  1.00  0.00     0.134 C 
HETATM   10  C12 UNL     1      -1.752  51.723 -19.817  1.00  0.00     0.068 C 
HETATM   11  C13 UNL     1      -0.336  52.377 -19.742  1.00  0.00    -0.059 C 
HETATM   12  C14 UNL     1       0.371  52.305 -18.600  1.00  0.00     0.017 C 
HETATM   13  C15 UNL     1       0.204  53.114 -21.010  1.00  0.00     0.146 C 
HETATM   14  C16 UNL     1       1.071  52.241 -21.982  1.00  0.00     0.039 C 
HETATM   15  C17 UNL     1       0.753  52.297 -23.527  1.00  0.00     0.044 C 
HETATM   16  C18 UNL     1      -0.579  51.619 -24.137  1.00  0.00     0.093 C 
HETATM   17  C19 UNL     1      -1.530  52.791 -24.469  1.00  0.00     0.049 C 
HETATM   18  C26 UNL     1      -2.994  50.004 -21.566  1.00  0.00     0.050 C 
ENDROOT
BRANCH  16  19
HETATM   19  O4  UNL     1      -0.297  51.034 -25.438  1.00  0.00    -0.306 OA
BRANCH  19  20
HETATM   20  C20 UNL     1      -0.770  51.608 -26.582  1.00  0.00     0.289 C 
HETATM   21  O5  UNL     1      -1.882  51.408 -27.048  1.00  0.00    -0.262 OA
BRANCH  20  22
HETATM   22  C21 UNL     1       0.310  52.489 -27.224  1.00  0.00     0.231 C 
BRANCH  22  23
HETATM   23  C22 UNL     1       1.469  51.654 -27.782  1.00  0.00     0.038 C 
HETATM   24  C23 UNL     1       2.661  51.586 -26.837  1.00  0.00     0.008 C 
ENDBRANCH  22  23
BRANCH  22  25
HETATM   25  O6  UNL     1      -0.300  53.209 -28.318  1.00  0.00    -0.306 OA
BRANCH  25  26
HETATM   26  C24 UNL     1      -0.878  54.396 -27.994  1.00  0.00     0.255 C 
HETATM   27  C25 UNL     1      -0.005  55.146 -27.036  1.00  0.00     0.126 C 
HETATM   28  O7  UNL     1      -1.963  54.788 -28.396  1.00  0.00    -0.266 OA
ENDBRANCH  25  26
ENDBRANCH  22  25
ENDBRANCH  20  22
ENDBRANCH  19  20
ENDBRANCH  16  19
BRANCH   5  29
HETATM   29  C6  UNL     1      -3.895  48.529 -24.851  1.00  0.00     0.010 C 
HETATM   30  C7  UNL     1      -5.350  48.125 -24.549  1.00  0.00     0.012 C 
BRANCH  29  31
HETATM   31  C8  UNL     1      -3.681  48.465 -26.379  1.00  0.00     0.168 C 
BRANCH  31  32
HETATM   32  O1  UNL     1      -4.910  48.498 -27.092  1.00  0.00    -0.400 OA
HETATM   33  H14 UNL     1      -5.359  49.339 -26.900  1.00  0.00     0.209 HD
ENDBRANCH  31  32
ENDBRANCH  29  31
ENDBRANCH   5  29
BRANCH  13  34
HETATM   34  O3  UNL     1       1.026  54.211 -20.584  1.00  0.00    -0.391 OA
HETATM   35  H23 UNL     1       0.511  54.687 -19.910  1.00  0.00     0.210 HD
ENDBRANCH  13  34
TORSDOF 10
ENDMDL
