MODEL 1
REMARK minimizedAffinity -10.0998831
REMARK  8 active torsions:
REMARK  status: ('A' for Active; 'I' for Inactive)
REMARK    1  A    between atoms: C2_2  and  C3_3 
REMARK    2  A    between atoms: C2_2  and  C9_12 
REMARK    3  A    between atoms: C3_3  and  C4_4 
REMARK    4  A    between atoms: C4_4  and  C5_5 
REMARK    5  A    between atoms: C6_6  and  C7_7 
REMARK    6  A    between atoms: C6_6  and  C8_9 
REMARK    7  A    between atoms: C7_7  and  O1_8 
REMARK    8  A    between atoms: C8_9  and  O3_11 
ROOT
HETATM    1  C9  UNL     1       0.409   6.567  11.478  1.00  0.00    -0.002 C 
HETATM    2  C10 UNL     1       0.837   5.100  11.388  1.00  0.00     0.006 C 
HETATM    3  C11 UNL     1      -0.496   4.373  11.509  1.00  0.00     0.006 C 
HETATM    4  C12 UNL     1      -1.248   5.128  12.614  1.00  0.00    -0.001 C 
HETATM    5  C13 UNL     1      -2.777   5.171  12.417  1.00  0.00    -0.000 C 
HETATM    6  C14 UNL     1      -3.413   3.785  12.365  1.00  0.00     0.006 C 
HETATM    7  C15 UNL     1      -4.935   3.907  12.329  1.00  0.00     0.007 C 
HETATM    8  C16 UNL     1      -5.487   4.420  13.675  1.00  0.00     0.010 C 
HETATM    9  C17 UNL     1      -7.056   4.494  13.718  1.00  0.00     0.018 C 
HETATM   10  C18 UNL     1      -7.570   4.287  15.160  1.00  0.00     0.023 C 
HETATM   11  C19 UNL     1      -7.719   3.381  12.870  1.00  0.00     0.023 C 
HETATM   12  C20 UNL     1      -7.583   5.844  13.207  1.00  0.00     0.135 C 
HETATM   13  O4  UNL     1      -8.684   5.945  12.661  1.00  0.00    -0.297 OA
HETATM   14  C21 UNL     1      -6.733   7.077  13.380  1.00  0.00     0.080 C 
HETATM   15  C22 UNL     1      -5.687   6.881  14.455  1.00  0.00     0.018 C 
HETATM   16  C23 UNL     1      -4.772   5.737  14.081  1.00  0.00    -0.026 A 
HETATM   17  C24 UNL     1      -3.517   5.562  14.909  1.00  0.00     0.021 A 
HETATM   18  C25 UNL     1      -3.377   6.074  13.490  1.00  0.00    -0.028 A 
HETATM   19  C26 UNL     1      -2.906   7.522  13.355  1.00  0.00     0.011 C 
HETATM   20  C27 UNL     1      -1.663   7.673  12.471  1.00  0.00     0.011 C 
HETATM   21  C28 UNL     1      -0.607   6.561  12.672  1.00  0.00    -0.036 C 
HETATM   22  C29 UNL     1       0.067   6.741  14.049  1.00  0.00     0.016 C 
ENDROOT
BRANCH   1  23
HETATM   23  C2  UNL     1       1.532   7.640  11.520  1.00  0.00    -0.014 C 
HETATM   24  C1  UNL     1       1.353   8.722  12.587  1.00  0.00     0.010 C 
BRANCH  23  25
HETATM   25  C3  UNL     1       2.945   6.997  11.576  1.00  0.00     0.008 C 
BRANCH  25  26
HETATM   26  C4  UNL     1       3.879   7.216  10.376  1.00  0.00     0.028 C 
BRANCH  26  27
HETATM   27  C5  UNL     1       3.432   6.493   9.135  1.00  0.00    -0.011 C 
HETATM   28  C6  UNL     1       2.705   6.961   8.100  1.00  0.00     0.035 C 
BRANCH  28  29
HETATM   29  C7  UNL     1       2.340   6.099   6.925  1.00  0.00     0.209 C 
BRANCH  29  30
HETATM   30  O1  UNL     1       2.988   4.836   7.016  1.00  0.00    -0.396 OA
HETATM   31  H12 UNL     1       2.756   4.481   7.897  1.00  0.00     0.209 HD
ENDBRANCH  29  30
ENDBRANCH  28  29
BRANCH  28  32
HETATM   32  C8  UNL     1       2.268   8.371   8.026  1.00  0.00     0.173 C 
HETATM   33  O2  UNL     1       1.186   8.830   8.338  1.00  0.00    -0.646 OA
BRANCH  32  34
HETATM   34  O3  UNL     1       3.251   9.160   7.547  1.00  0.00    -0.773 OA
HETATM   35  H13 UNL     1       2.834  10.049   7.528  1.00  0.00     0.167 HD
ENDBRANCH  32  34
ENDBRANCH  28  32
ENDBRANCH  26  27
ENDBRANCH  25  26
ENDBRANCH  23  25
ENDBRANCH   1  23
TORSDOF 8
ENDMDL
