MODEL 1
REMARK minimizedAffinity -8.40773582
REMARK CNNscore 0.589999378
REMARK CNNaffinity 7.48002863
REMARK  19 active torsions:
REMARK  status: ('A' for Active; 'I' for Inactive)
REMARK    1  A    between atoms: C2_2  and  C3_3 
REMARK    2  A    between atoms: C3_3  and  C5_5 
REMARK    3  A    between atoms: C5_5  and  N1_6 
REMARK    4  A    between atoms: C5_5  and  C37_46 
REMARK       I    between atoms: N1_6  and  C6_7 
REMARK    5  A    between atoms: C6_7  and  C7_9 
REMARK    6  A    between atoms: C7_9  and  C8_10 
REMARK    7  A    between atoms: C8_10  and  C9_11 
REMARK    8  A    between atoms: C9_11  and  C10_12 
REMARK    9  A    between atoms: C10_12  and  C11_13 
REMARK   10  A    between atoms: C11_13  and  N2_14 
REMARK       I    between atoms: N2_14  and  C12_15 
REMARK   11  A    between atoms: C12_15  and  C13_17 
REMARK   12  A    between atoms: C13_17  and  C14_18 
REMARK   13  A    between atoms: C14_18  and  C15_19 
REMARK   14  A    between atoms: C15_19  and  O4_21 
REMARK   15  A    between atoms: O4_21  and  C16_22 
REMARK   16  A    between atoms: C16_22  and  C17_23 
REMARK   17  A    between atoms: C17_23  and  C18_25 
REMARK   18  A    between atoms: C18_25  and  O6_26 
REMARK   19  A    between atoms: C37_46  and  O9_48 
ROOT
HETATM    1  C15 UNL     1      -0.247  50.853 -14.694  1.00  0.00     0.259 C 
HETATM    2  O3  UNL     1      -1.028  49.996 -14.305  1.00  0.00    -0.265 OA
ENDROOT
BRANCH   1   3
HETATM    3  C14 UNL     1       0.901  50.625 -15.645  1.00  0.00     0.120 C 
BRANCH   3   4
HETATM    4  C13 UNL     1       1.300  51.916 -16.347  1.00  0.00     0.112 C 
BRANCH   4   5
HETATM    5  C12 UNL     1       0.665  52.034 -17.718  1.00  0.00     0.217 C 
HETATM    6  N2  UNL     1       1.101  53.149 -18.409  1.00  0.00    -0.361 N 
HETATM    7  H22 UNL     1       1.483  53.902 -17.856  1.00  0.00     0.162 HD
HETATM    8  O2  UNL     1      -0.102  51.198 -18.177  1.00  0.00    -0.274 OA
BRANCH   6   9
HETATM    9  C11 UNL     1       0.521  53.489 -19.695  1.00  0.00     0.122 C 
BRANCH   9  10
HETATM   10  C10 UNL     1       1.376  53.005 -20.865  1.00  0.00     0.020 C 
BRANCH  10  11
HETATM   11  C9  UNL     1       0.984  53.581 -22.232  1.00  0.00     0.002 C 
BRANCH  11  12
HETATM   12  C8  UNL     1       0.348  52.571 -23.192  1.00  0.00     0.009 C 
BRANCH  12  13
HETATM   13  C7  UNL     1      -0.470  51.509 -22.455  1.00  0.00     0.103 C 
BRANCH  13  14
HETATM   14  C6  UNL     1      -1.480  50.809 -23.347  1.00  0.00     0.218 C 
HETATM   15  N1  UNL     1      -1.838  51.563 -24.442  1.00  0.00    -0.346 N 
HETATM   16  H11 UNL     1      -1.691  52.564 -24.382  1.00  0.00     0.163 HD
HETATM   17  O1  UNL     1      -1.933  49.694 -23.116  1.00  0.00    -0.274 OA
BRANCH  15  18
HETATM   18  C5  UNL     1      -2.920  51.140 -25.338  1.00  0.00     0.186 C 
BRANCH  18  19
HETATM   19  C3  UNL     1      -3.073  49.599 -25.369  1.00  0.00     0.014 C 
HETATM   20  C4  UNL     1      -4.403  49.132 -24.761  1.00  0.00     0.012 C 
BRANCH  19  21
HETATM   21  C2  UNL     1      -2.899  49.074 -26.811  1.00  0.00     0.002 C 
HETATM   22  C1  UNL     1      -4.085  48.261 -27.311  1.00  0.00     0.005 C 
ENDBRANCH  19  21
ENDBRANCH  18  19
BRANCH  18  23
HETATM   23  C37 UNL     1      -2.710  51.696 -26.753  1.00  0.00     0.163 C 
HETATM   24  O8  UNL     1      -2.810  52.864 -27.096  1.00  0.00    -0.648 OA
BRANCH  23  25
HETATM   25  O9  UNL     1      -2.439  50.745 -27.679  1.00  0.00    -0.775 OA
HETATM   26  H56 UNL     1      -2.318  51.265 -28.503  1.00  0.00     0.167 HD
ENDBRANCH  23  25
ENDBRANCH  18  23
ENDBRANCH  15  18
ENDBRANCH  13  14
ENDBRANCH  12  13
ENDBRANCH  11  12
ENDBRANCH  10  11
ENDBRANCH   9  10
ENDBRANCH   6   9
ENDBRANCH   4   5
ENDBRANCH   3   4
ENDBRANCH   1   3
BRANCH   1  27
HETATM   27  O4  UNL     1      -0.315  52.177 -14.375  1.00  0.00    -0.314 OA
BRANCH  27  28
HETATM   28  C16 UNL     1       0.553  52.550 -13.303  1.00  0.00     0.260 C 
BRANCH  28  29
HETATM   29  C17 UNL     1      -0.214  52.523 -11.990  1.00  0.00     0.185 C 
HETATM   30  O5  UNL     1      -1.433  52.716 -11.978  1.00  0.00    -0.292 OA
BRANCH  29  31
HETATM   31  C18 UNL     1       0.609  52.311 -10.682  1.00  0.00     0.128 C 
HETATM   32  C19 UNL     1       1.973  51.703 -11.065  1.00  0.00     0.047 C 
HETATM   33  C20 UNL     1       2.994  52.847 -11.018  1.00  0.00     0.009 C 
HETATM   34  C21 UNL     1       2.200  54.135 -10.738  1.00  0.00     0.002 C 
HETATM   35  C22 UNL     1       2.961  55.337 -10.118  1.00  0.00    -0.004 C 
HETATM   36  C35 UNL     1       0.994  53.628  -9.923  1.00  0.00    -0.002 C 
HETATM   37  C23 UNL     1       4.378  55.505 -10.708  1.00  0.00     0.010 C 
HETATM   38  C32 UNL     1       2.892  55.427  -8.560  1.00  0.00     0.002 C 
HETATM   39  C24 UNL     1       5.487  55.049  -9.768  1.00  0.00     0.035 C 
HETATM   40  C25 UNL     1       5.434  55.739  -8.427  1.00  0.00    -0.068 C 
HETATM   41  C26 UNL     1       6.559  55.861  -7.699  1.00  0.00     0.053 C 
HETATM   42  C30 UNL     1       4.083  56.256  -7.943  1.00  0.00    -0.016 C 
HETATM   43  C27 UNL     1       6.566  56.498  -6.358  1.00  0.00     0.149 C 
HETATM   44  O7  UNL     1       7.636  56.668  -5.777  1.00  0.00    -0.293 OA
HETATM   45  C28 UNL     1       5.254  56.946  -5.760  1.00  0.00     0.084 C 
HETATM   46  C29 UNL     1       4.075  56.205  -6.387  1.00  0.00     0.022 C 
HETATM   47  C31 UNL     1       3.916  57.746  -8.365  1.00  0.00     0.020 C 
HETATM   48  C33 UNL     1       2.675  54.038  -7.946  1.00  0.00     0.007 C 
HETATM   49  C34 UNL     1       1.413  53.328  -8.452  1.00  0.00     0.013 C 
HETATM   50  C36 UNL     1      -0.167  54.641  -9.914  1.00  0.00     0.019 C 
BRANCH  31  51
HETATM   51  O6  UNL     1      -0.058  51.399  -9.813  1.00  0.00    -0.381 OA
HETATM   52  H29 UNL     1      -0.838  51.860  -9.452  1.00  0.00     0.211 HD
ENDBRANCH  31  51
ENDBRANCH  29  31
ENDBRANCH  28  29
ENDBRANCH  27  28
ENDBRANCH   1  27
TORSDOF 19
ENDMDL
