MODEL 1
REMARK minimizedAffinity -7.42546558
REMARK CNNscore 0.376545876
REMARK CNNaffinity 6.64112425
REMARK  14 active torsions:
REMARK  status: ('A' for Active; 'I' for Inactive)
REMARK    1  A    between atoms: C2_2  and  C3_3 
REMARK    2  A    between atoms: C4_4  and  C5_5 
REMARK    3  A    between atoms: C5_5  and  C6_6 
REMARK    4  A    between atoms: C6_6  and  O2_8 
REMARK    5  A    between atoms: C7_9  and  C8_10 
REMARK    6  A    between atoms: C8_10  and  O4_12 
REMARK    7  A    between atoms: C22_29  and  O8_30 
REMARK    8  A    between atoms: C28_36  and  C29_37 
REMARK    9  A    between atoms: C29_37  and  C31_39 
REMARK   10  A    between atoms: C37_46  and  C38_47 
REMARK   11  A    between atoms: C38_47  and  C39_48 
REMARK   12  A    between atoms: C39_48  and  C40_49 
REMARK   13  A    between atoms: C40_49  and  O9_50 
REMARK   14  A    between atoms: C42_53  and  O11_54 
ROOT
HETATM    1  C3  UNL     1       6.915  12.744  19.574  1.00  0.00     0.046 C 
HETATM    2  C4  UNL     1       7.764  13.284  20.807  1.00  0.00     0.044 C 
HETATM    3  C7  UNL     1       7.507  12.540  22.124  1.00  0.00     0.019 C 
HETATM    4  C10 UNL     1       6.287  12.024  22.400  1.00  0.00    -0.000 C 
HETATM    5  C11 UNL     1       5.127  12.146  21.392  1.00  0.00     0.012 C 
HETATM    6  C12 UNL     1       3.978  11.177  21.727  1.00  0.00     0.017 C 
HETATM    7  C13 UNL     1       3.283  11.769  22.945  1.00  0.00     0.002 C 
HETATM    8  C14 UNL     1       3.509  13.275  22.874  1.00  0.00     0.010 C 
HETATM    9  C15 UNL     1       4.463  13.549  21.682  1.00  0.00     0.025 C 
HETATM   10  C16 UNL     1       3.861  14.319  20.542  1.00  0.00     0.003 C 
HETATM   11  C17 UNL     1       2.568  14.476  20.237  1.00  0.00     0.131 C 
HETATM   12  O5  UNL     1       2.176  15.160  19.111  1.00  0.00    -0.361 OA
HETATM   13  C18 UNL     1       1.595  14.266  18.133  1.00  0.00     0.210 C 
HETATM   14  C19 UNL     1       2.705  13.462  17.427  1.00  0.00     0.191 C 
HETATM   15  O6  UNL     1       3.315  12.618  18.413  1.00  0.00    -0.347 OA
HETATM   16  C20 UNL     1       4.451  11.914  17.962  1.00  0.00     0.297 C 
HETATM   17  O7  UNL     1       4.950  11.149  19.041  1.00  0.00    -0.351 OA
HETATM   18  C21 UNL     1       5.798  11.754  20.031  1.00  0.00     0.146 C 
HETATM   19  C22 UNL     1       4.037  10.976  16.781  1.00  0.00     0.136 C 
HETATM   20  C23 UNL     1       2.990   9.916  17.189  1.00  0.00     0.050 C 
HETATM   21  C24 UNL     1       1.619  10.490  17.571  1.00  0.00     0.041 C 
HETATM   22  C25 UNL     1       1.156  11.583  16.636  1.00  0.00    -0.027 C 
HETATM   23  C26 UNL     1      -0.087  11.703  16.159  1.00  0.00     0.001 A 
HETATM   24  C27 UNL     1      -1.290  10.932  16.406  1.00  0.00     0.039 A 
HETATM   25  C28 UNL     1      -2.265  11.502  15.663  1.00  0.00     0.014 A 
HETATM   26  N1  UNL     1      -1.751  12.586  14.959  1.00  0.00    -0.357 N 
HETATM   27  C36 UNL     1      -0.414  12.750  15.203  1.00  0.00     0.072 A 
HETATM   28  C37 UNL     1       0.517  13.579  14.728  1.00  0.00     0.075 C 
HETATM   29  O10 UNL     1       1.830  13.536  15.158  1.00  0.00    -0.332 OA
HETATM   30  C41 UNL     1       2.214  12.617  16.214  1.00  0.00     0.148 C 
HETATM   31  C42 UNL     1       3.450  11.864  15.671  1.00  0.00     0.199 C 
HETATM   32  H46 UNL     1      -2.264  13.089  14.251  1.00  0.00     0.166 HD
ENDROOT
BRANCH  25  33
HETATM   33  C29 UNL     1      -3.694  11.041  15.556  1.00  0.00     0.035 C 
HETATM   34  C30 UNL     1      -4.327  10.945  16.948  1.00  0.00     0.017 C 
BRANCH  33  35
HETATM   35  C31 UNL     1      -3.930   9.750  14.740  1.00  0.00    -0.005 C 
HETATM   36  C32 UNL     1      -2.911   9.474  13.631  1.00  0.00     0.005 C 
HETATM   37  C33 UNL     1      -3.254   8.060  13.186  1.00  0.00     0.000 C 
HETATM   38  C34 UNL     1      -3.818   7.359  14.419  1.00  0.00     0.000 C 
HETATM   39  C35 UNL     1      -3.931   8.427  15.509  1.00  0.00     0.005 C 
ENDBRANCH  33  35
ENDBRANCH  25  33
BRANCH  28  40
HETATM   40  C38 UNL     1       0.251  14.623  13.677  1.00  0.00     0.069 C 
BRANCH  40  41
HETATM   41  C39 UNL     1      -0.691  15.707  14.213  1.00  0.00     0.033 C 
BRANCH  41  42
HETATM   42  C40 UNL     1      -1.810  16.018  13.231  1.00  0.00     0.164 C 
BRANCH  42  43
HETATM   43  O9  UNL     1      -2.476  14.820  12.851  1.00  0.00    -0.401 OA
HETATM   44  H53 UNL     1      -1.859  14.308  12.303  1.00  0.00     0.209 HD
ENDBRANCH  42  43
ENDBRANCH  41  42
ENDBRANCH  40  41
ENDBRANCH  28  40
BRANCH  31  45
HETATM   45  O11 UNL     1       3.144  11.059  14.511  1.00  0.00    -0.389 OA
HETATM   46  H55 UNL     1       2.464  11.551  14.008  1.00  0.00     0.210 HD
ENDBRANCH  31  45
BRANCH  19  47
HETATM   47  O8  UNL     1       5.182  10.295  16.241  1.00  0.00    -0.382 OA
HETATM   48  H27 UNL     1       4.891   9.956  15.367  1.00  0.00     0.210 HD
ENDBRANCH  19  47
BRANCH   1  49
HETATM   49  C2  UNL     1       7.748  12.097  18.477  1.00  0.00    -0.029 C 
HETATM   50  C1  UNL     1       7.897  10.780  18.300  1.00  0.00     0.007 C 
ENDBRANCH   1  49
BRANCH   2  51
HETATM   51  C5  UNL     1       9.226  13.647  20.444  1.00  0.00     0.120 C 
BRANCH  51  52
HETATM   52  C6  UNL     1      10.172  12.532  20.084  1.00  0.00     0.140 C 
HETATM   53  O1  UNL     1      10.982  12.564  19.171  1.00  0.00    -0.650 OA
BRANCH  52  54
HETATM   54  O2  UNL     1      10.105  11.448  20.873  1.00  0.00    -0.776 OA
HETATM   55  H8  UNL     1      10.795  10.854  20.511  1.00  0.00     0.167 HD
ENDBRANCH  52  54
ENDBRANCH  51  52
ENDBRANCH   2  51
BRANCH   3  56
HETATM   56  C8  UNL     1       8.560  12.477  23.173  1.00  0.00     0.289 C 
HETATM   57  O3  UNL     1       9.166  11.457  23.461  1.00  0.00    -0.260 OA
BRANCH  56  58
HETATM   58  O4  UNL     1       8.714  13.688  23.766  1.00  0.00    -0.323 OA
HETATM   59  C9  UNL     1       7.697  14.639  23.458  1.00  0.00     0.213 C 
ENDBRANCH  56  58
ENDBRANCH   3  56
TORSDOF 14
ENDMDL
