MODEL 1
REMARK minimizedAffinity -8.7491827
REMARK CNNscore 0.492923975
REMARK CNNaffinity 6.61702538
REMARK  5 active torsions:
REMARK  status: ('A' for Active; 'I' for Inactive)
REMARK    1  A    between atoms: C3_3  and  C4_4 
REMARK    2  A    between atoms: C4_4  and  O2_6 
REMARK    3  A    between atoms: O2_6  and  C5_7 
REMARK    4  A    between atoms: C5_7  and  C6_8 
REMARK    5  A    between atoms: C12_14  and  C13_15 
ROOT
HETATM    1  C1  UNL     1      -4.864   6.589  15.899  1.00  0.00     0.069 C 
HETATM    2  C2  UNL     1      -3.699   7.485  15.573  1.00  0.00     0.018 C 
HETATM    3  C3  UNL     1      -3.293   7.792  14.321  1.00  0.00     0.052 C 
HETATM    4  C12 UNL     1      -2.119   8.722  14.045  1.00  0.00     0.104 C 
HETATM    5  C22 UNL     1      -1.608   9.380  15.330  1.00  0.00     0.024 C 
HETATM    6  C23 UNL     1      -2.063   9.015  16.547  1.00  0.00     0.020 C 
HETATM    7  C24 UNL     1      -1.603   9.671  17.825  1.00  0.00     0.058 C 
HETATM    8  C25 UNL     1      -1.109  11.091  17.580  1.00  0.00     0.014 C 
HETATM    9  C26 UNL     1      -0.066  11.113  16.472  1.00  0.00     0.084 C 
HETATM   10  C27 UNL     1      -0.597  10.471  15.208  1.00  0.00     0.158 C 
HETATM   11  O5  UNL     1      -0.166  10.802  14.103  1.00  0.00    -0.293 OA
HETATM   12  N1  UNL     1      -3.027   8.030  16.658  1.00  0.00    -0.362 N 
HETATM   13  H22 UNL     1      -3.434   7.873  17.574  1.00  0.00     0.165 HD
ENDROOT
BRANCH   4  14
HETATM   14  C13 UNL     1      -1.014   7.991  13.303  1.00  0.00     0.029 A 
HETATM   15  C14 UNL     1      -0.227   7.025  13.806  1.00  0.00     0.154 A 
HETATM   16  O3  UNL     1       0.783   6.362  13.154  1.00  0.00    -0.321 OA
HETATM   17  C15 UNL     1       1.073   6.753  11.871  1.00  0.00     0.089 A 
HETATM   18  C16 UNL     1       2.142   6.119  11.236  1.00  0.00     0.040 A 
HETATM   19  C20 UNL     1       0.344   7.732  11.197  1.00  0.00     0.050 A 
HETATM   20  C17 UNL     1       2.475   6.466   9.923  1.00  0.00     0.026 A 
HETATM   21  C18 UNL     1       1.734   7.442   9.253  1.00  0.00     0.035 A 
HETATM   22 CL1  UNL     1       2.137   7.854   7.630  1.00  0.00    -0.084 Cl
HETATM   23  C19 UNL     1       0.669   8.083   9.884  1.00  0.00     0.042 A 
HETATM   24  C21 UNL     1      -0.788   8.374  11.887  1.00  0.00     0.194 A 
HETATM   25  O4  UNL     1      -1.516   9.167  11.303  1.00  0.00    -0.287 OA
ENDBRANCH   4  14
BRANCH   3  26
HETATM   26  C4  UNL     1      -4.034   7.287  13.155  1.00  0.00     0.292 C 
HETATM   27  O1  UNL     1      -5.102   7.750  12.776  1.00  0.00    -0.259 OA
BRANCH  26  28
HETATM   28  O2  UNL     1      -3.377   6.211  12.661  1.00  0.00    -0.313 OA
BRANCH  28  29
HETATM   29  C5  UNL     1      -3.405   5.042  13.485  1.00  0.00     0.217 C 
BRANCH  29  30
HETATM   30  C6  UNL     1      -4.254   3.989  12.814  1.00  0.00    -0.034 A 
HETATM   31  C7  UNL     1      -3.645   2.944  12.102  1.00  0.00     0.009 A 
HETATM   32  C8  UNL     1      -4.419   1.989  11.439  1.00  0.00     0.001 A 
HETATM   33  C9  UNL     1      -5.810   2.066  11.480  1.00  0.00     0.000 A 
HETATM   34  C10 UNL     1      -6.430   3.094  12.195  1.00  0.00     0.001 A 
HETATM   35  C11 UNL     1      -5.656   4.050  12.860  1.00  0.00     0.009 A 
ENDBRANCH  29  30
ENDBRANCH  28  29
ENDBRANCH  26  28
ENDBRANCH   3  26
TORSDOF 5
ENDMDL
