MODEL 1
REMARK minimizedAffinity -7.87770128
REMARK CNNscore 0.470538676
REMARK CNNaffinity 6.91521263
REMARK  6 active torsions:
REMARK  status: ('A' for Active; 'I' for Inactive)
REMARK    1  A    between atoms: C2_2  and  C3_3 
REMARK    2  A    between atoms: C3_3  and  C4_4 
REMARK    3  A    between atoms: C3_3  and  C27_28 
REMARK    4  A    between atoms: C5_5  and  C6_6 
REMARK    5  A    between atoms: C6_6  and  C8_8 
REMARK    6  A    between atoms: C16_16  and  O1_17 
ROOT
HETATM    1  C8  UNL     1      -0.143   7.996  13.223  1.00  0.00    -0.002 C 
HETATM    2  C9  UNL     1      -1.555   8.497  12.855  1.00  0.00     0.040 C 
HETATM    3  C10 UNL     1      -2.428   7.509  13.574  1.00  0.00    -0.068 C 
HETATM    4  C11 UNL     1      -3.478   7.793  14.366  1.00  0.00    -0.072 C 
HETATM    5  C12 UNL     1      -4.220   9.105  14.369  1.00  0.00     0.035 C 
HETATM    6  C13 UNL     1      -5.712   8.862  14.107  1.00  0.00     0.010 C 
HETATM    7  C14 UNL     1      -6.299   7.808  15.064  1.00  0.00    -0.003 C 
HETATM    8  C15 UNL     1      -7.809   7.635  14.864  1.00  0.00     0.037 C 
HETATM    9  C16 UNL     1      -8.392   6.681  15.906  1.00  0.00     0.118 C 
HETATM   10  C17 UNL     1      -7.657   5.343  15.946  1.00  0.00     0.032 C 
HETATM   11  C18 UNL     1      -6.143   5.510  16.093  1.00  0.00     0.012 C 
HETATM   12  C19 UNL     1      -5.518   6.442  15.020  1.00  0.00    -0.033 C 
HETATM   13  C20 UNL     1      -5.640   5.754  13.639  1.00  0.00     0.016 C 
HETATM   14  C21 UNL     1      -4.025   6.781  15.361  1.00  0.00     0.023 C 
HETATM   15  C22 UNL     1      -3.031   5.629  15.623  1.00  0.00     0.011 C 
HETATM   16  C23 UNL     1      -2.347   5.072  14.381  1.00  0.00     0.014 C 
HETATM   17  C24 UNL     1      -1.786   6.149  13.435  1.00  0.00    -0.020 C 
HETATM   18  C25 UNL     1      -1.922   5.610  11.991  1.00  0.00     0.020 C 
HETATM   19  C26 UNL     1      -0.321   6.527  13.705  1.00  0.00     0.019 C 
ENDROOT
BRANCH   1  20
HETATM   20  C6  UNL     1       0.895   8.176  12.089  1.00  0.00     0.008 C 
HETATM   21  C7  UNL     1       0.205   8.376  10.732  1.00  0.00     0.014 C 
BRANCH  20  22
HETATM   22  C5  UNL     1       1.804   6.969  11.981  1.00  0.00    -0.026 C 
HETATM   23  C4  UNL     1       2.899   6.815  11.215  1.00  0.00    -0.025 C 
BRANCH  23  24
HETATM   24  C3  UNL     1       3.541   7.819  10.279  1.00  0.00     0.011 C 
BRANCH  24  25
HETATM   25  C2  UNL     1       5.039   8.006  10.627  1.00  0.00     0.004 C 
HETATM   26  C1  UNL     1       5.274   8.843  11.879  1.00  0.00     0.006 C 
ENDBRANCH  24  25
BRANCH  24  27
HETATM   27  C27 UNL     1       3.371   7.438   8.777  1.00  0.00    -0.015 C 
HETATM   28  C28 UNL     1       2.721   8.568   7.970  1.00  0.00     0.010 C 
HETATM   29  C29 UNL     1       2.601   6.133   8.539  1.00  0.00     0.010 C 
ENDBRANCH  24  27
ENDBRANCH  23  24
ENDBRANCH  20  22
ENDBRANCH   1  20
BRANCH   9  30
HETATM   30  O1  UNL     1      -9.767   6.464  15.603  1.00  0.00    -0.396 OA
HETATM   31  H24 UNL     1     -10.124   5.859  16.276  1.00  0.00     0.210 HD
ENDBRANCH   9  30
TORSDOF 6
ENDMDL
