MODEL 1
REMARK minimizedAffinity -9.58803749
REMARK CNNscore 0.573559344
REMARK CNNaffinity 7.75928831
REMARK  13 active torsions:
REMARK  status: ('A' for Active; 'I' for Inactive)
REMARK    1  A    between atoms: C19_21  and  O3_22 
REMARK    2  A    between atoms: C19_21  and  C20_23 
REMARK    3  A    between atoms: C20_23  and  C21_25 
REMARK    4  A    between atoms: C21_25  and  O5_26 
REMARK    5  A    between atoms: O5_26  and  C22_27 
REMARK    6  A    between atoms: C22_27  and  C23_29 
REMARK    7  A    between atoms: C23_29  and  C24_30 
REMARK    8  A    between atoms: C24_30  and  C25_31 
REMARK       I    between atoms: C25_31  and  N1_33 
REMARK    9  A    between atoms: N1_33  and  C26_34 
REMARK   10  A    between atoms: C26_34  and  C27_35 
REMARK   11  A    between atoms: C27_35  and  C28_36 
REMARK   12  A    between atoms: C27_35  and  C29_39 
REMARK   13  A    between atoms: C28_36  and  O9_38 
ROOT
HETATM    1  C20 UNL     1      -3.487  49.555 -20.040  1.00  0.00     0.185 C 
HETATM    2  O4  UNL     1      -4.501  50.050 -19.543  1.00  0.00    -0.292 OA
ENDROOT
BRANCH   1   3
HETATM    3  C19 UNL     1      -2.072  50.062 -19.676  1.00  0.00     0.128 C 
HETATM    4  C14 UNL     1      -1.702  50.124 -18.154  1.00  0.00     0.005 C 
HETATM    5  C13 UNL     1      -1.314  48.793 -17.498  1.00  0.00     0.091 C 
HETATM    6  C15 UNL     1      -2.822  50.798 -17.310  1.00  0.00     0.019 C 
HETATM    7  C16 UNL     1      -0.421  50.999 -18.237  1.00  0.00     0.002 C 
HETATM    8  C12 UNL     1      -0.656  49.052 -16.148  1.00  0.00     0.133 C 
HETATM    9  C11 UNL     1       0.565  49.993 -16.151  1.00  0.00     0.072 C 
HETATM   10  O2  UNL     1      -1.060  48.463 -15.148  1.00  0.00    -0.297 OA
HETATM   11  C2  UNL     1       1.267  50.202 -14.761  1.00  0.00    -0.009 C 
HETATM   12  C10 UNL     1       0.201  51.325 -16.869  1.00  0.00     0.003 C 
HETATM   13  C1  UNL     1       0.313  50.786 -13.694  1.00  0.00     0.021 C 
HETATM   14  C3  UNL     1       1.820  48.828 -14.272  1.00  0.00     0.022 C 
HETATM   15  C7  UNL     1       2.428  51.197 -14.943  1.00  0.00    -0.067 C 
HETATM   16  C4  UNL     1       2.875  48.936 -13.182  1.00  0.00     0.084 C 
HETATM   17  C5  UNL     1       4.008  49.811 -13.647  1.00  0.00     0.149 C 
HETATM   18  O1  UNL     1       5.175  49.614 -13.321  1.00  0.00    -0.293 OA
HETATM   19  C6  UNL     1       3.672  50.992 -14.474  1.00  0.00     0.053 C 
HETATM   20  C8  UNL     1       2.116  52.475 -15.684  1.00  0.00     0.035 C 
HETATM   21  C9  UNL     1       1.450  52.203 -17.028  1.00  0.00     0.010 C 
HETATM   22  C17 UNL     1      -0.851  52.159 -19.125  1.00  0.00     0.009 C 
HETATM   23  C18 UNL     1      -1.819  51.521 -20.139  1.00  0.00     0.047 C 
BRANCH   3  24
HETATM   24  O3  UNL     1      -1.132  49.228 -20.373  1.00  0.00    -0.381 OA
HETATM   25  H25 UNL     1      -1.298  48.301 -20.120  1.00  0.00     0.211 HD
ENDBRANCH   3  24
ENDBRANCH   1   3
BRANCH   1  26
HETATM   26  C21 UNL     1      -3.613  48.293 -20.894  1.00  0.00     0.260 C 
BRANCH  26  27
HETATM   27  O5  UNL     1      -4.822  48.230 -21.642  1.00  0.00    -0.314 OA
BRANCH  27  28
HETATM   28  C22 UNL     1      -4.675  48.171 -22.994  1.00  0.00     0.259 C 
HETATM   29  O6  UNL     1      -5.590  48.079 -23.800  1.00  0.00    -0.265 OA
BRANCH  28  30
HETATM   30  C23 UNL     1      -3.205  48.175 -23.344  1.00  0.00     0.120 C 
BRANCH  30  31
HETATM   31  C24 UNL     1      -2.914  49.158 -24.470  1.00  0.00     0.112 C 
BRANCH  31  32
HETATM   32  C25 UNL     1      -2.025  50.292 -23.999  1.00  0.00     0.218 C 
HETATM   33  O7  UNL     1      -1.249  50.191 -23.056  1.00  0.00    -0.274 OA
HETATM   34  N1  UNL     1      -2.147  51.430 -24.766  1.00  0.00    -0.360 N 
HETATM   35  H32 UNL     1      -3.009  51.550 -25.286  1.00  0.00     0.162 HD
BRANCH  34  36
HETATM   36  C26 UNL     1      -1.429  52.647 -24.417  1.00  0.00     0.142 C 
BRANCH  36  37
HETATM   37  C27 UNL     1       0.099  52.469 -24.342  1.00  0.00     0.134 C 
BRANCH  37  38
HETATM   38  C28 UNL     1       0.753  53.594 -23.549  1.00  0.00     0.150 C 
HETATM   39  O8  UNL     1       1.305  54.594 -23.980  1.00  0.00    -0.649 OA
BRANCH  38  40
HETATM   40  O9  UNL     1       0.750  53.385 -22.211  1.00  0.00    -0.776 OA
HETATM   41  H36 UNL     1       1.281  54.139 -21.871  1.00  0.00     0.167 HD
ENDBRANCH  38  40
ENDBRANCH  37  38
BRANCH  37  42
HETATM   42  C29 UNL     1       0.649  52.324 -25.758  1.00  0.00    -0.042 A 
HETATM   43  C30 UNL     1       1.850  51.622 -25.960  1.00  0.00     0.008 A 
HETATM   44  C31 UNL     1       2.355  51.432 -27.247  1.00  0.00     0.001 A 
HETATM   45  C32 UNL     1       1.666  51.934 -28.349  1.00  0.00     0.000 A 
HETATM   46  C33 UNL     1       0.471  52.623 -28.165  1.00  0.00     0.001 A 
HETATM   47  C34 UNL     1      -0.040  52.812 -26.879  1.00  0.00     0.008 A 
ENDBRANCH  37  42
ENDBRANCH  36  37
ENDBRANCH  34  36
ENDBRANCH  31  32
ENDBRANCH  30  31
ENDBRANCH  28  30
ENDBRANCH  27  28
ENDBRANCH  26  27
ENDBRANCH   1  26
TORSDOF 13
ENDMDL
