MODEL 1
REMARK minimizedAffinity -7.9708457
REMARK CNNscore 0.699592829
REMARK CNNaffinity 6.52372932
REMARK  9 active torsions:
REMARK  status: ('A' for Active; 'I' for Inactive)
REMARK    1  A    between atoms: C2_2  and  C30_35 
REMARK    2  A    between atoms: C3_3  and  C4_4 
REMARK    3  A    between atoms: C4_4  and  O1_5 
REMARK    4  A    between atoms: C4_4  and  C5_6 
REMARK    5  A    between atoms: C5_6  and  C6_7 
REMARK    6  A    between atoms: C6_7  and  C8_9 
REMARK    7  A    between atoms: C10_11  and  O2_12 
REMARK    8  A    between atoms: C29_33  and  O5_34 
REMARK    9  A    between atoms: C30_35  and  O7_37 
ROOT
HETATM    1  C8  UNL     1      -1.847   9.802  16.082  1.00  0.00     0.001 C 
HETATM    2  C9  UNL     1      -0.690   9.404  17.042  1.00  0.00     0.038 C 
HETATM    3  C10 UNL     1       0.339   8.640  16.186  1.00  0.00     0.132 C 
HETATM    4  C11 UNL     1       0.061   9.117  14.733  1.00  0.00     0.017 C 
HETATM    5  C12 UNL     1       0.657  10.555  14.565  1.00  0.00     0.023 C 
HETATM    6  C13 UNL     1       0.609   8.349  13.521  1.00  0.00    -0.029 C 
HETATM    7  C14 UNL     1      -0.036   8.385  12.319  1.00  0.00     0.002 C 
HETATM    8  C15 UNL     1      -1.401   9.064  12.240  1.00  0.00     0.157 C 
HETATM    9  O3  UNL     1      -2.029   9.119  11.185  1.00  0.00    -0.293 OA
HETATM   10  C16 UNL     1      -2.022   9.700  13.475  1.00  0.00     0.094 C 
HETATM   11  C17 UNL     1      -1.512   9.047  14.754  1.00  0.00    -0.019 C 
HETATM   12  C18 UNL     1      -2.061   7.589  14.791  1.00  0.00     0.017 C 
HETATM   13  C19 UNL     1       0.544   7.735  11.021  1.00  0.00    -0.008 C 
HETATM   14  C20 UNL     1      -0.210   6.394  10.875  1.00  0.00     0.021 C 
HETATM   15  C21 UNL     1       0.335   8.593   9.740  1.00  0.00     0.022 C 
HETATM   16  C22 UNL     1       1.011   8.034   8.495  1.00  0.00     0.080 C 
HETATM   17  C23 UNL     1       2.489   7.840   8.701  1.00  0.00     0.135 C 
HETATM   18  O4  UNL     1       3.283   8.205   7.833  1.00  0.00    -0.297 OA
HETATM   19  C24 UNL     1       2.936   7.080   9.957  1.00  0.00     0.018 C 
HETATM   20  C25 UNL     1       2.832   5.574   9.678  1.00  0.00     0.023 C 
HETATM   21  C26 UNL     1       4.439   7.399  10.177  1.00  0.00     0.023 C 
HETATM   22  C27 UNL     1       2.110   7.596  11.185  1.00  0.00     0.016 C 
HETATM   23  C28 UNL     1       2.429   6.865  12.491  1.00  0.00     0.043 C 
HETATM   24  C29 UNL     1       1.965   7.691  13.688  1.00  0.00     0.149 C 
ENDROOT
BRANCH   1  25
HETATM   25  C6  UNL     1      -3.258   9.765  16.750  1.00  0.00    -0.011 C 
HETATM   26  C7  UNL     1      -4.367   9.094  15.932  1.00  0.00     0.010 C 
BRANCH  25  27
HETATM   27  C5  UNL     1      -3.677  11.171  17.246  1.00  0.00     0.040 C 
BRANCH  27  28
HETATM   28  C4  UNL     1      -3.388  11.474  18.728  1.00  0.00     0.142 C 
BRANCH  28  29
HETATM   29  C3  UNL     1      -4.363  12.394  19.399  1.00  0.00     0.018 C 
HETATM   30  C2  UNL     1      -4.640  13.686  19.121  1.00  0.00     0.010 C 
HETATM   31  C1  UNL     1      -4.051  14.498  18.008  1.00  0.00     0.055 C 
BRANCH  30  32
HETATM   32  C30 UNL     1      -5.643  14.341  19.997  1.00  0.00     0.171 C 
HETATM   33  O6  UNL     1      -5.782  15.537  20.176  1.00  0.00    -0.646 OA
BRANCH  32  34
HETATM   34  O7  UNL     1      -6.439  13.456  20.619  1.00  0.00    -0.773 OA
HETATM   35  H44 UNL     1      -7.046  14.019  21.141  1.00  0.00     0.167 HD
ENDBRANCH  32  34
ENDBRANCH  30  32
ENDBRANCH  28  29
BRANCH  28  36
HETATM   36  O1  UNL     1      -2.086  12.042  18.843  1.00  0.00    -0.392 OA
HETATM   37  H6  UNL     1      -1.446  11.369  18.555  1.00  0.00     0.210 HD
ENDBRANCH  28  36
ENDBRANCH  27  28
ENDBRANCH  25  27
ENDBRANCH   1  25
BRANCH   3  38
HETATM   38  O2  UNL     1       1.670   8.891  16.617  1.00  0.00    -0.394 OA
HETATM   39  H17 UNL     1       1.680   8.811  17.589  1.00  0.00     0.210 HD
ENDBRANCH   3  38
BRANCH  24  40
HETATM   40  O5  UNL     1       1.963   6.803  14.796  1.00  0.00    -0.391 OA
HETATM   41  H43 UNL     1       2.286   7.331  15.553  1.00  0.00     0.210 HD
ENDBRANCH  24  40
TORSDOF 9
ENDMDL
