MODEL 1
REMARK minimizedAffinity -6.5384326
REMARK CNNscore 0.33791706
REMARK CNNaffinity 6.95951843
REMARK  9 active torsions:
REMARK  status: ('A' for Active; 'I' for Inactive)
REMARK    1  A    between atoms: O1_2  and  C2_3 
REMARK    2  A    between atoms: C2_3  and  C3_4 
REMARK    3  A    between atoms: C3_4  and  C4_5 
REMARK    4  A    between atoms: C4_5  and  O2_6 
REMARK    5  A    between atoms: O2_6  and  C5_7 
REMARK    6  A    between atoms: C15_18  and  O4_19 
REMARK    7  A    between atoms: C21_25  and  O5_27 
REMARK    8  A    between atoms: C23_28  and  O6_29 
REMARK    9  A    between atoms: C29_37  and  O8_38 
ROOT
HETATM    1  C5  UNL     1      -3.934  19.370   3.207  1.00  0.00     0.122 C 
HETATM    2  C6  UNL     1      -2.793  20.347   3.561  1.00  0.00     0.033 C 
HETATM    3  C7  UNL     1      -1.413  19.834   3.139  1.00  0.00     0.014 C 
HETATM    4  C8  UNL     1      -1.052  18.429   3.758  1.00  0.00    -0.010 C 
HETATM    5  C9  UNL     1      -0.667  18.710   5.240  1.00  0.00     0.018 C 
HETATM    6  C10 UNL     1      -2.337  17.538   3.874  1.00  0.00     0.073 C 
HETATM    7  C11 UNL     1      -3.440  17.952   2.892  1.00  0.00     0.045 C 
HETATM    8  C12 UNL     1      -2.129  16.029   3.896  1.00  0.00     0.161 C 
HETATM    9  O3  UNL     1      -3.083  15.275   4.118  1.00  0.00    -0.292 OA
HETATM   10  C13 UNL     1      -0.792  15.426   3.644  1.00  0.00    -0.005 C 
HETATM   11  C14 UNL     1       0.205  16.200   3.171  1.00  0.00    -0.013 C 
HETATM   12  C15 UNL     1       1.401  15.495   2.596  1.00  0.00     0.095 C 
HETATM   13  C16 UNL     1       1.711  14.103   3.142  1.00  0.00     0.026 C 
HETATM   14  C17 UNL     1       0.482  13.216   3.014  1.00  0.00     0.013 C 
HETATM   15  C18 UNL     1      -0.709  13.900   3.739  1.00  0.00     0.043 C 
HETATM   16  C19 UNL     1       3.011  13.729   2.387  1.00  0.00     0.016 C 
HETATM   17  C20 UNL     1       3.603  15.094   1.853  1.00  0.00     0.034 C 
HETATM   18  C21 UNL     1       5.127  15.116   1.503  1.00  0.00     0.087 C 
HETATM   19  C22 UNL     1       6.016  14.541   2.627  1.00  0.00     0.049 C 
HETATM   20  C23 UNL     1       5.383  14.292   0.159  1.00  0.00     0.181 C 
HETATM   21  C24 UNL     1       5.099  14.900  -1.259  1.00  0.00     0.158 C 
HETATM   22  O7  UNL     1       5.109  13.740  -2.189  1.00  0.00    -0.373 OA
HETATM   23  C25 UNL     1       3.716  13.354  -2.449  1.00  0.00     0.185 C 
HETATM   24  C26 UNL     1       2.859  14.336  -1.652  1.00  0.00     0.028 C 
HETATM   25  C27 UNL     1       1.461  14.472  -2.232  1.00  0.00     0.053 C 
HETATM   26  C28 UNL     1       1.467  14.983  -3.673  1.00  0.00     0.309 C 
HETATM   27  N1  UNL     1       2.685  14.600  -4.418  1.00  0.00     0.128 N 
HETATM   28  C29 UNL     1       3.322  13.372  -3.971  1.00  0.00     0.384 C 
HETATM   29  C30 UNL     1       1.248  16.523  -3.678  1.00  0.00     0.233 C 
HETATM   30  O9  UNL     1       2.069  17.342  -4.094  1.00  0.00    -0.277 OA
HETATM   31  N2  UNL     1      -0.020  16.874  -3.167  1.00  0.00    -0.243 NA
HETATM   32  C31 UNL     1      -0.605  18.130  -3.533  1.00  0.00     0.120 A 
HETATM   33  C32 UNL     1      -0.183  17.863  -2.120  1.00  0.00     0.090 A 
HETATM   34  C33 UNL     1      -1.270  17.680  -1.092  1.00  0.00     0.115 C 
HETATM   35  C34 UNL     1      -0.681  17.760   0.262  1.00  0.00    -0.104 C 
HETATM   36  C35 UNL     1      -0.328  17.769   1.417  1.00  0.00    -0.090 C 
HETATM   37  C36 UNL     1       0.110  17.709   2.883  1.00  0.00     0.062 C 
HETATM   38  C37 UNL     1       1.582  18.380   2.945  1.00  0.00     0.012 C 
HETATM   39  C38 UNL     1       2.244  18.557   4.338  1.00  0.00     0.007 C 
HETATM   40  C39 UNL     1       3.552  17.790   4.531  1.00  0.00     0.001 C 
HETATM   41  C40 UNL     1       3.313  16.336   4.135  1.00  0.00     0.013 C 
HETATM   42  C41 UNL     1       2.805  16.187   2.668  1.00  0.00     0.002 C 
HETATM   43  C42 UNL     1       2.593  17.586   2.054  1.00  0.00     0.020 C 
HETATM   44  C43 UNL     1       3.794  15.544  -1.677  1.00  0.00     0.020 C 
HETATM   45  C44 UNL     1       3.360  16.844  -1.063  1.00  0.00     0.013 C 
HETATM   46  H42 UNL     1       2.525  14.624  -5.420  1.00  0.00     0.320 HD
ENDROOT
BRANCH   1  47
HETATM   47  O2  UNL     1      -4.812  19.278   4.340  1.00  0.00    -0.386 OA
BRANCH  47  48
HETATM   48  C4  UNL     1      -6.067  18.663   4.063  1.00  0.00     0.170 C 
BRANCH  48  49
HETATM   49  C3  UNL     1      -6.427  17.572   5.075  1.00  0.00     0.052 C 
BRANCH  49  50
HETATM   50  C2  UNL     1      -7.577  16.690   4.587  1.00  0.00     0.169 C 
BRANCH  50  51
HETATM   51  O1  UNL     1      -8.286  16.174   5.711  1.00  0.00    -0.396 OA
HETATM   52  C1  UNL     1      -8.997  14.978   5.390  1.00  0.00     0.201 C 
ENDBRANCH  50  51
ENDBRANCH  49  50
ENDBRANCH  48  49
ENDBRANCH  47  48
ENDBRANCH   1  47
BRANCH  12  53
HETATM   53  O4  UNL     1       1.046  15.288   1.200  1.00  0.00    -0.384 OA
HETATM   54  H21 UNL     1       0.081  15.211   1.124  1.00  0.00     0.211 HD
ENDBRANCH  12  53
BRANCH  18  55
HETATM   55  O5  UNL     1       5.568  16.465   1.317  1.00  0.00    -0.387 OA
HETATM   56  H33 UNL     1       6.496  16.411   1.020  1.00  0.00     0.210 HD
ENDBRANCH  18  55
BRANCH  20  57
HETATM   57  O6  UNL     1       6.793  13.934   0.102  1.00  0.00    -0.390 OA
HETATM   58  H35 UNL     1       6.906  13.455  -0.747  1.00  0.00     0.210 HD
ENDBRANCH  20  57
BRANCH  28  59
HETATM   59  O8  UNL     1       2.432  12.305  -4.238  1.00  0.00    -0.366 OA
HETATM   60  H44 UNL     1       2.425  12.199  -5.199  1.00  0.00     0.212 HD
ENDBRANCH  28  59
TORSDOF 9
ENDMDL
