MODEL 1
REMARK minimizedAffinity -7.31825256
REMARK CNNscore 0.789074004
REMARK CNNaffinity 7.1288662
REMARK  6 active torsions:
REMARK  status: ('A' for Active; 'I' for Inactive)
REMARK    1  A    between atoms: C2_2  and  C30_31 
REMARK    2  A    between atoms: C3_3  and  C4_4 
REMARK    3  A    between atoms: C4_4  and  C5_5 
REMARK    4  A    between atoms: C5_5  and  C6_6 
REMARK    5  A    between atoms: C6_6  and  C8_8 
REMARK    6  A    between atoms: C30_31  and  O3_33 
ROOT
HETATM    1  C8  UNL     1       2.221  56.101  -8.792  1.00  0.00    -0.002 C 
HETATM    2  C9  UNL     1       1.876  56.124  -7.279  1.00  0.00     0.007 C 
HETATM    3  C10 UNL     1       0.560  55.324  -7.103  1.00  0.00     0.015 C 
HETATM    4  C11 UNL     1       0.019  55.130  -8.537  1.00  0.00    -0.013 C 
HETATM    5  C12 UNL     1      -0.755  56.442  -8.875  1.00  0.00     0.021 C 
HETATM    6  C13 UNL     1      -0.895  53.958  -8.880  1.00  0.00    -0.070 C 
HETATM    7  C14 UNL     1      -1.309  53.047  -7.980  1.00  0.00    -0.022 C 
HETATM    8  C15 UNL     1      -2.034  51.781  -8.333  1.00  0.00     0.034 C 
HETATM    9  C16 UNL     1      -1.935  51.439  -9.837  1.00  0.00     0.013 C 
HETATM   10  C17 UNL     1      -2.650  50.102 -10.278  1.00  0.00     0.018 C 
HETATM   11  C18 UNL     1      -1.595  49.117 -10.833  1.00  0.00     0.023 C 
HETATM   12  C19 UNL     1      -3.372  49.383  -9.117  1.00  0.00     0.023 C 
HETATM   13  C20 UNL     1      -3.666  50.313 -11.414  1.00  0.00     0.135 C 
HETATM   14  O1  UNL     1      -4.718  49.668 -11.475  1.00  0.00    -0.297 OA
HETATM   15  C21 UNL     1      -3.327  51.264 -12.539  1.00  0.00     0.080 C 
HETATM   16  C22 UNL     1      -2.263  52.288 -12.177  1.00  0.00     0.017 C 
HETATM   17  C23 UNL     1      -2.284  52.699 -10.691  1.00  0.00    -0.031 C 
HETATM   18  C24 UNL     1      -3.695  53.260 -10.339  1.00  0.00     0.016 C 
HETATM   19  C25 UNL     1      -1.236  53.844 -10.380  1.00  0.00     0.024 C 
HETATM   20  C26 UNL     1       0.066  53.811 -11.226  1.00  0.00     0.010 C 
HETATM   21  C27 UNL     1       1.100  54.893 -10.835  1.00  0.00     0.011 C 
HETATM   22  C28 UNL     1       1.370  54.906  -9.318  1.00  0.00    -0.029 C 
HETATM   23  C29 UNL     1       2.067  53.555  -8.955  1.00  0.00     0.016 C 
ENDROOT
BRANCH   1  24
HETATM   24  C6  UNL     1       3.726  56.131  -9.191  1.00  0.00    -0.014 C 
HETATM   25  C7  UNL     1       4.034  55.936 -10.679  1.00  0.00     0.010 C 
BRANCH  24  26
HETATM   26  C5  UNL     1       4.569  55.148  -8.337  1.00  0.00     0.008 C 
BRANCH  26  27
HETATM   27  C4  UNL     1       5.947  55.665  -7.899  1.00  0.00     0.028 C 
BRANCH  27  28
HETATM   28  C3  UNL     1       5.816  56.819  -6.938  1.00  0.00    -0.013 C 
HETATM   29  C2  UNL     1       6.606  57.097  -5.881  1.00  0.00     0.008 C 
HETATM   30  C1  UNL     1       6.336  58.277  -4.991  1.00  0.00     0.055 C 
BRANCH  29  31
HETATM   31  C30 UNL     1       7.821  56.300  -5.582  1.00  0.00     0.171 C 
HETATM   32  O2  UNL     1       7.896  55.094  -5.440  1.00  0.00    -0.646 OA
BRANCH  31  33
HETATM   33  O3  UNL     1       8.917  57.073  -5.494  1.00  0.00    -0.773 OA
HETATM   34  H46 UNL     1       9.635  56.433  -5.317  1.00  0.00     0.167 HD
ENDBRANCH  31  33
ENDBRANCH  29  31
ENDBRANCH  27  28
ENDBRANCH  26  27
ENDBRANCH  24  26
ENDBRANCH   1  24
TORSDOF 6
ENDMDL
