MODEL 1
REMARK minimizedAffinity -8.38906574
REMARK CNNscore 0.759967327
REMARK CNNaffinity 7.02006483
REMARK  11 active torsions:
REMARK  status: ('A' for Active; 'I' for Inactive)
REMARK    1  A    between atoms: C12_13  and  O2_14 
REMARK    2  A    between atoms: C19_21  and  O3_22 
REMARK    3  A    between atoms: C19_21  and  C20_23 
REMARK    4  A    between atoms: C20_23  and  C21_25 
REMARK    5  A    between atoms: C21_25  and  O5_26 
REMARK    6  A    between atoms: O5_26  and  C22_27 
REMARK    7  A    between atoms: C22_27  and  C23_29 
REMARK    8  A    between atoms: C23_29  and  C24_30 
REMARK    9  A    between atoms: C24_30  and  C25_31 
REMARK       I    between atoms: C25_31  and  N1_33 
REMARK   10  A    between atoms: N1_33  and  C26_34 
REMARK   11  A    between atoms: C26_34  and  C27_35 
ROOT
HETATM    1  C1  UNL     1      -4.256  51.539 -24.897  1.00  0.00     0.020 C 
HETATM    2  C2  UNL     1      -3.420  50.235 -24.860  1.00  0.00    -0.014 C 
HETATM    3  C3  UNL     1      -2.363  50.287 -26.006  1.00  0.00     0.022 C 
HETATM    4  C4  UNL     1      -2.952  50.133 -27.401  1.00  0.00     0.084 C 
HETATM    5  C5  UNL     1      -3.749  48.858 -27.482  1.00  0.00     0.149 C 
HETATM    6  O1  UNL     1      -3.832  48.195 -28.514  1.00  0.00    -0.293 OA
HETATM    7  C6  UNL     1      -4.522  48.445 -26.286  1.00  0.00     0.053 C 
HETATM    8  C7  UNL     1      -4.415  49.095 -25.113  1.00  0.00    -0.068 C 
HETATM    9  C8  UNL     1      -5.334  48.714 -23.971  1.00  0.00     0.035 C 
HETATM   10  C9  UNL     1      -4.751  49.005 -22.585  1.00  0.00     0.010 C 
HETATM   11  C10 UNL     1      -3.224  48.880 -22.612  1.00  0.00    -0.002 C 
HETATM   12  C11 UNL     1      -2.621  50.012 -23.489  1.00  0.00     0.031 C 
HETATM   13  C12 UNL     1      -2.368  51.308 -22.688  1.00  0.00     0.124 C 
HETATM   14  C13 UNL     1      -1.607  51.058 -21.386  1.00  0.00     0.045 C 
HETATM   15  C14 UNL     1      -2.287  50.040 -20.434  1.00  0.00     0.001 C 
HETATM   16  C15 UNL     1      -3.531  50.688 -19.809  1.00  0.00     0.019 C 
HETATM   17  C16 UNL     1      -2.606  48.744 -21.204  1.00  0.00     0.002 C 
HETATM   18  C17 UNL     1      -1.254  48.003 -21.247  1.00  0.00     0.009 C 
HETATM   19  C18 UNL     1      -0.449  48.465 -20.030  1.00  0.00     0.047 C 
HETATM   20  C19 UNL     1      -1.282  49.551 -19.339  1.00  0.00     0.128 C 
ENDROOT
BRANCH  20  21
HETATM   21  O3  UNL     1      -0.393  50.631 -18.996  1.00  0.00    -0.381 OA
HETATM   22  H27 UNL     1      -0.617  50.904 -18.081  1.00  0.00     0.211 HD
ENDBRANCH  20  21
BRANCH  20  23
HETATM   23  C20 UNL     1      -1.882  49.073 -17.984  1.00  0.00     0.185 C 
HETATM   24  O4  UNL     1      -2.945  48.433 -17.993  1.00  0.00    -0.292 OA
BRANCH  23  25
HETATM   25  C21 UNL     1      -1.180  49.420 -16.672  1.00  0.00     0.260 C 
BRANCH  25  26
HETATM   26  O5  UNL     1      -1.466  50.760 -16.256  1.00  0.00    -0.314 OA
BRANCH  26  27
HETATM   27  C22 UNL     1      -1.372  50.965 -14.914  1.00  0.00     0.259 C 
HETATM   28  O6  UNL     1      -0.358  51.325 -14.335  1.00  0.00    -0.265 OA
BRANCH  27  29
HETATM   29  C23 UNL     1      -2.686  50.697 -14.239  1.00  0.00     0.120 C 
BRANCH  29  30
HETATM   30  C24 UNL     1      -3.420  52.000 -13.957  1.00  0.00     0.112 C 
BRANCH  30  31
HETATM   31  C25 UNL     1      -3.611  52.210 -12.472  1.00  0.00     0.218 C 
HETATM   32  O7  UNL     1      -3.836  51.299 -11.683  1.00  0.00    -0.274 OA
HETATM   33  N1  UNL     1      -3.500  53.530 -12.092  1.00  0.00    -0.356 N 
HETATM   34  H34 UNL     1      -3.103  54.193 -12.747  1.00  0.00     0.162 HD
BRANCH  33  35
HETATM   35  C26 UNL     1      -3.503  53.896 -10.693  1.00  0.00     0.168 C 
BRANCH  35  36
HETATM   36  C27 UNL     1      -2.093  54.147 -10.269  1.00  0.00     0.000 A 
HETATM   37  C28 UNL     1      -1.414  55.350 -10.233  1.00  0.00     0.017 A 
HETATM   38  C29 UNL     1      -0.079  55.209  -9.753  1.00  0.00     0.008 A 
HETATM   39  C30 UNL     1       0.220  53.899  -9.447  1.00  0.00     0.050 A 
HETATM   40  S1  UNL     1      -1.099  52.851  -9.744  1.00  0.00    -0.105 SA
ENDBRANCH  35  36
ENDBRANCH  33  35
ENDBRANCH  30  31
ENDBRANCH  29  30
ENDBRANCH  27  29
ENDBRANCH  26  27
ENDBRANCH  25  26
ENDBRANCH  23  25
ENDBRANCH  20  23
BRANCH  13  41
HETATM   41  O2  UNL     1      -1.580  52.193 -23.485  1.00  0.00    -0.395 OA
HETATM   42  H16 UNL     1      -1.409  52.994 -22.959  1.00  0.00     0.210 HD
ENDBRANCH  13  41
TORSDOF 11
ENDMDL
