MODEL 1
REMARK minimizedAffinity -6.74679995
REMARK CNNscore 0.81397742
REMARK CNNaffinity 7.13597441
REMARK  20 active torsions:
REMARK  status: ('A' for Active; 'I' for Inactive)
REMARK    1  A    between atoms: C2_2  and  C3_3 
REMARK    2  A    between atoms: C2_2  and  C30_37 
REMARK    3  A    between atoms: C4_4  and  C5_5 
REMARK    4  A    between atoms: C6_6  and  C7_7 
REMARK    5  A    between atoms: C6_6  and  C11_14 
REMARK    6  A    between atoms: C7_7  and  O1_8 
REMARK    7  A    between atoms: O1_8  and  C8_9 
REMARK    8  A    between atoms: C8_9  and  C9_10 
REMARK    9  A    between atoms: C9_10  and  O2_11 
REMARK   10  A    between atoms: C9_10  and  C10_12 
REMARK   11  A    between atoms: C10_12  and  O3_13 
REMARK   12  A    between atoms: C15_18  and  O4_19 
REMARK   13  A    between atoms: C16_20  and  C17_21 
REMARK   14  A    between atoms: C17_21  and  C18_22 
REMARK   15  A    between atoms: C18_22  and  C19_23 
REMARK   16  A    between atoms: C19_23  and  O5_24 
REMARK   17  A    between atoms: C21_26  and  C22_27 
REMARK   18  A    between atoms: C28_34  and  O7_36 
REMARK   19  A    between atoms: C30_37  and  C31_38 
REMARK   20  A    between atoms: C31_38  and  C32_39 
ROOT
HETATM    1  C11 UNL     1       2.671  53.383 -10.598  1.00  0.00     0.046 C 
HETATM    2  C12 UNL     1       3.635  54.465 -11.082  1.00  0.00     0.013 C 
HETATM    3  C13 UNL     1       3.091  55.723 -10.407  1.00  0.00     0.017 C 
HETATM    4  C14 UNL     1       2.581  55.275  -8.996  1.00  0.00     0.024 C 
HETATM    5  C15 UNL     1       2.611  53.703  -9.084  1.00  0.00     0.138 C 
HETATM    6  C16 UNL     1       1.087  55.829  -8.784  1.00  0.00     0.029 C 
HETATM    7  C20 UNL     1       0.830  56.066  -7.282  1.00  0.00    -0.061 C 
HETATM    8  C21 UNL     1       0.086  55.366  -6.389  1.00  0.00    -0.017 C 
HETATM    9  C23 UNL     1      -0.142  55.816  -4.961  1.00  0.00     0.042 C 
HETATM   10  C24 UNL     1       0.349  57.230  -4.668  1.00  0.00     0.005 C 
HETATM   11  C25 UNL     1       1.719  57.442  -5.285  1.00  0.00     0.009 C 
HETATM   12  C26 UNL     1       1.639  57.283  -6.813  1.00  0.00     0.018 C 
HETATM   13  C27 UNL     1       3.062  57.267  -7.416  1.00  0.00     0.047 C 
HETATM   14  C28 UNL     1       3.529  55.858  -7.848  1.00  0.00     0.066 C 
HETATM   15  C29 UNL     1       5.032  55.940  -8.185  1.00  0.00     0.047 C 
ENDROOT
BRANCH   1  16
HETATM   16  C6  UNL     1       2.848  51.901 -10.928  1.00  0.00    -0.050 C 
HETATM   17  C5  UNL     1       3.014  51.288 -12.121  1.00  0.00     0.005 C 
BRANCH  17  18
HETATM   18  C4  UNL     1       3.108  51.841 -13.454  1.00  0.00     0.001 C 
HETATM   19  C3  UNL     1       2.146  51.664 -14.375  1.00  0.00     0.006 C 
BRANCH  19  20
HETATM   20  C2  UNL     1       2.168  52.141 -15.758  1.00  0.00    -0.067 C 
HETATM   21  C1  UNL     1       3.364  52.388 -16.321  1.00  0.00     0.019 C 
BRANCH  20  22
HETATM   22  C30 UNL     1       0.837  52.357 -16.474  1.00  0.00     0.041 C 
BRANCH  22  23
HETATM   23  C31 UNL     1       0.696  51.883 -17.935  1.00  0.00     0.032 C 
BRANCH  23  24
HETATM   24  C32 UNL     1       1.009  52.977 -18.928  1.00  0.00    -0.024 C 
HETATM   25  C33 UNL     1       0.916  52.940 -20.273  1.00  0.00    -0.091 C 
HETATM   26  C34 UNL     1       1.261  54.157 -21.094  1.00  0.00     0.042 C 
HETATM   27  C35 UNL     1       0.474  51.757 -21.088  1.00  0.00     0.042 C 
ENDBRANCH  23  24
ENDBRANCH  22  23
ENDBRANCH  20  22
ENDBRANCH  19  20
ENDBRANCH  17  18
BRANCH  16  28
HETATM   28  C7  UNL     1       2.794  51.004  -9.688  1.00  0.00     0.202 C 
BRANCH  28  29
HETATM   29  O1  UNL     1       4.109  50.535  -9.409  1.00  0.00    -0.384 OA
BRANCH  29  30
HETATM   30  C8  UNL     1       4.287  49.132  -9.628  1.00  0.00     0.201 C 
BRANCH  30  31
HETATM   31  C9  UNL     1       5.696  48.624  -9.277  1.00  0.00     0.165 C 
BRANCH  31  32
HETATM   32  O2  UNL     1       5.844  48.538  -7.853  1.00  0.00    -0.391 OA
HETATM   33  H11 UNL     1       6.658  48.032  -7.678  1.00  0.00     0.210 HD
ENDBRANCH  31  32
BRANCH  31  34
HETATM   34  C10 UNL     1       6.809  49.500  -9.865  1.00  0.00     0.198 C 
BRANCH  34  35
HETATM   35  O3  UNL     1       6.629  49.707 -11.259  1.00  0.00    -0.398 OA
HETATM   36  H14 UNL     1       7.159  49.044 -11.736  1.00  0.00     0.209 HD
ENDBRANCH  34  35
ENDBRANCH  31  34
ENDBRANCH  30  31
ENDBRANCH  29  30
ENDBRANCH  28  29
ENDBRANCH  16  28
ENDBRANCH   1  16
BRANCH   5  37
HETATM   37  O4  UNL     1       3.774  53.155  -8.444  1.00  0.00    -0.394 OA
HETATM   38  H21 UNL     1       3.682  52.186  -8.471  1.00  0.00     0.210 HD
ENDBRANCH   5  37
BRANCH   6  39
HETATM   39  C17 UNL     1      -0.102  55.162  -9.534  1.00  0.00     0.012 C 
BRANCH  39  40
HETATM   40  C18 UNL     1      -0.011  53.643  -9.758  1.00  0.00     0.027 C 
BRANCH  40  41
HETATM   41  C19 UNL     1      -1.100  53.156 -10.716  1.00  0.00     0.164 C 
BRANCH  41  42
HETATM   42  O5  UNL     1      -0.609  53.135 -12.052  1.00  0.00    -0.401 OA
HETATM   43  H29 UNL     1      -0.316  52.229 -12.246  1.00  0.00     0.209 HD
ENDBRANCH  41  42
ENDBRANCH  40  41
ENDBRANCH  39  40
ENDBRANCH   6  39
BRANCH  14  44
HETATM   44  O7  UNL     1       3.447  55.017  -6.682  1.00  0.00    -0.389 OA
HETATM   45  H43 UNL     1       3.820  54.155  -6.967  1.00  0.00     0.210 HD
ENDBRANCH  14  44
BRANCH   8  46
HETATM   46  C22 UNL     1      -0.554  54.044  -6.663  1.00  0.00     0.265 C 
HETATM   47  O6  UNL     1      -0.006  52.973  -6.416  1.00  0.00    -0.302 OA
ENDBRANCH   8  46
TORSDOF 20
ENDMDL
