MODEL 1
REMARK minimizedAffinity -9.8818121
REMARK CNNscore 0.531652331
REMARK CNNaffinity 7.29343843
REMARK  13 active torsions:
REMARK  status: ('A' for Active; 'I' for Inactive)
REMARK    1  A    between atoms: C3_3  and  C4_4 
REMARK    2  A    between atoms: C4_4  and  N1_5 
REMARK    3  A    between atoms: N1_5  and  C5_6 
REMARK    4  A    between atoms: C5_6  and  C6_7 
REMARK    5  A    between atoms: C6_7  and  O1_9 
REMARK    6  A    between atoms: C8_10  and  C9_11 
REMARK    7  A    between atoms: C9_11  and  O2_12 
REMARK    8  A    between atoms: C9_11  and  C10_13 
REMARK    9  A    between atoms: C10_13  and  O3_15 
REMARK   10  A    between atoms: C10_13  and  C12_16 
REMARK   11  A    between atoms: C19_24  and  C20_25 
REMARK   12  A    between atoms: C42_50  and  C43_51 
REMARK   13  A    between atoms: C43_51  and  O8_52 
ROOT
HETATM    1  C12 UNL     1      -3.570   8.661  15.248  1.00  0.00     0.034 C 
HETATM    2  C13 UNL     1      -3.336   7.697  16.448  1.00  0.00     0.012 C 
HETATM    3  C14 UNL     1      -1.830   7.740  16.765  1.00  0.00     0.044 C 
HETATM    4  C15 UNL     1      -1.339   9.042  16.112  1.00  0.00     0.093 C 
HETATM    5  O4  UNL     1      -1.820  10.236  16.776  1.00  0.00    -0.363 OA
HETATM    6  C16 UNL     1      -1.980  10.291  18.186  1.00  0.00     0.263 C 
HETATM    7  C17 UNL     1      -0.834  10.920  18.849  1.00  0.00    -0.080 C 
HETATM    8  C18 UNL     1       0.046  11.476  19.450  1.00  0.00    -0.093 C 
HETATM    9  C19 UNL     1       1.098  12.199  20.204  1.00  0.00     0.121 C 
HETATM   10  C26 UNL     1       2.003  13.074  19.300  1.00  0.00     0.190 C 
HETATM   11  O5  UNL     1       2.971  12.378  18.505  1.00  0.00    -0.384 OA
HETATM   12  C27 UNL     1       2.475  11.796  17.303  1.00  0.00     0.122 C 
HETATM   13  C28 UNL     1       2.224  12.844  16.213  1.00  0.00     0.033 C 
HETATM   14  C29 UNL     1       2.312  12.281  14.785  1.00  0.00     0.013 C 
HETATM   15  C30 UNL     1       1.999  10.758  14.679  1.00  0.00    -0.026 C 
HETATM   16  C31 UNL     1       2.326  10.324  13.224  1.00  0.00     0.016 C 
HETATM   17  C32 UNL     1       3.004   9.995  15.600  1.00  0.00     0.071 C 
HETATM   18  C33 UNL     1       3.497  10.776  16.826  1.00  0.00     0.045 C 
HETATM   19  C34 UNL     1       2.519   8.628  16.032  1.00  0.00     0.154 C 
HETATM   20  O6  UNL     1       3.298   7.704  16.257  1.00  0.00    -0.293 OA
HETATM   21  C35 UNL     1       1.083   8.405  16.263  1.00  0.00     0.057 C 
HETATM   22  C36 UNL     1       0.144   9.256  15.832  1.00  0.00    -0.036 C 
HETATM   23  C37 UNL     1       0.460  10.519  15.031  1.00  0.00     0.026 C 
HETATM   24  C38 UNL     1      -0.470  10.656  13.785  1.00  0.00     0.011 C 
HETATM   25  C39 UNL     1      -1.953  10.324  14.019  1.00  0.00     0.014 C 
HETATM   26  C40 UNL     1      -2.118   8.962  14.733  1.00  0.00    -0.002 C 
HETATM   27  C41 UNL     1      -1.592   7.831  13.809  1.00  0.00     0.019 C 
ENDROOT
BRANCH   1  28
HETATM   28  C10 UNL     1      -4.748   8.279  14.281  1.00  0.00     0.087 C 
HETATM   29  C11 UNL     1      -4.438   8.463  12.784  1.00  0.00     0.049 C 
BRANCH  28  30
HETATM   30  C9  UNL     1      -5.171   6.789  14.558  1.00  0.00     0.181 C 
BRANCH  30  31
HETATM   31  C8  UNL     1      -6.247   6.198  13.622  1.00  0.00     0.160 C 
HETATM   32  C3  UNL     1      -7.734   6.269  13.991  1.00  0.00     0.051 C 
HETATM   33  C2  UNL     1      -8.312   5.210  13.029  1.00  0.00     0.021 C 
HETATM   34  C1  UNL     1      -8.728   5.829  11.691  1.00  0.00     0.013 C 
HETATM   35  C42 UNL     1      -7.164   4.206  12.837  1.00  0.00     0.149 C 
HETATM   36  O7  UNL     1      -5.988   4.779  13.459  1.00  0.00    -0.375 OA
BRANCH  32  37
HETATM   37  C4  UNL     1      -8.035   5.917  15.468  1.00  0.00     0.277 C 
BRANCH  37  38
HETATM   38  N1  UNL     1      -9.236   6.550  16.028  1.00  0.00     0.086 N 
HETATM   39  H8  UNL     1      -9.048   6.842  16.987  1.00  0.00     0.315 HD
BRANCH  38  40
HETATM   40  C5  UNL     1      -9.788   7.654  15.250  1.00  0.00     0.300 C 
BRANCH  40  41
HETATM   41  C6  UNL     1      -9.534   9.025  15.907  1.00  0.00     0.142 C 
HETATM   42  C7  UNL     1     -10.808   9.845  16.053  1.00  0.00     0.041 C 
BRANCH  41  43
HETATM   43  O1  UNL     1      -8.619   9.777  15.108  1.00  0.00    -0.394 OA
HETATM   44  H15 UNL     1      -7.753   9.340  15.170  1.00  0.00     0.210 HD
ENDBRANCH  41  43
ENDBRANCH  40  41
ENDBRANCH  38  40
ENDBRANCH  37  38
ENDBRANCH  32  37
BRANCH  35  45
HETATM   45  C43 UNL     1      -7.426   2.838  13.472  1.00  0.00     0.196 C 
BRANCH  45  46
HETATM   46  O8  UNL     1      -8.238   2.054  12.595  1.00  0.00    -0.398 OA
HETATM   47  H61 UNL     1      -7.843   2.159  11.709  1.00  0.00     0.209 HD
ENDBRANCH  45  46
ENDBRANCH  35  45
ENDBRANCH  30  31
BRANCH  30  48
HETATM   48  O2  UNL     1      -4.020   5.926  14.467  1.00  0.00    -0.390 OA
HETATM   49  H18 UNL     1      -4.382   5.016  14.500  1.00  0.00     0.210 HD
ENDBRANCH  30  48
ENDBRANCH  28  30
BRANCH  28  50
HETATM   50  O3  UNL     1      -5.872   9.114  14.583  1.00  0.00    -0.387 OA
HETATM   51  H22 UNL     1      -5.713   9.988  14.188  1.00  0.00     0.210 HD
ENDBRANCH  28  50
ENDBRANCH   1  28
BRANCH   9  52
HETATM   52  C20 UNL     1       1.871  11.292  21.151  1.00  0.00    -0.040 A 
HETATM   53  C21 UNL     1       1.733   9.895  21.111  1.00  0.00     0.008 A 
HETATM   54  C22 UNL     1       2.444   9.080  21.993  1.00  0.00     0.001 A 
HETATM   55  C23 UNL     1       3.304   9.647  22.930  1.00  0.00     0.000 A 
HETATM   56  C24 UNL     1       3.458  11.031  22.981  1.00  0.00     0.001 A 
HETATM   57  C25 UNL     1       2.748  11.848  22.098  1.00  0.00     0.008 A 
ENDBRANCH   9  52
TORSDOF 13
ENDMDL
