MODEL 1
REMARK minimizedAffinity -7.9669385
REMARK CNNscore 0.770833313
REMARK CNNaffinity 7.18615294
REMARK  9 active torsions:
REMARK  status: ('A' for Active; 'I' for Inactive)
REMARK    1  A    between atoms: O1_2  and  C2_3 
REMARK    2  A    between atoms: C2_3  and  C3_4 
REMARK    3  A    between atoms: C3_4  and  C4_5 
REMARK    4  A    between atoms: C4_5  and  O2_6 
REMARK    5  A    between atoms: O2_6  and  C5_7 
REMARK    6  A    between atoms: C31_35  and  O5_36 
REMARK    7  A    between atoms: C32_38  and  O6_39 
REMARK    8  A    between atoms: C33_40  and  O7_42 
REMARK    9  A    between atoms: C39_47  and  O8_48 
ROOT
HETATM    1  C5  UNL     1       4.537  57.571  -6.382  1.00  0.00     0.122 C 
HETATM    2  C6  UNL     1       4.400  57.499  -7.902  1.00  0.00     0.033 C 
HETATM    3  C7  UNL     1       4.522  56.090  -8.488  1.00  0.00     0.013 C 
HETATM    4  C8  UNL     1       3.841  54.943  -7.661  1.00  0.00    -0.026 C 
HETATM    5  C9  UNL     1       4.981  54.099  -7.035  1.00  0.00     0.016 C 
HETATM    6  C10 UNL     1       2.953  55.544  -6.542  1.00  0.00     0.071 C 
HETATM    7  C11 UNL     1       3.760  56.481  -5.627  1.00  0.00     0.045 C 
HETATM    8  C12 UNL     1       1.729  56.275  -7.106  1.00  0.00     0.161 C 
HETATM    9  O3  UNL     1       1.263  57.284  -6.572  1.00  0.00    -0.292 OA
HETATM   10  C13 UNL     1       1.047  55.697  -8.294  1.00  0.00    -0.006 C 
HETATM   11  C14 UNL     1       1.614  54.653  -8.920  1.00  0.00    -0.030 C 
HETATM   12  C15 UNL     1       2.984  54.046  -8.626  1.00  0.00     0.027 C 
HETATM   13  C16 UNL     1       2.822  52.543  -8.256  1.00  0.00     0.011 C 
HETATM   14  C17 UNL     1       1.960  51.751  -9.284  1.00  0.00     0.015 C 
HETATM   15  C18 UNL     1       0.587  52.432  -9.516  1.00  0.00     0.013 C 
HETATM   16  C19 UNL     1      -0.134  52.402  -8.131  1.00  0.00     0.020 C 
HETATM   17  C20 UNL     1      -0.355  51.906 -10.702  1.00  0.00     0.067 C 
HETATM   18  C21 UNL     1       0.502  51.744 -11.936  1.00  0.00    -0.092 C 
HETATM   19  C22 UNL     1       1.161  51.577 -12.931  1.00  0.00    -0.103 C 
HETATM   20  C23 UNL     1       1.937  51.337 -14.164  1.00  0.00     0.129 C 
HETATM   21  C24 UNL     1       1.191  50.548 -15.280  1.00  0.00     0.235 C 
HETATM   22  C25 UNL     1      -0.025  51.302 -15.859  1.00  0.00     0.044 C 
HETATM   23  C26 UNL     1      -1.420  50.821 -15.435  1.00  0.00     0.027 C 
HETATM   24  C27 UNL     1      -1.878  51.337 -14.066  1.00  0.00     0.020 C 
HETATM   25  C28 UNL     1      -3.368  51.713 -14.125  1.00  0.00     0.013 C 
HETATM   26  C29 UNL     1      -1.596  50.134 -13.161  1.00  0.00     0.158 C 
HETATM   27  O4  UNL     1      -2.054  49.023 -13.977  1.00  0.00    -0.373 OA
HETATM   28  C30 UNL     1      -1.546  49.294 -15.315  1.00  0.00     0.185 C 
HETATM   29  C31 UNL     1      -0.210  48.552 -15.591  1.00  0.00     0.384 C 
HETATM   30  N1  UNL     1       0.967  49.128 -14.954  1.00  0.00     0.120 N 
HETATM   31  C32 UNL     1      -2.182  50.133 -11.738  1.00  0.00     0.183 C 
HETATM   32  C33 UNL     1      -1.204  50.537 -10.536  1.00  0.00     0.102 C 
HETATM   33  C34 UNL     1      -2.082  50.452  -9.261  1.00  0.00     0.050 C 
HETATM   34  C35 UNL     1      -1.290  53.158 -10.885  1.00  0.00     0.034 C 
HETATM   35  C36 UNL     1      -0.500  54.432 -10.450  1.00  0.00     0.027 C 
HETATM   36  C37 UNL     1      -1.219  55.266  -9.383  1.00  0.00     0.013 C 
HETATM   37  C38 UNL     1      -0.289  56.271  -8.691  1.00  0.00     0.043 C 
HETATM   38  C39 UNL     1       0.866  53.912  -9.986  1.00  0.00     0.095 C 
HETATM   39  H43 UNL     1       0.915  49.000 -13.944  1.00  0.00     0.319 HD
ENDROOT
BRANCH  32  40
HETATM   40  O7  UNL     1      -0.260  49.445 -10.395  1.00  0.00    -0.386 OA
HETATM   41  H49 UNL     1      -0.801  48.636 -10.515  1.00  0.00     0.210 HD
ENDBRANCH  32  40
BRANCH  38  42
HETATM   42  O8  UNL     1       1.724  53.987 -11.129  1.00  0.00    -0.384 OA
HETATM   43  H57 UNL     1       1.902  54.924 -11.315  1.00  0.00     0.211 HD
ENDBRANCH  38  42
BRANCH  31  44
HETATM   44  O6  UNL     1      -2.600  48.760 -11.478  1.00  0.00    -0.390 OA
HETATM   45  H45 UNL     1      -2.725  48.356 -12.363  1.00  0.00     0.210 HD
ENDBRANCH  31  44
BRANCH  29  46
HETATM   46  O5  UNL     1       0.018  48.490 -16.990  1.00  0.00    -0.366 OA
HETATM   47  H42 UNL     1       0.109  47.540 -17.194  1.00  0.00     0.212 HD
ENDBRANCH  29  46
BRANCH   1  48
HETATM   48  O2  UNL     1       5.934  57.461  -6.079  1.00  0.00    -0.386 OA
BRANCH  48  49
HETATM   49  C4  UNL     1       6.327  58.177  -4.908  1.00  0.00     0.170 C 
BRANCH  49  50
HETATM   50  C3  UNL     1       7.577  59.009  -5.182  1.00  0.00     0.052 C 
BRANCH  50  51
HETATM   51  C2  UNL     1       8.830  58.310  -4.668  1.00  0.00     0.169 C 
BRANCH  51  52
HETATM   52  O1  UNL     1      10.005  58.787  -5.329  1.00  0.00    -0.396 OA
HETATM   53  C1  UNL     1      11.205  58.521  -4.610  1.00  0.00     0.201 C 
ENDBRANCH  51  52
ENDBRANCH  50  51
ENDBRANCH  49  50
ENDBRANCH  48  49
ENDBRANCH   1  48
TORSDOF 9
ENDMDL
