MODEL 1
REMARK minimizedAffinity -9.4111166
REMARK  9 active torsions:
REMARK  status: ('A' for Active; 'I' for Inactive)
REMARK    1  A    between atoms: C2_2  and  C3_3 
REMARK    2  A    between atoms: C2_2  and  C9_12 
REMARK    3  A    between atoms: C3_3  and  C4_4 
REMARK    4  A    between atoms: C4_4  and  C5_5 
REMARK    5  A    between atoms: C5_5  and  O1_6 
REMARK    6  A    between atoms: C5_5  and  C6_7 
REMARK    7  A    between atoms: C6_7  and  O2_9 
REMARK    8  A    between atoms: C6_7  and  C8_10 
REMARK    9  A    between atoms: C8_10  and  O3_11 
ROOT
HETATM    1  C9  UNL     1      -1.190   6.490  13.103  1.00  0.00    -0.002 C 
HETATM    2  C10 UNL     1      -0.849   7.825  13.826  1.00  0.00     0.007 C 
HETATM    3  C11 UNL     1      -2.048   8.170  14.728  1.00  0.00     0.015 C 
HETATM    4  C12 UNL     1      -3.253   7.563  13.987  1.00  0.00    -0.013 C 
HETATM    5  C13 UNL     1      -3.585   8.545  12.817  1.00  0.00     0.021 C 
HETATM    6  C14 UNL     1      -4.581   7.407  14.735  1.00  0.00    -0.070 C 
HETATM    7  C15 UNL     1      -4.991   8.323  15.631  1.00  0.00    -0.022 C 
HETATM    8  C16 UNL     1      -6.405   8.419  16.110  1.00  0.00     0.034 C 
HETATM    9  C17 UNL     1      -7.366   7.882  15.026  1.00  0.00     0.013 C 
HETATM   10  C18 UNL     1      -8.872   8.256  15.270  1.00  0.00     0.018 C 
HETATM   11  C19 UNL     1      -9.044   9.789  15.097  1.00  0.00     0.023 C 
HETATM   12  C20 UNL     1      -9.428   7.899  16.658  1.00  0.00     0.023 C 
HETATM   13  C21 UNL     1      -9.751   7.570  14.211  1.00  0.00     0.135 C 
HETATM   14  O4  UNL     1     -10.734   8.125  13.714  1.00  0.00    -0.297 OA
HETATM   15  C22 UNL     1      -9.456   6.129  13.874  1.00  0.00     0.080 C 
HETATM   16  C23 UNL     1      -7.981   5.926  13.563  1.00  0.00     0.017 C 
HETATM   17  C24 UNL     1      -7.033   6.382  14.700  1.00  0.00    -0.031 C 
HETATM   18  C25 UNL     1      -7.253   5.442  15.919  1.00  0.00     0.016 C 
HETATM   19  C26 UNL     1      -5.482   6.233  14.314  1.00  0.00     0.024 C 
HETATM   20  C27 UNL     1      -5.167   5.745  12.880  1.00  0.00     0.010 C 
HETATM   21  C28 UNL     1      -3.661   5.509  12.565  1.00  0.00     0.011 C 
HETATM   22  C29 UNL     1      -2.675   6.175  13.545  1.00  0.00    -0.029 C 
HETATM   23  C30 UNL     1      -2.470   5.182  14.754  1.00  0.00     0.016 C 
ENDROOT
BRANCH   1  24
HETATM   24  C2  UNL     1      -0.683   6.410  11.632  1.00  0.00    -0.014 C 
HETATM   25  C1  UNL     1       0.429   5.401  11.344  1.00  0.00     0.010 C 
BRANCH  24  26
HETATM   26  C3  UNL     1      -0.315   7.780  11.002  1.00  0.00     0.007 C 
BRANCH  26  27
HETATM   27  C4  UNL     1       1.058   7.800  10.316  1.00  0.00     0.035 C 
BRANCH  27  28
HETATM   28  C5  UNL     1       1.073   8.345   8.873  1.00  0.00     0.154 C 
BRANCH  28  29
HETATM   29  O1  UNL     1      -0.195   8.047   8.258  1.00  0.00    -0.392 OA
HETATM   30  H10 UNL     1      -0.889   8.421   8.833  1.00  0.00     0.210 HD
ENDBRANCH  28  29
BRANCH  28  31
HETATM   31  C6  UNL     1       2.194   7.815   7.932  1.00  0.00     0.101 C 
HETATM   32  C7  UNL     1       1.633   7.259   6.622  1.00  0.00     0.051 C 
BRANCH  31  33
HETATM   33  O2  UNL     1       3.091   8.892   7.612  1.00  0.00    -0.385 OA
HETATM   34  H14 UNL     1       3.204   9.384   8.450  1.00  0.00     0.210 HD
ENDBRANCH  31  33
BRANCH  31  35
HETATM   35  C8  UNL     1       3.027   6.726   8.649  1.00  0.00     0.204 C 
BRANCH  35  36
HETATM   36  O3  UNL     1       2.822   5.434   8.086  1.00  0.00    -0.398 OA
HETATM   37  H17 UNL     1       2.459   4.871   8.796  1.00  0.00     0.209 HD
ENDBRANCH  35  36
ENDBRANCH  31  35
ENDBRANCH  28  31
ENDBRANCH  27  28
ENDBRANCH  26  27
ENDBRANCH  24  26
ENDBRANCH   1  24
TORSDOF 9
ENDMDL
