MODEL 1
REMARK minimizedAffinity -8.46601391
REMARK CNNscore 0.560196877
REMARK CNNaffinity 7.24086428
REMARK  5 active torsions:
REMARK  status: ('A' for Active; 'I' for Inactive)
REMARK    1  A    between atoms: C4_4  and  C5_5 
REMARK    2  A    between atoms: C5_5  and  C6_6 
REMARK    3  A    between atoms: C6_6  and  C7_7 
REMARK    4  A    between atoms: C7_7  and  C9_9 
REMARK    5  A    between atoms: C24_24  and  O1_26 
ROOT
HETATM    1  C9  UNL     1      -6.680   7.272  14.475  1.00  0.00    -0.002 C 
HETATM    2  C10 UNL     1      -6.477   8.666  15.125  1.00  0.00     0.007 C 
HETATM    3  C11 UNL     1      -4.982   9.023  14.961  1.00  0.00     0.015 C 
HETATM    4  C12 UNL     1      -4.442   8.009  13.934  1.00  0.00    -0.013 C 
HETATM    5  C13 UNL     1      -4.782   8.574  12.518  1.00  0.00     0.021 C 
HETATM    6  C14 UNL     1      -2.952   7.703  13.883  1.00  0.00    -0.068 C 
HETATM    7  C15 UNL     1      -2.530   6.497  13.414  1.00  0.00    -0.068 C 
HETATM    8  C16 UNL     1      -3.513   5.386  13.039  1.00  0.00     0.036 C 
HETATM    9  C17 UNL     1      -5.016   5.651  13.281  1.00  0.00     0.015 C 
HETATM   10  C18 UNL     1      -5.231   6.719  14.360  1.00  0.00    -0.029 C 
HETATM   11  C19 UNL     1      -4.764   6.127  15.723  1.00  0.00     0.016 C 
HETATM   12  C20 UNL     1      -1.014   6.186  13.337  1.00  0.00    -0.016 C 
HETATM   13  C21 UNL     1      -0.652   5.671  14.758  1.00  0.00     0.020 C 
HETATM   14  C22 UNL     1      -0.596   5.069  12.338  1.00  0.00     0.017 C 
HETATM   15  C23 UNL     1      -0.278   5.607  10.953  1.00  0.00     0.039 C 
HETATM   16  C24 UNL     1       0.951   6.558  10.941  1.00  0.00     0.061 C 
HETATM   17  C25 UNL     1       0.830   7.418   9.666  1.00  0.00     0.046 C 
HETATM   18  C26 UNL     1       1.105   7.401  12.289  1.00  0.00    -0.012 C 
HETATM   19  C27 UNL     1       2.116   6.752  13.264  1.00  0.00     0.018 C 
HETATM   20  C28 UNL     1       1.701   8.805  11.997  1.00  0.00     0.018 C 
HETATM   21  C29 UNL     1      -0.325   7.544  12.918  1.00  0.00     0.009 C 
HETATM   22  C30 UNL     1      -0.512   8.580  14.035  1.00  0.00     0.011 C 
HETATM   23  C31 UNL     1      -2.008   8.815  14.306  1.00  0.00     0.036 C 
ENDROOT
BRANCH   1  24
HETATM   24  C7  UNL     1      -7.776   6.357  15.098  1.00  0.00    -0.014 C 
HETATM   25  C8  UNL     1      -8.376   6.860  16.418  1.00  0.00     0.010 C 
BRANCH  24  26
HETATM   26  C6  UNL     1      -8.904   6.133  14.054  1.00  0.00     0.008 C 
BRANCH  26  27
HETATM   27  C5  UNL     1      -9.866   7.317  13.908  1.00  0.00     0.028 C 
BRANCH  27  28
HETATM   28  C4  UNL     1     -11.290   6.842  13.796  1.00  0.00    -0.025 C 
HETATM   29  C2  UNL     1     -12.340   7.493  13.258  1.00  0.00    -0.091 C 
HETATM   30  C1  UNL     1     -13.697   6.838  13.198  1.00  0.00     0.042 C 
HETATM   31  C3  UNL     1     -12.297   8.881  12.683  1.00  0.00     0.042 C 
ENDBRANCH  27  28
ENDBRANCH  26  27
ENDBRANCH  24  26
ENDBRANCH   1  24
BRANCH  16  32
HETATM   32  O1  UNL     1       2.131   5.756  10.766  1.00  0.00    -0.389 OA
HETATM   33  H41 UNL     1       2.051   5.277   9.925  1.00  0.00     0.210 HD
ENDBRANCH  16  32
TORSDOF 5
ENDMDL
