MODEL 1
REMARK minimizedAffinity -10.1151924
REMARK  8 active torsions:
REMARK  status: ('A' for Active; 'I' for Inactive)
REMARK    1  A    between atoms: C2_2  and  C3_3 
REMARK    2  A    between atoms: C2_2  and  C27_30 
REMARK    3  A    between atoms: C3_3  and  C4_4 
REMARK    4  A    between atoms: C4_4  and  C5_5 
REMARK    5  A    between atoms: C5_5  and  C7_7 
REMARK    6  A    between atoms: C26_28  and  O3_29 
REMARK    7  A    between atoms: C27_30  and  C29_32 
REMARK    8  A    between atoms: C29_32  and  O5_34 
ROOT
HETATM    1  C7  UNL     1       1.262   6.901  13.468  1.00  0.00    -0.002 C 
HETATM    2  C8  UNL     1       0.434   7.999  14.186  1.00  0.00     0.006 C 
HETATM    3  C9  UNL     1      -1.042   7.648  13.960  1.00  0.00     0.010 C 
HETATM    4  C10 UNL     1      -1.013   6.202  13.460  1.00  0.00     0.027 C 
HETATM    5  C11 UNL     1      -2.226   5.518  12.858  1.00  0.00    -0.036 C 
HETATM    6  C12 UNL     1      -2.072   4.417  12.076  1.00  0.00     0.002 C 
HETATM    7  C13 UNL     1      -0.668   3.996  11.675  1.00  0.00     0.157 C 
HETATM    8  O1  UNL     1      -0.488   3.044  10.915  1.00  0.00    -0.293 OA
HETATM    9  C14 UNL     1       0.538   4.727  12.239  1.00  0.00     0.093 C 
HETATM   10  C15 UNL     1       0.231   6.193  12.536  1.00  0.00    -0.026 C 
HETATM   11  C16 UNL     1      -0.003   6.951  11.210  1.00  0.00     0.016 C 
HETATM   12  C17 UNL     1      -3.256   3.564  11.567  1.00  0.00    -0.008 C 
HETATM   13  C18 UNL     1      -3.467   3.940  10.077  1.00  0.00     0.021 C 
HETATM   14  C19 UNL     1      -2.971   2.027  11.674  1.00  0.00     0.022 C 
HETATM   15  C20 UNL     1      -4.177   1.135  11.964  1.00  0.00     0.080 C 
HETATM   16  C21 UNL     1      -5.455   1.721  11.429  1.00  0.00     0.131 C 
HETATM   17  O2  UNL     1      -6.222   1.062  10.728  1.00  0.00    -0.298 OA
HETATM   18  C22 UNL     1      -5.796   3.136  11.868  1.00  0.00     0.056 C 
HETATM   19  C23 UNL     1      -6.933   3.062  12.886  1.00  0.00     0.018 C 
HETATM   20  C24 UNL     1      -4.538   3.847  12.428  1.00  0.00     0.012 C 
HETATM   21  C25 UNL     1      -4.770   5.348  12.586  1.00  0.00     0.042 C 
HETATM   22  C26 UNL     1      -3.586   6.033  13.266  1.00  0.00     0.148 C 
ENDROOT
BRANCH   1  23
HETATM   23  C5  UNL     1       2.652   7.391  12.966  1.00  0.00    -0.014 C 
HETATM   24  C6  UNL     1       3.503   8.145  13.991  1.00  0.00     0.010 C 
BRANCH  23  25
HETATM   25  C4  UNL     1       2.526   8.173  11.635  1.00  0.00     0.009 C 
BRANCH  25  26
HETATM   26  C3  UNL     1       3.568   7.799  10.561  1.00  0.00     0.034 C 
BRANCH  26  27
HETATM   27  C2  UNL     1       3.159   7.780   9.097  1.00  0.00    -0.075 C 
HETATM   28  C1  UNL     1       3.304   8.838   8.278  1.00  0.00     0.015 C 
BRANCH  27  29
HETATM   29  C27 UNL     1       2.503   6.504   8.569  1.00  0.00     0.107 C 
HETATM   30  C28 UNL     1       2.009   6.626   7.128  1.00  0.00     0.026 C 
BRANCH  29  31
HETATM   31  C29 UNL     1       3.448   5.315   8.695  1.00  0.00     0.147 C 
HETATM   32  O4  UNL     1       3.441   4.295   8.024  1.00  0.00    -0.650 OA
BRANCH  31  33
HETATM   33  O5  UNL     1       4.365   5.477   9.671  1.00  0.00    -0.776 OA
HETATM   34  H42 UNL     1       4.908   4.663   9.620  1.00  0.00     0.167 HD
ENDBRANCH  31  33
ENDBRANCH  29  31
ENDBRANCH  27  29
ENDBRANCH  26  27
ENDBRANCH  25  26
ENDBRANCH  23  25
ENDBRANCH   1  23
BRANCH  22  35
HETATM   35  O3  UNL     1      -3.683   7.416  12.946  1.00  0.00    -0.391 OA
HETATM   36  H37 UNL     1      -4.516   7.747  13.321  1.00  0.00     0.210 HD
ENDBRANCH  22  35
TORSDOF 8
ENDMDL
