MODEL 1
REMARK minimizedAffinity -8.84542084
REMARK CNNscore 0.75284797
REMARK CNNaffinity 7.20625162
REMARK  11 active torsions:
REMARK  status: ('A' for Active; 'I' for Inactive)
REMARK    1  A    between atoms: C2_2  and  O2_4 
REMARK    2  A    between atoms: O2_4  and  C3_5 
REMARK    3  A    between atoms: C4_6  and  O3_7 
REMARK    4  A    between atoms: O3_7  and  C5_8 
REMARK    5  A    between atoms: C15_18  and  C16_19 
REMARK    6  A    between atoms: C20_23  and  C21_24 
REMARK    7  A    between atoms: C21_24  and  O4_27 
REMARK    8  A    between atoms: C24_29  and  O6_30 
REMARK    9  A    between atoms: C30_36  and  O7_37 
REMARK   10  A    between atoms: C36_44  and  O9_45 
REMARK   11  A    between atoms: C37_46  and  O10_47 
ROOT
HETATM    1  C5  UNL     1      -1.573  51.095 -12.465  1.00  0.00     0.133 C 
HETATM    2  C6  UNL     1      -0.207  50.592 -11.973  1.00  0.00     0.034 C 
HETATM    3  C7  UNL     1       0.318  51.274 -10.716  1.00  0.00     0.013 C 
HETATM    4  C8  UNL     1       0.058  52.763 -10.723  1.00  0.00    -0.025 A 
HETATM    5  C9  UNL     1       1.123  53.607 -11.378  1.00  0.00     0.021 A 
HETATM    6  C10 UNL     1       0.952  53.717  -9.871  1.00  0.00    -0.027 A 
HETATM    7  C11 UNL     1       2.050  53.050  -9.013  1.00  0.00     0.011 C 
HETATM    8  C12 UNL     1       2.854  53.892  -8.007  1.00  0.00     0.011 C 
HETATM    9  C13 UNL     1       2.518  55.380  -8.011  1.00  0.00    -0.028 C 
HETATM   10  C14 UNL     1       3.197  56.013  -9.259  1.00  0.00     0.016 C 
HETATM   11  C15 UNL     1       2.884  56.159  -6.697  1.00  0.00     0.057 C 
HETATM   12  C24 UNL     1       1.926  57.380  -6.734  1.00  0.00     0.126 C 
HETATM   13  C25 UNL     1       0.788  57.030  -7.720  1.00  0.00     0.042 C 
HETATM   14  C26 UNL     1       0.947  55.523  -8.020  1.00  0.00    -0.029 C 
HETATM   15  C27 UNL     1       0.224  54.738  -6.879  1.00  0.00     0.016 C 
HETATM   16  C28 UNL     1       0.387  55.082  -9.400  1.00  0.00     0.006 C 
HETATM   17  C29 UNL     1      -1.144  55.242  -9.557  1.00  0.00     0.038 C 
HETATM   18  C30 UNL     1      -1.942  53.954  -9.746  1.00  0.00     0.124 C 
HETATM   19  C31 UNL     1      -1.411  53.159 -10.956  1.00  0.00     0.034 C 
HETATM   20  C32 UNL     1      -2.336  51.972 -11.426  1.00  0.00    -0.015 C 
HETATM   21  C33 UNL     1      -3.590  52.575 -12.122  1.00  0.00     0.018 C 
HETATM   22  C34 UNL     1      -2.887  51.077 -10.293  1.00  0.00     0.018 C 
ENDROOT
BRANCH   1  23
HETATM   23  O3  UNL     1      -1.379  51.874 -13.659  1.00  0.00    -0.352 OA
BRANCH  23  24
HETATM   24  C4  UNL     1      -1.484  51.111 -14.875  1.00  0.00     0.292 C 
HETATM   25  C3  UNL     1      -0.114  50.440 -15.109  1.00  0.00     0.218 C 
HETATM   26  C37 UNL     1      -0.141  49.511 -16.341  1.00  0.00     0.183 C 
HETATM   27  C36 UNL     1      -1.557  49.035 -16.679  1.00  0.00     0.173 C 
HETATM   28  C35 UNL     1      -2.382  48.931 -15.399  1.00  0.00     0.205 C 
HETATM   29  O8  UNL     1      -2.574  50.197 -14.765  1.00  0.00    -0.356 OA
BRANCH  25  30
HETATM   30  O2  UNL     1       0.875  51.493 -15.299  1.00  0.00    -0.309 OA
BRANCH  30  31
HETATM   31  C2  UNL     1       1.052  51.951 -16.559  1.00  0.00     0.255 C 
HETATM   32  C1  UNL     1       2.422  52.534 -16.728  1.00  0.00     0.126 C 
HETATM   33  O1  UNL     1       0.197  51.941 -17.434  1.00  0.00    -0.266 OA
ENDBRANCH  30  31
ENDBRANCH  25  30
BRANCH  26  34
HETATM   34  O10 UNL     1       0.671  48.351 -16.079  1.00  0.00    -0.390 OA
HETATM   35  H60 UNL     1       1.557  48.686 -15.804  1.00  0.00     0.210 HD
ENDBRANCH  26  34
BRANCH  27  36
HETATM   36  O9  UNL     1      -2.165  49.975 -17.576  1.00  0.00    -0.391 OA
HETATM   37  H58 UNL     1      -3.086  49.689 -17.710  1.00  0.00     0.210 HD
ENDBRANCH  27  36
ENDBRANCH  23  24
ENDBRANCH   1  23
BRANCH  18  38
HETATM   38  O7  UNL     1      -1.937  53.192  -8.544  1.00  0.00    -0.395 OA
HETATM   39  H47 UNL     1      -1.056  52.791  -8.463  1.00  0.00     0.210 HD
ENDBRANCH  18  38
BRANCH  11  40
HETATM   40  C16 UNL     1       4.355  56.404  -6.230  1.00  0.00     0.065 C 
HETATM   41  C17 UNL     1       4.654  57.705  -5.487  1.00  0.00     0.046 C 
HETATM   42  C18 UNL     1       4.902  55.212  -5.418  1.00  0.00     0.041 C 
HETATM   43  C19 UNL     1       5.394  54.260  -6.480  1.00  0.00     0.038 C 
HETATM   44  C20 UNL     1       5.970  55.222  -7.509  1.00  0.00     0.156 C 
HETATM   45  O5  UNL     1       5.171  56.425  -7.434  1.00  0.00    -0.372 OA
BRANCH  44  46
HETATM   46  C21 UNL     1       6.040  54.672  -8.954  1.00  0.00     0.076 C 
HETATM   47  C22 UNL     1       5.288  55.591  -9.919  1.00  0.00     0.048 C 
HETATM   48  C23 UNL     1       5.470  53.251  -9.022  1.00  0.00     0.048 C 
BRANCH  46  49
HETATM   49  O4  UNL     1       7.406  54.625  -9.393  1.00  0.00    -0.388 OA
HETATM   50  H35 UNL     1       7.435  54.155 -10.243  1.00  0.00     0.210 HD
ENDBRANCH  46  49
ENDBRANCH  44  46
ENDBRANCH  11  40
BRANCH  12  51
HETATM   51  O6  UNL     1       2.574  58.572  -7.145  1.00  0.00    -0.395 OA
HETATM   52  H37 UNL     1       1.905  59.274  -7.207  1.00  0.00     0.210 HD
ENDBRANCH  12  51
TORSDOF 11
ENDMDL
