MODEL 1
REMARK minimizedAffinity -9.20385361
REMARK  11 active torsions:
REMARK  status: ('A' for Active; 'I' for Inactive)
REMARK    1  A    between atoms: C1_2  and  C2_3 
REMARK    2  A    between atoms: C1_2  and  O4_13 
REMARK    3  A    between atoms: C3_4  and  C4_5 
REMARK    4  A    between atoms: C7_8  and  O2_9 
REMARK    5  A    between atoms: C8_10  and  O3_11 
REMARK    6  A    between atoms: O4_13  and  C10_14 
REMARK    7  A    between atoms: C12_16  and  O5_17 
REMARK    8  A    between atoms: C12_16  and  C13_18 
REMARK    9  A    between atoms: C13_18  and  O7_20 
REMARK   10  A    between atoms: C15_22  and  O8_23 
REMARK   11  A    between atoms: C16_24  and  O9_25 
ROOT
HETATM    1  C10 UNL     1      -7.519   5.763  13.963  1.00  0.00     0.166 C 
HETATM    2  C11 UNL     1      -8.970   6.213  13.760  1.00  0.00     0.084 C 
HETATM    3  C12 UNL     1      -9.482   7.056  14.929  1.00  0.00     0.147 C 
HETATM    4  C14 UNL     1      -8.570   8.262  15.188  1.00  0.00     0.083 C 
HETATM    5  C15 UNL     1      -7.117   7.837  15.399  1.00  0.00     0.152 C 
HETATM    6  C16 UNL     1      -6.599   6.964  14.246  1.00  0.00     0.176 C 
ENDROOT
BRANCH   1   7
HETATM    7  O4  UNL     1      -7.053   5.127  12.748  1.00  0.00    -0.310 OA
BRANCH   7   8
HETATM    8  C1  UNL     1      -7.134   3.776  12.719  1.00  0.00     0.283 C 
HETATM    9  O1  UNL     1      -8.119   3.099  12.964  1.00  0.00    -0.260 OA
BRANCH   8  10
HETATM   10  C2  UNL     1      -5.815   3.249  12.317  1.00  0.00     0.083 C 
HETATM   11  C3  UNL     1      -4.708   3.968  12.553  1.00  0.00     0.017 C 
BRANCH  11  12
HETATM   12  C4  UNL     1      -3.355   3.539  12.177  1.00  0.00    -0.033 A 
HETATM   13  C5  UNL     1      -2.238   4.383  12.310  1.00  0.00     0.014 A 
HETATM   14  C6  UNL     1      -0.968   3.954  11.916  1.00  0.00     0.040 A 
HETATM   15  C7  UNL     1      -0.818   2.684  11.382  1.00  0.00     0.098 A 
HETATM   16  C8  UNL     1      -1.915   1.841  11.232  1.00  0.00     0.099 A 
HETATM   17  C9  UNL     1      -3.185   2.262  11.620  1.00  0.00     0.050 A 
BRANCH  15  18
HETATM   18  O2  UNL     1       0.423   2.265  10.997  1.00  0.00    -0.358 OA
HETATM   19  H5  UNL     1       0.280   1.358  10.659  1.00  0.00     0.217 HD
ENDBRANCH  15  18
BRANCH  16  20
HETATM   20  O3  UNL     1      -1.695   0.603  10.693  1.00  0.00    -0.358 OA
HETATM   21  H6  UNL     1      -2.545   0.130  10.663  1.00  0.00     0.217 HD
ENDBRANCH  16  20
ENDBRANCH  11  12
ENDBRANCH   8  10
ENDBRANCH   7   8
ENDBRANCH   1   7
BRANCH   6  22
HETATM   22  O9  UNL     1      -5.285   6.493  14.584  1.00  0.00    -0.390 OA
HETATM   23  H18 UNL     1      -5.304   6.339  15.551  1.00  0.00     0.210 HD
ENDBRANCH   6  22
BRANCH   3  24
HETATM   24  O5  UNL     1      -9.467   6.247  16.115  1.00  0.00    -0.379 OA
HETATM   25  H11 UNL     1     -10.313   5.750  16.107  1.00  0.00     0.211 HD
ENDBRANCH   3  24
BRANCH   3  26
HETATM   26  C13 UNL     1     -10.905   7.537  14.609  1.00  0.00     0.176 C 
HETATM   27  O6  UNL     1     -11.237   8.632  14.189  1.00  0.00    -0.648 OA
BRANCH  26  28
HETATM   28  O7  UNL     1     -11.822   6.562  14.808  1.00  0.00    -0.774 OA
HETATM   29  H12 UNL     1     -12.676   6.983  14.568  1.00  0.00     0.167 HD
ENDBRANCH  26  28
ENDBRANCH   3  26
BRANCH   5  30
HETATM   30  O8  UNL     1      -6.965   7.112  16.630  1.00  0.00    -0.393 OA
HETATM   31  H16 UNL     1      -7.804   6.628  16.797  1.00  0.00     0.210 HD
ENDBRANCH   5  30
TORSDOF 11
ENDMDL
