MODEL 1
REMARK minimizedAffinity -7.79973984
REMARK CNNscore 0.741511464
REMARK CNNaffinity 6.66304255
REMARK  5 active torsions:
REMARK  status: ('A' for Active; 'I' for Inactive)
REMARK    1  A    between atoms: C2_2  and  C4_4 
REMARK    2  A    between atoms: C10_11  and  O2_12 
REMARK    3  A    between atoms: C13_15  and  O3_16 
REMARK    4  A    between atoms: C32_38  and  O5_39 
REMARK    5  A    between atoms: C37_45  and  O7_46 
ROOT
HETATM    1  C4  UNL     1     -12.269  -9.702  16.536  1.00  0.00     0.181 C 
HETATM    2  O1  UNL     1     -12.988  -9.481  15.301  1.00  0.00    -0.370 OA
HETATM    3  C5  UNL     1     -12.339  -8.471  14.513  1.00  0.00     0.163 C 
HETATM    4  C6  UNL     1     -12.943  -8.433  13.102  1.00  0.00     0.036 C 
HETATM    5  C7  UNL     1     -14.212  -7.595  12.923  1.00  0.00     0.016 C 
HETATM    6  C8  UNL     1     -14.304  -6.312  13.821  1.00  0.00     0.006 C 
HETATM    7  C9  UNL     1     -15.296  -6.718  14.953  1.00  0.00     0.020 C 
HETATM    8  C10 UNL     1     -12.878  -5.955  14.457  1.00  0.00     0.102 C 
HETATM    9  C11 UNL     1     -12.875  -4.617  15.259  1.00  0.00     0.045 C 
HETATM   10  C12 UNL     1     -13.469  -3.395  14.509  1.00  0.00     0.045 C 
HETATM   11  C13 UNL     1     -14.844  -3.760  13.966  1.00  0.00     0.102 C 
HETATM   12  C14 UNL     1     -15.698  -2.676  13.166  1.00  0.00     0.194 C 
HETATM   13  O4  UNL     1     -16.274  -1.828  14.156  1.00  0.00    -0.367 OA
HETATM   14  C15 UNL     1     -16.787  -0.537  13.795  1.00  0.00     0.061 C 
HETATM   15  C16 UNL     1     -17.066   0.114  15.169  1.00  0.00     0.046 C 
HETATM   16  C17 UNL     1     -15.735   0.331  13.102  1.00  0.00     0.046 C 
HETATM   17  C18 UNL     1     -18.129  -0.666  13.053  1.00  0.00     0.060 C 
HETATM   18  C19 UNL     1     -18.932   0.611  12.731  1.00  0.00     0.023 C 
HETATM   19  C20 UNL     1     -19.436  -0.025  11.420  1.00  0.00     0.054 C 
HETATM   20  C21 UNL     1     -20.809  -0.619  11.337  1.00  0.00    -0.077 C 
HETATM   21  C22 UNL     1     -21.847  -0.033  11.969  1.00  0.00     0.015 C 
HETATM   22  C23 UNL     1     -20.955  -1.849  10.449  1.00  0.00     0.074 C 
HETATM   23  C24 UNL     1     -19.988  -2.970  10.786  1.00  0.00    -0.022 C 
HETATM   24  C25 UNL     1     -20.256  -4.316  10.501  1.00  0.00     0.043 C 
HETATM   25 CL1  UNL     1     -21.727  -4.802   9.732  1.00  0.00    -0.084 Cl
HETATM   26  C26 UNL     1     -19.334  -5.324  10.809  1.00  0.00     0.054 C 
HETATM   27  C27 UNL     1     -18.154  -4.949  11.469  1.00  0.00     0.045 A 
HETATM   28  N1  UNL     1     -17.088  -5.731  11.905  1.00  0.00    -0.357 N 
HETATM   29  C28 UNL     1     -16.173  -4.914  12.470  1.00  0.00     0.032 A 
HETATM   30  C29 UNL     1     -16.648  -3.621  12.480  1.00  0.00     0.010 A 
HETATM   31  C30 UNL     1     -17.862  -3.607  11.774  1.00  0.00     0.011 A 
HETATM   32  C31 UNL     1     -18.745  -2.596  11.350  1.00  0.00    -0.001 C 
HETATM   33  C32 UNL     1     -18.281  -1.098  11.546  1.00  0.00     0.100 C 
HETATM   34  C33 UNL     1     -14.779  -5.044  13.003  1.00  0.00     0.043 C 
HETATM   35  C34 UNL     1     -13.869  -4.733  11.762  1.00  0.00     0.026 C 
HETATM   36  C35 UNL     1     -12.392  -7.154  15.253  1.00  0.00     0.147 A 
HETATM   37  O6  UNL     1     -11.202  -6.931  16.053  1.00  0.00    -0.360 OA
HETATM   38  C36 UNL     1     -12.404  -7.183  16.773  1.00  0.00     0.194 A 
HETATM   39  C37 UNL     1     -12.528  -8.495  17.481  1.00  0.00     0.183 C 
HETATM   40  H37 UNL     1     -17.008  -6.732  11.787  1.00  0.00     0.166 HD
ENDROOT
BRANCH   1  41
HETATM   41  C2  UNL     1     -12.680 -11.041  17.149  1.00  0.00    -0.062 C 
HETATM   42  C1  UNL     1     -13.721 -11.774  16.726  1.00  0.00     0.016 C 
HETATM   43  C3  UNL     1     -11.821 -11.502  18.300  1.00  0.00     0.045 C 
ENDBRANCH   1  41
BRANCH  39  44
HETATM   44  O7  UNL     1     -13.848  -8.532  18.022  1.00  0.00    -0.390 OA
HETATM   45  H44 UNL     1     -14.442  -8.832  17.314  1.00  0.00     0.210 HD
ENDBRANCH  39  44
BRANCH   8  46
HETATM   46  O2  UNL     1     -11.925  -5.787  13.388  1.00  0.00    -0.386 OA
HETATM   47  H15 UNL     1     -11.285  -5.092  13.642  1.00  0.00     0.210 HD
ENDBRANCH   8  46
BRANCH  11  48
HETATM   48  O3  UNL     1     -15.629  -4.057  15.157  1.00  0.00    -0.386 OA
HETATM   49  H20 UNL     1     -15.867  -3.185  15.558  1.00  0.00     0.210 HD
ENDBRANCH  11  48
BRANCH  33  50
HETATM   50  O5  UNL     1     -17.172  -0.765  10.669  1.00  0.00    -0.384 OA
HETATM   51  H38 UNL     1     -16.682  -1.594  10.562  1.00  0.00     0.211 HD
ENDBRANCH  33  50
TORSDOF 5
ENDMDL
