MODEL 1
REMARK minimizedAffinity -9.15955257
REMARK  4 active torsions:
REMARK  status: ('A' for Active; 'I' for Inactive)
REMARK    1  A    between atoms: C2_2  and  C4_4 
REMARK    2  A    between atoms: C4_4  and  C5_5 
REMARK    3  A    between atoms: C5_5  and  O1_6 
REMARK    4  A    between atoms: C8_9  and  C9_10 
ROOT
HETATM    1  C9  UNL     1      -3.819   8.233  13.132  1.00  0.00     0.001 C 
HETATM    2  C10 UNL     1      -3.419   9.573  13.805  1.00  0.00     0.007 C 
HETATM    3  C11 UNL     1      -1.881   9.610  13.855  1.00  0.00     0.011 C 
HETATM    4  C12 UNL     1      -1.417   8.488  12.906  1.00  0.00    -0.032 C 
HETATM    5  C13 UNL     1      -1.433   9.090  11.465  1.00  0.00     0.016 C 
HETATM    6  C14 UNL     1      -0.016   7.908  13.231  1.00  0.00     0.004 C 
HETATM    7  C15 UNL     1       1.139   8.871  12.931  1.00  0.00     0.007 C 
HETATM    8  C16 UNL     1       2.453   8.252  13.390  1.00  0.00     0.007 C 
HETATM    9  C17 UNL     1       2.874   7.069  12.494  1.00  0.00     0.010 C 
HETATM   10  C18 UNL     1       3.623   7.470  11.160  1.00  0.00     0.018 C 
HETATM   11  C19 UNL     1       4.890   6.601  10.968  1.00  0.00     0.023 C 
HETATM   12  C20 UNL     1       4.126   8.931  11.121  1.00  0.00     0.023 C 
HETATM   13  C21 UNL     1       2.706   7.233   9.952  1.00  0.00     0.135 C 
HETATM   14  O2  UNL     1       2.516   8.094   9.090  1.00  0.00    -0.297 OA
HETATM   15  C22 UNL     1       2.088   5.863   9.785  1.00  0.00     0.080 C 
HETATM   16  C23 UNL     1       1.947   5.132  11.107  1.00  0.00     0.018 C 
HETATM   17  C24 UNL     1       1.682   6.101  12.241  1.00  0.00    -0.026 A 
HETATM   18  C25 UNL     1       0.981   5.519  13.441  1.00  0.00     0.021 A 
HETATM   19  C26 UNL     1       0.220   6.521  12.585  1.00  0.00    -0.027 A 
HETATM   20  C27 UNL     1      -0.917   5.952  11.722  1.00  0.00     0.011 C 
HETATM   21  C28 UNL     1      -2.368   6.308  12.097  1.00  0.00     0.011 C 
HETATM   22  C29 UNL     1      -2.506   7.387  13.177  1.00  0.00    -0.032 C 
HETATM   23  C30 UNL     1      -2.363   6.686  14.555  1.00  0.00     0.016 C 
ENDROOT
BRANCH   1  24
HETATM   24  C8  UNL     1      -5.191   7.683  13.604  1.00  0.00     0.014 C 
HETATM   25  C7  UNL     1      -5.997   8.557  14.580  1.00  0.00     0.010 C 
HETATM   26  C6  UNL     1      -6.752   7.719  15.610  1.00  0.00     0.041 C 
HETATM   27  C4  UNL     1      -7.404   6.453  15.001  1.00  0.00     0.085 C 
HETATM   28  O3  UNL     1      -6.445   5.684  14.233  1.00  0.00    -0.377 OA
HETATM   29  C31 UNL     1      -5.136   6.235  14.096  1.00  0.00     0.174 C 
BRANCH  27  30
HETATM   30  C2  UNL     1      -8.568   6.808  14.006  1.00  0.00     0.014 C 
HETATM   31  C1  UNL     1      -9.933   7.061  14.652  1.00  0.00     0.012 C 
HETATM   32  C3  UNL     1      -8.736   5.771  12.883  1.00  0.00     0.012 C 
ENDBRANCH  27  30
BRANCH  27  33
HETATM   33  C5  UNL     1      -7.855   5.514  16.153  1.00  0.00     0.202 C 
BRANCH  33  34
HETATM   34  O1  UNL     1      -7.892   4.138  15.797  1.00  0.00    -0.398 OA
HETATM   35  H10 UNL     1      -8.685   3.996  15.255  1.00  0.00     0.209 HD
ENDBRANCH  33  34
ENDBRANCH  27  33
ENDBRANCH   1  24
TORSDOF 4
ENDMDL
