MODEL 1
REMARK minimizedAffinity -8.2395792
REMARK CNNscore 0.567007661
REMARK CNNaffinity 6.49128675
REMARK  10 active torsions:
REMARK  status: ('A' for Active; 'I' for Inactive)
REMARK    1  A    between atoms: C2_2  and  C3_3 
REMARK    2  A    between atoms: C2_2  and  C9_11 
REMARK    3  A    between atoms: C3_3  and  C4_4 
REMARK    4  A    between atoms: C4_4  and  C5_5 
REMARK    5  A    between atoms: C5_5  and  O1_6 
REMARK    6  A    between atoms: C5_5  and  C6_7 
REMARK    7  A    between atoms: C6_7  and  O2_10 
REMARK    8  A    between atoms: C12_14  and  C13_15 
REMARK    9  A    between atoms: C13_15  and  O4_17 
REMARK   10  A    between atoms: C21_25  and  O5_26 
ROOT
HETATM    1  C9  UNL     1       7.624   9.423  15.962  1.00  0.00    -0.001 C 
HETATM    2  C10 UNL     1       6.783  10.710  16.179  1.00  0.00     0.007 C 
HETATM    3  C11 UNL     1       5.702  10.730  15.069  1.00  0.00     0.022 C 
HETATM    4  C12 UNL     1       5.744   9.311  14.459  1.00  0.00     0.057 C 
HETATM    5  C14 UNL     1       5.205   9.122  13.013  1.00  0.00     0.010 C 
HETATM    6  C15 UNL     1       3.745   9.561  12.804  1.00  0.00     0.010 C 
HETATM    7  C16 UNL     1       2.693   8.450  12.838  1.00  0.00     0.036 C 
HETATM    8  C17 UNL     1       2.535   7.646  11.552  1.00  0.00    -0.067 C 
HETATM    9  C18 UNL     1       3.577   7.293  10.757  1.00  0.00    -0.076 C 
HETATM   10  C19 UNL     1       3.386   6.609   9.411  1.00  0.00     0.037 C 
HETATM   11  C20 UNL     1       1.950   6.535   8.913  1.00  0.00     0.037 C 
HETATM   12  C21 UNL     1       0.996   6.210  10.051  1.00  0.00     0.130 C 
HETATM   13  C22 UNL     1       1.067   7.279  11.189  1.00  0.00     0.002 C 
HETATM   14  C23 UNL     1       0.306   6.714  12.414  1.00  0.00     0.022 C 
HETATM   15  C24 UNL     1       0.341   8.557  10.706  1.00  0.00     0.022 C 
HETATM   16  C25 UNL     1       5.061   7.472  11.061  1.00  0.00     0.039 C 
HETATM   17  C26 UNL     1       5.493   7.674  12.527  1.00  0.00    -0.005 C 
HETATM   18  C27 UNL     1       6.988   7.284  12.683  1.00  0.00     0.006 C 
HETATM   19  C28 UNL     1       7.608   7.606  14.054  1.00  0.00     0.011 C 
HETATM   20  C29 UNL     1       7.303   9.050  14.485  1.00  0.00    -0.022 C 
HETATM   21  C30 UNL     1       8.120   9.976  13.528  1.00  0.00     0.017 C 
ENDROOT
BRANCH   1  22
HETATM   22  C2  UNL     1       9.115   9.453  16.414  1.00  0.00    -0.014 C 
HETATM   23  C1  UNL     1       9.658   8.014  16.446  1.00  0.00     0.010 C 
BRANCH  22  24
HETATM   24  C3  UNL     1       9.387  10.146  17.771  1.00  0.00     0.007 C 
BRANCH  24  25
HETATM   25  C4  UNL     1      10.306  11.383  17.673  1.00  0.00     0.035 C 
BRANCH  25  26
HETATM   26  C5  UNL     1      11.577  11.267  18.538  1.00  0.00     0.151 C 
BRANCH  26  27
HETATM   27  O1  UNL     1      11.561   9.985  19.192  1.00  0.00    -0.393 OA
HETATM   28  H10 UNL     1      10.691   9.909  19.623  1.00  0.00     0.210 HD
ENDBRANCH  26  27
BRANCH  26  29
HETATM   29  C6  UNL     1      11.722  12.369  19.626  1.00  0.00     0.076 C 
HETATM   30  C7  UNL     1      10.567  12.368  20.629  1.00  0.00     0.048 C 
HETATM   31  C8  UNL     1      11.825  13.757  18.976  1.00  0.00     0.048 C 
BRANCH  29  32
HETATM   32  O2  UNL     1      12.932  12.137  20.366  1.00  0.00    -0.388 OA
HETATM   33  H17 UNL     1      13.669  12.456  19.815  1.00  0.00     0.210 HD
ENDBRANCH  29  32
ENDBRANCH  26  29
ENDBRANCH  25  26
ENDBRANCH  24  25
ENDBRANCH  22  24
ENDBRANCH   1  22
BRANCH   4  34
HETATM   34  C13 UNL     1       4.926   8.384  15.403  1.00  0.00     0.149 C 
HETATM   35  O3  UNL     1       3.934   8.664  16.055  1.00  0.00    -0.649 OA
BRANCH  34  36
HETATM   36  O4  UNL     1       5.436   7.140  15.525  1.00  0.00    -0.776 OA
HETATM   37  H23 UNL     1       4.825   6.703  16.155  1.00  0.00     0.167 HD
ENDBRANCH  34  36
ENDBRANCH   4  34
BRANCH  12  38
HETATM   38  O5  UNL     1       1.287   4.894  10.539  1.00  0.00    -0.394 OA
HETATM   39  H34 UNL     1       2.127   4.945  11.031  1.00  0.00     0.210 HD
ENDBRANCH  12  38
TORSDOF 10
ENDMDL
