MODEL 1
REMARK minimizedAffinity -7.92263317
REMARK  5 active torsions:
REMARK  status: ('A' for Active; 'I' for Inactive)
REMARK    1  A    between atoms: O1_2  and  C2_3 
REMARK    2  A    between atoms: C2_3  and  C3_4 
REMARK    3  A    between atoms: C3_4  and  C4_5 
REMARK    4  A    between atoms: C7_8  and  C8_9 
REMARK    5  A    between atoms: C12_15  and  N2_16 
ROOT
HETATM    1  C8  UNL     1       0.201  52.174 -21.344  1.00  0.00     0.092 A 
HETATM    2  C9  UNL     1       0.912  53.153 -22.024  1.00  0.00     0.036 A 
HETATM    3  C10 UNL     1       1.828  54.188 -21.490  1.00  0.00     0.070 C 
HETATM    4  N1  UNL     1       0.668  53.092 -23.374  1.00  0.00    -0.341 N 
ATOM      5  H1  UNL     1       1.067  53.692 -24.096  1.00  0.00     0.167 HD
HETATM    6  C11 UNL     1      -0.188  52.100 -23.547  1.00  0.00     0.154 A 
HETATM    7  C12 UNL     1      -0.791  51.571 -24.747  1.00  0.00     0.078 A 
HETATM    8  C17 UNL     1      -1.608  50.514 -24.576  1.00  0.00     0.052 A 
HETATM    9  C18 UNL     1      -1.839  49.984 -23.220  1.00  0.00     0.110 A 
HETATM   10  N3  UNL     1      -1.328  50.435 -22.124  1.00  0.00    -0.303 N 
ATOM     11  H3  UNL     1      -1.521  50.038 -21.204  1.00  0.00     0.186 HD
HETATM   12  N4  UNL     1      -0.499  51.503 -22.332  1.00  0.00    -0.235 N 
ENDROOT
BRANCH   1  13
HETATM   13  C7  UNL     1       0.157  51.842 -19.921  1.00  0.00     0.010 A 
HETATM   14  C6  UNL     1      -0.364  50.633 -19.462  1.00  0.00     0.017 A 
HETATM   15  C5  UNL     1      -0.408  50.366 -18.093  1.00  0.00     0.026 A 
HETATM   16  C4  UNL     1       0.062  51.326 -17.199  1.00  0.00     0.011 A 
HETATM   17  N5  UNL     1       0.593  52.499 -17.619  1.00  0.00    -0.368 N 
HETATM   18  C19 UNL     1       0.621  52.728 -18.956  1.00  0.00     0.102 A 
ATOM     19  H5  UNL     1       0.956  53.183 -16.956  1.00  0.00     0.165 HD
BRANCH  16  20
HETATM   20  C3  UNL     1       0.055  51.075 -15.710  1.00  0.00     0.083 C 
BRANCH  20  21
HETATM   21  C2  UNL     1       0.915  52.051 -14.906  1.00  0.00     0.173 C 
BRANCH  21  22
HETATM   22  O1  UNL     1       0.148  52.638 -13.855  1.00  0.00    -0.396 OA
HETATM   23  C1  UNL     1      -1.008  51.873 -13.548  1.00  0.00     0.201 C 
ENDBRANCH  21  22
ENDBRANCH  20  21
ENDBRANCH  16  20
ENDBRANCH   1  13
BRANCH   7  24
HETATM   24  N2  UNL     1      -0.549  52.127 -26.021  1.00  0.00    -0.374 N 
HETATM   25  C13 UNL     1      -0.058  53.517 -26.195  1.00  0.00     0.149 C 
HETATM   26  C14 UNL     1      -0.392  54.038 -27.602  1.00  0.00     0.187 C 
HETATM   27  O2  UNL     1       0.173  53.262 -28.668  1.00  0.00    -0.388 OA
HETATM   28  C15 UNL     1       0.411  51.898 -28.300  1.00  0.00     0.187 C 
HETATM   29  C16 UNL     1      -0.599  51.353 -27.280  1.00  0.00     0.149 C 
ENDBRANCH   7  24
TORSDOF 5
ENDMDL
