MODEL 1
REMARK minimizedAffinity -9.50294113
REMARK  10 active torsions:
REMARK  status: ('A' for Active; 'I' for Inactive)
REMARK    1  A    between atoms: C5_5  and  C6_6 
REMARK    2  A    between atoms: C6_6  and  C8_8 
REMARK    3  A    between atoms: C8_8  and  O1_9 
REMARK    4  A    between atoms: O1_9  and  C9_10 
REMARK    5  A    between atoms: C15_18  and  O4_20 
REMARK    6  A    between atoms: C17_21  and  O5_22 
REMARK    7  A    between atoms: C20_25  and  O6_27 
REMARK    8  A    between atoms: O6_27  and  C22_28 
REMARK    9  A    between atoms: C22_28  and  C23_30 
REMARK   10  A    between atoms: C23_30  and  C24_31 
ROOT
HETATM    1  C1  UNL     1      -4.205  48.379 -27.967  1.00  0.00     0.015 C 
HETATM    2  C2  UNL     1      -3.577  49.287 -27.201  1.00  0.00    -0.082 C 
HETATM    3  C3  UNL     1      -3.097  50.586 -27.781  1.00  0.00     0.034 C 
HETATM    4  C4  UNL     1      -1.630  50.813 -27.421  1.00  0.00     0.010 C 
HETATM    5  C5  UNL     1      -1.487  51.018 -25.902  1.00  0.00    -0.001 C 
HETATM    6  C11 UNL     1      -2.021  49.781 -25.141  1.00  0.00     0.033 C 
HETATM    7  C12 UNL     1      -2.405  49.909 -23.631  1.00  0.00     0.162 C 
HETATM    8  O3  UNL     1      -3.542  49.046 -23.529  1.00  0.00    -0.376 OA
HETATM    9  C13 UNL     1      -4.304  49.241 -24.725  1.00  0.00     0.133 C 
HETATM   10  C14 UNL     1      -5.495  48.316 -24.596  1.00  0.00     0.072 C 
HETATM   11  C15 UNL     1      -6.494  48.823 -23.507  1.00  0.00     0.082 C 
HETATM   12  C16 UNL     1      -7.517  47.696 -23.264  1.00  0.00     0.049 C 
HETATM   13  C17 UNL     1      -5.880  49.260 -22.113  1.00  0.00     0.152 C 
HETATM   14  C18 UNL     1      -5.250  50.688 -22.020  1.00  0.00     0.038 C 
HETATM   15  C19 UNL     1      -3.747  50.874 -21.650  1.00  0.00     0.043 C 
HETATM   16  C20 UNL     1      -2.745  51.223 -22.822  1.00  0.00     0.093 C 
HETATM   17  C21 UNL     1      -3.274  52.422 -23.622  1.00  0.00     0.049 C 
HETATM   18  C26 UNL     1      -3.227  48.997 -25.766  1.00  0.00     0.050 C 
ENDROOT
BRANCH   5  19
HETATM   19  C6  UNL     1      -0.045  51.397 -25.432  1.00  0.00     0.010 C 
HETATM   20  C7  UNL     1       1.062  50.877 -26.358  1.00  0.00     0.012 C 
BRANCH  19  21
HETATM   21  C8  UNL     1       0.129  52.911 -25.186  1.00  0.00     0.183 C 
BRANCH  21  22
HETATM   22  O1  UNL     1       0.781  53.561 -26.285  1.00  0.00    -0.321 OA
BRANCH  22  23
HETATM   23  C9  UNL     1       0.133  54.614 -26.849  1.00  0.00     0.254 C 
HETATM   24  C10 UNL     1      -0.619  54.154 -28.060  1.00  0.00     0.126 C 
HETATM   25  O2  UNL     1       0.142  55.765 -26.439  1.00  0.00    -0.266 OA
ENDBRANCH  22  23
ENDBRANCH  21  22
ENDBRANCH  19  21
ENDBRANCH   5  19
BRANCH  16  26
HETATM   26  O6  UNL     1      -1.439  51.583 -22.242  1.00  0.00    -0.308 OA
BRANCH  26  27
HETATM   27  C22 UNL     1      -0.754  50.755 -21.407  1.00  0.00     0.259 C 
HETATM   28  O7  UNL     1      -0.880  49.542 -21.340  1.00  0.00    -0.265 OA
BRANCH  27  29
HETATM   29  C23 UNL     1       0.139  51.581 -20.507  1.00  0.00     0.111 C 
BRANCH  29  30
HETATM   30  C24 UNL     1       0.906  52.661 -21.266  1.00  0.00     0.005 C 
HETATM   31  C25 UNL     1       0.922  53.988 -20.521  1.00  0.00     0.005 C 
ENDBRANCH  29  30
ENDBRANCH  27  29
ENDBRANCH  26  27
ENDBRANCH  16  26
BRANCH  11  32
HETATM   32  O4  UNL     1      -7.219  49.936 -24.058  1.00  0.00    -0.388 OA
HETATM   33  H25 UNL     1      -7.760  49.611 -24.799  1.00  0.00     0.210 HD
ENDBRANCH  11  32
BRANCH  13  34
HETATM   34  O5  UNL     1      -5.027  48.252 -21.575  1.00  0.00    -0.393 OA
HETATM   35  H27 UNL     1      -4.248  48.228 -22.170  1.00  0.00     0.210 HD
ENDBRANCH  13  34
TORSDOF 10
ENDMDL
