MODEL 1
REMARK minimizedAffinity -8.76774979
REMARK CNNscore 0.601908147
REMARK CNNaffinity 7.04689217
REMARK  19 active torsions:
REMARK  status: ('A' for Active; 'I' for Inactive)
REMARK    1  A    between atoms: C19_20  and  O2_21 
REMARK    2  A    between atoms: C19_20  and  C20_22 
REMARK    3  A    between atoms: C20_22  and  C21_24 
REMARK    4  A    between atoms: C21_24  and  O4_25 
REMARK    5  A    between atoms: O4_25  and  C22_26 
REMARK    6  A    between atoms: C22_26  and  C23_28 
REMARK    7  A    between atoms: C23_28  and  C24_29 
REMARK    8  A    between atoms: C24_29  and  C25_30 
REMARK       I    between atoms: C25_30  and  N1_32 
REMARK    9  A    between atoms: N1_32  and  C26_33 
REMARK   10  A    between atoms: C26_33  and  C27_34 
REMARK   11  A    between atoms: C27_34  and  C28_35 
REMARK   12  A    between atoms: C28_35  and  C29_36 
REMARK   13  A    between atoms: C29_36  and  C30_37 
REMARK   14  A    between atoms: C30_37  and  C31_38 
REMARK       I    between atoms: C31_38  and  N2_40 
REMARK   15  A    between atoms: N2_40  and  C32_41 
REMARK   16  A    between atoms: C32_41  and  C33_42 
REMARK   17  A    between atoms: C32_41  and  C40_49 
REMARK   18  A    between atoms: C33_42  and  C34_43 
REMARK   19  A    between atoms: C40_49  and  O9_51 
ROOT
HETATM    1  C22 UNL     1      -5.474   6.950  14.473  1.00  0.00     0.259 C 
HETATM    2  O5  UNL     1      -5.463   7.269  13.289  1.00  0.00    -0.265 OA
ENDROOT
BRANCH   1   3
HETATM    3  O4  UNL     1      -4.457   7.181  15.339  1.00  0.00    -0.314 OA
BRANCH   3   4
HETATM    4  C21 UNL     1      -3.373   6.253  15.253  1.00  0.00     0.260 C 
BRANCH   4   5
HETATM    5  C20 UNL     1      -2.110   7.003  14.842  1.00  0.00     0.185 C 
HETATM    6  O3  UNL     1      -1.372   7.532  15.679  1.00  0.00    -0.292 OA
BRANCH   5   7
HETATM    7  C19 UNL     1      -1.844   7.155  13.326  1.00  0.00     0.128 C 
HETATM    8  C14 UNL     1      -0.382   6.868  12.852  1.00  0.00    -0.002 C 
HETATM    9  C13 UNL     1      -0.006   5.382  12.646  1.00  0.00     0.013 C 
HETATM   10  C15 UNL     1       0.625   7.555  13.812  1.00  0.00     0.019 C 
HETATM   11  C16 UNL     1      -0.421   7.529  11.459  1.00  0.00     0.002 C 
HETATM   12  C12 UNL     1       0.771   5.088  11.338  1.00  0.00     0.007 C 
HETATM   13  C11 UNL     1       1.739   6.228  10.944  1.00  0.00     0.002 C 
HETATM   14  C2  UNL     1       2.846   5.908   9.847  1.00  0.00    -0.016 C 
HETATM   15  C10 UNL     1       0.925   7.548  10.700  1.00  0.00    -0.004 C 
HETATM   16  C1  UNL     1       4.133   6.682  10.246  1.00  0.00     0.020 C 
HETATM   17  C3  UNL     1       3.181   4.390   9.810  1.00  0.00     0.022 C 
HETATM   18  C7  UNL     1       2.470   6.378   8.442  1.00  0.00    -0.068 C 
HETATM   19  C4  UNL     1       4.098   3.985   8.664  1.00  0.00     0.084 C 
HETATM   20  C5  UNL     1       3.485   4.404   7.356  1.00  0.00     0.149 C 
HETATM   21  O1  UNL     1       3.635   3.762   6.321  1.00  0.00    -0.293 OA
HETATM   22  C6  UNL     1       2.727   5.678   7.321  1.00  0.00     0.053 C 
HETATM   23  C8  UNL     1       1.839   7.738   8.337  1.00  0.00     0.035 C 
HETATM   24  C9  UNL     1       0.610   7.806   9.216  1.00  0.00     0.010 C 
HETATM   25  C17 UNL     1      -1.101   8.873  11.693  1.00  0.00     0.009 C 
HETATM   26  C18 UNL     1      -2.101   8.607  12.829  1.00  0.00     0.047 C 
BRANCH   7  27
HETATM   27  O2  UNL     1      -2.763   6.292  12.643  1.00  0.00    -0.381 OA
HETATM   28  H27 UNL     1      -3.662   6.640  12.787  1.00  0.00     0.211 HD
ENDBRANCH   7  27
ENDBRANCH   5   7
ENDBRANCH   4   5
ENDBRANCH   3   4
ENDBRANCH   1   3
BRANCH   1  29
HETATM   29  C23 UNL     1      -6.577   6.145  15.119  1.00  0.00     0.120 C 
BRANCH  29  30
HETATM   30  C24 UNL     1      -7.117   5.023  14.238  1.00  0.00     0.112 C 
BRANCH  30  31
HETATM   31  C25 UNL     1      -8.363   5.439  13.485  1.00  0.00     0.217 C 
HETATM   32  O6  UNL     1      -8.548   5.174  12.303  1.00  0.00    -0.274 OA
HETATM   33  N1  UNL     1      -9.272   6.116  14.269  1.00  0.00    -0.361 N 
HETATM   34  H34 UNL     1      -9.075   6.248  15.253  1.00  0.00     0.162 HD
BRANCH  33  35
HETATM   35  C26 UNL     1     -10.590   6.469  13.779  1.00  0.00     0.122 C 
BRANCH  35  36
HETATM   36  C27 UNL     1     -10.901   7.932  14.082  1.00  0.00     0.020 C 
BRANCH  36  37
HETATM   37  C28 UNL     1     -12.088   8.477  13.283  1.00  0.00     0.002 C 
BRANCH  37  38
HETATM   38  C29 UNL     1     -12.233   9.998  13.411  1.00  0.00     0.009 C 
BRANCH  38  39
HETATM   39  C30 UNL     1     -13.561  10.412  14.044  1.00  0.00     0.103 C 
BRANCH  39  40
HETATM   40  C31 UNL     1     -14.715   9.491  13.690  1.00  0.00     0.218 C 
HETATM   41  O7  UNL     1     -15.873   9.677  14.041  1.00  0.00    -0.274 OA
HETATM   42  N2  UNL     1     -14.324   8.410  12.926  1.00  0.00    -0.346 N 
HETATM   43  H45 UNL     1     -13.350   8.135  13.009  1.00  0.00     0.163 HD
BRANCH  42  44
HETATM   44  C32 UNL     1     -15.274   7.325  12.643  1.00  0.00     0.186 C 
BRANCH  44  45
HETATM   45  C33 UNL     1     -15.953   6.867  13.939  1.00  0.00     0.074 C 
BRANCH  45  46
HETATM   46  C34 UNL     1     -16.200   5.379  14.004  1.00  0.00    -0.056 A 
HETATM   47  C35 UNL     1     -17.318   4.815  13.373  1.00  0.00     0.007 A 
HETATM   48  C36 UNL     1     -17.553   3.441  13.447  1.00  0.00     0.001 A 
HETATM   49  C37 UNL     1     -16.674   2.618  14.148  1.00  0.00     0.000 A 
HETATM   50  C38 UNL     1     -15.559   3.169  14.776  1.00  0.00     0.001 A 
HETATM   51  C39 UNL     1     -15.321   4.543  14.706  1.00  0.00     0.007 A 
ENDBRANCH  45  46
ENDBRANCH  44  45
BRANCH  44  52
HETATM   52  C40 UNL     1     -16.315   7.882  11.677  1.00  0.00     0.163 C 
HETATM   53  O8  UNL     1     -17.487   7.535  11.617  1.00  0.00    -0.648 OA
BRANCH  52  54
HETATM   54  O9  UNL     1     -15.833   8.824  10.846  1.00  0.00    -0.775 OA
HETATM   55  H54 UNL     1     -16.600   9.103  10.306  1.00  0.00     0.167 HD
ENDBRANCH  52  54
ENDBRANCH  44  52
ENDBRANCH  42  44
ENDBRANCH  39  40
ENDBRANCH  38  39
ENDBRANCH  37  38
ENDBRANCH  36  37
ENDBRANCH  35  36
ENDBRANCH  33  35
ENDBRANCH  30  31
ENDBRANCH  29  30
ENDBRANCH   1  29
TORSDOF 19
ENDMDL
