MODEL 1
REMARK minimizedAffinity -10.7005301
REMARK  5 active torsions:
REMARK  status: ('A' for Active; 'I' for Inactive)
REMARK    1  A    between atoms: C3_3  and  C4_4 
REMARK    2  A    between atoms: C4_4  and  C5_5 
REMARK       I    between atoms: C5_5  and  N1_7 
REMARK    3  A    between atoms: N1_7  and  C6_8 
REMARK    4  A    between atoms: C6_8  and  C7_9 
REMARK    5  A    between atoms: C7_9  and  C8_10 
ROOT
HETATM    1  C1  UNL     1      -2.280  49.027 -26.347  1.00  0.00     0.050 C 
HETATM    2  C2  UNL     1      -3.601  48.614 -25.748  1.00  0.00    -0.036 A 
HETATM    3  C3  UNL     1      -3.828  48.532 -24.419  1.00  0.00     0.033 A 
HETATM    4  C16 UNL     1      -5.168  48.175 -23.875  1.00  0.00     0.295 A 
HETATM    5  O2  UNL     1      -5.383  48.159 -22.664  1.00  0.00    -0.259 OA
HETATM    6  O3  UNL     1      -6.165  47.864 -24.778  1.00  0.00    -0.274 OA
HETATM    7  C17 UNL     1      -5.941  47.933 -26.160  1.00  0.00     0.093 A 
HETATM    8  C18 UNL     1      -7.030  47.619 -26.975  1.00  0.00     0.075 A 
HETATM    9  C19 UNL     1      -6.893  47.681 -28.357  1.00  0.00     0.079 A 
HETATM   10  C20 UNL     1      -5.664  48.030 -28.920  1.00  0.00    -0.024 A 
HETATM   11  C21 UNL     1      -4.583  48.348 -28.077  1.00  0.00     0.024 A 
HETATM   12  C22 UNL     1      -4.704  48.304 -26.680  1.00  0.00     0.005 A 
HETATM   13  C23 UNL     1      -5.496  48.104 -30.408  1.00  0.00     0.044 C 
HETATM   14  C24 UNL     1      -6.611  47.344 -31.109  1.00  0.00     0.042 C 
HETATM   15  C25 UNL     1      -7.979  47.666 -30.489  1.00  0.00     0.061 C 
HETATM   16  C26 UNL     1      -9.040  46.762 -31.134  1.00  0.00     0.046 C 
HETATM   17  C27 UNL     1      -8.397  49.131 -30.695  1.00  0.00     0.046 C 
HETATM   18  O4  UNL     1      -8.007  47.366 -29.082  1.00  0.00    -0.340 OA
ENDROOT
BRANCH   3  19
HETATM   19  C4  UNL     1      -2.801  48.770 -23.341  1.00  0.00     0.148 C 
BRANCH  19  20
HETATM   20  C5  UNL     1      -2.613  50.263 -23.132  1.00  0.00     0.222 C 
HETATM   21  O1  UNL     1      -3.501  50.975 -22.668  1.00  0.00    -0.273 OA
HETATM   22  N1  UNL     1      -1.377  50.737 -23.499  1.00  0.00    -0.360 N 
HETATM   23  H6  UNL     1      -0.702  50.087 -23.901  1.00  0.00     0.162 HD
BRANCH  22  24
HETATM   24  C6  UNL     1      -1.040  52.147 -23.470  1.00  0.00     0.127 C 
BRANCH  24  25
HETATM   25  C7  UNL     1       0.438  52.412 -23.157  1.00  0.00     0.060 C 
BRANCH  25  26
HETATM   26  C8  UNL     1       0.668  52.830 -21.735  1.00  0.00    -0.029 A 
HETATM   27  C9  UNL     1       1.211  54.026 -21.307  1.00  0.00     0.096 A 
HETATM   28  N2  UNL     1       1.227  54.028 -19.939  1.00  0.00    -0.365 N 
HETATM   29  C10 UNL     1       0.703  52.852 -19.455  1.00  0.00     0.043 A 
HETATM   30  H12 UNL     1       1.568  54.784 -19.361  1.00  0.00     0.165 HD
HETATM   31  C11 UNL     1       0.514  52.426 -18.135  1.00  0.00     0.032 A 
HETATM   32  C15 UNL     1       0.356  52.073 -20.559  1.00  0.00    -0.000 A 
HETATM   33  C12 UNL     1      -0.053  51.162 -17.938  1.00  0.00     0.026 A 
HETATM   34  C13 UNL     1      -0.404  50.363 -19.024  1.00  0.00     0.035 A 
HETATM   35 CL1  UNL     1      -1.107  48.816 -18.747  1.00  0.00    -0.084 Cl
HETATM   36  C14 UNL     1      -0.202  50.797 -20.336  1.00  0.00     0.038 A 
ENDBRANCH  25  26
ENDBRANCH  24  25
ENDBRANCH  22  24
ENDBRANCH  19  20
ENDBRANCH   3  19
TORSDOF 5
ENDMDL
