MODEL 1
REMARK minimizedAffinity -11.0259447
REMARK CNNscore 0.478807062
REMARK CNNaffinity 7.81295156
REMARK  12 active torsions:
REMARK  status: ('A' for Active; 'I' for Inactive)
REMARK    1  A    between atoms: O1_2  and  C2_3 
REMARK    2  A    between atoms: C4_5  and  C5_6 
REMARK    3  A    between atoms: C8_10  and  O3_11 
REMARK    4  A    between atoms: O3_11  and  C9_12 
REMARK    5  A    between atoms: C9_12  and  C10_13 
REMARK    6  A    between atoms: C10_13  and  O4_14 
REMARK    7  A    between atoms: C15_19  and  O5_20 
REMARK    8  A    between atoms: C19_24  and  C20_25 
REMARK    9  A    between atoms: C20_25  and  C21_26 
REMARK   10  A    between atoms: C21_26  and  N1_27 
REMARK   11  A    between atoms: C32_39  and  O6_40 
REMARK   12  A    between atoms: C35_43  and  O7_44 
ROOT
HETATM    1  C5  UNL     1       0.591   8.094  12.276  1.00  0.00     0.191 C 
HETATM    2  O2  UNL     1       0.539   6.698  11.971  1.00  0.00    -0.338 OA
HETATM    3  C6  UNL     1      -0.702   6.115  12.046  1.00  0.00     0.079 A 
HETATM    4  C7  UNL     1      -0.721   4.819  11.542  1.00  0.00     0.075 A 
HETATM    5  C8  UNL     1      -1.886   4.063  11.576  1.00  0.00     0.083 A 
HETATM    6  C11 UNL     1      -3.099   4.652  12.019  1.00  0.00     0.015 A 
HETATM    7  C12 UNL     1      -4.384   3.879  12.069  1.00  0.00    -0.016 A 
HETATM    8  C13 UNL     1      -4.721   2.838  11.185  1.00  0.00     0.015 A 
HETATM    9  C14 UNL     1      -5.904   2.103  11.328  1.00  0.00     0.037 A 
HETATM   10  C15 UNL     1      -6.783   2.416  12.354  1.00  0.00     0.066 A 
HETATM   11  C16 UNL     1      -6.516   3.472  13.211  1.00  0.00     0.044 A 
HETATM   12  C17 UNL     1      -5.340   4.219  13.051  1.00  0.00    -0.044 A 
HETATM   13  C18 UNL     1      -5.098   5.456  13.879  1.00  0.00     0.049 C 
HETATM   14  C19 UNL     1      -4.497   6.533  12.950  1.00  0.00     0.027 C 
HETATM   15  C29 UNL     1      -3.085   6.009  12.538  1.00  0.00    -0.031 A 
HETATM   16  C30 UNL     1      -1.847   6.710  12.615  1.00  0.00    -0.015 A 
HETATM   17  C31 UNL     1      -1.656   8.046  13.295  1.00  0.00     0.076 C 
HETATM   18  C32 UNL     1      -0.184   8.381  13.575  1.00  0.00     0.156 C 
ENDROOT
BRANCH  14  19
HETATM   19  C20 UNL     1      -4.677   7.987  13.467  1.00  0.00     0.041 C 
BRANCH  19  20
HETATM   20  C21 UNL     1      -4.876   8.304  14.995  1.00  0.00     0.038 C 
HETATM   21  C25 UNL     1      -3.949   7.449  15.898  1.00  0.00     0.031 C 
HETATM   22  C26 UNL     1      -2.833   8.381  16.336  1.00  0.00     0.002 C 
HETATM   23  C27 UNL     1      -3.516   9.730  16.475  1.00  0.00     0.002 C 
HETATM   24  C28 UNL     1      -4.545   9.777  15.351  1.00  0.00     0.031 C 
BRANCH  20  25
HETATM   25  N1  UNL     1      -6.327   8.063  15.390  1.00  0.00    -0.342 N 
HETATM   26  C22 UNL     1      -7.388   8.823  15.058  1.00  0.00     0.183 A 
HETATM   27  N2  UNL     1      -8.479   8.258  15.588  1.00  0.00    -0.361 N 
HETATM   28  C23 UNL     1      -8.141   7.153  16.327  1.00  0.00     0.106 A 
HETATM   29  H22 UNL     1      -9.425   8.614  15.463  1.00  0.00     0.166 HD
HETATM   30  C24 UNL     1      -6.784   7.033  16.231  1.00  0.00     0.109 A 
ENDBRANCH  20  25
ENDBRANCH  19  20
ENDBRANCH  14  19
BRANCH   5  31
HETATM   31  O3  UNL     1      -1.906   2.746  11.197  1.00  0.00    -0.348 OA
BRANCH  31  32
HETATM   32  C9  UNL     1      -0.673   2.010  11.250  1.00  0.00     0.201 C 
BRANCH  32  33
HETATM   33  C10 UNL     1      -0.900   0.652  10.589  1.00  0.00     0.190 C 
BRANCH  33  34
HETATM   34  O4  UNL     1      -0.631   0.739   9.189  1.00  0.00    -0.399 OA
HETATM   35  H11 UNL     1      -0.605  -0.171   8.844  1.00  0.00     0.209 HD
ENDBRANCH  33  34
ENDBRANCH  32  33
ENDBRANCH  31  32
ENDBRANCH   5  31
BRANCH  10  36
HETATM   36  O5  UNL     1      -7.944   1.728  12.534  1.00  0.00    -0.361 OA
HETATM   37  H14 UNL     1      -7.939   0.949  11.952  1.00  0.00     0.217 HD
ENDBRANCH  10  36
BRANCH  18  38
HETATM   38  O6  UNL     1       0.303   7.624  14.691  1.00  0.00    -0.392 OA
HETATM   39  H36 UNL     1      -0.437   7.278  15.221  1.00  0.00     0.210 HD
ENDBRANCH  18  38
BRANCH   1  40
HETATM   40  C4  UNL     1       2.041   8.541  12.207  1.00  0.00    -0.024 A 
HETATM   41  C3  UNL     1       2.936   7.792  11.415  1.00  0.00     0.049 A 
HETATM   42  C2  UNL     1       4.282   8.151  11.302  1.00  0.00     0.101 A 
HETATM   43  C35 UNL     1       4.746   9.281  11.978  1.00  0.00     0.099 A 
HETATM   44  C34 UNL     1       3.886  10.024  12.784  1.00  0.00     0.040 A 
HETATM   45  C33 UNL     1       2.545   9.652  12.901  1.00  0.00     0.013 A 
BRANCH  42  46
HETATM   46  O1  UNL     1       5.170   7.476  10.505  1.00  0.00    -0.353 OA
HETATM   47  C1  UNL     1       5.644   6.250  11.050  1.00  0.00     0.210 C 
ENDBRANCH  42  46
BRANCH  43  48
HETATM   48  O7  UNL     1       6.059   9.646  11.858  1.00  0.00    -0.358 OA
HETATM   49  H39 UNL     1       6.239  10.398  12.441  1.00  0.00     0.217 HD
ENDBRANCH  43  48
ENDBRANCH   1  40
TORSDOF 12
ENDMDL
