MODEL 1
REMARK minimizedAffinity -7.37827301
REMARK CNNscore 0.577246368
REMARK CNNaffinity 6.38308191
REMARK  11 active torsions:
REMARK  status: ('A' for Active; 'I' for Inactive)
REMARK    1  A    between atoms: O1_2  and  C2_3 
REMARK    2  A    between atoms: C4_5  and  O2_6 
REMARK    3  A    between atoms: O2_6  and  C5_7 
REMARK    4  A    between atoms: C8_10  and  C9_11 
REMARK    5  A    between atoms: N1_12  and  C10_14 
REMARK    6  A    between atoms: C10_14  and  C11_15 
REMARK    7  A    between atoms: C11_15  and  O3_16 
REMARK    8  A    between atoms: C17_22  and  C18_23 
REMARK    9  A    between atoms: C24_31  and  O6_32 
REMARK   10  A    between atoms: C28_36  and  O7_37 
REMARK   11  A    between atoms: C32_42  and  O9_43 
ROOT
HETATM    1  C5  UNL     1     -10.757  44.922 -35.758  1.00  0.00     0.127 C 
HETATM    2  C6  UNL     1     -11.083  43.604 -35.042  1.00  0.00     0.033 C 
HETATM    3  C7  UNL     1     -11.306  43.773 -33.538  1.00  0.00     0.021 C 
HETATM    4  C8  UNL     1     -10.130  44.481 -32.771  1.00  0.00     0.026 C 
HETATM    5  C12 UNL     1     -10.780  45.245 -31.540  1.00  0.00     0.009 C 
HETATM    6  C13 UNL     1     -11.364  44.284 -30.470  1.00  0.00     0.007 C 
HETATM    7  C14 UNL     1     -12.049  45.020 -29.322  1.00  0.00     0.013 C 
HETATM    8  C15 UNL     1     -11.137  46.064 -28.635  1.00  0.00    -0.005 C 
HETATM    9  C16 UNL     1     -10.043  45.347 -27.816  1.00  0.00     0.019 C 
HETATM   10  C17 UNL     1     -11.951  47.061 -27.740  1.00  0.00     0.028 C 
HETATM   11  C22 UNL     1     -12.540  48.084 -28.749  1.00  0.00     0.013 C 
HETATM   12  C23 UNL     1     -11.714  47.952 -30.043  1.00  0.00     0.040 C 
HETATM   13  C24 UNL     1     -10.531  47.039 -29.691  1.00  0.00     0.070 C 
HETATM   14  C25 UNL     1      -9.866  46.309 -30.889  1.00  0.00     0.026 C 
HETATM   15  C26 UNL     1      -9.349  47.274 -31.972  1.00  0.00     0.011 C 
HETATM   16  C27 UNL     1      -8.537  46.517 -33.005  1.00  0.00     0.039 C 
HETATM   17  C28 UNL     1      -9.327  45.426 -33.740  1.00  0.00     0.073 C 
HETATM   18  C29 UNL     1     -10.263  46.016 -34.802  1.00  0.00     0.071 C 
ENDROOT
BRANCH   1  19
HETATM   19  O2  UNL     1     -11.903  45.415 -36.468  1.00  0.00    -0.356 OA
BRANCH  19  20
HETATM   20  C4  UNL     1     -11.757  46.784 -36.859  1.00  0.00     0.263 C 
HETATM   21  C3  UNL     1     -11.143  46.841 -38.258  1.00  0.00     0.095 C 
HETATM   22  C2  UNL     1     -11.336  48.222 -38.863  1.00  0.00     0.156 C 
HETATM   23  C32 UNL     1     -12.844  48.588 -38.902  1.00  0.00     0.175 C 
HETATM   24  C30 UNL     1     -13.678  47.639 -38.005  1.00  0.00     0.151 C 
HETATM   25  O8  UNL     1     -13.008  47.470 -36.756  1.00  0.00    -0.354 OA
HETATM   26  C31 UNL     1     -15.070  48.184 -37.724  1.00  0.00     0.042 C 
BRANCH  22  27
HETATM   27  O1  UNL     1     -10.765  48.198 -40.183  1.00  0.00    -0.388 OA
HETATM   28  C1  UNL     1     -11.671  48.658 -41.188  1.00  0.00     0.202 C 
ENDBRANCH  22  27
BRANCH  23  29
HETATM   29  O9  UNL     1     -12.971  49.954 -38.456  1.00  0.00    -0.390 OA
HETATM   30  H49 UNL     1     -12.882  49.960 -37.481  1.00  0.00     0.210 HD
ENDBRANCH  23  29
ENDBRANCH  19  20
ENDBRANCH   1  19
BRANCH  17  31
HETATM   31  O7  UNL     1      -8.352  44.664 -34.482  1.00  0.00    -0.389 OA
HETATM   32  H41 UNL     1      -7.781  45.291 -34.967  1.00  0.00     0.210 HD
ENDBRANCH  17  31
BRANCH   4  33
HETATM   33  C9  UNL     1      -9.148  43.388 -32.313  1.00  0.00     0.068 C 
HETATM   34  N1  UNL     1      -8.003  43.665 -31.779  1.00  0.00    -0.399 N 
ATOM     35  H1  UNL     1      -7.709  44.617 -31.557  1.00  0.00     0.158 HD
BRANCH  34  36
HETATM   36  C10 UNL     1      -7.166  42.488 -31.522  1.00  0.00     0.144 C 
BRANCH  36  37
HETATM   37  C11 UNL     1      -5.818  42.669 -32.225  1.00  0.00     0.183 C 
BRANCH  37  38
HETATM   38  O3  UNL     1      -6.001  42.972 -33.601  1.00  0.00    -0.399 OA
HETATM   39  H18 UNL     1      -6.306  43.894 -33.642  1.00  0.00     0.209 HD
ENDBRANCH  37  38
ENDBRANCH  36  37
ENDBRANCH  34  36
ENDBRANCH   4  33
BRANCH  13  40
HETATM   40  O6  UNL     1      -9.547  47.854 -29.036  1.00  0.00    -0.389 OA
HETATM   41  H35 UNL     1      -9.260  48.561 -29.636  1.00  0.00     0.210 HD
ENDBRANCH  13  40
BRANCH  10  42
HETATM   42  C18 UNL     1     -12.921  46.474 -26.751  1.00  0.00    -0.045 A 
HETATM   43  C19 UNL     1     -14.242  46.331 -26.853  1.00  0.00     0.087 A 
HETATM   44  C20 UNL     1     -14.718  45.781 -25.581  1.00  0.00     0.283 A 
HETATM   45  O4  UNL     1     -15.880  45.520 -25.332  1.00  0.00    -0.260 OA
HETATM   46  O5  UNL     1     -13.666  45.633 -24.732  1.00  0.00    -0.314 OA
HETATM   47  C21 UNL     1     -12.473  46.050 -25.397  1.00  0.00     0.213 A 
ENDBRANCH  10  42
TORSDOF 11
ENDMDL
