MODEL 1
REMARK minimizedAffinity -7.92059469
REMARK CNNscore 0.527140617
REMARK CNNaffinity 7.14911652
REMARK  14 active torsions:
REMARK  status: ('A' for Active; 'I' for Inactive)
REMARK    1  A    between atoms: O1_2  and  C2_3 
REMARK    2  A    between atoms: C2_3  and  C5_6 
REMARK    3  A    between atoms: C6_7  and  C7_8 
REMARK    4  A    between atoms: C7_8  and  C8_9 
REMARK    5  A    between atoms: C8_9  and  C10_11 
REMARK    6  A    between atoms: C22_23  and  O2_24 
REMARK    7  A    between atoms: O2_24  and  C23_25 
REMARK    8  A    between atoms: C24_27  and  C25_28 
REMARK    9  A    between atoms: C25_28  and  O4_29 
REMARK   10  A    between atoms: C26_30  and  O5_31 
REMARK   11  A    between atoms: C27_32  and  O6_33 
REMARK   12  A    between atoms: C28_34  and  O7_35 
REMARK   13  A    between atoms: C32_39  and  C33_40 
REMARK   14  A    between atoms: C33_40  and  O8_41 
ROOT
HETATM    1  C10 UNL     1      -0.423  51.245 -20.228  1.00  0.00    -0.002 C 
HETATM    2  C11 UNL     1      -1.171  52.226 -19.289  1.00  0.00     0.006 C 
HETATM    3  C12 UNL     1      -2.528  51.569 -18.934  1.00  0.00     0.011 C 
HETATM    4  C13 UNL     1      -2.434  50.116 -19.463  1.00  0.00    -0.032 C 
HETATM    5  C14 UNL     1      -1.709  49.312 -18.337  1.00  0.00     0.016 C 
HETATM    6  C15 UNL     1      -3.795  49.443 -19.841  1.00  0.00     0.009 C 
HETATM    7  C16 UNL     1      -4.777  49.297 -18.663  1.00  0.00     0.033 C 
HETATM    8  C17 UNL     1      -4.706  48.001 -17.929  1.00  0.00    -0.022 C 
HETATM    9  C18 UNL     1      -4.118  46.878 -18.377  1.00  0.00    -0.068 C 
HETATM   10  C19 UNL     1      -3.484  46.813 -19.759  1.00  0.00     0.026 C 
HETATM   11  C20 UNL     1      -3.899  45.501 -20.481  1.00  0.00     0.012 C 
HETATM   12  C21 UNL     1      -3.892  44.234 -19.623  1.00  0.00     0.034 C 
HETATM   13  C22 UNL     1      -3.293  44.428 -18.235  1.00  0.00     0.136 C 
HETATM   14  C29 UNL     1      -4.008  45.614 -17.485  1.00  0.00     0.002 C 
HETATM   15  C30 UNL     1      -5.424  45.189 -17.006  1.00  0.00     0.022 C 
HETATM   16  C31 UNL     1      -3.162  45.940 -16.224  1.00  0.00     0.022 C 
HETATM   17  C32 UNL     1      -3.644  48.104 -20.688  1.00  0.00    -0.007 C 
HETATM   18  C34 UNL     1      -2.420  48.136 -21.695  1.00  0.00     0.013 C 
HETATM   19  C35 UNL     1      -1.182  48.962 -21.302  1.00  0.00     0.011 C 
HETATM   20  C36 UNL     1      -1.582  50.342 -20.768  1.00  0.00    -0.032 C 
HETATM   21  C37 UNL     1      -2.332  51.089 -21.911  1.00  0.00     0.016 C 
ENDROOT
BRANCH  13  22
HETATM   22  O2  UNL     1      -3.436  43.229 -17.458  1.00  0.00    -0.352 OA
BRANCH  22  23
HETATM   23  C23 UNL     1      -2.283  42.387 -17.397  1.00  0.00     0.292 C 
HETATM   24  O3  UNL     1      -2.661  41.024 -17.591  1.00  0.00    -0.348 OA
HETATM   25  C24 UNL     1      -1.535  40.138 -17.708  1.00  0.00     0.179 C 
HETATM   26  C26 UNL     1      -0.466  40.408 -16.630  1.00  0.00     0.180 C 
HETATM   27  C27 UNL     1      -1.071  41.227 -15.484  1.00  0.00     0.183 C 
HETATM   28  C28 UNL     1      -1.651  42.557 -15.992  1.00  0.00     0.204 C 
BRANCH  25  29
HETATM   29  C25 UNL     1      -2.081  38.704 -17.618  1.00  0.00     0.198 C 
BRANCH  29  30
HETATM   30  O4  UNL     1      -2.853  38.328 -18.753  1.00  0.00    -0.398 OA
HETATM   31  H40 UNL     1      -3.450  39.070 -18.970  1.00  0.00     0.209 HD
ENDBRANCH  29  30
ENDBRANCH  25  29
BRANCH  26  32
HETATM   32  O5  UNL     1       0.604  41.148 -17.242  1.00  0.00    -0.390 OA
HETATM   33  H42 UNL     1       0.958  41.759 -16.564  1.00  0.00     0.210 HD
ENDBRANCH  26  32
BRANCH  27  34
HETATM   34  O6  UNL     1      -0.069  41.510 -14.493  1.00  0.00    -0.390 OA
HETATM   35  H44 UNL     1       0.146  40.664 -14.048  1.00  0.00     0.210 HD
ENDBRANCH  27  34
BRANCH  28  36
HETATM   36  O7  UNL     1      -0.613  43.558 -16.008  1.00  0.00    -0.388 OA
HETATM   37  H46 UNL     1      -0.163  43.448 -15.142  1.00  0.00     0.210 HD
ENDBRANCH  28  36
ENDBRANCH  22  23
ENDBRANCH  13  22
BRANCH  17  38
HETATM   38  C33 UNL     1      -4.918  48.004 -21.604  1.00  0.00     0.174 C 
BRANCH  38  39
HETATM   39  O8  UNL     1      -5.291  46.670 -21.901  1.00  0.00    -0.400 OA
HETATM   40  H55 UNL     1      -6.080  46.702 -22.472  1.00  0.00     0.209 HD
ENDBRANCH  38  39
ENDBRANCH  17  38
BRANCH   1  41
HETATM   41  C8  UNL     1       0.591  51.863 -21.239  1.00  0.00    -0.010 C 
HETATM   42  C9  UNL     1       1.531  52.844 -20.510  1.00  0.00     0.010 C 
BRANCH  41  43
HETATM   43  C7  UNL     1       0.038  52.498 -22.541  1.00  0.00     0.031 C 
BRANCH  43  44
HETATM   44  C6  UNL     1       0.784  52.257 -23.830  1.00  0.00    -0.027 C 
HETATM   45  C5  UNL     1       0.146  52.154 -25.009  1.00  0.00     0.006 C 
BRANCH  45  46
HETATM   46  C2  UNL     1       0.747  51.952 -26.390  1.00  0.00     0.070 C 
HETATM   47  C3  UNL     1       2.145  51.326 -26.207  1.00  0.00     0.050 C 
HETATM   48  C4  UNL     1      -0.050  51.042 -27.340  1.00  0.00     0.050 C 
BRANCH  46  49
HETATM   49  O1  UNL     1       0.990  53.243 -26.977  1.00  0.00    -0.382 OA
HETATM   50  C1  UNL     1      -0.070  54.186 -26.853  1.00  0.00     0.202 C 
ENDBRANCH  46  49
ENDBRANCH  45  46
ENDBRANCH  43  44
ENDBRANCH  41  43
ENDBRANCH   1  41
TORSDOF 14
ENDMDL
