MODEL 1
REMARK minimizedAffinity -8.23936081
REMARK  8 active torsions:
REMARK  status: ('A' for Active; 'I' for Inactive)
REMARK    1  A    between atoms: C4_4  and  C5_5 
REMARK    2  A    between atoms: C5_5  and  C6_6 
REMARK    3  A    between atoms: C6_6  and  C7_7 
REMARK    4  A    between atoms: C7_7  and  C9_9 
REMARK    5  A    between atoms: C21_21  and  C22_22 
REMARK    6  A    between atoms: C22_22  and  C23_23 
REMARK    7  A    between atoms: C23_23  and  C24_24 
REMARK    8  A    between atoms: C24_24  and  O1_25 
ROOT
HETATM    1  C9  UNL     1       1.735   7.150  13.644  1.00  0.00    -0.002 C 
HETATM    2  C10 UNL     1       1.749   7.647  15.114  1.00  0.00     0.006 C 
HETATM    3  C11 UNL     1       0.351   7.345  15.705  1.00  0.00     0.011 C 
HETATM    4  C12 UNL     1      -0.585   7.402  14.481  1.00  0.00    -0.032 C 
HETATM    5  C13 UNL     1      -0.790   8.915  14.196  1.00  0.00     0.016 C 
HETATM    6  C14 UNL     1      -1.966   6.692  14.613  1.00  0.00     0.003 C 
HETATM    7  C15 UNL     1      -2.845   7.170  15.782  1.00  0.00     0.010 C 
HETATM    8  C16 UNL     1      -4.046   6.241  15.948  1.00  0.00     0.035 C 
HETATM    9  C17 UNL     1      -4.883   6.110  14.666  1.00  0.00    -0.073 C 
HETATM   10  C18 UNL     1      -6.206   6.432  14.690  1.00  0.00    -0.085 C 
HETATM   11  C19 UNL     1      -6.850   7.111  15.888  1.00  0.00     0.043 C 
HETATM   12  C20 UNL     1      -7.230   6.210  13.611  1.00  0.00     0.043 C 
HETATM   13  C21 UNL     1      -3.982   5.560  13.519  1.00  0.00     0.023 C 
HETATM   14  C25 UNL     1      -2.783   6.589  13.242  1.00  0.00    -0.032 C 
HETATM   15  C26 UNL     1      -3.385   7.952  12.800  1.00  0.00     0.016 C 
HETATM   16  C27 UNL     1      -1.834   6.087  12.094  1.00  0.00     0.011 C 
HETATM   17  C28 UNL     1      -0.404   6.693  12.059  1.00  0.00     0.011 C 
HETATM   18  C29 UNL     1       0.278   6.611  13.430  1.00  0.00    -0.032 C 
HETATM   19  C30 UNL     1       0.419   5.066  13.750  1.00  0.00     0.016 C 
ENDROOT
BRANCH   1  20
HETATM   20  C7  UNL     1       2.446   7.997  12.550  1.00  0.00    -0.014 C 
HETATM   21  C8  UNL     1       2.390   9.489  12.920  1.00  0.00     0.010 C 
BRANCH  20  22
HETATM   22  C6  UNL     1       2.099   7.786  11.060  1.00  0.00     0.008 C 
BRANCH  22  23
HETATM   23  C5  UNL     1       2.862   6.692  10.303  1.00  0.00     0.028 C 
BRANCH  23  24
HETATM   24  C4  UNL     1       2.320   6.531   8.906  1.00  0.00    -0.025 C 
HETATM   25  C2  UNL     1       2.405   7.400   7.879  1.00  0.00    -0.091 C 
HETATM   26  C1  UNL     1       1.763   7.083   6.554  1.00  0.00     0.042 C 
HETATM   27  C3  UNL     1       3.118   8.723   7.918  1.00  0.00     0.042 C 
ENDBRANCH  23  24
ENDBRANCH  22  23
ENDBRANCH  20  22
ENDBRANCH   1  20
BRANCH  13  28
HETATM   28  C22 UNL     1      -4.608   4.866  12.275  1.00  0.00     0.012 C 
BRANCH  28  29
HETATM   29  C23 UNL     1      -4.973   3.381  12.327  1.00  0.00     0.027 C 
BRANCH  29  30
HETATM   30  C24 UNL     1      -5.423   2.877  10.957  1.00  0.00     0.164 C 
BRANCH  30  31
HETATM   31  O1  UNL     1      -4.498   3.291   9.960  1.00  0.00    -0.401 OA
HETATM   32  H42 UNL     1      -4.430   4.260  10.007  1.00  0.00     0.209 HD
ENDBRANCH  30  31
ENDBRANCH  29  30
ENDBRANCH  28  29
ENDBRANCH  13  28
TORSDOF 8
ENDMDL
