MODEL 1
REMARK minimizedAffinity -9.05910778
REMARK CNNscore 0.7030586
REMARK CNNaffinity 8.12307453
REMARK  13 active torsions:
REMARK  status: ('A' for Active; 'I' for Inactive)
REMARK    1  A    between atoms: C14_15  and  O2_16 
REMARK    2  A    between atoms: C14_15  and  C15_17 
REMARK    3  A    between atoms: C15_17  and  C16_19 
REMARK    4  A    between atoms: C16_19  and  O4_20 
REMARK    5  A    between atoms: O4_20  and  C17_21 
REMARK    6  A    between atoms: C17_21  and  C18_23 
REMARK    7  A    between atoms: C18_23  and  C19_24 
REMARK    8  A    between atoms: C19_24  and  C20_25 
REMARK       I    between atoms: C20_25  and  N1_27 
REMARK    9  A    between atoms: N1_27  and  C21_28 
REMARK   10  A    between atoms: C21_28  and  C22_29 
REMARK   11  A    between atoms: C22_29  and  C23_30 
REMARK   12  A    between atoms: C26_33  and  O7_34 
REMARK   13  A    between atoms: C27_35  and  O8_36 
ROOT
HETATM    1  C15 UNL     1      -3.843   6.191  14.874  1.00  0.00     0.185 C 
HETATM    2  O3  UNL     1      -3.786   5.345  13.977  1.00  0.00    -0.292 OA
ENDROOT
BRANCH   1   3
HETATM    3  C14 UNL     1      -2.620   7.063  15.241  1.00  0.00     0.128 C 
HETATM    4  C13 UNL     1      -1.308   6.391  14.814  1.00  0.00     0.047 C 
HETATM    5  C12 UNL     1      -0.294   7.520  14.919  1.00  0.00     0.009 C 
HETATM    6  C11 UNL     1      -1.032   8.768  14.402  1.00  0.00     0.002 C 
HETATM    7  C10 UNL     1      -0.626  10.099  15.080  1.00  0.00     0.003 C 
HETATM    8  C29 UNL     1      -2.562   8.446  14.502  1.00  0.00     0.005 C 
HETATM    9  C9  UNL     1       0.896  10.328  14.983  1.00  0.00     0.010 C 
HETATM   10  C33 UNL     1      -1.180  10.225  16.536  1.00  0.00     0.072 C 
HETATM   11  C8  UNL     1       1.334  11.626  15.658  1.00  0.00     0.035 C 
HETATM   12  C7  UNL     1       0.833  11.598  17.077  1.00  0.00    -0.067 C 
HETATM   13  C2  UNL     1      -0.697  11.546  17.242  1.00  0.00    -0.009 C 
HETATM   14  C6  UNL     1       1.714  11.484  18.087  1.00  0.00     0.053 C 
HETATM   15  C1  UNL     1      -1.342  12.797  16.588  1.00  0.00     0.021 C 
HETATM   16  C3  UNL     1      -1.047  11.635  18.759  1.00  0.00     0.022 C 
HETATM   17  C4  UNL     1      -0.171  10.777  19.656  1.00  0.00     0.084 C 
HETATM   18  C5  UNL     1       1.271  11.164  19.464  1.00  0.00     0.149 C 
HETATM   19  O1  UNL     1       2.095  11.131  20.374  1.00  0.00    -0.293 OA
HETATM   20  C32 UNL     1      -2.708  10.077  16.489  1.00  0.00     0.133 C 
HETATM   21  C31 UNL     1      -3.338   9.571  15.206  1.00  0.00     0.091 C 
HETATM   22  O9  UNL     1      -3.441  10.390  17.426  1.00  0.00    -0.297 OA
HETATM   23  C30 UNL     1      -3.120   8.346  13.058  1.00  0.00     0.019 C 
BRANCH   3  24
HETATM   24  O2  UNL     1      -2.550   7.272  16.652  1.00  0.00    -0.381 OA
HETATM   25  H19 UNL     1      -2.327   6.421  17.077  1.00  0.00     0.211 HD
ENDBRANCH   3  24
ENDBRANCH   1   3
BRANCH   1  26
HETATM   26  C16 UNL     1      -5.145   6.472  15.629  1.00  0.00     0.260 C 
BRANCH  26  27
HETATM   27  O4  UNL     1      -6.303   5.995  14.939  1.00  0.00    -0.314 OA
BRANCH  27  28
HETATM   28  C17 UNL     1      -7.167   6.980  14.558  1.00  0.00     0.259 C 
HETATM   29  O5  UNL     1      -6.875   8.166  14.474  1.00  0.00    -0.265 OA
BRANCH  28  30
HETATM   30  C18 UNL     1      -8.521   6.378  14.266  1.00  0.00     0.120 C 
BRANCH  30  31
HETATM   31  C19 UNL     1      -8.578   5.794  12.861  1.00  0.00     0.112 C 
BRANCH  31  32
HETATM   32  C20 UNL     1      -8.070   4.366  12.806  1.00  0.00     0.218 C 
HETATM   33  O6  UNL     1      -8.802   3.382  12.786  1.00  0.00    -0.274 OA
HETATM   34  N1  UNL     1      -6.695   4.296  12.734  1.00  0.00    -0.361 N 
HETATM   35  H26 UNL     1      -6.173   5.145  12.550  1.00  0.00     0.162 HD
BRANCH  34  36
HETATM   36  C21 UNL     1      -5.994   3.034  12.573  1.00  0.00     0.127 C 
BRANCH  36  37
HETATM   37  C22 UNL     1      -5.380   2.856  11.179  1.00  0.00     0.058 C 
BRANCH  37  38
HETATM   38  C23 UNL     1      -3.878   2.659  11.202  1.00  0.00    -0.054 A 
HETATM   39  C24 UNL     1      -3.338   1.378  11.411  1.00  0.00     0.010 A 
HETATM   40  C25 UNL     1      -1.954   1.174  11.406  1.00  0.00     0.040 A 
HETATM   41  C26 UNL     1      -1.112   2.254  11.186  1.00  0.00     0.098 A 
HETATM   42  C27 UNL     1      -1.639   3.527  10.982  1.00  0.00     0.099 A 
HETATM   43  C28 UNL     1      -3.010   3.740  10.993  1.00  0.00     0.046 A 
BRANCH  41  44
HETATM   44  O7  UNL     1       0.247   2.117  11.150  1.00  0.00    -0.358 OA
HETATM   45  H33 UNL     1       0.461   1.183  11.313  1.00  0.00     0.217 HD
ENDBRANCH  41  44
BRANCH  42  46
HETATM   46  O8  UNL     1      -0.802   4.580  10.748  1.00  0.00    -0.358 OA
HETATM   47  H34 UNL     1       0.094   4.195  10.826  1.00  0.00     0.217 HD
ENDBRANCH  42  46
ENDBRANCH  37  38
ENDBRANCH  36  37
ENDBRANCH  34  36
ENDBRANCH  31  32
ENDBRANCH  30  31
ENDBRANCH  28  30
ENDBRANCH  27  28
ENDBRANCH  26  27
ENDBRANCH   1  26
TORSDOF 13
ENDMDL
