MODEL 1
REMARK minimizedAffinity -7.98194408
REMARK CNNscore 0.365806401
REMARK CNNaffinity 6.51383829
REMARK  12 active torsions:
REMARK  status: ('A' for Active; 'I' for Inactive)
REMARK    1  A    between atoms: C2_2  and  C3_3 
REMARK    2  A    between atoms: C2_2  and  C9_10 
REMARK    3  A    between atoms: C3_3  and  C4_4 
REMARK    4  A    between atoms: C5_5  and  C6_6 
REMARK    5  A    between atoms: C6_6  and  O1_9 
REMARK    6  A    between atoms: C27_30  and  O4_31 
REMARK    7  A    between atoms: O4_31  and  C28_32 
REMARK    8  A    between atoms: C29_34  and  C30_35 
REMARK    9  A    between atoms: C30_35  and  O6_36 
REMARK   10  A    between atoms: C31_37  and  O7_38 
REMARK   11  A    between atoms: C32_39  and  O8_40 
REMARK   12  A    between atoms: C33_41  and  O9_42 
ROOT
HETATM    1  C9  UNL     1      -3.151  14.252  19.476  1.00  0.00    -0.002 C 
HETATM    2  C10 UNL     1      -4.698  14.118  19.310  1.00  0.00     0.006 C 
HETATM    3  C11 UNL     1      -4.962  13.235  18.073  1.00  0.00     0.011 C 
HETATM    4  C12 UNL     1      -3.595  12.611  17.746  1.00  0.00    -0.028 C 
HETATM    5  C13 UNL     1      -3.446  11.398  18.723  1.00  0.00     0.016 C 
HETATM    6  C14 UNL     1      -3.400  12.155  16.265  1.00  0.00     0.035 C 
HETATM    7  C15 UNL     1      -4.361  11.058  15.832  1.00  0.00    -0.021 C 
HETATM    8  C16 UNL     1      -3.928   9.956  15.192  1.00  0.00     0.009 C 
HETATM    9  C17 UNL     1      -2.442   9.710  14.939  1.00  0.00     0.102 C 
HETATM   10  O2  UNL     1      -2.076  10.610  13.877  1.00  0.00    -0.304 OA
HETATM   11  C18 UNL     1      -1.793  11.840  14.411  1.00  0.00     0.270 C 
HETATM   12  O3  UNL     1      -1.547  12.827  13.737  1.00  0.00    -0.264 OA
HETATM   13  C19 UNL     1      -1.891  11.780  15.939  1.00  0.00     0.062 C 
HETATM   14  C20 UNL     1      -0.866  12.763  16.561  1.00  0.00     0.022 C 
HETATM   15  C21 UNL     1      -1.185  13.291  17.973  1.00  0.00     0.011 C 
HETATM   16  C22 UNL     1      -2.630  13.816  18.069  1.00  0.00    -0.032 C 
HETATM   17  C23 UNL     1      -2.778  15.030  17.095  1.00  0.00     0.016 C 
HETATM   18  C24 UNL     1      -1.653  10.258  16.151  1.00  0.00     0.045 C 
HETATM   19  C25 UNL     1      -0.209   9.733  16.229  1.00  0.00     0.012 C 
HETATM   20  C26 UNL     1       0.335   9.240  14.904  1.00  0.00     0.033 C 
HETATM   21  C27 UNL     1      -0.505   8.100  14.314  1.00  0.00     0.136 C 
HETATM   22  C34 UNL     1      -2.062   8.247  14.532  1.00  0.00     0.015 C 
HETATM   23  C35 UNL     1      -2.814   7.810  13.245  1.00  0.00     0.021 C 
HETATM   24  C36 UNL     1      -2.489   7.258  15.651  1.00  0.00     0.021 C 
ENDROOT
BRANCH  21  25
HETATM   25  O4  UNL     1      -0.185   8.003  12.917  1.00  0.00    -0.352 OA
BRANCH  25  26
HETATM   26  C28 UNL     1       1.212   7.998  12.628  1.00  0.00     0.292 C 
HETATM   27  O5  UNL     1       1.514   8.827  11.502  1.00  0.00    -0.348 OA
HETATM   28  C29 UNL     1       1.100   8.352  10.206  1.00  0.00     0.179 C 
HETATM   29  C31 UNL     1       1.485   6.891   9.953  1.00  0.00     0.180 C 
HETATM   30  C32 UNL     1       1.129   5.980  11.131  1.00  0.00     0.183 C 
HETATM   31  C33 UNL     1       1.677   6.543  12.443  1.00  0.00     0.204 C 
BRANCH  28  32
HETATM   32  C30 UNL     1      -0.387   8.628   9.950  1.00  0.00     0.198 C 
BRANCH  32  33
HETATM   33  O6  UNL     1      -0.549   9.182   8.645  1.00  0.00    -0.398 OA
HETATM   34  H44 UNL     1       0.047   9.952   8.609  1.00  0.00     0.209 HD
ENDBRANCH  32  33
ENDBRANCH  28  32
BRANCH  29  35
HETATM   35  O7  UNL     1       2.907   6.782   9.727  1.00  0.00    -0.390 OA
HETATM   36  H46 UNL     1       3.341   7.166  10.521  1.00  0.00     0.210 HD
ENDBRANCH  29  35
BRANCH  30  37
HETATM   37  O8  UNL     1       1.705   4.676  10.920  1.00  0.00    -0.390 OA
HETATM   38  H48 UNL     1       2.379   4.795  10.217  1.00  0.00     0.210 HD
ENDBRANCH  30  37
BRANCH  31  39
HETATM   39  O9  UNL     1       3.115   6.467  12.436  1.00  0.00    -0.388 OA
HETATM   40  H50 UNL     1       3.311   5.521  12.277  1.00  0.00     0.210 HD
ENDBRANCH  31  39
ENDBRANCH  25  26
ENDBRANCH  21  25
BRANCH   1  41
HETATM   41  C2  UNL     1      -2.747  15.641  20.053  1.00  0.00    -0.010 C 
HETATM   42  C1  UNL     1      -1.397  15.613  20.777  1.00  0.00     0.010 C 
BRANCH  41  43
HETATM   43  C3  UNL     1      -3.825  16.247  20.994  1.00  0.00     0.031 C 
BRANCH  43  44
HETATM   44  C4  UNL     1      -3.324  16.696  22.342  1.00  0.00    -0.027 C 
HETATM   45  C5  UNL     1      -3.444  15.953  23.457  1.00  0.00     0.006 C 
BRANCH  45  46
HETATM   46  C6  UNL     1      -2.978  16.288  24.853  1.00  0.00     0.068 C 
HETATM   47  C7  UNL     1      -1.913  17.386  24.785  1.00  0.00     0.050 C 
HETATM   48  C8  UNL     1      -4.084  16.685  25.836  1.00  0.00     0.050 C 
BRANCH  46  49
HETATM   49  O1  UNL     1      -2.370  15.094  25.351  1.00  0.00    -0.387 OA
HETATM   50  H15 UNL     1      -1.881  15.320  26.160  1.00  0.00     0.211 HD
ENDBRANCH  46  49
ENDBRANCH  45  46
ENDBRANCH  43  44
ENDBRANCH  41  43
ENDBRANCH   1  41
TORSDOF 12
ENDMDL
