MODEL 1
REMARK minimizedAffinity -7.54979563
REMARK CNNscore 0.673450708
REMARK CNNaffinity 6.94741011
REMARK  5 active torsions:
REMARK  status: ('A' for Active; 'I' for Inactive)
REMARK    1  A    between atoms: C2_2  and  C25_28 
REMARK    2  A    between atoms: C3_3  and  C4_4 
REMARK    3  A    between atoms: C4_4  and  C6_6 
REMARK    4  A    between atoms: C20_20  and  O1_21 
REMARK    5  A    between atoms: C25_28  and  C27_30 
ROOT
HETATM    1  C6  UNL     1       3.971  55.226  -8.040  1.00  0.00     0.001 C 
HETATM    2  C7  UNL     1       3.219  56.344  -7.258  1.00  0.00     0.006 C 
HETATM    3  C8  UNL     1       1.714  56.114  -7.474  1.00  0.00     0.009 C 
HETATM    4  C9  UNL     1       1.654  54.807  -8.258  1.00  0.00     0.036 C 
HETATM    5  C10 UNL     1       2.929  54.817  -9.139  1.00  0.00    -0.033 C 
HETATM    6  C11 UNL     1       2.905  55.845 -10.290  1.00  0.00     0.016 C 
HETATM    7  C12 UNL     1       3.087  53.392  -9.706  1.00  0.00     0.010 C 
HETATM    8  C13 UNL     1       1.848  52.933 -10.495  1.00  0.00     0.010 C 
HETATM    9  C14 UNL     1       0.545  53.029  -9.677  1.00  0.00     0.039 C 
HETATM   10  C15 UNL     1       0.348  54.403  -8.949  1.00  0.00     0.123 C 
HETATM   11  C16 UNL     1      -0.330  55.434  -9.812  1.00  0.00     0.014 C 
HETATM   12  C17 UNL     1      -1.535  55.042 -10.257  1.00  0.00     0.014 C 
HETATM   13  C18 UNL     1      -1.891  53.611  -9.896  1.00  0.00     0.124 C 
HETATM   14  C19 UNL     1      -3.314  53.242 -10.335  1.00  0.00     0.078 C 
HETATM   15  C20 UNL     1      -3.612  51.739 -10.274  1.00  0.00     0.121 C 
HETATM   16  C21 UNL     1      -2.529  50.911  -9.589  1.00  0.00     0.033 C 
HETATM   17  C22 UNL     1      -1.142  51.144 -10.192  1.00  0.00     0.015 C 
HETATM   18  C23 UNL     1      -0.785  52.642 -10.454  1.00  0.00     0.001 C 
HETATM   19  C24 UNL     1      -0.645  52.817 -11.991  1.00  0.00     0.019 C 
HETATM   20  O2  UNL     1      -1.849  53.515  -8.444  1.00  0.00    -0.223 OA
HETATM   21  O3  UNL     1      -0.623  54.158  -7.892  1.00  0.00    -0.224 OA
ENDROOT
BRANCH   1  22
HETATM   22  C4  UNL     1       5.401  55.661  -8.459  1.00  0.00     0.009 C 
HETATM   23  C5  UNL     1       5.906  54.992  -9.742  1.00  0.00     0.014 C 
BRANCH  22  24
HETATM   24  C3  UNL     1       6.494  55.538  -7.401  1.00  0.00    -0.019 C 
HETATM   25  C2  UNL     1       6.865  56.351  -6.388  1.00  0.00    -0.083 C 
HETATM   26  C1  UNL     1       6.170  57.646  -6.055  1.00  0.00     0.043 C 
BRANCH  25  27
HETATM   27  C25 UNL     1       8.046  56.005  -5.462  1.00  0.00     0.013 C 
HETATM   28  C26 UNL     1       7.761  54.741  -4.621  1.00  0.00     0.015 C 
BRANCH  27  29
HETATM   29  C27 UNL     1       8.484  57.210  -4.568  1.00  0.00    -0.015 C 
HETATM   30  C28 UNL     1       9.736  57.913  -5.108  1.00  0.00     0.010 C 
HETATM   31  C29 UNL     1       7.374  58.255  -4.400  1.00  0.00     0.010 C 
ENDBRANCH  27  29
ENDBRANCH  25  27
ENDBRANCH  22  24
ENDBRANCH   1  22
BRANCH  15  32
HETATM   32  O1  UNL     1      -3.792  51.272 -11.616  1.00  0.00    -0.395 OA
HETATM   33  H28 UNL     1      -3.885  50.302 -11.587  1.00  0.00     0.210 HD
ENDBRANCH  15  32
TORSDOF 5
ENDMDL
