MODEL 1
REMARK minimizedAffinity -8.21942329
REMARK CNNscore 0.505327702
REMARK CNNaffinity 7.18223524
REMARK  6 active torsions:
REMARK  status: ('A' for Active; 'I' for Inactive)
REMARK    1  A    between atoms: C2_2  and  C3_3 
REMARK    2  A    between atoms: C5_5  and  C6_6 
REMARK    3  A    between atoms: C6_6  and  C7_7 
REMARK    4  A    between atoms: C8_8  and  C9_9 
REMARK       I    between atoms: C9_9  and  N1_11 
REMARK    5  A    between atoms: N1_11  and  C10_12 
REMARK    6  A    between atoms: C10_12  and  C12_14 
ROOT
HETATM    1  C7  UNL     1      -7.668   6.784  13.992  1.00  0.00     0.036 C 
HETATM    2  C8  UNL     1      -8.144   5.468  13.394  1.00  0.00     0.011 C 
HETATM    3  C18 UNL     1      -9.365   5.388  12.839  1.00  0.00    -0.013 C 
HETATM    4  C19 UNL     1     -10.261   6.579  12.897  1.00  0.00     0.034 C 
HETATM    5  C20 UNL     1     -10.267   7.185  14.321  1.00  0.00     0.005 C 
HETATM    6  C21 UNL     1     -11.232   8.421  14.438  1.00  0.00    -0.043 C 
HETATM    7  C22 UNL     1     -12.707   7.943  14.381  1.00  0.00     0.015 C 
HETATM    8  C23 UNL     1     -11.056   9.452  13.303  1.00  0.00     0.015 C 
HETATM    9  C24 UNL     1     -11.027   9.093  15.806  1.00  0.00     0.009 C 
HETATM   10  C25 UNL     1      -9.613   9.599  16.043  1.00  0.00     0.002 C 
HETATM   11  C26 UNL     1      -8.521   8.854  15.280  1.00  0.00     0.010 C 
HETATM   12  C27 UNL     1      -8.802   7.367  14.958  1.00  0.00    -0.031 C 
HETATM   13  C28 UNL     1      -8.771   6.583  16.302  1.00  0.00     0.016 C 
ENDROOT
BRANCH   2  14
HETATM   14  C9  UNL     1      -7.310   4.243  13.369  1.00  0.00     0.248 C 
HETATM   15  O1  UNL     1      -7.346   3.416  14.268  1.00  0.00    -0.268 OA
HETATM   16  N1  UNL     1      -6.525   4.170  12.246  1.00  0.00    -0.349 N 
HETATM   17  H11 UNL     1      -6.470   4.992  11.659  1.00  0.00     0.163 HD
BRANCH  16  18
HETATM   18  C10 UNL     1      -5.469   3.183  12.119  1.00  0.00     0.114 C 
HETATM   19  C11 UNL     1      -5.695   2.328  10.870  1.00  0.00     0.037 C 
BRANCH  18  20
HETATM   20  C12 UNL     1      -4.119   3.879  12.121  1.00  0.00    -0.036 A 
HETATM   21  C13 UNL     1      -3.223   3.651  11.063  1.00  0.00     0.009 A 
HETATM   22  C14 UNL     1      -1.970   4.264  11.042  1.00  0.00     0.001 A 
HETATM   23  C15 UNL     1      -1.588   5.108  12.082  1.00  0.00     0.000 A 
HETATM   24  C16 UNL     1      -2.454   5.328  13.152  1.00  0.00     0.001 A 
HETATM   25  C17 UNL     1      -3.709   4.715  13.173  1.00  0.00     0.009 A 
ENDBRANCH  18  20
ENDBRANCH  16  18
ENDBRANCH   2  14
BRANCH   1  26
HETATM   26  C6  UNL     1      -6.222   6.679  14.572  1.00  0.00     0.038 C 
BRANCH  26  27
HETATM   27  C5  UNL     1      -5.614   7.971  15.052  1.00  0.00    -0.019 C 
HETATM   28  C3  UNL     1      -4.740   8.781  14.417  1.00  0.00    -0.067 C 
HETATM   29  C4  UNL     1      -4.179   8.510  13.045  1.00  0.00     0.048 C 
BRANCH  28  30
HETATM   30  C2  UNL     1      -4.306   9.999  15.097  1.00  0.00    -0.004 C 
HETATM   31  C1  UNL     1      -3.412  10.086  16.090  1.00  0.00     0.012 C 
ENDBRANCH  28  30
ENDBRANCH  26  27
ENDBRANCH   1  26
TORSDOF 6
ENDMDL
