MODEL 1
REMARK minimizedAffinity -9.71361446
REMARK CNNscore 0.576688409
REMARK CNNaffinity 7.38312769
REMARK  4 active torsions:
REMARK  status: ('A' for Active; 'I' for Inactive)
REMARK    1  A    between atoms: C2_2  and  C3_3 
REMARK    2  A    between atoms: C7_7  and  C8_8 
REMARK    3  A    between atoms: C8_8  and  C9_9 
REMARK    4  A    between atoms: C26_31  and  O5_32 
ROOT
HETATM    1  C3  UNL     1       0.588  52.653 -19.661  1.00  0.00     0.008 C 
HETATM    2  C4  UNL     1      -0.813  52.163 -19.362  1.00  0.00    -0.026 C 
HETATM    3  C5  UNL     1      -1.106  50.855 -19.261  1.00  0.00    -0.028 C 
HETATM    4  C6  UNL     1      -2.467  50.293 -18.957  1.00  0.00     0.059 C 
HETATM    5  C7  UNL     1      -2.957  49.121 -19.853  1.00  0.00     0.135 C 
HETATM    6  O1  UNL     1      -3.338  49.540 -21.180  1.00  0.00    -0.315 OA
HETATM    7  C12 UNL     1      -4.518  50.218 -21.276  1.00  0.00     0.276 C 
HETATM    8  O2  UNL     1      -5.164  50.606 -20.303  1.00  0.00    -0.264 OA
HETATM    9  C13 UNL     1      -5.074  50.265 -22.735  1.00  0.00     0.095 C 
HETATM   10  C14 UNL     1      -5.903  51.561 -22.896  1.00  0.00     0.036 C 
HETATM   11  C15 UNL     1      -6.078  49.122 -22.708  1.00  0.00     0.003 C 
HETATM   12  C16 UNL     1      -6.497  48.273 -23.648  1.00  0.00     0.072 C 
HETATM   13  C17 UNL     1      -6.129  48.197 -25.062  1.00  0.00     0.245 C 
HETATM   14  O3  UNL     1      -6.814  47.499 -25.808  1.00  0.00    -0.268 OA
HETATM   15  N1  UNL     1      -5.043  48.828 -25.547  1.00  0.00    -0.320 N 
HETATM   16  C18 UNL     1      -4.059  49.638 -25.037  1.00  0.00     0.098 C 
HETATM   17  C19 UNL     1      -4.005  50.235 -23.833  1.00  0.00     0.045 C 
HETATM   18  C20 UNL     1      -2.822  51.127 -23.556  1.00  0.00     0.194 C 
HETATM   19  O4  UNL     1      -2.877  51.958 -22.659  1.00  0.00    -0.287 OA
HETATM   20  C21 UNL     1      -1.638  51.100 -24.431  1.00  0.00     0.046 A 
HETATM   21  C22 UNL     1      -1.777  50.592 -25.711  1.00  0.00     0.032 A 
HETATM   22  C23 UNL     1      -0.746  50.719 -26.657  1.00  0.00     0.026 A 
HETATM   23  C24 UNL     1       0.460  51.353 -26.328  1.00  0.00    -0.027 A 
HETATM   24  C25 UNL     1       1.530  51.488 -27.372  1.00  0.00     0.051 C 
HETATM   25  C26 UNL     1       0.632  51.793 -25.012  1.00  0.00     0.086 A 
HETATM   26  C27 UNL     1      -0.406  51.663 -24.072  1.00  0.00     0.059 A 
HETATM   27  C28 UNL     1      -0.056  51.875 -22.658  1.00  0.00     0.163 C 
HETATM   28  O6  UNL     1       0.348  50.884 -22.057  1.00  0.00    -0.292 OA
HETATM   29  C29 UNL     1      -0.206  53.273 -22.088  1.00  0.00     0.084 C 
HETATM   30  C30 UNL     1       0.686  53.593 -20.886  1.00  0.00     0.016 C 
HETATM   31  C31 UNL     1      -3.004  49.886 -26.080  1.00  0.00     0.210 C 
HETATM   32  O7  UNL     1      -3.162  49.477 -27.228  1.00  0.00    -0.285 OA
HETATM   33  H26 UNL     1      -4.907  48.589 -26.532  1.00  0.00     0.169 HD
ENDROOT
BRANCH   5  34
HETATM   34  C8  UNL     1      -1.912  47.993 -19.981  1.00  0.00     0.037 C 
BRANCH  34  35
HETATM   35  C9  UNL     1      -2.118  46.968 -21.121  1.00  0.00    -0.020 C 
HETATM   36  C10 UNL     1      -3.454  46.233 -21.021  1.00  0.00     0.009 C 
HETATM   37  C11 UNL     1      -1.939  47.565 -22.517  1.00  0.00     0.009 C 
ENDBRANCH  34  35
ENDBRANCH   5  34
BRANCH   1  38
HETATM   38  C2  UNL     1       1.252  53.273 -18.410  1.00  0.00     0.004 C 
HETATM   39  C1  UNL     1       1.433  52.339 -17.219  1.00  0.00     0.006 C 
ENDBRANCH   1  38
BRANCH  25  40
HETATM   40  O5  UNL     1       1.808  52.359 -24.605  1.00  0.00    -0.359 OA
HETATM   41  H31 UNL     1       2.533  52.076 -25.189  1.00  0.00     0.217 HD
ENDBRANCH  25  40
TORSDOF 4
ENDMDL
