MODEL 1
REMARK minimizedAffinity -8.18511391
REMARK CNNscore 0.624970198
REMARK CNNaffinity 6.89309692
REMARK  7 active torsions:
REMARK  status: ('A' for Active; 'I' for Inactive)
REMARK    1  A    between atoms: C2_2  and  C30_32 
REMARK    2  A    between atoms: C3_3  and  C4_4 
REMARK    3  A    between atoms: C4_4  and  O1_5 
REMARK    4  A    between atoms: C4_4  and  C5_6 
REMARK    5  A    between atoms: C5_6  and  C6_7 
REMARK    6  A    between atoms: C6_7  and  C8_9 
REMARK    7  A    between atoms: C30_32  and  O4_34 
ROOT
HETATM    1  C8  UNL     1      -2.177   9.196  15.531  1.00  0.00    -0.002 C 
HETATM    2  C9  UNL     1      -1.215   8.522  16.563  1.00  0.00     0.007 C 
HETATM    3  C10 UNL     1      -0.066   7.866  15.769  1.00  0.00     0.015 C 
HETATM    4  C11 UNL     1      -0.198   8.457  14.356  1.00  0.00    -0.013 C 
HETATM    5  C12 UNL     1       0.482   9.872  14.414  1.00  0.00     0.021 C 
HETATM    6  C13 UNL     1       0.480   7.732  13.190  1.00  0.00    -0.070 C 
HETATM    7  C14 UNL     1       1.738   7.267  13.311  1.00  0.00    -0.022 C 
HETATM    8  C15 UNL     1       2.610   6.927  12.142  1.00  0.00     0.034 C 
HETATM    9  C16 UNL     1       2.135   7.666  10.871  1.00  0.00     0.013 C 
HETATM   10  C17 UNL     1       3.149   7.568   9.674  1.00  0.00     0.018 C 
HETATM   11  C18 UNL     1       4.407   8.411  10.013  1.00  0.00     0.023 C 
HETATM   12  C19 UNL     1       3.642   6.154   9.328  1.00  0.00     0.023 C 
HETATM   13  C20 UNL     1       2.506   8.168   8.414  1.00  0.00     0.135 C 
HETATM   14  O2  UNL     1       3.117   8.911   7.646  1.00  0.00    -0.297 OA
HETATM   15  C21 UNL     1       1.090   7.757   8.096  1.00  0.00     0.080 C 
HETATM   16  C22 UNL     1       0.192   8.047   9.287  1.00  0.00     0.017 C 
HETATM   17  C23 UNL     1       0.630   7.324  10.584  1.00  0.00    -0.031 C 
HETATM   18  C24 UNL     1       0.397   5.798  10.389  1.00  0.00     0.016 C 
HETATM   19  C25 UNL     1      -0.263   7.743  11.842  1.00  0.00     0.024 C 
HETATM   20  C26 UNL     1      -1.105   9.031  11.710  1.00  0.00     0.010 C 
HETATM   21  C27 UNL     1      -2.089   9.276  12.888  1.00  0.00     0.011 C 
HETATM   22  C28 UNL     1      -1.759   8.505  14.190  1.00  0.00    -0.029 C 
HETATM   23  C29 UNL     1      -2.434   7.095  14.160  1.00  0.00     0.016 C 
ENDROOT
BRANCH   1  24
HETATM   24  C6  UNL     1      -3.664   9.166  16.007  1.00  0.00    -0.011 C 
HETATM   25  C7  UNL     1      -4.609   8.652  14.917  1.00  0.00     0.010 C 
BRANCH  24  26
HETATM   26  C5  UNL     1      -4.095  10.593  16.463  1.00  0.00     0.040 C 
BRANCH  26  27
HETATM   27  C4  UNL     1      -3.095  11.322  17.379  1.00  0.00     0.142 C 
BRANCH  27  28
HETATM   28  C3  UNL     1      -3.734  11.720  18.686  1.00  0.00     0.018 C 
HETATM   29  C2  UNL     1      -4.424  12.849  18.951  1.00  0.00     0.010 C 
HETATM   30  C1  UNL     1      -5.087  13.114  20.267  1.00  0.00     0.055 C 
BRANCH  29  31
HETATM   31  C30 UNL     1      -4.602  13.922  17.951  1.00  0.00     0.171 C 
HETATM   32  O3  UNL     1      -3.892  14.902  17.834  1.00  0.00    -0.646 OA
BRANCH  31  33
HETATM   33  O4  UNL     1      -5.609  13.656  17.100  1.00  0.00    -0.773 OA
HETATM   34  H46 UNL     1      -5.646  14.450  16.530  1.00  0.00     0.167 HD
ENDBRANCH  31  33
ENDBRANCH  29  31
ENDBRANCH  27  28
BRANCH  27  35
HETATM   35  O1  UNL     1      -2.625  12.485  16.706  1.00  0.00    -0.392 OA
HETATM   36  H6  UNL     1      -3.372  13.101  16.630  1.00  0.00     0.210 HD
ENDBRANCH  27  35
ENDBRANCH  26  27
ENDBRANCH  24  26
ENDBRANCH   1  24
TORSDOF 7
ENDMDL
