MODEL 1
REMARK minimizedAffinity -7.84966707
REMARK CNNscore 0.749792933
REMARK CNNaffinity 7.32211637
REMARK  9 active torsions:
REMARK  status: ('A' for Active; 'I' for Inactive)
REMARK    1  A    between atoms: C2_2  and  C3_3 
REMARK    2  A    between atoms: C3_3  and  C5_5 
REMARK    3  A    between atoms: C3_3  and  C6_7 
REMARK    4  A    between atoms: C5_5  and  O1_6 
REMARK    5  A    between atoms: C7_8  and  O2_9 
REMARK    6  A    between atoms: C18_22  and  O5_23 
REMARK    7  A    between atoms: O5_23  and  C19_24 
REMARK    8  A    between atoms: C19_24  and  C20_26 
REMARK    9  A    between atoms: C29_36  and  O8_37 
ROOT
HETATM    1  C6  UNL     1      -0.749  52.281 -23.926  1.00  0.00     0.023 A 
HETATM    2  C7  UNL     1       0.402  53.083 -23.718  1.00  0.00     0.076 A 
HETATM    3  C8  UNL     1       0.964  53.278 -22.454  1.00  0.00     0.053 A 
HETATM    4  C9  UNL     1       0.395  52.671 -21.336  1.00  0.00     0.034 A 
HETATM    5  C10 UNL     1       1.002  52.899 -20.014  1.00  0.00     0.192 A 
HETATM    6  O3  UNL     1       1.944  53.675 -19.901  1.00  0.00    -0.287 OA
HETATM    7  C11 UNL     1       0.445  52.183 -18.836  1.00  0.00     0.035 A 
HETATM    8  C12 UNL     1      -0.658  51.431 -18.962  1.00  0.00     0.131 A 
HETATM    9  O4  UNL     1      -1.278  50.796 -17.911  1.00  0.00    -0.336 OA
HETATM   10  C13 UNL     1      -0.625  50.714 -16.630  1.00  0.00     0.065 C 
HETATM   11  C14 UNL     1      -1.789  50.590 -15.623  1.00  0.00     0.046 C 
HETATM   12  C15 UNL     1       0.142  49.387 -16.605  1.00  0.00     0.046 C 
HETATM   13  C16 UNL     1       0.203  52.001 -16.333  1.00  0.00     0.031 C 
HETATM   14  C17 UNL     1       0.939  52.036 -14.980  1.00  0.00     0.041 C 
HETATM   15  C18 UNL     1       2.341  51.421 -14.981  1.00  0.00     0.136 C 
HETATM   16  C23 UNL     1       3.224  51.996 -16.098  1.00  0.00     0.012 C 
HETATM   17  C24 UNL     1       3.639  53.455 -15.864  1.00  0.00     0.012 C 
HETATM   18  C25 UNL     1       2.530  51.813 -17.454  1.00  0.00     0.017 C 
HETATM   19  C26 UNL     1       1.117  52.429 -17.507  1.00  0.00     0.033 C 
HETATM   20  C27 UNL     1      -1.322  51.249 -20.286  1.00  0.00     0.219 A 
HETATM   21  O7  UNL     1      -2.346  50.580 -20.404  1.00  0.00    -0.284 OA
HETATM   22  C28 UNL     1      -0.732  51.877 -21.483  1.00  0.00     0.065 A 
HETATM   23  C29 UNL     1      -1.301  51.686 -22.767  1.00  0.00     0.091 A 
ENDROOT
BRANCH   1  24
HETATM   24  C3  UNL     1      -1.324  52.102 -25.371  1.00  0.00     0.027 C 
HETATM   25  C4  UNL     1      -2.852  52.393 -25.310  1.00  0.00     0.027 C 
BRANCH  24  26
HETATM   26  C2  UNL     1      -0.663  53.063 -26.380  1.00  0.00    -0.021 C 
HETATM   27  C1  UNL     1      -0.422  52.830 -27.680  1.00  0.00     0.008 C 
ENDBRANCH  24  26
BRANCH  24  28
HETATM   28  C5  UNL     1      -1.177  50.676 -26.010  1.00  0.00     0.182 C 
BRANCH  28  29
HETATM   29  O1  UNL     1      -2.394  50.182 -26.593  1.00  0.00    -0.399 OA
HETATM   30  H9  UNL     1      -2.934  49.823 -25.869  1.00  0.00     0.209 HD
ENDBRANCH  28  29
ENDBRANCH  24  28
ENDBRANCH   1  24
BRANCH   2  31
HETATM   31  O2  UNL     1       1.010  53.700 -24.779  1.00  0.00    -0.360 OA
HETATM   32  H10 UNL     1       1.855  54.091 -24.506  1.00  0.00     0.217 HD
ENDBRANCH   2  31
BRANCH  23  33
HETATM   33  O8  UNL     1      -2.421  50.905 -22.896  1.00  0.00    -0.359 OA
HETATM   34  H36 UNL     1      -2.701  50.565 -22.014  1.00  0.00     0.217 HD
ENDBRANCH  23  33
BRANCH  15  35
HETATM   35  O5  UNL     1       2.973  51.671 -13.711  1.00  0.00    -0.315 OA
BRANCH  35  36
HETATM   36  C19 UNL     1       3.234  50.575 -12.941  1.00  0.00     0.262 C 
HETATM   37  O6  UNL     1       4.155  50.491 -12.139  1.00  0.00    -0.265 OA
BRANCH  36  38
HETATM   38  C20 UNL     1       2.233  49.475 -13.247  1.00  0.00     0.077 C 
HETATM   39  C21 UNL     1       1.235  49.332 -12.101  1.00  0.00     0.020 C 
HETATM   40  C22 UNL     1       2.946  48.149 -13.507  1.00  0.00     0.020 C 
ENDBRANCH  36  38
ENDBRANCH  35  36
ENDBRANCH  15  35
TORSDOF 9
ENDMDL
