MODEL 1
REMARK minimizedAffinity -9.44091988
REMARK CNNscore 0.331491172
REMARK CNNaffinity 7.70391083
REMARK  12 active torsions:
REMARK  status: ('A' for Active; 'I' for Inactive)
REMARK    1  A    between atoms: C3_3  and  O1_4 
REMARK    2  A    between atoms: N1_14  and  O2_16 
REMARK    3  A    between atoms: O2_16  and  C13_17 
REMARK    4  A    between atoms: C13_17  and  C14_18 
REMARK       I    between atoms: C14_18  and  N2_20 
REMARK    5  A    between atoms: N2_20  and  C15_21 
REMARK    6  A    between atoms: C15_21  and  C16_22 
REMARK    7  A    between atoms: C15_21  and  C27_38 
REMARK       I    between atoms: C16_22  and  N3_24 
REMARK    8  A    between atoms: N3_24  and  C17_25 
REMARK    9  A    between atoms: C17_25  and  C18_26 
REMARK   10  A    between atoms: C17_25  and  C20_30 
REMARK   11  A    between atoms: C18_26  and  C19_27 
REMARK   12  A    between atoms: C19_27  and  O6_29 
ROOT
HETATM    1  C1  UNL     1     -14.800   9.172  12.998  1.00  0.00     0.015 C 
HETATM    2  C2  UNL     1     -13.677   9.152  13.426  1.00  0.00    -0.078 C 
HETATM    3  C3  UNL     1     -12.307   9.164  13.961  1.00  0.00     0.128 C 
HETATM    4  C4  UNL     1     -12.271   9.688  15.400  1.00  0.00     0.052 C 
HETATM    5  C5  UNL     1     -10.869   9.305  15.855  1.00  0.00     0.010 C 
HETATM    6  C6  UNL     1     -10.697   7.879  15.330  1.00  0.00     0.002 C 
HETATM    7  C7  UNL     1      -9.244   7.366  15.207  1.00  0.00    -0.004 C 
HETATM    8  C8  UNL     1      -8.203   8.346  14.646  1.00  0.00     0.010 C 
HETATM    9  C9  UNL     1      -6.796   7.746  14.655  1.00  0.00     0.035 C 
HETATM   10  C10 UNL     1      -6.700   6.358  14.057  1.00  0.00    -0.069 C 
HETATM   11  C11 UNL     1      -5.623   6.033  13.316  1.00  0.00     0.030 C 
HETATM   12  C12 UNL     1      -5.338   4.622  12.910  1.00  0.00     0.032 C 
HETATM   13  N1  UNL     1      -4.247   4.203  12.343  1.00  0.00    -0.271 N 
ATOM     14  H1  UNL     1      -4.053   3.222  12.141  1.00  0.00     0.194 HD
HETATM   15  C30 UNL     1      -6.359   3.556  13.267  1.00  0.00     0.060 C 
HETATM   16  C31 UNL     1      -7.752   4.142  13.445  1.00  0.00     0.020 C 
HETATM   17  C32 UNL     1      -7.793   5.357  14.425  1.00  0.00    -0.016 C 
HETATM   18  C33 UNL     1      -7.498   4.829  15.856  1.00  0.00     0.020 C 
HETATM   19  C34 UNL     1      -9.217   6.043  14.402  1.00  0.00     0.002 C 
HETATM   20  C35 UNL     1      -9.793   6.245  12.975  1.00  0.00     0.007 C 
HETATM   21  C36 UNL     1     -10.778   7.409  12.803  1.00  0.00     0.014 C 
HETATM   22  C37 UNL     1     -11.602   7.760  14.056  1.00  0.00     0.003 C 
HETATM   23  C38 UNL     1     -12.624   6.619  14.302  1.00  0.00     0.020 C 
ENDROOT
BRANCH   3  24
HETATM   24  O1  UNL     1     -11.533  10.065  13.166  1.00  0.00    -0.377 OA
HETATM   25  H2  UNL     1     -12.070  10.865  13.043  1.00  0.00     0.211 HD
ENDBRANCH   3  24
BRANCH  13  26
HETATM   26  O2  UNL     1      -3.369   5.251  12.040  1.00  0.00    -0.271 OA
BRANCH  26  27
HETATM   27  C13 UNL     1      -2.155   5.079  12.751  1.00  0.00     0.303 C 
BRANCH  27  28
HETATM   28  C14 UNL     1      -1.411   6.348  13.184  1.00  0.00     0.244 C 
HETATM   29  O3  UNL     1      -1.162   7.307  12.458  1.00  0.00    -0.271 OA
HETATM   30  N2  UNL     1      -1.038   6.320  14.528  1.00  0.00    -0.346 N 
HETATM   31  H16 UNL     1      -1.606   5.725  15.125  1.00  0.00     0.163 HD
BRANCH  30  32
HETATM   32  C15 UNL     1      -0.514   7.525  15.172  1.00  0.00     0.180 C 
BRANCH  32  33
HETATM   33  C16 UNL     1       0.476   8.186  14.185  1.00  0.00     0.241 C 
HETATM   34  O4  UNL     1       0.453   9.390  13.947  1.00  0.00    -0.271 OA
HETATM   35  N3  UNL     1       1.419   7.330  13.656  1.00  0.00    -0.354 N 
HETATM   36  H18 UNL     1       1.296   6.333  13.814  1.00  0.00     0.162 HD
BRANCH  35  37
HETATM   37  C17 UNL     1       2.430   7.782  12.695  1.00  0.00     0.098 C 
BRANCH  37  38
HETATM   38  C18 UNL     1       3.845   7.420  13.189  1.00  0.00     0.135 C 
BRANCH  38  39
HETATM   39  C19 UNL     1       4.886   8.402  12.721  1.00  0.00     0.141 C 
HETATM   40  O5  UNL     1       5.188   9.468  13.220  1.00  0.00    -0.650 OA
BRANCH  39  41
HETATM   41  O6  UNL     1       5.550   7.950  11.637  1.00  0.00    -0.776 OA
HETATM   42  H22 UNL     1       6.242   8.626  11.487  1.00  0.00     0.167 HD
ENDBRANCH  39  41
ENDBRANCH  38  39
ENDBRANCH  37  38
BRANCH  37  43
HETATM   43  C20 UNL     1       2.077   7.238  11.280  1.00  0.00     0.014 C 
HETATM   44  C21 UNL     1       2.699   5.860  10.957  1.00  0.00     0.033 C 
HETATM   45  C22 UNL     1       2.957   5.671   9.463  1.00  0.00     0.169 C 
HETATM   46  O7  UNL     1       1.914   6.269   8.701  1.00  0.00    -0.381 OA
HETATM   47  C23 UNL     1       1.869   7.705   8.791  1.00  0.00     0.054 C 
HETATM   48  C24 UNL     1       2.691   8.298   7.638  1.00  0.00     0.045 C 
HETATM   49  C25 UNL     1       0.396   8.087   8.600  1.00  0.00     0.045 C 
HETATM   50  C26 UNL     1       2.395   8.223  10.149  1.00  0.00     0.044 C 
ENDBRANCH  37  43
ENDBRANCH  35  37
ENDBRANCH  32  33
BRANCH  32  51
HETATM   51  C27 UNL     1      -1.653   8.478  15.602  1.00  0.00     0.009 C 
HETATM   52  C28 UNL     1      -3.003   7.757  15.689  1.00  0.00     0.012 C 
HETATM   53  C29 UNL     1      -1.384   9.224  16.919  1.00  0.00     0.012 C 
ENDBRANCH  32  51
ENDBRANCH  30  32
ENDBRANCH  27  28
ENDBRANCH  26  27
ENDBRANCH  13  26
TORSDOF 12
ENDMDL
