MODEL 1
REMARK minimizedAffinity -8.9019804
REMARK CNNscore 0.738767743
REMARK CNNaffinity 7.29105425
REMARK  18 active torsions:
REMARK  status: ('A' for Active; 'I' for Inactive)
REMARK    1  A    between atoms: C2_2  and  C4_4 
REMARK    2  A    between atoms: C4_4  and  N1_5 
REMARK    3  A    between atoms: C4_4  and  C30_38 
REMARK       I    between atoms: N1_5  and  C5_6 
REMARK    4  A    between atoms: C5_6  and  C6_8 
REMARK    5  A    between atoms: C6_8  and  C7_9 
REMARK    6  A    between atoms: C7_9  and  C8_10 
REMARK    7  A    between atoms: C8_10  and  O3_12 
REMARK    8  A    between atoms: O3_12  and  C9_13 
REMARK    9  A    between atoms: C9_13  and  C10_14 
REMARK   10  A    between atoms: C10_14  and  C11_16 
REMARK   11  A    between atoms: C11_16  and  O5_17 
REMARK   12  A    between atoms: C26_33  and  O7_34 
REMARK       I    between atoms: C30_38  and  N2_40 
REMARK   13  A    between atoms: N2_40  and  C31_41 
REMARK   14  A    between atoms: C31_41  and  C32_42 
REMARK   15  A    between atoms: C32_42  and  C33_43 
REMARK   16  A    between atoms: C32_42  and  C35_47 
REMARK   17  A    between atoms: C33_43  and  C34_44 
REMARK   18  A    between atoms: C34_44  and  O10_46 
ROOT
HETATM    1  C8  UNL     1      -4.911   6.979  14.907  1.00  0.00     0.259 C 
HETATM    2  O2  UNL     1      -4.943   7.068  13.688  1.00  0.00    -0.265 OA
ENDROOT
BRANCH   1   3
HETATM    3  C7  UNL     1      -5.999   6.326  15.726  1.00  0.00     0.120 C 
BRANCH   3   4
HETATM    4  C6  UNL     1      -7.202   5.920  14.888  1.00  0.00     0.112 C 
BRANCH   4   5
HETATM    5  C5  UNL     1      -8.257   7.004  14.915  1.00  0.00     0.218 C 
HETATM    6  N1  UNL     1      -9.533   6.545  15.147  1.00  0.00    -0.347 N 
HETATM    7  H9  UNL     1      -9.688   5.566  15.346  1.00  0.00     0.163 HD
HETATM    8  O1  UNL     1      -7.985   8.181  14.711  1.00  0.00    -0.274 OA
BRANCH   6   9
HETATM    9  C4  UNL     1     -10.688   7.461  15.154  1.00  0.00     0.179 C 
BRANCH   9  10
HETATM   10  C2  UNL     1     -10.209   8.909  15.433  1.00  0.00     0.009 C 
HETATM   11  C1  UNL     1     -10.879   9.946  14.525  1.00  0.00     0.012 C 
HETATM   12  C3  UNL     1     -10.470   9.302  16.895  1.00  0.00     0.012 C 
ENDBRANCH   9  10
BRANCH   9  13
HETATM   13  C30 UNL     1     -11.442   7.368  13.800  1.00  0.00     0.240 C 
HETATM   14  O8  UNL     1     -10.858   7.342  12.719  1.00  0.00    -0.271 OA
HETATM   15  N2  UNL     1     -12.804   7.174  13.906  1.00  0.00    -0.359 N 
HETATM   16  H43 UNL     1     -13.185   7.033  14.830  1.00  0.00     0.162 HD
BRANCH  15  17
HETATM   17  C31 UNL     1     -13.624   6.834  12.761  1.00  0.00     0.132 C 
BRANCH  17  18
HETATM   18  C32 UNL     1     -15.067   7.364  12.907  1.00  0.00     0.046 C 
BRANCH  18  19
HETATM   19  C33 UNL     1     -15.071   8.897  12.822  1.00  0.00     0.120 C 
BRANCH  19  20
HETATM   20  C34 UNL     1     -16.031   9.409  11.783  1.00  0.00     0.140 C 
HETATM   21  O9  UNL     1     -16.066   9.138  10.594  1.00  0.00    -0.650 OA
BRANCH  20  22
HETATM   22  O10 UNL     1     -16.950  10.241  12.318  1.00  0.00    -0.776 OA
HETATM   23  H49 UNL     1     -17.515  10.490  11.558  1.00  0.00     0.167 HD
ENDBRANCH  20  22
ENDBRANCH  19  20
ENDBRANCH  18  19
BRANCH  18  24
HETATM   24  C35 UNL     1     -15.706   6.838  14.190  1.00  0.00    -0.052 A 
HETATM   25  C36 UNL     1     -16.104   7.694  15.230  1.00  0.00     0.007 A 
HETATM   26  C37 UNL     1     -16.640   7.176  16.410  1.00  0.00     0.001 A 
HETATM   27  C38 UNL     1     -16.795   5.801  16.563  1.00  0.00     0.000 A 
HETATM   28  C39 UNL     1     -16.419   4.940  15.535  1.00  0.00     0.001 A 
HETATM   29  C40 UNL     1     -15.877   5.453  14.357  1.00  0.00     0.007 A 
ENDBRANCH  18  24
ENDBRANCH  17  18
ENDBRANCH  15  17
ENDBRANCH   9  13
ENDBRANCH   6   9
ENDBRANCH   4   5
ENDBRANCH   3   4
ENDBRANCH   1   3
BRANCH   1  30
HETATM   30  O3  UNL     1      -3.894   7.410  15.698  1.00  0.00    -0.314 OA
BRANCH  30  31
HETATM   31  C9  UNL     1      -2.636   6.783  15.441  1.00  0.00     0.260 C 
BRANCH  31  32
HETATM   32  C10 UNL     1      -1.660   7.730  14.756  1.00  0.00     0.185 C 
HETATM   33  O4  UNL     1      -0.993   8.558  15.394  1.00  0.00    -0.292 OA
BRANCH  32  34
HETATM   34  C11 UNL     1      -1.497   7.670  13.225  1.00  0.00     0.128 C 
HETATM   35  C12 UNL     1      -2.167   8.785  12.389  1.00  0.00     0.047 C 
HETATM   36  C13 UNL     1      -1.266   9.001  11.152  1.00  0.00     0.009 C 
HETATM   37  C14 UNL     1      -0.235   7.879  11.229  1.00  0.00     0.002 C 
HETATM   38  C15 UNL     1       1.069   8.019  10.434  1.00  0.00    -0.002 C 
HETATM   39  C28 UNL     1      -0.012   7.689  12.747  1.00  0.00     0.001 C 
HETATM   40  C16 UNL     1       0.774   8.297   8.943  1.00  0.00     0.010 C 
HETATM   41  C25 UNL     1       1.912   6.707  10.630  1.00  0.00     0.031 C 
HETATM   42  C17 UNL     1       2.021   8.246   8.060  1.00  0.00     0.035 C 
HETATM   43  C18 UNL     1       2.747   6.949   8.315  1.00  0.00    -0.068 C 
HETATM   44  C19 UNL     1       2.818   6.011   7.354  1.00  0.00     0.053 C 
HETATM   45  C23 UNL     1       3.226   6.740   9.761  1.00  0.00    -0.014 C 
HETATM   46  C20 UNL     1       3.268   4.632   7.662  1.00  0.00     0.149 C 
HETATM   47  O6  UNL     1       3.394   3.818   6.750  1.00  0.00    -0.293 OA
HETATM   48  C21 UNL     1       3.452   4.259   9.110  1.00  0.00     0.084 C 
HETATM   49  C22 UNL     1       4.061   5.431   9.859  1.00  0.00     0.022 C 
HETATM   50  C24 UNL     1       4.200   7.882  10.153  1.00  0.00     0.020 C 
HETATM   51  C26 UNL     1       2.093   6.329  12.129  1.00  0.00     0.124 C 
HETATM   52  C27 UNL     1       0.779   6.377  12.938  1.00  0.00     0.045 C 
HETATM   53  C29 UNL     1       0.739   8.875  13.408  1.00  0.00     0.019 C 
BRANCH  34  54
HETATM   54  O5  UNL     1      -2.118   6.430  12.827  1.00  0.00    -0.381 OA
HETATM   55  H16 UNL     1      -1.943   5.788  13.547  1.00  0.00     0.211 HD
ENDBRANCH  34  54
BRANCH  51  56
HETATM   56  O7  UNL     1       3.069   7.147  12.755  1.00  0.00    -0.395 OA
HETATM   57  H37 UNL     1       3.203   6.814  13.659  1.00  0.00     0.210 HD
ENDBRANCH  51  56
ENDBRANCH  32  34
ENDBRANCH  31  32
ENDBRANCH  30  31
ENDBRANCH   1  30
TORSDOF 18
ENDMDL
