MODEL 1
REMARK minimizedAffinity -9.5121727
REMARK CNNscore 0.56178534
REMARK CNNaffinity 7.45293856
REMARK  10 active torsions:
REMARK  status: ('A' for Active; 'I' for Inactive)
REMARK    1  A    between atoms: O1_2  and  C2_3 
REMARK    2  A    between atoms: C2_3  and  C3_5 
REMARK    3  A    between atoms: C3_5  and  C4_6 
REMARK    4  A    between atoms: C3_5  and  N1_13 
REMARK    5  A    between atoms: C4_6  and  C5_7 
REMARK       I    between atoms: N1_13  and  C11_14 
REMARK    6  A    between atoms: C11_14  and  C12_16 
REMARK    7  A    between atoms: C12_16  and  O4_17 
REMARK    8  A    between atoms: O4_17  and  N2_18 
REMARK    9  A    between atoms: C27_34  and  O5_35 
REMARK   10  A    between atoms: C27_34  and  C28_36 
ROOT
HETATM    1  N2  UNL     1      -2.943   4.641  12.851  1.00  0.00    -0.271 N 
ATOM      2  H2  UNL     1      -2.677   3.950  12.148  1.00  0.00     0.194 HD
HETATM    3  C13 UNL     1      -4.159   4.813  13.275  1.00  0.00     0.032 C 
HETATM    4  C14 UNL     1      -4.587   5.758  14.347  1.00  0.00     0.030 C 
HETATM    5  C15 UNL     1      -5.883   5.952  14.648  1.00  0.00    -0.069 C 
HETATM    6  C16 UNL     1      -6.229   7.064  15.618  1.00  0.00     0.035 C 
HETATM    7  C17 UNL     1      -7.640   7.004  16.196  1.00  0.00     0.010 C 
HETATM    8  C18 UNL     1      -8.746   6.760  15.150  1.00  0.00    -0.004 C 
HETATM    9  C19 UNL     1      -8.176   6.316  13.767  1.00  0.00     0.002 C 
HETATM   10  C20 UNL     1      -9.327   5.956  12.802  1.00  0.00     0.007 C 
HETATM   11  C21 UNL     1     -10.324   7.126  12.639  1.00  0.00     0.013 C 
HETATM   12  C22 UNL     1     -10.879   7.620  13.992  1.00  0.00    -0.002 C 
HETATM   13  C23 UNL     1     -11.810   6.525  14.583  1.00  0.00     0.019 C 
HETATM   14  C24 UNL     1      -9.666   7.963  14.906  1.00  0.00     0.002 C 
HETATM   15  C25 UNL     1     -10.309   8.662  16.097  1.00  0.00     0.009 C 
HETATM   16  C26 UNL     1     -11.475   9.462  15.485  1.00  0.00     0.047 C 
HETATM   17  C27 UNL     1     -11.609   8.999  14.003  1.00  0.00     0.125 C 
HETATM   18  C30 UNL     1      -7.040   5.250  13.923  1.00  0.00    -0.016 C 
HETATM   19  C31 UNL     1      -7.509   4.017  14.731  1.00  0.00     0.020 C 
HETATM   20  C32 UNL     1      -6.547   4.763  12.535  1.00  0.00     0.020 C 
HETATM   21  C33 UNL     1      -5.238   3.981  12.614  1.00  0.00     0.060 C 
ENDROOT
BRANCH   1  22
HETATM   22  O4  UNL     1      -2.036   5.515  13.472  1.00  0.00    -0.271 OA
BRANCH  22  23
HETATM   23  C12 UNL     1      -0.709   5.059  13.244  1.00  0.00     0.303 C 
BRANCH  23  24
HETATM   24  C11 UNL     1      -0.297   5.182  11.779  1.00  0.00     0.244 C 
HETATM   25  N1  UNL     1       0.903   5.820  11.572  1.00  0.00    -0.345 N 
HETATM   26  H12 UNL     1       1.432   6.115  12.396  1.00  0.00     0.163 HD
HETATM   27  O3  UNL     1      -0.964   4.706  10.863  1.00  0.00    -0.271 OA
BRANCH  25  28
HETATM   28  C3  UNL     1       1.463   6.029  10.237  1.00  0.00     0.188 C 
BRANCH  28  29
HETATM   29  C2  UNL     1       1.231   7.493   9.861  1.00  0.00     0.281 C 
HETATM   30  O2  UNL     1       2.133   8.312   9.704  1.00  0.00    -0.263 OA
BRANCH  29  31
HETATM   31  O1  UNL     1      -0.098   7.759   9.722  1.00  0.00    -0.325 OA
HETATM   32  C1  UNL     1      -0.582   8.779  10.596  1.00  0.00     0.213 C 
ENDBRANCH  29  31
ENDBRANCH  28  29
BRANCH  28  33
HETATM   33  C4  UNL     1       2.963   5.706  10.204  1.00  0.00     0.074 C 
BRANCH  33  34
HETATM   34  C5  UNL     1       3.373   4.931   8.973  1.00  0.00    -0.056 A 
HETATM   35  C6  UNL     1       2.950   5.330   7.699  1.00  0.00     0.007 A 
HETATM   36  C7  UNL     1       3.335   4.604   6.571  1.00  0.00     0.001 A 
HETATM   37  C8  UNL     1       4.144   3.476   6.706  1.00  0.00     0.000 A 
HETATM   38  C9  UNL     1       4.571   3.072   7.969  1.00  0.00     0.001 A 
HETATM   39  C10 UNL     1       4.187   3.795   9.098  1.00  0.00     0.007 A 
ENDBRANCH  33  34
ENDBRANCH  28  33
ENDBRANCH  25  28
ENDBRANCH  23  24
ENDBRANCH  22  23
ENDBRANCH   1  22
BRANCH  17  40
HETATM   40  O5  UNL     1     -10.891   9.936  13.191  1.00  0.00    -0.381 OA
HETATM   41  H34 UNL     1     -11.237  10.826  13.387  1.00  0.00     0.211 HD
ENDBRANCH  17  40
BRANCH  17  42
HETATM   42  C28 UNL     1     -13.082   8.957  13.529  1.00  0.00     0.158 C 
HETATM   43  C29 UNL     1     -14.163   9.025  14.581  1.00  0.00     0.094 C 
HETATM   44  O6  UNL     1     -13.390   8.904  12.336  1.00  0.00    -0.295 OA
ENDBRANCH  17  42
TORSDOF 10
ENDMDL
