MODEL 1
REMARK minimizedAffinity -10.2506361
REMARK  6 active torsions:
REMARK  status: ('A' for Active; 'I' for Inactive)
REMARK    1  A    between atoms: C2_2  and  C30_31 
REMARK    2  A    between atoms: C3_3  and  C4_4 
REMARK    3  A    between atoms: C4_4  and  C5_5 
REMARK    4  A    between atoms: C5_5  and  C6_6 
REMARK    5  A    between atoms: C6_6  and  C8_8 
REMARK    6  A    between atoms: C30_31  and  O3_33 
ROOT
HETATM    1  C8  UNL     1      -0.821  52.356 -21.915  1.00  0.00    -0.002 C 
HETATM    2  C9  UNL     1       0.688  52.717 -22.099  1.00  0.00     0.007 C 
HETATM    3  C10 UNL     1       1.376  52.539 -20.726  1.00  0.00     0.015 C 
HETATM    4  C11 UNL     1       0.214  52.408 -19.727  1.00  0.00    -0.013 C 
HETATM    5  C12 UNL     1      -0.269  53.872 -19.423  1.00  0.00     0.021 C 
HETATM    6  C13 UNL     1       0.480  51.775 -18.354  1.00  0.00    -0.070 C 
HETATM    7  C14 UNL     1       1.530  52.172 -17.619  1.00  0.00    -0.022 C 
HETATM    8  C15 UNL     1       1.676  51.898 -16.160  1.00  0.00     0.034 C 
HETATM    9  C16 UNL     1       0.329  51.577 -15.458  1.00  0.00     0.013 C 
HETATM   10  C17 UNL     1       0.517  51.259 -13.923  1.00  0.00     0.018 C 
HETATM   11  C18 UNL     1      -0.644  51.879 -13.111  1.00  0.00     0.023 C 
HETATM   12  C19 UNL     1       1.817  51.819 -13.310  1.00  0.00     0.023 C 
HETATM   13  C20 UNL     1       0.553  49.742 -13.693  1.00  0.00     0.135 C 
HETATM   14  O1  UNL     1       0.241  49.238 -12.613  1.00  0.00    -0.297 OA
HETATM   15  C21 UNL     1       1.086  48.879 -14.812  1.00  0.00     0.080 C 
HETATM   16  C22 UNL     1       0.430  49.151 -16.165  1.00  0.00     0.017 C 
HETATM   17  C23 UNL     1      -0.430  50.455 -16.253  1.00  0.00    -0.031 C 
HETATM   18  C24 UNL     1      -1.817  50.124 -15.649  1.00  0.00     0.016 C 
HETATM   19  C25 UNL     1      -0.601  50.841 -17.793  1.00  0.00     0.024 C 
HETATM   20  C26 UNL     1      -1.990  51.353 -18.249  1.00  0.00     0.010 C 
HETATM   21  C27 UNL     1      -2.141  51.506 -19.789  1.00  0.00     0.011 C 
HETATM   22  C28 UNL     1      -0.805  51.561 -20.567  1.00  0.00    -0.029 C 
HETATM   23  C29 UNL     1      -0.303  50.113 -20.885  1.00  0.00     0.016 C 
ENDROOT
BRANCH   1  24
HETATM   24  C6  UNL     1      -1.441  51.706 -23.185  1.00  0.00    -0.014 C 
HETATM   25  C7  UNL     1      -2.798  51.053 -22.903  1.00  0.00     0.010 C 
BRANCH  24  26
HETATM   26  C5  UNL     1      -1.564  52.696 -24.373  1.00  0.00     0.008 C 
BRANCH  26  27
HETATM   27  C4  UNL     1      -1.187  52.126 -25.746  1.00  0.00     0.028 C 
BRANCH  27  28
HETATM   28  C3  UNL     1       0.286  51.818 -25.805  1.00  0.00    -0.013 C 
HETATM   29  C2  UNL     1       1.066  51.691 -26.899  1.00  0.00     0.008 C 
HETATM   30  C1  UNL     1       0.628  51.839 -28.327  1.00  0.00     0.055 C 
BRANCH  29  31
HETATM   31  C30 UNL     1       2.500  51.382 -26.652  1.00  0.00     0.171 C 
HETATM   32  O2  UNL     1       2.948  50.608 -25.825  1.00  0.00    -0.646 OA
BRANCH  31  33
HETATM   33  O3  UNL     1       3.318  52.070 -27.465  1.00  0.00    -0.773 OA
HETATM   34  H46 UNL     1       4.210  51.772 -27.192  1.00  0.00     0.167 HD
ENDBRANCH  31  33
ENDBRANCH  29  31
ENDBRANCH  27  28
ENDBRANCH  26  27
ENDBRANCH  24  26
ENDBRANCH   1  24
TORSDOF 6
ENDMDL
