MODEL 1
REMARK minimizedAffinity -10.0476227
REMARK  8 active torsions:
REMARK  status: ('A' for Active; 'I' for Inactive)
REMARK    1  A    between atoms: C2_2  and  C3_3 
REMARK    2  A    between atoms: C2_2  and  C27_30 
REMARK    3  A    between atoms: C3_3  and  C4_4 
REMARK    4  A    between atoms: C4_4  and  C5_5 
REMARK    5  A    between atoms: C5_5  and  C7_7 
REMARK    6  A    between atoms: C26_28  and  O3_29 
REMARK    7  A    between atoms: C27_30  and  C29_32 
REMARK    8  A    between atoms: C29_32  and  O5_34 
ROOT
HETATM    1  C7  UNL     1       1.045   6.865  13.493  1.00  0.00    -0.002 C 
HETATM    2  C8  UNL     1       0.196   7.965  14.185  1.00  0.00     0.006 C 
HETATM    3  C9  UNL     1      -1.272   7.564  13.997  1.00  0.00     0.010 C 
HETATM    4  C10 UNL     1      -1.212   6.120  13.492  1.00  0.00     0.027 C 
HETATM    5  C11 UNL     1      -2.414   5.408  12.896  1.00  0.00    -0.036 C 
HETATM    6  C12 UNL     1      -2.244   4.333  12.083  1.00  0.00     0.002 C 
HETATM    7  C13 UNL     1      -0.836   3.961  11.649  1.00  0.00     0.157 C 
HETATM    8  O1  UNL     1      -0.643   3.054  10.839  1.00  0.00    -0.293 OA
HETATM    9  C14 UNL     1       0.357   4.690  12.242  1.00  0.00     0.093 C 
HETATM   10  C15 UNL     1       0.027   6.145  12.557  1.00  0.00    -0.026 C 
HETATM   11  C16 UNL     1      -0.242   6.915  11.244  1.00  0.00     0.016 C 
HETATM   12  C17 UNL     1      -3.412   3.461  11.566  1.00  0.00    -0.008 C 
HETATM   13  C18 UNL     1      -3.656   3.877  10.092  1.00  0.00     0.021 C 
HETATM   14  C19 UNL     1      -3.082   1.932  11.620  1.00  0.00     0.022 C 
HETATM   15  C20 UNL     1      -4.256   0.997  11.907  1.00  0.00     0.080 C 
HETATM   16  C21 UNL     1      -5.560   1.558  11.409  1.00  0.00     0.131 C 
HETATM   17  O2  UNL     1      -6.324   0.890  10.712  1.00  0.00    -0.298 OA
HETATM   18  C22 UNL     1      -5.931   2.954  11.882  1.00  0.00     0.056 C 
HETATM   19  C23 UNL     1      -7.067   2.832  12.899  1.00  0.00     0.018 C 
HETATM   20  C24 UNL     1      -4.689   3.680  12.454  1.00  0.00     0.012 C 
HETATM   21  C25 UNL     1      -4.958   5.169  12.667  1.00  0.00     0.042 C 
HETATM   22  C26 UNL     1      -3.781   5.865  13.350  1.00  0.00     0.148 C 
ENDROOT
BRANCH   1  23
HETATM   23  C5  UNL     1       2.434   7.378  13.019  1.00  0.00    -0.014 C 
HETATM   24  C6  UNL     1       3.335   7.981  14.108  1.00  0.00     0.010 C 
BRANCH  23  25
HETATM   25  C4  UNL     1       2.384   8.363  11.831  1.00  0.00     0.009 C 
BRANCH  25  26
HETATM   26  C3  UNL     1       3.453   8.201  10.739  1.00  0.00     0.034 C 
BRANCH  26  27
HETATM   27  C2  UNL     1       3.337   6.936   9.902  1.00  0.00    -0.075 C 
HETATM   28  C1  UNL     1       4.116   5.879  10.203  1.00  0.00     0.015 C 
BRANCH  27  29
HETATM   29  C27 UNL     1       2.353   6.959   8.732  1.00  0.00     0.107 C 
HETATM   30  C28 UNL     1       2.609   5.962   7.597  1.00  0.00     0.026 C 
BRANCH  29  31
HETATM   31  C29 UNL     1       2.232   8.369   8.166  1.00  0.00     0.147 C 
HETATM   32  O4  UNL     1       3.095   8.954   7.526  1.00  0.00    -0.650 OA
BRANCH  31  33
HETATM   33  O5  UNL     1       1.037   8.955   8.380  1.00  0.00    -0.776 OA
HETATM   34  H42 UNL     1       1.110   9.821   7.927  1.00  0.00     0.167 HD
ENDBRANCH  31  33
ENDBRANCH  29  31
ENDBRANCH  27  29
ENDBRANCH  26  27
ENDBRANCH  25  26
ENDBRANCH  23  25
ENDBRANCH   1  23
BRANCH  22  35
HETATM   35  O3  UNL     1      -3.935   7.252  13.078  1.00  0.00    -0.391 OA
HETATM   36  H37 UNL     1      -4.678   7.569  13.621  1.00  0.00     0.210 HD
ENDBRANCH  22  35
TORSDOF 8
ENDMDL
