MODEL 1
REMARK minimizedAffinity -7.73644018
REMARK CNNscore 0.771883011
REMARK CNNaffinity 6.52896833
REMARK  6 active torsions:
REMARK  status: ('A' for Active; 'I' for Inactive)
REMARK    1  A    between atoms: O1_2  and  C2_3 
REMARK    2  A    between atoms: C17_20  and  C18_21 
REMARK    3  A    between atoms: C22_27  and  O6_28 
REMARK    4  A    between atoms: O6_28  and  C23_29 
REMARK    5  A    between atoms: C26_33  and  O8_34 
REMARK    6  A    between atoms: C31_40  and  O10_41 
ROOT
HETATM    1  C2  UNL     1       7.963  19.664  25.043  1.00  0.00     0.190 C 
HETATM    2  C3  UNL     1       8.996  20.527  25.788  1.00  0.00     0.064 C 
HETATM    3  C4  UNL     1      10.436  20.082  25.539  1.00  0.00     0.174 C 
HETATM    4  O2  UNL     1      10.534  18.674  25.366  1.00  0.00    -0.356 OA
HETATM    5  C5  UNL     1       9.859  18.200  24.195  1.00  0.00     0.325 C 
HETATM    6  O3  UNL     1       9.485  16.839  24.402  1.00  0.00    -0.344 OA
HETATM    7  C6  UNL     1       9.028  16.240  23.190  1.00  0.00     0.177 C 
HETATM    8  C7  UNL     1       8.385  14.933  23.543  1.00  0.00     0.011 C 
HETATM    9  C8  UNL     1       7.474  14.329  22.758  1.00  0.00    -0.072 C 
HETATM   10  C9  UNL     1       6.809  13.054  23.202  1.00  0.00     0.035 C 
HETATM   11  C10 UNL     1       6.275  12.137  22.096  1.00  0.00     0.012 C 
HETATM   12  C11 UNL     1       5.781  12.823  20.800  1.00  0.00     0.026 C 
HETATM   13  C12 UNL     1       5.676  14.360  20.966  1.00  0.00     0.005 C 
HETATM   14  C13 UNL     1       4.456  14.743  21.841  1.00  0.00     0.007 C 
HETATM   15  C14 UNL     1       3.370  13.668  21.916  1.00  0.00     0.013 C 
HETATM   16  C15 UNL     1       3.146  12.916  20.579  1.00  0.00    -0.003 C 
HETATM   17  C16 UNL     1       2.569  13.938  19.570  1.00  0.00     0.019 C 
HETATM   18  C17 UNL     1       2.159  11.716  20.833  1.00  0.00     0.058 C 
HETATM   19  C22 UNL     1       3.110  10.569  21.250  1.00  0.00     0.143 C 
HETATM   20  C25 UNL     1       4.303  10.718  20.311  1.00  0.00     0.072 C 
HETATM   21  C26 UNL     1       4.493  12.237  20.125  1.00  0.00     0.072 C 
HETATM   22  C27 UNL     1       7.038  14.975  21.452  1.00  0.00    -0.014 C 
HETATM   23  C28 UNL     1       8.126  14.729  20.370  1.00  0.00     0.020 C 
HETATM   24  C29 UNL     1       6.911  16.502  21.682  1.00  0.00     0.049 C 
HETATM   25  C30 UNL     1       8.144  17.184  22.317  1.00  0.00     0.159 C 
HETATM   26  O9  UNL     1       7.633  18.322  23.029  1.00  0.00    -0.341 OA
HETATM   27  C31 UNL     1       8.611  19.049  23.771  1.00  0.00     0.240 C 
ENDROOT
BRANCH  18  28
HETATM   28  C18 UNL     1       1.201  11.360  19.717  1.00  0.00    -0.043 A 
HETATM   29  C19 UNL     1      -0.123  11.524  19.771  1.00  0.00     0.087 A 
HETATM   30  C20 UNL     1      -0.672  11.054  18.504  1.00  0.00     0.283 A 
HETATM   31  O4  UNL     1      -1.855  11.058  18.214  1.00  0.00    -0.260 OA
HETATM   32  O5  UNL     1       0.343  10.614  17.715  1.00  0.00    -0.314 OA
HETATM   33  C21 UNL     1       1.579  10.755  18.417  1.00  0.00     0.214 A 
ENDBRANCH  18  28
BRANCH  19  34
HETATM   34  O6  UNL     1       2.543   9.261  21.125  1.00  0.00    -0.316 OA
BRANCH  34  35
HETATM   35  C23 UNL     1       2.303   8.623  22.306  1.00  0.00     0.255 C 
HETATM   36  C24 UNL     1       3.067   9.281  23.413  1.00  0.00     0.126 C 
HETATM   37  O7  UNL     1       1.558   7.664  22.453  1.00  0.00    -0.266 OA
ENDBRANCH  34  35
ENDBRANCH  19  34
BRANCH  21  38
HETATM   38  O8  UNL     1       4.640  12.444  18.707  1.00  0.00    -0.389 OA
HETATM   39  H35 UNL     1       5.444  11.982  18.409  1.00  0.00     0.210 HD
ENDBRANCH  21  38
BRANCH  27  40
HETATM   40  O10 UNL     1       9.006  20.149  22.931  1.00  0.00    -0.360 OA
HETATM   41  H42 UNL     1       9.454  19.766  22.163  1.00  0.00     0.213 HD
ENDBRANCH  27  40
BRANCH   1  42
HETATM   42  O1  UNL     1       7.490  18.688  25.992  1.00  0.00    -0.385 OA
HETATM   43  C1  UNL     1       6.100  18.414  25.901  1.00  0.00     0.202 C 
ENDBRANCH   1  42
TORSDOF 6
ENDMDL
