MODEL 1
REMARK minimizedAffinity -6.77739048
REMARK CNNscore 0.640748203
REMARK CNNaffinity 6.93390989
REMARK  12 active torsions:
REMARK  status: ('A' for Active; 'I' for Inactive)
REMARK    1  A    between atoms: O1_2  and  C2_3 
REMARK    2  A    between atoms: C2_3  and  C3_4 
REMARK    3  A    between atoms: C3_4  and  C4_5 
REMARK    4  A    between atoms: C4_5  and  N1_6 
REMARK    5  A    between atoms: N1_6  and  C5_7 
REMARK    6  A    between atoms: C5_7  and  C6_8 
REMARK    7  A    between atoms: C10_12  and  O2_13 
REMARK    8  A    between atoms: C16_19  and  O3_20 
REMARK    9  A    between atoms: C25_29  and  C26_30 
REMARK   10  A    between atoms: C33_37  and  O4_38 
REMARK   11  A    between atoms: C36_41  and  C37_42 
REMARK   12  A    between atoms: C38_44  and  O6_45 
ROOT
HETATM    1  C6  UNL     1      -9.850  13.112  19.779  1.00  0.00    -0.022 C 
HETATM    2  C7  UNL     1     -10.061  11.861  20.257  1.00  0.00    -0.014 C 
HETATM    3  C8  UNL     1     -10.453  11.630  21.695  1.00  0.00     0.021 C 
HETATM    4  C9  UNL     1     -11.389  10.466  22.023  1.00  0.00     0.051 C 
HETATM    5  C10 UNL     1     -11.666  10.721  23.522  1.00  0.00     0.098 C 
HETATM    6  C11 UNL     1     -11.901  12.286  23.599  1.00  0.00    -0.002 C 
HETATM    7  C12 UNL     1     -11.327  12.897  24.887  1.00  0.00     0.019 C 
HETATM    8  C13 UNL     1     -13.412  12.651  23.510  1.00  0.00     0.013 C 
HETATM    9  C14 UNL     1     -14.325  11.779  24.357  1.00  0.00     0.010 C 
HETATM   10  C15 UNL     1     -14.196  10.302  23.930  1.00  0.00     0.041 C 
HETATM   11  C16 UNL     1     -12.760   9.821  24.198  1.00  0.00     0.095 C 
HETATM   12  C17 UNL     1     -12.609   8.343  23.804  1.00  0.00     0.049 C 
HETATM   13  C18 UNL     1     -13.602   7.420  24.533  1.00  0.00     0.025 C 
HETATM   14  C19 UNL     1     -13.191   5.939  24.269  1.00  0.00     0.013 C 
HETATM   15  C20 UNL     1     -14.317   4.889  24.245  1.00  0.00    -0.002 C 
HETATM   16  C21 UNL     1     -15.066   4.883  22.879  1.00  0.00     0.013 C 
HETATM   17  C22 UNL     1     -14.467   3.894  21.887  1.00  0.00    -0.026 C 
HETATM   18  C23 UNL     1     -13.481   3.034  22.172  1.00  0.00    -0.030 C 
HETATM   19  C24 UNL     1     -12.903   2.876  23.543  1.00  0.00     0.032 C 
HETATM   20  C25 UNL     1     -13.841   3.448  24.620  1.00  0.00    -0.002 C 
HETATM   21  C31 UNL     1     -15.119   6.246  22.158  1.00  0.00     0.019 C 
HETATM   22  C32 UNL     1     -15.633   7.507  22.878  1.00  0.00     0.051 C 
HETATM   23  C33 UNL     1     -17.182   7.594  22.875  1.00  0.00     0.125 C 
HETATM   24  C34 UNL     1     -17.717   8.745  23.738  1.00  0.00     0.033 C 
HETATM   25  C35 UNL     1     -16.693   9.858  23.905  1.00  0.00     0.023 C 
HETATM   26  C36 UNL     1     -15.332   9.396  24.552  1.00  0.00     0.051 C 
HETATM   27  C38 UNL     1     -15.080   7.841  24.295  1.00  0.00     0.082 C 
HETATM   28  C39 UNL     1     -11.232  12.830  22.277  1.00  0.00     0.036 C 
HETATM   29  C40 UNL     1     -10.343  14.014  22.082  1.00  0.00    -0.035 C 
HETATM   30  C41 UNL     1      -9.617  14.778  22.890  1.00  0.00     0.088 C 
HETATM   31  C42 UNL     1      -8.748  15.573  22.018  1.00  0.00     0.284 C 
HETATM   32  O7  UNL     1      -7.939  16.392  22.419  1.00  0.00    -0.260 OA
HETATM   33  O8  UNL     1      -8.950  15.223  20.721  1.00  0.00    -0.304 OA
HETATM   34  C43 UNL     1     -10.071  14.354  20.646  1.00  0.00     0.192 C 
ENDROOT
BRANCH   1  35
HETATM   35  C5  UNL     1      -9.520  13.348  18.325  1.00  0.00     0.306 C 
BRANCH  35  36
HETATM   36  N1  UNL     1      -8.141  13.773  18.151  1.00  0.00     0.087 N 
HETATM   37  H10 UNL     1      -7.530  13.194  18.724  1.00  0.00     0.316 HD
BRANCH  36  38
HETATM   38  C4  UNL     1      -7.724  13.713  16.752  1.00  0.00     0.272 C 
BRANCH  38  39
HETATM   39  C3  UNL     1      -6.354  14.365  16.565  1.00  0.00     0.056 C 
BRANCH  39  40
HETATM   40  C2  UNL     1      -5.220  13.340  16.502  1.00  0.00     0.168 C 
BRANCH  40  41
HETATM   41  O1  UNL     1      -4.210  13.655  17.464  1.00  0.00    -0.396 OA
HETATM   42  C1  UNL     1      -4.117  12.681  18.496  1.00  0.00     0.201 C 
ENDBRANCH  40  41
ENDBRANCH  39  40
ENDBRANCH  38  39
ENDBRANCH  36  38
ENDBRANCH  35  36
ENDBRANCH   1  35
BRANCH   5  43
HETATM   43  O2  UNL     1     -10.436  10.413  24.236  1.00  0.00    -0.386 OA
HETATM   44  H17 UNL     1     -10.064   9.583  23.886  1.00  0.00     0.210 HD
ENDBRANCH   5  43
BRANCH  11  45
HETATM   45  O3  UNL     1     -12.537   9.878  25.619  1.00  0.00    -0.386 OA
HETATM   46  H26 UNL     1     -11.584  10.089  25.733  1.00  0.00     0.210 HD
ENDBRANCH  11  45
BRANCH  26  47
HETATM   47  C37 UNL     1     -15.397   9.644  26.070  1.00  0.00     0.244 C 
HETATM   48  O5  UNL     1     -15.312  10.746  26.609  1.00  0.00    -0.306 OA
ENDBRANCH  26  47
BRANCH  27  49
HETATM   49  O6  UNL     1     -15.906   7.114  25.232  1.00  0.00    -0.388 OA
HETATM   50  H58 UNL     1     -15.449   7.035  26.088  1.00  0.00     0.210 HD
ENDBRANCH  27  49
BRANCH  23  51
HETATM   51  O4  UNL     1     -17.766   6.383  23.346  1.00  0.00    -0.395 OA
HETATM   52  H52 UNL     1     -17.405   6.260  24.250  1.00  0.00     0.210 HD
ENDBRANCH  23  51
BRANCH  20  53
HETATM   53  C26 UNL     1     -13.215   3.321  26.030  1.00  0.00    -0.010 C 
HETATM   54  C27 UNL     1     -12.311   2.089  26.188  1.00  0.00     0.005 C 
HETATM   55  C28 UNL     1     -12.359   1.713  27.671  1.00  0.00     0.000 C 
HETATM   56  C29 UNL     1     -13.378   2.645  28.315  1.00  0.00     0.000 C 
HETATM   57  C30 UNL     1     -14.231   3.142  27.158  1.00  0.00     0.005 C 
ENDBRANCH  20  53
TORSDOF 12
ENDMDL
