MODEL 1
REMARK minimizedAffinity -9.46615791
REMARK  7 active torsions:
REMARK  status: ('A' for Active; 'I' for Inactive)
REMARK    1  A    between atoms: C2_2  and  C30_32 
REMARK    2  A    between atoms: C3_3  and  C4_4 
REMARK    3  A    between atoms: C4_4  and  O1_5 
REMARK    4  A    between atoms: C4_4  and  C5_6 
REMARK    5  A    between atoms: C5_6  and  C6_7 
REMARK    6  A    between atoms: C6_7  and  C8_9 
REMARK    7  A    between atoms: C30_32  and  O3_33 
ROOT
HETATM    1  C8  UNL     1      -0.988  51.863 -21.118  1.00  0.00    -0.002 C 
HETATM    2  C9  UNL     1      -0.411  50.906 -20.034  1.00  0.00     0.007 C 
HETATM    3  C10 UNL     1      -1.439  49.774 -19.840  1.00  0.00     0.015 C 
HETATM    4  C11 UNL     1      -2.734  50.306 -20.487  1.00  0.00    -0.013 C 
HETATM    5  C12 UNL     1      -3.399  51.243 -19.424  1.00  0.00     0.021 C 
HETATM    6  C13 UNL     1      -3.815  49.302 -20.883  1.00  0.00    -0.070 C 
HETATM    7  C14 UNL     1      -4.027  48.168 -20.191  1.00  0.00    -0.022 C 
HETATM    8  C15 UNL     1      -5.169  47.230 -20.433  1.00  0.00     0.034 C 
HETATM    9  C16 UNL     1      -5.990  47.515 -21.715  1.00  0.00     0.013 C 
HETATM   10  C17 UNL     1      -7.293  46.644 -21.829  1.00  0.00     0.018 C 
HETATM   11  C18 UNL     1      -7.924  46.288 -20.463  1.00  0.00     0.023 C 
HETATM   12  C19 UNL     1      -6.923  45.305 -22.520  1.00  0.00     0.023 C 
HETATM   13  C20 UNL     1      -8.418  47.252 -22.682  1.00  0.00     0.135 C 
HETATM   14  O2  UNL     1      -9.507  46.667 -22.801  1.00  0.00    -0.297 OA
HETATM   15  C21 UNL     1      -8.244  48.575 -23.389  1.00  0.00     0.080 C 
HETATM   16  C22 UNL     1      -6.865  49.198 -23.332  1.00  0.00     0.017 C 
HETATM   17  C23 UNL     1      -6.159  49.050 -21.967  1.00  0.00    -0.031 C 
HETATM   18  C24 UNL     1      -6.987  49.741 -20.862  1.00  0.00     0.016 C 
HETATM   19  C25 UNL     1      -4.705  49.678 -22.070  1.00  0.00     0.024 C 
HETATM   20  C26 UNL     1      -4.677  51.194 -22.390  1.00  0.00     0.010 C 
HETATM   21  C27 UNL     1      -3.283  51.863 -22.409  1.00  0.00     0.011 C 
HETATM   22  C28 UNL     1      -2.156  51.036 -21.753  1.00  0.00    -0.029 C 
HETATM   23  C29 UNL     1      -1.565  50.062 -22.813  1.00  0.00     0.016 C 
ENDROOT
BRANCH   1  24
HETATM   24  C6  UNL     1       0.096  52.601 -21.970  1.00  0.00    -0.011 C 
HETATM   25  C7  UNL     1       1.540  52.097 -21.844  1.00  0.00     0.010 C 
BRANCH  24  26
HETATM   26  C5  UNL     1      -0.322  52.690 -23.460  1.00  0.00     0.040 C 
BRANCH  26  27
HETATM   27  C4  UNL     1       0.798  53.129 -24.416  1.00  0.00     0.141 C 
BRANCH  27  28
HETATM   28  C3  UNL     1       0.479  52.806 -25.853  1.00  0.00     0.009 C 
HETATM   29  C2  UNL     1       1.151  52.018 -26.722  1.00  0.00    -0.062 C 
HETATM   30  C1  UNL     1       0.610  51.809 -28.114  1.00  0.00     0.045 C 
BRANCH  29  31
HETATM   31  C30 UNL     1       2.444  51.302 -26.415  1.00  0.00     0.198 C 
BRANCH  31  32
HETATM   32  O3  UNL     1       3.370  51.517 -27.476  1.00  0.00    -0.397 OA
HETATM   33  H48 UNL     1       3.113  50.926 -28.203  1.00  0.00     0.209 HD
ENDBRANCH  31  32
ENDBRANCH  29  31
ENDBRANCH  27  28
BRANCH  27  34
HETATM   34  O1  UNL     1       1.056  54.520 -24.280  1.00  0.00    -0.392 OA
HETATM   35  H6  UNL     1       1.718  54.749 -24.955  1.00  0.00     0.210 HD
ENDBRANCH  27  34
ENDBRANCH  26  27
ENDBRANCH  24  26
ENDBRANCH   1  24
TORSDOF 7
ENDMDL
