MODEL 1
REMARK minimizedAffinity -8.04554558
REMARK CNNscore 0.695600808
REMARK CNNaffinity 7.81575918
REMARK  14 active torsions:
REMARK  status: ('A' for Active; 'I' for Inactive)
REMARK    1  A    between atoms: C2_2  and  O2_4 
REMARK    2  A    between atoms: O2_4  and  C3_5 
REMARK    3  A    between atoms: C3_5  and  C4_6 
REMARK    4  A    between atoms: C4_6  and  C5_8 
REMARK    5  A    between atoms: C5_8  and  O4_9 
REMARK    6  A    between atoms: O4_9  and  C6_10 
REMARK    7  A    between atoms: C6_10  and  C7_12 
REMARK    8  A    between atoms: C7_12  and  C8_13 
REMARK    9  A    between atoms: C8_13  and  C9_14 
REMARK       I    between atoms: C9_14  and  N1_16 
REMARK   10  A    between atoms: N1_16  and  C10_17 
REMARK   11  A    between atoms: C10_17  and  C11_18 
REMARK   12  A    between atoms: C10_17  and  C18_25 
REMARK   13  A    between atoms: C11_18  and  C12_19 
REMARK   14  A    between atoms: C18_25  and  O8_27 
ROOT
HETATM    1  C3  UNL     1      -6.152   5.293  13.997  1.00  0.00     0.140 C 
HETATM    2  C19 UNL     1      -5.584   5.846  15.360  1.00  0.00     0.048 C 
HETATM    3  C20 UNL     1      -6.580   6.914  15.877  1.00  0.00     0.009 C 
HETATM    4  C21 UNL     1      -7.755   6.769  14.928  1.00  0.00     0.002 C 
HETATM    5  C22 UNL     1      -8.869   7.802  14.787  1.00  0.00    -0.004 C 
HETATM    6  C23 UNL     1      -9.270   8.554  16.063  1.00  0.00     0.010 C 
HETATM    7  C24 UNL     1     -10.728   8.370  16.477  1.00  0.00     0.035 C 
HETATM    8  C25 UNL     1     -11.733   8.447  15.347  1.00  0.00    -0.068 C 
HETATM    9  C26 UNL     1     -12.997   8.811  15.626  1.00  0.00     0.053 C 
HETATM   10  C27 UNL     1     -14.076   8.714  14.615  1.00  0.00     0.149 C 
HETATM   11  O9  UNL     1     -15.168   9.222  14.856  1.00  0.00    -0.293 OA
HETATM   12  C28 UNL     1     -13.799   7.991  13.319  1.00  0.00     0.084 C 
HETATM   13  C29 UNL     1     -12.503   7.177  13.354  1.00  0.00     0.022 C 
HETATM   14  C30 UNL     1     -11.306   7.959  13.956  1.00  0.00    -0.016 C 
HETATM   15  C31 UNL     1     -10.970   9.173  13.060  1.00  0.00     0.020 C 
HETATM   16  C32 UNL     1     -10.057   7.035  14.133  1.00  0.00     0.002 C 
HETATM   17  C33 UNL     1      -9.615   6.187  12.904  1.00  0.00     0.007 C 
HETATM   18  C34 UNL     1      -8.143   6.282  12.462  1.00  0.00     0.013 C 
HETATM   19  C35 UNL     1      -7.071   6.495  13.557  1.00  0.00    -0.001 C 
HETATM   20  C36 UNL     1      -6.198   7.709  13.085  1.00  0.00     0.019 C 
ENDROOT
BRANCH   1  21
HETATM   21  O2  UNL     1      -6.954   4.146  14.392  1.00  0.00    -0.301 OA
BRANCH  21  22
HETATM   22  C2  UNL     1      -7.460   3.295  13.465  1.00  0.00     0.256 C 
HETATM   23  C1  UNL     1      -6.369   2.429  12.920  1.00  0.00     0.126 C 
HETATM   24  O1  UNL     1      -8.625   3.250  13.104  1.00  0.00    -0.266 OA
ENDBRANCH  21  22
ENDBRANCH   1  21
BRANCH   1  25
HETATM   25  C4  UNL     1      -4.957   4.921  13.069  1.00  0.00     0.186 C 
HETATM   26  O3  UNL     1      -5.104   4.618  11.885  1.00  0.00    -0.292 OA
BRANCH  25  27
HETATM   27  C5  UNL     1      -3.570   4.961  13.716  1.00  0.00     0.260 C 
BRANCH  27  28
HETATM   28  O4  UNL     1      -2.593   5.433  12.788  1.00  0.00    -0.314 OA
BRANCH  28  29
HETATM   29  C6  UNL     1      -2.103   6.663  13.078  1.00  0.00     0.259 C 
HETATM   30  O5  UNL     1      -2.542   7.709  12.614  1.00  0.00    -0.265 OA
BRANCH  29  31
HETATM   31  C7  UNL     1      -0.994   6.596  14.096  1.00  0.00     0.120 C 
BRANCH  31  32
HETATM   32  C8  UNL     1       0.107   5.618  13.703  1.00  0.00     0.112 C 
BRANCH  32  33
HETATM   33  C9  UNL     1       1.407   6.330  13.403  1.00  0.00     0.218 C 
HETATM   34  O6  UNL     1       1.988   7.055  14.201  1.00  0.00    -0.274 OA
HETATM   35  N1  UNL     1       1.869   6.095  12.132  1.00  0.00    -0.346 N 
HETATM   36  H10 UNL     1       1.374   5.460  11.512  1.00  0.00     0.163 HD
BRANCH  35  37
HETATM   37  C10 UNL     1       3.105   6.697  11.625  1.00  0.00     0.186 C 
BRANCH  37  38
HETATM   38  C11 UNL     1       2.881   8.069  10.965  1.00  0.00     0.074 C 
BRANCH  38  39
HETATM   39  C12 UNL     1       2.164   8.021   9.632  1.00  0.00    -0.056 A 
HETATM   40  C13 UNL     1       0.773   8.176   9.567  1.00  0.00     0.007 A 
HETATM   41  C14 UNL     1       0.109   8.107   8.342  1.00  0.00     0.001 A 
HETATM   42  C15 UNL     1       0.830   7.882   7.171  1.00  0.00     0.000 A 
HETATM   43  C16 UNL     1       2.216   7.733   7.222  1.00  0.00     0.001 A 
HETATM   44  C17 UNL     1       2.880   7.804   8.446  1.00  0.00     0.007 A 
ENDBRANCH  38  39
ENDBRANCH  37  38
BRANCH  37  45
HETATM   45  C18 UNL     1       3.772   5.708  10.674  1.00  0.00     0.163 C 
HETATM   46  O7  UNL     1       4.929   5.754  10.273  1.00  0.00    -0.648 OA
BRANCH  45  47
HETATM   47  O8  UNL     1       2.947   4.731  10.241  1.00  0.00    -0.775 OA
HETATM   48  H19 UNL     1       3.508   4.210   9.629  1.00  0.00     0.167 HD
ENDBRANCH  45  47
ENDBRANCH  37  45
ENDBRANCH  35  37
ENDBRANCH  32  33
ENDBRANCH  31  32
ENDBRANCH  29  31
ENDBRANCH  28  29
ENDBRANCH  27  28
ENDBRANCH  25  27
ENDBRANCH   1  25
TORSDOF 14
ENDMDL
