MODEL 1
REMARK minimizedAffinity -9.50274181
REMARK  10 active torsions:
REMARK  status: ('A' for Active; 'I' for Inactive)
REMARK    1  A    between atoms: C2_2  and  C3_3 
REMARK    2  A    between atoms: C3_3  and  N1_4 
REMARK    3  A    between atoms: N1_4  and  C4_5 
REMARK    4  A    between atoms: C9_12  and  C11_14 
REMARK    5  A    between atoms: C11_14  and  O1_15 
REMARK    6  A    between atoms: C12_16  and  O2_17 
REMARK    7  A    between atoms: C17_22  and  C18_23 
REMARK    8  A    between atoms: C18_23  and  C19_24 
REMARK       I    between atoms: C19_24  and  N3_26 
REMARK    9  A    between atoms: N3_26  and  C20_27 
REMARK   10  A    between atoms: C20_27  and  C22_29 
ROOT
HETATM    1  C4  UNL     1       1.908   6.852  10.568  1.00  0.00     0.145 A 
HETATM    2  N2  UNL     1       0.945   5.978  10.757  1.00  0.00    -0.339 N 
ATOM      3  H2  UNL     1       0.845   5.102  10.243  1.00  0.00     0.168 HD
HETATM    4  C5  UNL     1       0.087   6.413  11.748  1.00  0.00     0.030 A 
HETATM    5  C6  UNL     1       0.398   7.650  12.278  1.00  0.00     0.009 A 
HETATM    6  C7  UNL     1      -0.371   8.369  13.341  1.00  0.00     0.054 C 
HETATM    7  C8  UNL     1      -1.776   7.721  13.467  1.00  0.00     0.012 C 
HETATM    8  C9  UNL     1      -2.827   8.436  14.419  1.00  0.00     0.008 C 
HETATM    9  C10 UNL     1      -4.098   8.752  13.571  1.00  0.00     0.020 C 
HETATM   10  C12 UNL     1      -3.276   7.534  15.601  1.00  0.00     0.128 C 
HETATM   11  C13 UNL     1      -3.692   6.116  15.200  1.00  0.00     0.033 C 
HETATM   12  C14 UNL     1      -3.041   5.568  13.926  1.00  0.00     0.013 C 
HETATM   13  C15 UNL     1      -1.649   6.139  13.597  1.00  0.00    -0.030 C 
HETATM   14  C16 UNL     1      -0.642   5.699  14.696  1.00  0.00     0.016 C 
HETATM   15  C17 UNL     1      -1.127   5.597  12.173  1.00  0.00     0.054 C 
HETATM   16  S1  UNL     1       1.815   8.261  11.563  1.00  0.00    -0.057 SA
ENDROOT
BRANCH  15  17
HETATM   17  C18 UNL     1      -0.830   4.082  12.112  1.00  0.00     0.114 C 
BRANCH  17  18
HETATM   18  C19 UNL     1      -1.803   3.302  11.250  1.00  0.00     0.218 C 
HETATM   19  O3  UNL     1      -1.472   2.386  10.506  1.00  0.00    -0.274 OA
HETATM   20  N3  UNL     1      -3.106   3.724  11.410  1.00  0.00    -0.353 N 
HETATM   21  H28 UNL     1      -3.316   4.286  12.224  1.00  0.00     0.163 HD
BRANCH  20  22
HETATM   22  C20 UNL     1      -4.220   3.015  10.798  1.00  0.00     0.113 C 
HETATM   23  C21 UNL     1      -4.511   3.599   9.415  1.00  0.00     0.037 C 
BRANCH  22  24
HETATM   24  C22 UNL     1      -5.412   3.036  11.740  1.00  0.00    -0.036 A 
HETATM   25  C23 UNL     1      -5.606   4.154  12.569  1.00  0.00     0.009 A 
HETATM   26  C24 UNL     1      -6.696   4.224  13.439  1.00  0.00     0.001 A 
HETATM   27  C25 UNL     1      -7.617   3.183  13.484  1.00  0.00     0.000 A 
HETATM   28  C26 UNL     1      -7.453   2.075  12.654  1.00  0.00     0.001 A 
HETATM   29  C27 UNL     1      -6.362   2.004  11.785  1.00  0.00     0.009 A 
ENDBRANCH  22  24
ENDBRANCH  20  22
ENDBRANCH  17  18
ENDBRANCH  15  17
BRANCH   1  30
HETATM   30  N1  UNL     1       2.914   6.723   9.675  1.00  0.00    -0.367 N 
HETATM   31  H6  UNL     1       3.584   7.481   9.657  1.00  0.00     0.161 HD
BRANCH  30  32
HETATM   32  C3  UNL     1       2.597   6.172   8.377  1.00  0.00     0.148 C 
BRANCH  32  33
HETATM   33  C2  UNL     1       2.145   7.316   7.519  1.00  0.00    -0.018 C 
HETATM   34  C1  UNL     1       1.663   7.196   6.274  1.00  0.00     0.008 C 
ENDBRANCH  32  33
ENDBRANCH  30  32
ENDBRANCH   1  30
BRANCH   8  35
HETATM   35  C11 UNL     1      -2.358   9.817  14.954  1.00  0.00     0.176 C 
BRANCH  35  36
HETATM   36  O1  UNL     1      -2.103  10.730  13.894  1.00  0.00    -0.400 OA
HETATM   37  H15 UNL     1      -1.827  11.572  14.304  1.00  0.00     0.209 HD
ENDBRANCH  35  36
ENDBRANCH   8  35
BRANCH  10  38
HETATM   38  O2  UNL     1      -2.291   7.423  16.629  1.00  0.00    -0.395 OA
HETATM   39  H17 UNL     1      -1.715   8.215  16.582  1.00  0.00     0.210 HD
ENDBRANCH  10  38
TORSDOF 10
ENDMDL
