MODEL 1
REMARK minimizedAffinity -9.50013542
REMARK  7 active torsions:
REMARK  status: ('A' for Active; 'I' for Inactive)
REMARK    1  A    between atoms: C2_2  and  C4_4 
REMARK    2  A    between atoms: C7_7  and  O1_9 
REMARK    3  A    between atoms: C9_10  and  C10_11 
REMARK    4  A    between atoms: C11_12  and  C12_13 
REMARK    5  A    between atoms: C14_15  and  C15_16 
REMARK    6  A    between atoms: C24_26  and  C26_28 
REMARK    7  A    between atoms: C29_32  and  O4_34 
ROOT
HETATM    1  C15 UNL     1      -5.313  48.158 -28.877  1.00  0.00     0.149 C 
HETATM    2  C16 UNL     1      -6.472  47.268 -28.463  1.00  0.00     0.054 C 
HETATM    3  C17 UNL     1      -7.048  46.665 -29.780  1.00  0.00     0.050 C 
HETATM    4  C18 UNL     1      -5.834  46.903 -30.754  1.00  0.00     0.272 C 
HETATM    5  O2  UNL     1      -5.270  45.815 -31.457  1.00  0.00    -0.360 OA
HETATM    6  C19 UNL     1      -6.121  45.283 -32.458  1.00  0.00     0.171 C 
HETATM    7  C20 UNL     1      -7.034  44.229 -31.859  1.00  0.00     0.027 C 
HETATM    8  C21 UNL     1      -6.827  44.053 -30.360  1.00  0.00     0.012 C 
HETATM    9  C22 UNL     1      -7.502  45.125 -29.486  1.00  0.00     0.032 C 
HETATM   10  C23 UNL     1      -9.043  44.981 -29.244  1.00  0.00    -0.066 C 
HETATM   11  C24 UNL     1      -9.897  43.973 -29.581  1.00  0.00    -0.021 C 
HETATM   12  C25 UNL     1      -9.572  42.625 -30.161  1.00  0.00     0.052 C 
HETATM   13  C27 UNL     1      -9.519  46.169 -28.435  1.00  0.00     0.038 C 
HETATM   14  C28 UNL     1      -9.504  47.429 -29.283  1.00  0.00     0.042 C 
HETATM   15  C29 UNL     1      -8.302  47.521 -30.260  1.00  0.00     0.067 C 
HETATM   16  C30 UNL     1      -8.066  49.025 -30.505  1.00  0.00     0.047 C 
HETATM   17  O5  UNL     1      -4.762  47.484 -29.991  1.00  0.00    -0.351 OA
ENDROOT
BRANCH   1  18
HETATM   18  C14 UNL     1      -4.324  48.356 -27.758  1.00  0.00     0.011 C 
HETATM   19  C12 UNL     1      -4.512  48.377 -26.421  1.00  0.00    -0.064 C 
HETATM   20  C13 UNL     1      -5.833  48.082 -25.754  1.00  0.00     0.048 C 
BRANCH  19  21
HETATM   21  C11 UNL     1      -3.358  48.664 -25.568  1.00  0.00     0.003 C 
HETATM   22  C10 UNL     1      -3.122  49.803 -24.895  1.00  0.00    -0.018 C 
BRANCH  22  23
HETATM   23  C9  UNL     1      -1.912  50.104 -24.031  1.00  0.00     0.050 C 
HETATM   24  C4  UNL     1      -1.221  51.483 -24.290  1.00  0.00     0.024 C 
HETATM   25  C5  UNL     1      -0.734  51.940 -22.908  1.00  0.00     0.013 C 
HETATM   26  C6  UNL     1      -1.852  51.471 -21.985  1.00  0.00     0.039 C 
HETATM   27  C7  UNL     1      -2.153  50.053 -22.485  1.00  0.00     0.062 C 
HETATM   28  C8  UNL     1      -3.521  49.572 -22.008  1.00  0.00     0.046 C 
BRANCH  24  29
HETATM   29  C2  UNL     1      -0.151  51.456 -25.372  1.00  0.00    -0.088 C 
HETATM   30  C1  UNL     1       1.015  52.108 -25.212  1.00  0.00     0.014 C 
HETATM   31  C3  UNL     1      -0.427  50.687 -26.638  1.00  0.00     0.043 C 
ENDBRANCH  24  29
BRANCH  27  32
HETATM   32  O1  UNL     1      -1.174  49.176 -21.901  1.00  0.00    -0.390 OA
HETATM   33  H14 UNL     1      -1.360  48.277 -22.223  1.00  0.00     0.210 HD
ENDBRANCH  27  32
ENDBRANCH  22  23
ENDBRANCH  19  21
ENDBRANCH   1  18
BRANCH  15  34
HETATM   34  O4  UNL     1      -8.717  46.979 -31.526  1.00  0.00    -0.389 OA
HETATM   35  H44 UNL     1      -9.490  47.477 -31.843  1.00  0.00     0.210 HD
ENDBRANCH  15  34
BRANCH  11  36
HETATM   36  C26 UNL     1     -11.376  44.142 -29.351  1.00  0.00     0.265 C 
HETATM   37  O3  UNL     1     -12.096  44.855 -30.040  1.00  0.00    -0.302 OA
ENDBRANCH  11  36
TORSDOF 7
ENDMDL
