MODEL 1
REMARK minimizedAffinity -9.4670496
REMARK  8 active torsions:
REMARK  status: ('A' for Active; 'I' for Inactive)
REMARK    1  A    between atoms: C4_4  and  C5_5 
REMARK    2  A    between atoms: C5_5  and  C6_6 
REMARK    3  A    between atoms: C6_6  and  C7_7 
REMARK    4  A    between atoms: C7_7  and  C9_9 
REMARK    5  A    between atoms: C25_26  and  C27_28 
REMARK    6  A    between atoms: C27_28  and  O3_30 
REMARK    7  A    between atoms: C28_31  and  O4_32 
REMARK    8  A    between atoms: C30_34  and  O5_35 
ROOT
HETATM    1  C9  UNL     1      -5.566   6.748  14.537  1.00  0.00    -0.002 C 
HETATM    2  C10 UNL     1      -5.328   7.987  15.449  1.00  0.00     0.007 C 
HETATM    3  C11 UNL     1      -3.880   8.454  15.229  1.00  0.00     0.015 C 
HETATM    4  C12 UNL     1      -3.416   7.739  13.944  1.00  0.00    -0.005 C 
HETATM    5  C13 UNL     1      -3.950   8.580  12.743  1.00  0.00     0.021 C 
HETATM    6  C14 UNL     1      -1.928   7.552  13.655  1.00  0.00    -0.000 C 
HETATM    7  C15 UNL     1      -1.479   6.496  12.927  1.00  0.00    -0.058 C 
HETATM    8  C16 UNL     1      -2.459   5.412  12.446  1.00  0.00     0.036 C 
HETATM    9  C17 UNL     1      -3.944   5.558  12.840  1.00  0.00     0.015 C 
HETATM   10  C18 UNL     1      -4.112   6.336  14.148  1.00  0.00    -0.028 C 
HETATM   11  C19 UNL     1      -3.482   5.503  15.309  1.00  0.00     0.016 C 
HETATM   12  C20 UNL     1       0.031   6.266  12.576  1.00  0.00     0.011 C 
HETATM   13  C21 UNL     1       0.540   5.234  13.611  1.00  0.00     0.023 C 
HETATM   14  C22 UNL     1       0.778   7.639  12.652  1.00  0.00     0.029 C 
HETATM   15  C23 UNL     1       0.507   8.366  13.969  1.00  0.00     0.090 C 
HETATM   16  C24 UNL     1      -0.971   8.584  14.171  1.00  0.00     0.157 C 
HETATM   17  O1  UNL     1      -1.361   9.574  14.789  1.00  0.00    -0.293 OA
HETATM   18  C25 UNL     1       2.300   7.643  12.240  1.00  0.00     0.072 C 
HETATM   19  C26 UNL     1       2.563   8.972  11.473  1.00  0.00     0.030 C 
HETATM   20  C28 UNL     1       2.659   6.428  11.349  1.00  0.00     0.139 C 
HETATM   21  C29 UNL     1       1.520   6.059  10.404  1.00  0.00     0.065 C 
HETATM   22  C30 UNL     1       0.196   5.732  11.105  1.00  0.00     0.133 C 
ENDROOT
BRANCH   1  23
HETATM   23  C7  UNL     1      -6.514   5.717  15.217  1.00  0.00    -0.014 C 
HETATM   24  C8  UNL     1      -7.273   6.367  16.388  1.00  0.00     0.010 C 
BRANCH  23  25
HETATM   25  C6  UNL     1      -7.517   5.018  14.275  1.00  0.00     0.008 C 
BRANCH  25  26
HETATM   26  C5  UNL     1      -7.015   4.753  12.851  1.00  0.00     0.028 C 
BRANCH  26  27
HETATM   27  C4  UNL     1      -6.837   3.275  12.620  1.00  0.00    -0.025 C 
HETATM   28  C2  UNL     1      -6.120   2.659  11.659  1.00  0.00    -0.091 C 
HETATM   29  C1  UNL     1      -6.053   1.151  11.606  1.00  0.00     0.042 C 
HETATM   30  C3  UNL     1      -5.331   3.345  10.580  1.00  0.00     0.042 C 
ENDBRANCH  26  27
ENDBRANCH  25  26
ENDBRANCH  23  25
ENDBRANCH   1  23
BRANCH  22  31
HETATM   31  O5  UNL     1       0.008   4.313  11.059  1.00  0.00    -0.394 OA
HETATM   32  H46 UNL     1      -0.126   4.064  10.128  1.00  0.00     0.210 HD
ENDBRANCH  22  31
BRANCH  18  33
HETATM   33  C27 UNL     1       3.252   7.645  13.441  1.00  0.00     0.151 C 
HETATM   34  O2  UNL     1       2.956   7.921  14.594  1.00  0.00    -0.649 OA
BRANCH  33  35
HETATM   35  O3  UNL     1       4.517   7.315  13.147  1.00  0.00    -0.776 OA
HETATM   36  H40 UNL     1       4.980   7.343  14.012  1.00  0.00     0.167 HD
ENDBRANCH  33  35
ENDBRANCH  18  33
BRANCH  20  37
HETATM   37  O4  UNL     1       3.806   6.684  10.531  1.00  0.00    -0.394 OA
HETATM   38  H42 UNL     1       4.574   6.826  11.114  1.00  0.00     0.210 HD
ENDBRANCH  20  37
TORSDOF 8
ENDMDL
