MODEL 1
REMARK minimizedAffinity -8.94414139
REMARK  5 active torsions:
REMARK  status: ('A' for Active; 'I' for Inactive)
REMARK    1  A    between atoms: C4_4  and  C5_5 
REMARK    2  A    between atoms: C5_5  and  C6_6 
REMARK    3  A    between atoms: C6_6  and  C7_7 
REMARK    4  A    between atoms: C7_7  and  C9_9 
REMARK    5  A    between atoms: C26_29  and  O4_30 
ROOT
HETATM    1  C9  UNL     1      -4.155   8.715  14.591  1.00  0.00    -0.001 C 
HETATM    2  C10 UNL     1      -3.700   9.270  15.976  1.00  0.00     0.007 C 
HETATM    3  C11 UNL     1      -2.182   9.055  16.097  1.00  0.00     0.024 C 
HETATM    4  C12 UNL     1      -1.767   8.547  14.737  1.00  0.00     0.092 C 
HETATM    5  C13 UNL     1      -1.442   9.706  13.762  1.00  0.00     0.272 C 
HETATM    6  O1  UNL     1      -1.875  10.846  13.786  1.00  0.00    -0.264 OA
HETATM    7  O2  UNL     1      -0.559   9.239  12.808  1.00  0.00    -0.305 OA
HETATM    8  C14 UNL     1      -0.257   7.849  13.088  1.00  0.00     0.113 C 
HETATM    9  C15 UNL     1      -1.351   7.010  12.357  1.00  0.00     0.043 C 
HETATM   10  C16 UNL     1      -2.801   7.459  12.697  1.00  0.00     0.014 C 
HETATM   11  C17 UNL     1      -2.996   7.736  14.212  1.00  0.00    -0.020 C 
HETATM   12  C18 UNL     1      -3.172   6.377  14.940  1.00  0.00     0.017 C 
HETATM   13  C19 UNL     1      -0.507   7.794  14.564  1.00  0.00     0.137 A 
HETATM   14  O3  UNL     1      -0.201   6.644  15.331  1.00  0.00    -0.364 OA
HETATM   15  C20 UNL     1       0.623   7.804  15.569  1.00  0.00     0.162 A 
HETATM   16  C21 UNL     1       2.042   7.695  15.098  1.00  0.00     0.041 C 
HETATM   17  C22 UNL     1       2.192   8.274  13.672  1.00  0.00     0.009 C 
HETATM   18  C23 UNL     1       3.676   8.538  13.164  1.00  0.00    -0.017 C 
HETATM   19  C24 UNL     1       3.817  10.067  12.909  1.00  0.00     0.018 C 
HETATM   20  C25 UNL     1       4.748   8.188  14.225  1.00  0.00     0.018 C 
HETATM   21  C26 UNL     1       4.037   7.827  11.830  1.00  0.00     0.126 C 
HETATM   22  C27 UNL     1       2.944   7.820  10.757  1.00  0.00     0.033 C 
HETATM   23  C28 UNL     1       1.525   8.074  11.260  1.00  0.00     0.015 C 
HETATM   24  C29 UNL     1       1.232   7.525  12.674  1.00  0.00    -0.004 C 
HETATM   25  C30 UNL     1       1.430   5.987  12.684  1.00  0.00     0.019 C 
ENDROOT
BRANCH   1  26
HETATM   26  C7  UNL     1      -5.622   8.191  14.620  1.00  0.00    -0.014 C 
HETATM   27  C8  UNL     1      -5.920   7.414  15.908  1.00  0.00     0.010 C 
BRANCH  26  28
HETATM   28  C6  UNL     1      -5.920   7.279  13.394  1.00  0.00     0.008 C 
BRANCH  28  29
HETATM   29  C5  UNL     1      -6.459   5.887  13.766  1.00  0.00     0.028 C 
BRANCH  29  30
HETATM   30  C4  UNL     1      -5.895   4.773  12.931  1.00  0.00    -0.025 C 
HETATM   31  C2  UNL     1      -6.486   3.613  12.579  1.00  0.00    -0.091 C 
HETATM   32  C1  UNL     1      -7.875   3.191  12.967  1.00  0.00     0.042 C 
HETATM   33  C3  UNL     1      -5.743   2.602  11.746  1.00  0.00     0.042 C 
ENDBRANCH  29  30
ENDBRANCH  28  29
ENDBRANCH  26  28
ENDBRANCH   1  26
BRANCH  21  34
HETATM   34  O4  UNL     1       4.456   6.484  12.079  1.00  0.00    -0.395 OA
HETATM   35  H39 UNL     1       4.805   6.123  11.245  1.00  0.00     0.210 HD
ENDBRANCH  21  34
TORSDOF 5
ENDMDL
