MODEL 1
REMARK minimizedAffinity -8.21689034
REMARK CNNscore 0.717975378
REMARK CNNaffinity 7.57393026
REMARK  12 active torsions:
REMARK  status: ('A' for Active; 'I' for Inactive)
REMARK    1  A    between atoms: C19_20  and  O2_21 
REMARK    2  A    between atoms: C19_20  and  C20_22 
REMARK    3  A    between atoms: C20_22  and  C21_24 
REMARK    4  A    between atoms: C21_24  and  O4_25 
REMARK    5  A    between atoms: O4_25  and  C22_26 
REMARK    6  A    between atoms: C22_26  and  C23_28 
REMARK    7  A    between atoms: C23_28  and  C24_29 
REMARK    8  A    between atoms: C24_29  and  C25_30 
REMARK       I    between atoms: C25_30  and  N1_32 
REMARK    9  A    between atoms: N1_32  and  C26_33 
REMARK   10  A    between atoms: C26_33  and  C27_34 
REMARK   11  A    between atoms: C30_37  and  C31_38 
REMARK   12  A    between atoms: C31_38  and  O8_40 
ROOT
HETATM    1  C20 UNL     1     -13.630   8.651  13.275  1.00  0.00     0.185 C 
HETATM    2  O3  UNL     1     -13.851   8.586  12.061  1.00  0.00    -0.292 OA
ENDROOT
BRANCH   1   3
HETATM    3  C19 UNL     1     -12.208   8.933  13.832  1.00  0.00     0.128 C 
HETATM    4  C14 UNL     1     -11.282   7.676  13.916  1.00  0.00    -0.002 C 
HETATM    5  C13 UNL     1     -10.531   7.282  12.630  1.00  0.00     0.013 C 
HETATM    6  C15 UNL     1     -12.078   6.454  14.448  1.00  0.00     0.019 C 
HETATM    7  C16 UNL     1     -10.216   8.194  14.915  1.00  0.00     0.002 C 
HETATM    8  C12 UNL     1      -9.420   6.249  12.897  1.00  0.00     0.007 C 
HETATM    9  C11 UNL     1      -8.422   6.690  13.997  1.00  0.00     0.002 C 
HETATM   10  C2  UNL     1      -7.273   5.646  14.277  1.00  0.00    -0.016 C 
HETATM   11  C10 UNL     1      -9.163   7.143  15.292  1.00  0.00    -0.004 C 
HETATM   12  C1  UNL     1      -7.832   4.267  14.691  1.00  0.00     0.020 C 
HETATM   13  C3  UNL     1      -6.437   5.478  12.973  1.00  0.00     0.022 C 
HETATM   14  C7  UNL     1      -6.381   6.166  15.413  1.00  0.00    -0.068 C 
HETATM   15  C4  UNL     1      -5.080   4.826  13.194  1.00  0.00     0.084 C 
HETATM   16  C5  UNL     1      -4.296   5.596  14.222  1.00  0.00     0.149 C 
HETATM   17  O1  UNL     1      -3.073   5.693  14.182  1.00  0.00    -0.293 OA
HETATM   18  C6  UNL     1      -5.038   6.182  15.361  1.00  0.00     0.053 C 
HETATM   19  C8  UNL     1      -7.087   6.670  16.650  1.00  0.00     0.035 C 
HETATM   20  C9  UNL     1      -8.158   7.699  16.310  1.00  0.00     0.010 C 
HETATM   21  C17 UNL     1     -11.043   8.817  16.031  1.00  0.00     0.009 C 
HETATM   22  C18 UNL     1     -12.255   9.432  15.310  1.00  0.00     0.047 C 
BRANCH   3  23
HETATM   23  O2  UNL     1     -11.558   9.957  13.074  1.00  0.00    -0.381 OA
HETATM   24  H27 UNL     1     -12.106  10.759  13.138  1.00  0.00     0.211 HD
ENDBRANCH   3  23
ENDBRANCH   1   3
BRANCH   1  25
HETATM   25  C21 UNL     1     -14.776   8.514  14.267  1.00  0.00     0.260 C 
BRANCH  25  26
HETATM   26  O4  UNL     1     -15.798   7.672  13.739  1.00  0.00    -0.314 OA
BRANCH  26  27
HETATM   27  C22 UNL     1     -16.002   6.538  14.460  1.00  0.00     0.259 C 
HETATM   28  O5  UNL     1     -15.570   6.349  15.591  1.00  0.00    -0.265 OA
BRANCH  27  29
HETATM   29  C23 UNL     1     -16.744   5.480  13.675  1.00  0.00     0.120 C 
BRANCH  29  30
HETATM   30  C24 UNL     1     -17.300   4.328  14.505  1.00  0.00     0.112 C 
BRANCH  30  31
HETATM   31  C25 UNL     1     -16.383   3.123  14.497  1.00  0.00     0.218 C 
HETATM   32  O6  UNL     1     -15.274   3.118  15.019  1.00  0.00    -0.274 OA
HETATM   33  N1  UNL     1     -16.934   2.034  13.859  1.00  0.00    -0.357 N 
HETATM   34  H34 UNL     1     -17.750   2.173  13.280  1.00  0.00     0.162 HD
BRANCH  33  35
HETATM   35  C26 UNL     1     -16.180   0.815  13.661  1.00  0.00     0.161 C 
BRANCH  35  36
HETATM   36  C27 UNL     1     -16.386  -0.139  14.810  1.00  0.00    -0.040 A 
HETATM   37  C28 UNL     1     -17.434  -1.071  14.790  1.00  0.00     0.010 A 
HETATM   38  C29 UNL     1     -17.613  -1.958  15.855  1.00  0.00     0.019 A 
HETATM   39  C30 UNL     1     -16.740  -1.931  16.950  1.00  0.00     0.037 A 
HETATM   40  C32 UNL     1     -15.685  -1.012  16.968  1.00  0.00     0.019 A 
HETATM   41  C33 UNL     1     -15.508  -0.125  15.903  1.00  0.00     0.010 A 
BRANCH  39  42
HETATM   42  C31 UNL     1     -16.893  -2.849  18.103  1.00  0.00     0.176 C 
HETATM   43  O7  UNL     1     -17.400  -3.955  18.073  1.00  0.00    -0.646 OA
BRANCH  42  44
HETATM   44  O8  UNL     1     -16.402  -2.340  19.246  1.00  0.00    -0.773 OA
HETATM   45  H39 UNL     1     -16.565  -3.049  19.903  1.00  0.00     0.167 HD
ENDBRANCH  42  44
ENDBRANCH  39  42
ENDBRANCH  35  36
ENDBRANCH  33  35
ENDBRANCH  30  31
ENDBRANCH  29  30
ENDBRANCH  27  29
ENDBRANCH  26  27
ENDBRANCH  25  26
ENDBRANCH   1  25
TORSDOF 12
ENDMDL
