MODEL 1
REMARK minimizedAffinity -10.2728157
REMARK  5 active torsions:
REMARK  status: ('A' for Active; 'I' for Inactive)
REMARK    1  A    between atoms: C5_5  and  C6_6 
REMARK    2  A    between atoms: C6_6  and  C7_8 
REMARK    3  A    between atoms: C7_8  and  O2_9 
REMARK    4  A    between atoms: O2_9  and  C8_10 
REMARK    5  A    between atoms: C14_17  and  C15_18 
ROOT
HETATM    1  C8  UNL     1      -1.884   4.872  12.841  1.00  0.00     0.093 A 
HETATM    2  C9  UNL     1      -2.398   3.723  12.241  1.00  0.00     0.076 A 
HETATM    3  C10 UNL     1      -3.779   3.507  12.228  1.00  0.00     0.093 A 
HETATM    4  C11 UNL     1      -4.681   4.406  12.793  1.00  0.00     0.011 A 
HETATM    5  C12 UNL     1      -4.166   5.557  13.395  1.00  0.00     0.042 A 
HETATM    6  C13 UNL     1      -2.784   5.787  13.417  1.00  0.00     0.068 A 
HETATM    7 CL1  UNL     1      -2.223   7.232  14.187  1.00  0.00    -0.081 Cl
HETATM    8  C14 UNL     1      -6.121   4.114  12.735  1.00  0.00    -0.007 A 
HETATM    9  C21 UNL     1      -6.508   2.976  12.136  1.00  0.00     0.095 A 
HETATM   10  C22 UNL     1      -5.569   2.013  11.543  1.00  0.00     0.289 A 
HETATM   11  O3  UNL     1      -5.977   0.982  11.019  1.00  0.00    -0.260 OA
HETATM   12  O4  UNL     1      -4.223   2.323  11.609  1.00  0.00    -0.275 OA
ENDROOT
BRANCH   1  13
HETATM   13  O2  UNL     1      -0.555   5.194  12.910  1.00  0.00    -0.342 OA
BRANCH  13  14
HETATM   14  C7  UNL     1       0.315   4.797  11.865  1.00  0.00     0.254 C 
BRANCH  14  15
HETATM   15  C6  UNL     1       1.257   5.881  11.327  1.00  0.00     0.155 C 
HETATM   16  O1  UNL     1       2.305   6.192  11.895  1.00  0.00    -0.295 OA
BRANCH  15  17
HETATM   17  C5  UNL     1       0.824   6.555  10.030  1.00  0.00     0.062 C 
HETATM   18  C4  UNL     1       1.931   6.429   8.976  1.00  0.00     0.049 C 
HETATM   19  C2  UNL     1       1.808   7.471   7.843  1.00  0.00     0.054 C 
HETATM   20  C1  UNL     1       2.048   6.788   6.487  1.00  0.00     0.045 C 
HETATM   21  C3  UNL     1       2.832   8.607   7.988  1.00  0.00     0.045 C 
HETATM   22  O5  UNL     1       0.470   7.980   7.792  1.00  0.00    -0.381 OA
HETATM   23  C24 UNL     1       0.036   8.685   8.954  1.00  0.00     0.169 C 
HETATM   24  C23 UNL     1       0.458   8.018  10.256  1.00  0.00     0.038 C 
ENDBRANCH  15  17
ENDBRANCH  14  15
ENDBRANCH  13  14
ENDBRANCH   1  13
BRANCH   8  25
HETATM   25  C15 UNL     1      -7.196   4.969  13.269  1.00  0.00    -0.025 A 
HETATM   26  C16 UNL     1      -7.199   5.332  14.622  1.00  0.00     0.012 A 
HETATM   27  C17 UNL     1      -8.219   6.139  15.129  1.00  0.00     0.001 A 
HETATM   28  C18 UNL     1      -9.238   6.588  14.289  1.00  0.00     0.000 A 
HETATM   29  C19 UNL     1      -9.239   6.231  12.940  1.00  0.00     0.001 A 
HETATM   30  C20 UNL     1      -8.222   5.424  12.430  1.00  0.00     0.012 A 
ENDBRANCH   8  25
TORSDOF 5
ENDMDL
