MODEL 1
REMARK minimizedAffinity -7.23523903
REMARK CNNscore 0.725186229
REMARK CNNaffinity 6.75778341
REMARK  9 active torsions:
REMARK  status: ('A' for Active; 'I' for Inactive)
REMARK    1  A    between atoms: C2_2  and  C3_3 
REMARK    2  A    between atoms: C2_2  and  C9_12 
REMARK    3  A    between atoms: C3_3  and  C4_4 
REMARK    4  A    between atoms: C4_4  and  C5_5 
REMARK    5  A    between atoms: C5_5  and  O1_6 
REMARK    6  A    between atoms: C5_5  and  C6_7 
REMARK    7  A    between atoms: C6_7  and  O2_9 
REMARK    8  A    between atoms: C6_7  and  C8_10 
REMARK    9  A    between atoms: C8_10  and  O3_11 
ROOT
HETATM    1  C9  UNL     1       5.573  55.760  -8.062  1.00  0.00    -0.002 C 
HETATM    2  C10 UNL     1       6.367  54.722  -8.902  1.00  0.00     0.006 C 
HETATM    3  C11 UNL     1       5.348  53.967  -9.774  1.00  0.00     0.011 C 
HETATM    4  C12 UNL     1       4.033  54.768  -9.658  1.00  0.00    -0.032 C 
HETATM    5  C13 UNL     1       4.106  55.920 -10.710  1.00  0.00     0.016 C 
HETATM    6  C14 UNL     1       2.749  53.926  -9.887  1.00  0.00     0.004 C 
HETATM    7  C15 UNL     1       2.496  53.534 -11.353  1.00  0.00     0.007 C 
HETATM    8  C16 UNL     1       1.284  52.609 -11.442  1.00  0.00     0.007 C 
HETATM    9  C17 UNL     1      -0.005  53.378 -11.108  1.00  0.00     0.010 C 
HETATM   10  C18 UNL     1      -1.312  52.515 -11.116  1.00  0.00     0.018 C 
HETATM   11  C19 UNL     1      -1.704  52.162 -12.561  1.00  0.00     0.023 C 
HETATM   12  C20 UNL     1      -1.200  51.209 -10.305  1.00  0.00     0.023 C 
HETATM   13  C21 UNL     1      -2.462  53.347 -10.522  1.00  0.00     0.135 C 
HETATM   14  O4  UNL     1      -3.497  52.833 -10.099  1.00  0.00    -0.297 OA
HETATM   15  C22 UNL     1      -2.287  54.845 -10.521  1.00  0.00     0.080 C 
HETATM   16  C23 UNL     1      -1.065  55.219  -9.692  1.00  0.00     0.018 C 
HETATM   17  C24 UNL     1       0.089  54.218  -9.827  1.00  0.00    -0.026 A 
HETATM   18  C25 UNL     1       0.572  53.596  -8.540  1.00  0.00     0.021 A 
HETATM   19  C26 UNL     1       1.491  54.575  -9.252  1.00  0.00    -0.027 A 
HETATM   20  C27 UNL     1       1.655  55.963  -8.620  1.00  0.00     0.011 C 
HETATM   21  C28 UNL     1       3.000  56.296  -7.948  1.00  0.00     0.011 C 
HETATM   22  C29 UNL     1       4.098  55.246  -8.158  1.00  0.00    -0.032 C 
HETATM   23  C30 UNL     1       3.863  54.107  -7.131  1.00  0.00     0.016 C 
ENDROOT
BRANCH   1  24
HETATM   24  C2  UNL     1       6.286  56.134  -6.728  1.00  0.00    -0.014 C 
HETATM   25  C1  UNL     1       6.126  57.577  -6.230  1.00  0.00     0.010 C 
BRANCH  24  26
HETATM   26  C3  UNL     1       7.776  55.716  -6.738  1.00  0.00     0.007 C 
BRANCH  26  27
HETATM   27  C4  UNL     1       8.456  55.858  -5.364  1.00  0.00     0.035 C 
BRANCH  27  28
HETATM   28  C5  UNL     1       9.531  56.957  -5.308  1.00  0.00     0.154 C 
BRANCH  28  29
HETATM   29  O1  UNL     1      10.791  56.341  -5.614  1.00  0.00    -0.392 OA
HETATM   30  H10 UNL     1      10.832  56.174  -6.570  1.00  0.00     0.210 HD
ENDBRANCH  28  29
BRANCH  28  31
HETATM   31  C6  UNL     1       9.645  57.683  -3.923  1.00  0.00     0.101 C 
HETATM   32  C7  UNL     1      10.060  56.666  -2.842  1.00  0.00     0.051 C 
BRANCH  31  33
HETATM   33  O2  UNL     1       8.384  58.220  -3.484  1.00  0.00    -0.385 OA
HETATM   34  H14 UNL     1       7.905  58.552  -4.262  1.00  0.00     0.210 HD
ENDBRANCH  31  33
BRANCH  31  35
HETATM   35  C8  UNL     1      10.669  58.839  -3.968  1.00  0.00     0.204 C 
BRANCH  35  36
HETATM   36  O3  UNL     1      10.816  59.396  -5.271  1.00  0.00    -0.398 OA
HETATM   37  H17 UNL     1      11.302  58.748  -5.810  1.00  0.00     0.209 HD
ENDBRANCH  35  36
ENDBRANCH  31  35
ENDBRANCH  28  31
ENDBRANCH  27  28
ENDBRANCH  26  27
ENDBRANCH  24  26
ENDBRANCH   1  24
TORSDOF 9
ENDMDL
