MODEL 1
REMARK minimizedAffinity -7.97718477
REMARK CNNscore 0.394185156
REMARK CNNaffinity 6.5504117
REMARK  14 active torsions:
REMARK  status: ('A' for Active; 'I' for Inactive)
REMARK    1  A    between atoms: O1_2  and  C2_3 
REMARK    2  A    between atoms: C8_9  and  O2_10 
REMARK    3  A    between atoms: O2_10  and  C9_11 
REMARK    4  A    between atoms: C10_13  and  C11_14 
REMARK    5  A    between atoms: C11_14  and  O4_15 
REMARK    6  A    between atoms: C12_16  and  O5_17 
REMARK    7  A    between atoms: C13_18  and  O6_19 
REMARK    8  A    between atoms: C14_20  and  O7_21 
REMARK    9  A    between atoms: C18_25  and  C19_26 
REMARK   10  A    between atoms: C24_32  and  C25_33 
REMARK   11  A    between atoms: C25_33  and  C27_35 
REMARK   12  A    between atoms: C27_35  and  C28_36 
REMARK   13  A    between atoms: C29_37  and  C30_38 
REMARK   14  A    between atoms: C30_38  and  O9_41 
ROOT
HETATM    1  C2  UNL     1      -0.151  13.478  17.671  1.00  0.00     0.149 C 
HETATM    2  C3  UNL     1      -1.412  12.752  17.360  1.00  0.00     0.009 C 
HETATM    3  C4  UNL     1      -1.459  11.587  16.696  1.00  0.00    -0.066 C 
HETATM    4  C5  UNL     1      -0.184  10.902  16.251  1.00  0.00     0.031 C 
HETATM    5  C6  UNL     1      -0.142  10.929  14.703  1.00  0.00     0.013 C 
HETATM    6  C7  UNL     1      -1.498  10.635  14.036  1.00  0.00     0.034 C 
HETATM    7  C8  UNL     1      -2.508   9.985  14.991  1.00  0.00     0.136 C 
HETATM    8  C15 UNL     1      -2.773  10.918  16.233  1.00  0.00     0.002 C 
HETATM    9  C16 UNL     1      -3.324  10.052  17.383  1.00  0.00     0.022 C 
HETATM   10  C17 UNL     1      -3.855  11.973  15.883  1.00  0.00     0.022 C 
HETATM   11  C18 UNL     1       1.164  11.307  17.004  1.00  0.00     0.027 C 
HETATM   12  C20 UNL     1       1.682  10.005  17.727  1.00  0.00     0.018 C 
HETATM   13  C21 UNL     1       2.587  10.102  18.967  1.00  0.00     0.011 C 
HETATM   14  C22 UNL     1       2.631  11.468  19.658  1.00  0.00    -0.032 C 
HETATM   15  C23 UNL     1       3.845  12.243  19.063  1.00  0.00     0.016 C 
HETATM   16  C24 UNL     1       2.774  11.468  21.222  1.00  0.00    -0.002 C 
HETATM   17  C34 UNL     1       2.222  12.873  21.609  1.00  0.00     0.006 C 
HETATM   18  C35 UNL     1       1.414  13.398  20.409  1.00  0.00     0.011 C 
HETATM   19  C36 UNL     1       1.240  12.188  19.473  1.00  0.00    -0.029 C 
HETATM   20  C37 UNL     1       0.003  11.404  20.014  1.00  0.00     0.016 C 
HETATM   21  C38 UNL     1       1.047  12.553  17.972  1.00  0.00     0.043 C 
ENDROOT
BRANCH   7  22
HETATM   22  O2  UNL     1      -3.739   9.718  14.299  1.00  0.00    -0.352 OA
BRANCH  22  23
HETATM   23  C9  UNL     1      -3.815   8.407  13.724  1.00  0.00     0.292 C 
HETATM   24  O3  UNL     1      -5.119   8.197  13.190  1.00  0.00    -0.348 OA
HETATM   25  C10 UNL     1      -6.059   7.529  14.041  1.00  0.00     0.179 C 
HETATM   26  C12 UNL     1      -5.556   6.105  14.320  1.00  0.00     0.180 C 
HETATM   27  C13 UNL     1      -4.042   6.024  14.595  1.00  0.00     0.183 C 
HETATM   28  C14 UNL     1      -3.384   7.385  14.807  1.00  0.00     0.204 C 
BRANCH  25  29
HETATM   29  C11 UNL     1      -6.431   8.313  15.306  1.00  0.00     0.198 C 
BRANCH  29  30
HETATM   30  O4  UNL     1      -6.660   7.425  16.395  1.00  0.00    -0.398 OA
HETATM   31  H16 UNL     1      -7.601   7.163  16.346  1.00  0.00     0.209 HD
ENDBRANCH  29  30
ENDBRANCH  25  29
BRANCH  26  32
HETATM   32  O5  UNL     1      -5.822   5.266  13.171  1.00  0.00    -0.390 OA
HETATM   33  H18 UNL     1      -5.701   5.831  12.382  1.00  0.00     0.210 HD
ENDBRANCH  26  32
BRANCH  27  34
HETATM   34  O6  UNL     1      -3.355   5.354  13.514  1.00  0.00    -0.390 OA
HETATM   35  H20 UNL     1      -4.020   4.724  13.172  1.00  0.00     0.210 HD
ENDBRANCH  27  34
BRANCH  28  36
HETATM   36  O7  UNL     1      -1.956   7.234  14.815  1.00  0.00    -0.388 OA
HETATM   37  H22 UNL     1      -1.775   6.415  14.302  1.00  0.00     0.210 HD
ENDBRANCH  28  36
ENDBRANCH  22  23
ENDBRANCH   7  22
BRANCH  11  38
HETATM   38  C19 UNL     1       2.207  11.717  15.950  1.00  0.00     0.241 C 
HETATM   39  O8  UNL     1       3.344  11.256  15.868  1.00  0.00    -0.306 OA
ENDBRANCH  11  38
BRANCH   1  40
HETATM   40  O1  UNL     1       0.205  14.252  16.510  1.00  0.00    -0.386 OA
HETATM   41  C1  UNL     1      -0.734  15.276  16.197  1.00  0.00     0.202 C 
ENDBRANCH   1  40
BRANCH  16  42
HETATM   42  C25 UNL     1       4.155  11.166  21.889  1.00  0.00    -0.010 C 
HETATM   43  C26 UNL     1       4.091   9.915  22.775  1.00  0.00     0.010 C 
BRANCH  42  44
HETATM   44  C27 UNL     1       4.639  12.394  22.713  1.00  0.00     0.031 C 
BRANCH  44  45
HETATM   45  C28 UNL     1       6.123  12.422  22.973  1.00  0.00    -0.027 C 
HETATM   46  C29 UNL     1       6.910  13.484  22.732  1.00  0.00     0.006 C 
BRANCH  46  47
HETATM   47  C30 UNL     1       8.403  13.605  22.984  1.00  0.00     0.070 C 
HETATM   48  C31 UNL     1       9.153  12.276  23.182  1.00  0.00     0.050 C 
HETATM   49  C32 UNL     1       9.024  14.319  21.776  1.00  0.00     0.050 C 
BRANCH  47  50
HETATM   50  O9  UNL     1       8.610  14.494  24.093  1.00  0.00    -0.382 OA
HETATM   51  C33 UNL     1       8.041  15.789  23.972  1.00  0.00     0.202 C 
ENDBRANCH  47  50
ENDBRANCH  46  47
ENDBRANCH  44  45
ENDBRANCH  42  44
ENDBRANCH  16  42
TORSDOF 14
ENDMDL
