MODEL 1
REMARK minimizedAffinity -7.39895058
REMARK CNNscore 0.833728194
REMARK CNNaffinity 7.39008474
REMARK  9 active torsions:
REMARK  status: ('A' for Active; 'I' for Inactive)
REMARK    1  A    between atoms: C2_2  and  C3_3 
REMARK    2  A    between atoms: C2_2  and  C9_12 
REMARK    3  A    between atoms: C3_3  and  C4_4 
REMARK    4  A    between atoms: C4_4  and  C5_5 
REMARK    5  A    between atoms: C5_5  and  O1_6 
REMARK    6  A    between atoms: C5_5  and  C6_7 
REMARK    7  A    between atoms: C6_7  and  O2_9 
REMARK    8  A    between atoms: C6_7  and  C8_10 
REMARK    9  A    between atoms: C8_10  and  O3_11 
ROOT
HETATM    1  C9  UNL     1      -1.862  52.336 -10.070  1.00  0.00    -0.002 C 
HETATM    2  C10 UNL     1      -1.194  50.940 -10.196  1.00  0.00     0.007 C 
HETATM    3  C11 UNL     1       0.296  51.119  -9.844  1.00  0.00     0.015 C 
HETATM    4  C12 UNL     1       0.386  52.496  -9.156  1.00  0.00    -0.005 C 
HETATM    5  C13 UNL     1      -0.021  52.287  -7.663  1.00  0.00     0.021 C 
HETATM    6  C14 UNL     1       1.711  53.248  -9.084  1.00  0.00    -0.000 C 
HETATM    7  C15 UNL     1       1.745  54.607  -9.050  1.00  0.00    -0.060 C 
HETATM    8  C16 UNL     1       0.450  55.425  -9.142  1.00  0.00     0.036 C 
HETATM    9  C17 UNL     1      -0.873  54.661  -9.350  1.00  0.00     0.015 C 
HETATM   10  C18 UNL     1      -0.647  53.311 -10.038  1.00  0.00    -0.028 C 
HETATM   11  C19 UNL     1      -0.132  53.578 -11.482  1.00  0.00     0.016 C 
HETATM   12  C20 UNL     1       3.071  55.414  -8.984  1.00  0.00    -0.014 C 
HETATM   13  C21 UNL     1       3.425  55.754 -10.450  1.00  0.00     0.020 C 
HETATM   14  C22 UNL     1       2.907  56.725  -8.173  1.00  0.00     0.021 C 
HETATM   15  C23 UNL     1       4.208  57.485  -7.975  1.00  0.00     0.080 C 
HETATM   16  C24 UNL     1       5.240  56.623  -7.291  1.00  0.00     0.135 C 
HETATM   17  O4  UNL     1       5.903  57.088  -6.362  1.00  0.00    -0.297 OA
HETATM   18  C25 UNL     1       5.503  55.225  -7.869  1.00  0.00     0.018 C 
HETATM   19  C26 UNL     1       6.203  54.389  -6.767  1.00  0.00     0.023 C 
HETATM   20  C27 UNL     1       6.502  55.369  -9.027  1.00  0.00     0.023 C 
HETATM   21  C28 UNL     1       4.140  54.541  -8.242  1.00  0.00     0.020 C 
HETATM   22  C29 UNL     1       4.299  53.195  -8.954  1.00  0.00     0.090 C 
HETATM   23  C30 UNL     1       2.982  52.457  -9.012  1.00  0.00     0.157 C 
HETATM   24  O5  UNL     1       2.974  51.228  -9.024  1.00  0.00    -0.293 OA
ENDROOT
BRANCH   1  25
HETATM   25  C2  UNL     1      -3.095  52.523 -11.007  1.00  0.00    -0.014 C 
HETATM   26  C1  UNL     1      -4.154  53.542 -10.567  1.00  0.00     0.010 C 
BRANCH  25  27
HETATM   27  C3  UNL     1      -3.755  51.170 -11.350  1.00  0.00     0.007 C 
BRANCH  27  28
HETATM   28  C4  UNL     1      -4.934  50.726 -10.469  1.00  0.00     0.035 C 
BRANCH  28  29
HETATM   29  C5  UNL     1      -5.707  49.451 -10.862  1.00  0.00     0.154 C 
BRANCH  29  30
HETATM   30  O1  UNL     1      -4.837  48.331 -10.679  1.00  0.00    -0.392 OA
HETATM   31  H10 UNL     1      -5.373  47.519 -10.780  1.00  0.00     0.210 HD
ENDBRANCH  29  30
BRANCH  29  32
HETATM   32  C6  UNL     1      -7.113  49.247 -10.199  1.00  0.00     0.101 C 
HETATM   33  C7  UNL     1      -8.092  48.573 -11.165  1.00  0.00     0.051 C 
BRANCH  32  34
HETATM   34  O2  UNL     1      -7.663  50.509  -9.787  1.00  0.00    -0.385 OA
HETATM   35  H14 UNL     1      -8.595  50.377  -9.548  1.00  0.00     0.210 HD
ENDBRANCH  32  34
BRANCH  32  36
HETATM   36  C8  UNL     1      -6.987  48.395  -8.916  1.00  0.00     0.204 C 
BRANCH  36  37
HETATM   37  O3  UNL     1      -7.747  48.990  -7.859  1.00  0.00    -0.398 OA
HETATM   38  H17 UNL     1      -8.622  49.195  -8.255  1.00  0.00     0.209 HD
ENDBRANCH  36  37
ENDBRANCH  32  36
ENDBRANCH  29  32
ENDBRANCH  28  29
ENDBRANCH  27  28
ENDBRANCH  25  27
ENDBRANCH   1  25
TORSDOF 9
ENDMDL
