MODEL 1
REMARK minimizedAffinity -9.22796249
REMARK  8 active torsions:
REMARK  status: ('A' for Active; 'I' for Inactive)
REMARK    1  A    between atoms: C12_14  and  C13_15 
REMARK    2  A    between atoms: C13_15  and  C15_17 
REMARK    3  A    between atoms: C15_17  and  C16_18 
REMARK    4  A    between atoms: C16_18  and  C17_20 
REMARK    5  A    between atoms: C26_29  and  C27_30 
REMARK    6  A    between atoms: C27_30  and  C28_31 
REMARK    7  A    between atoms: C28_31  and  C29_32 
REMARK    8  A    between atoms: C29_32  and  O5_34 
ROOT
HETATM    1  C1  UNL     1       4.091   7.459  10.570  1.00  0.00     0.025 C 
HETATM    2  C2  UNL     1       3.211   6.516  10.928  1.00  0.00     0.015 C 
HETATM    3  C3  UNL     1       3.030   5.287  10.125  1.00  0.00     0.289 C 
HETATM    4  O1  UNL     1       3.703   4.938   9.173  1.00  0.00    -0.260 OA
HETATM    5  O2  UNL     1       1.984   4.598  10.650  1.00  0.00    -0.311 OA
HETATM    6  C4  UNL     1       1.299   5.390  11.640  1.00  0.00     0.142 C 
HETATM    7  C5  UNL     1       0.004   5.897  11.022  1.00  0.00     0.039 C 
HETATM    8  C6  UNL     1      -0.777   6.927  11.855  1.00  0.00     0.006 C 
HETATM    9  C7  UNL     1       0.129   8.011  12.490  1.00  0.00    -0.027 A 
HETATM   10  C8  UNL     1      -0.608   9.005  13.412  1.00  0.00     0.011 C 
HETATM   11  C9  UNL     1      -1.676   8.397  14.334  1.00  0.00     0.011 C 
HETATM   12  C10 UNL     1      -2.633   7.485  13.552  1.00  0.00    -0.032 C 
HETATM   13  C11 UNL     1      -3.390   8.352  12.506  1.00  0.00     0.016 C 
HETATM   14  C12 UNL     1      -3.672   6.663  14.380  1.00  0.00    -0.002 C 
HETATM   15  C21 UNL     1      -3.936   5.416  13.487  1.00  0.00     0.006 C 
HETATM   16  C22 UNL     1      -2.845   5.394  12.397  1.00  0.00     0.011 C 
HETATM   17  C23 UNL     1      -1.746   6.331  12.924  1.00  0.00    -0.032 C 
HETATM   18  C24 UNL     1      -0.927   5.519  13.978  1.00  0.00     0.016 C 
HETATM   19  C25 UNL     1       1.094   8.708  11.562  1.00  0.00     0.022 A 
HETATM   20  C26 UNL     1       1.666   7.765  12.608  1.00  0.00    -0.021 A 
HETATM   21  C30 UNL     1       2.284   6.456  12.097  1.00  0.00     0.063 C 
ENDROOT
BRANCH  14  22
HETATM   22  C13 UNL     1      -4.964   7.279  14.998  1.00  0.00    -0.007 C 
HETATM   23  C14 UNL     1      -4.835   8.642  15.694  1.00  0.00     0.011 C 
BRANCH  22  24
HETATM   24  C15 UNL     1      -5.682   6.277  15.922  1.00  0.00     0.087 C 
BRANCH  24  25
HETATM   25  C16 UNL     1      -7.120   5.990  15.510  1.00  0.00     0.149 C 
HETATM   26  O3  UNL     1      -8.020   6.817  15.620  1.00  0.00    -0.293 OA
BRANCH  25  27
HETATM   27  C17 UNL     1      -7.360   4.651  14.890  1.00  0.00     0.052 C 
HETATM   28  C18 UNL     1      -7.580   4.419  13.581  1.00  0.00    -0.084 C 
HETATM   29  C19 UNL     1      -7.759   3.011  13.078  1.00  0.00     0.043 C 
HETATM   30  C20 UNL     1      -7.679   5.475  12.514  1.00  0.00     0.043 C 
ENDBRANCH  25  27
ENDBRANCH  24  25
ENDBRANCH  22  24
ENDBRANCH  14  22
BRANCH  20  31
HETATM   31  C27 UNL     1       2.394   8.316  13.847  1.00  0.00     0.021 C 
BRANCH  31  32
HETATM   32  C28 UNL     1       2.619   7.314  14.978  1.00  0.00     0.111 C 
BRANCH  32  33
HETATM   33  C29 UNL     1       1.954   7.767  16.249  1.00  0.00     0.139 C 
HETATM   34  O4  UNL     1       2.336   8.632  17.018  1.00  0.00    -0.650 OA
BRANCH  33  35
HETATM   35  O5  UNL     1       0.829   7.070  16.503  1.00  0.00    -0.776 OA
HETATM   36  H41 UNL     1       0.498   7.442  17.347  1.00  0.00     0.167 HD
ENDBRANCH  33  35
ENDBRANCH  32  33
ENDBRANCH  31  32
ENDBRANCH  20  31
TORSDOF 8
ENDMDL
