MODEL 1
REMARK minimizedAffinity -8.44215488
REMARK CNNscore 0.368278146
REMARK CNNaffinity 6.12642908
REMARK  11 active torsions:
REMARK  status: ('A' for Active; 'I' for Inactive)
REMARK    1  A    between atoms: C3_4  and  O2_5 
REMARK    2  A    between atoms: O2_5  and  C4_6 
REMARK    3  A    between atoms: C7_9  and  C8_10 
REMARK    4  A    between atoms: N1_11  and  C9_13 
REMARK    5  A    between atoms: C9_13  and  C10_14 
REMARK    6  A    between atoms: C10_14  and  C11_15 
REMARK    7  A    between atoms: C22_26  and  C23_27 
REMARK    8  A    between atoms: C29_35  and  O5_36 
REMARK    9  A    between atoms: C33_40  and  O6_41 
REMARK   10  A    between atoms: C36_44  and  O7_45 
REMARK   11  A    between atoms: C37_46  and  O8_47 
ROOT
HETATM    1  C4  UNL     1     -10.245 -10.108  14.459  1.00  0.00     0.127 C 
HETATM    2  C5  UNL     1     -10.485 -11.249  15.454  1.00  0.00     0.033 C 
HETATM    3  C6  UNL     1     -11.824 -11.108  16.162  1.00  0.00     0.021 C 
HETATM    4  C7  UNL     1     -11.976  -9.785  16.990  1.00  0.00     0.026 C 
HETATM    5  C17 UNL     1     -13.466  -9.270  16.817  1.00  0.00     0.009 C 
HETATM    6  C18 UNL     1     -14.523 -10.254  17.361  1.00  0.00     0.007 C 
HETATM    7  C19 UNL     1     -15.946  -9.765  17.099  1.00  0.00     0.013 C 
HETATM    8  C20 UNL     1     -16.238  -8.374  17.729  1.00  0.00    -0.005 C 
HETATM    9  C21 UNL     1     -16.295  -8.525  19.265  1.00  0.00     0.019 C 
HETATM   10  C22 UNL     1     -17.570  -7.827  17.102  1.00  0.00     0.028 C 
HETATM   11  C27 UNL     1     -17.128  -7.077  15.827  1.00  0.00     0.013 C 
HETATM   12  C28 UNL     1     -15.599  -7.020  15.829  1.00  0.00     0.040 C 
HETATM   13  C29 UNL     1     -15.166  -7.352  17.262  1.00  0.00     0.070 C 
HETATM   14  C30 UNL     1     -13.698  -7.851  17.387  1.00  0.00     0.026 C 
HETATM   15  C31 UNL     1     -12.721  -6.858  16.736  1.00  0.00     0.011 C 
HETATM   16  C32 UNL     1     -11.279  -7.271  16.978  1.00  0.00     0.039 C 
HETATM   17  C33 UNL     1     -10.935  -8.700  16.506  1.00  0.00     0.073 C 
HETATM   18  C34 UNL     1     -10.796  -8.758  14.966  1.00  0.00     0.071 C 
ENDROOT
BRANCH   1  19
HETATM   19  O2  UNL     1      -8.837 -10.040  14.237  1.00  0.00    -0.356 OA
BRANCH  19  20
HETATM   20  C3  UNL     1      -8.445 -10.100  12.871  1.00  0.00     0.263 C 
HETATM   21  O1  UNL     1      -8.390 -11.463  12.459  1.00  0.00    -0.354 OA
HETATM   22  C2  UNL     1      -8.103 -11.640  11.064  1.00  0.00     0.151 C 
HETATM   23  C1  UNL     1      -9.411 -11.797  10.293  1.00  0.00     0.042 C 
HETATM   24  C37 UNL     1      -7.224 -10.515  10.472  1.00  0.00     0.175 C 
HETATM   25  C36 UNL     1      -6.280  -9.971  11.548  1.00  0.00     0.154 C 
HETATM   26  C35 UNL     1      -7.045  -9.476  12.774  1.00  0.00     0.095 C 
BRANCH  24  27
HETATM   27  O8  UNL     1      -6.460 -11.008   9.367  1.00  0.00    -0.390 OA
HETATM   28  H51 UNL     1      -5.648 -11.396   9.760  1.00  0.00     0.210 HD
ENDBRANCH  24  27
BRANCH  25  29
HETATM   29  O7  UNL     1      -5.354 -11.013  11.912  1.00  0.00    -0.393 OA
HETATM   30  H49 UNL     1      -5.788 -11.575  12.590  1.00  0.00     0.210 HD
ENDBRANCH  25  29
ENDBRANCH  19  20
ENDBRANCH   1  19
BRANCH  17  31
HETATM   31  O6  UNL     1      -9.622  -8.989  17.015  1.00  0.00    -0.389 OA
HETATM   32  H43 UNL     1      -9.399  -8.412  17.766  1.00  0.00     0.210 HD
ENDBRANCH  17  31
BRANCH   4  33
HETATM   33  C8  UNL     1     -11.702 -10.041  18.479  1.00  0.00     0.068 C 
HETATM   34  N1  UNL     1     -10.791 -10.852  18.906  1.00  0.00    -0.401 N 
ATOM     35  H1  UNL     1     -10.186 -11.398  18.294  1.00  0.00     0.158 HD
BRANCH  34  36
HETATM   36  C9  UNL     1     -10.725 -10.901  20.376  1.00  0.00     0.123 C 
BRANCH  36  37
HETATM   37  C10 UNL     1      -9.385 -10.317  20.836  1.00  0.00     0.058 C 
BRANCH  37  38
HETATM   38  C11 UNL     1      -8.950 -10.938  22.140  1.00  0.00    -0.057 A 
HETATM   39  C12 UNL     1      -9.866 -11.634  22.939  1.00  0.00     0.007 A 
HETATM   40  C13 UNL     1      -9.471 -12.159  24.169  1.00  0.00     0.001 A 
HETATM   41  C14 UNL     1      -8.158 -12.002  24.607  1.00  0.00     0.000 A 
HETATM   42  C15 UNL     1      -7.239 -11.310  23.819  1.00  0.00     0.001 A 
HETATM   43  C16 UNL     1      -7.633 -10.775  22.593  1.00  0.00     0.007 A 
ENDBRANCH  37  38
ENDBRANCH  36  37
ENDBRANCH  34  36
ENDBRANCH   4  33
BRANCH  13  44
HETATM   44  O5  UNL     1     -15.285  -6.132  18.001  1.00  0.00    -0.389 OA
HETATM   45  H37 UNL     1     -14.937  -6.276  18.897  1.00  0.00     0.210 HD
ENDBRANCH  13  44
BRANCH  10  46
HETATM   46  C23 UNL     1     -18.465  -7.002  17.993  1.00  0.00    -0.045 A 
HETATM   47  C24 UNL     1     -19.286  -7.394  18.967  1.00  0.00     0.087 A 
HETATM   48  C25 UNL     1     -19.922  -6.192  19.506  1.00  0.00     0.283 A 
HETATM   49  O3  UNL     1     -20.751  -6.182  20.394  1.00  0.00    -0.260 OA
HETATM   50  O4  UNL     1     -19.438  -5.102  18.856  1.00  0.00    -0.314 OA
HETATM   51  C26 UNL     1     -18.497  -5.524  17.872  1.00  0.00     0.213 A 
ENDBRANCH  10  46
TORSDOF 11
ENDMDL
