MODEL 1
REMARK minimizedAffinity -9.8122406
REMARK CNNscore 0.349971503
REMARK CNNaffinity 7.91371679
REMARK  13 active torsions:
REMARK  status: ('A' for Active; 'I' for Inactive)
REMARK    1  A    between atoms: C2_2  and  C3_3 
REMARK    2  A    between atoms: C6_6  and  C7_7 
REMARK    3  A    between atoms: C7_7  and  C8_8 
REMARK    4  A    between atoms: C14_17  and  C15_18 
REMARK    5  A    between atoms: C15_18  and  O3_20 
REMARK    6  A    between atoms: C19_24  and  C20_25 
REMARK    7  A    between atoms: C20_25  and  C21_26 
REMARK    8  A    between atoms: C22_27  and  C23_28 
REMARK    9  A    between atoms: C27_32  and  C28_33 
REMARK   10  A    between atoms: C29_37  and  C30_38 
REMARK   11  A    between atoms: C30_38  and  C31_39 
REMARK   12  A    between atoms: C31_39  and  C32_40 
REMARK   13  A    between atoms: C32_40  and  O6_42 
ROOT
HETATM    1  C8  UNL     1      -0.180   5.911  12.992  1.00  0.00     0.016 C 
HETATM    2  N1  UNL     1      -1.158   5.626  12.184  1.00  0.00    -0.362 N 
ATOM      3  H1  UNL     1      -1.081   5.444  11.183  1.00  0.00     0.165 HD
HETATM    4  C9  UNL     1      -2.319   5.615  12.928  1.00  0.00     0.024 C 
HETATM    5  C10 UNL     1      -3.412   4.973  12.485  1.00  0.00     0.014 A 
HETATM    6  C11 UNL     1      -4.652   4.837  13.136  1.00  0.00     0.056 A 
HETATM    7  C12 UNL     1      -5.543   4.074  12.442  1.00  0.00     0.046 A 
HETATM    8  C13 UNL     1      -4.931   3.636  11.203  1.00  0.00     0.180 A 
HETATM    9  O1  UNL     1      -5.477   2.937  10.360  1.00  0.00    -0.291 OA
HETATM   10  C14 UNL     1      -3.490   4.207  11.131  1.00  0.00     0.197 A 
HETATM   11  C17 UNL     1      -6.728   3.984  13.190  1.00  0.00    -0.023 A 
HETATM   12  C18 UNL     1      -7.954   3.232  12.826  1.00  0.00     0.051 C 
HETATM   13  C19 UNL     1      -6.504   4.756  14.338  1.00  0.00     0.022 A 
HETATM   14  N3  UNL     1      -5.215   5.272  14.279  1.00  0.00    -0.357 N 
HETATM   15  C29 UNL     1      -2.106   6.323  14.248  1.00  0.00     0.046 C 
HETATM   16  C34 UNL     1      -0.605   6.054  14.441  1.00  0.00     0.041 C 
HETATM   17  C35 UNL     1       0.155   7.010  15.337  1.00  0.00     0.017 C 
HETATM   18  H27 UNL     1      -4.818   5.897  14.965  1.00  0.00     0.166 HD
ENDROOT
BRANCH  10  19
HETATM   19  C15 UNL     1      -2.490   3.083  11.046  1.00  0.00     0.274 C 
HETATM   20  O2  UNL     1      -1.595   2.993  10.211  1.00  0.00    -0.264 OA
BRANCH  19  21
HETATM   21  O3  UNL     1      -2.715   2.181  12.044  1.00  0.00    -0.326 OA
HETATM   22  C16 UNL     1      -2.950   0.844  11.596  1.00  0.00     0.213 C 
ENDBRANCH  19  21
ENDBRANCH  10  19
BRANCH  15  23
HETATM   23  C30 UNL     1      -2.593   7.794  14.246  1.00  0.00     0.021 C 
BRANCH  23  24
HETATM   24  C31 UNL     1      -1.743   8.849  13.535  1.00  0.00     0.112 C 
BRANCH  24  25
HETATM   25  C32 UNL     1      -1.695  10.169  14.257  1.00  0.00     0.258 C 
HETATM   26  O5  UNL     1      -1.624  11.259  13.706  1.00  0.00    -0.265 OA
BRANCH  25  27
HETATM   27  O6  UNL     1      -1.704   9.968  15.604  1.00  0.00    -0.326 OA
HETATM   28  C33 UNL     1      -2.551  10.862  16.323  1.00  0.00     0.213 C 
ENDBRANCH  25  27
ENDBRANCH  24  25
ENDBRANCH  23  24
ENDBRANCH  15  23
BRANCH   1  29
HETATM   29  C7  UNL     1       1.247   6.016  12.599  1.00  0.00     0.055 C 
BRANCH  29  30
HETATM   30  C6  UNL     1       1.643   6.113  11.326  1.00  0.00     0.043 A 
HETATM   31  C4  UNL     1       1.346   7.150  10.353  1.00  0.00    -0.019 A 
HETATM   32  C3  UNL     1       1.938   6.877   9.168  1.00  0.00     0.039 A 
HETATM   33  C5  UNL     1       0.498   8.326  10.714  1.00  0.00     0.052 C 
HETATM   34  C36 UNL     1       2.674   5.584   9.375  1.00  0.00     0.256 A 
HETATM   35  N4  UNL     1       2.436   5.223  10.677  1.00  0.00    -0.322 N 
HETATM   36  O7  UNL     1       3.357   4.978   8.571  1.00  0.00    -0.267 OA
HETATM   37  H40 UNL     1       2.786   4.369  11.101  1.00  0.00     0.169 HD
BRANCH  32  38
HETATM   38  C2  UNL     1       1.887   7.645   7.946  1.00  0.00     0.007 C 
HETATM   39  C1  UNL     1       1.775   7.155   6.705  1.00  0.00     0.012 C 
ENDBRANCH  32  38
ENDBRANCH  29  30
ENDBRANCH   1  29
BRANCH  13  40
HETATM   40  C20 UNL     1      -7.408   5.049  15.498  1.00  0.00     0.115 C 
BRANCH  40  41
HETATM   41  C21 UNL     1      -8.244   6.274  15.283  1.00  0.00     0.022 A 
HETATM   42  C22 UNL     1      -7.948   7.620  15.443  1.00  0.00    -0.027 A 
HETATM   43  C25 UNL     1      -9.123   8.355  15.070  1.00  0.00    -0.024 A 
HETATM   44  C26 UNL     1      -9.278   9.841  15.064  1.00  0.00     0.051 C 
HETATM   45  C27 UNL     1     -10.096   7.432  14.707  1.00  0.00     0.077 A 
HETATM   46  N2  UNL     1      -9.533   6.182  14.822  1.00  0.00    -0.356 N 
HETATM   47  H26 UNL     1     -10.001   5.314  14.594  1.00  0.00     0.166 HD
BRANCH  42  48
HETATM   48  C23 UNL     1      -6.639   8.195  15.904  1.00  0.00     0.036 C 
HETATM   49  C24 UNL     1      -5.809   8.733  14.749  1.00  0.00     0.010 C 
ENDBRANCH  42  48
BRANCH  45  50
HETATM   50  C28 UNL     1     -11.457   7.653  14.266  1.00  0.00     0.288 C 
HETATM   51  O4  UNL     1     -11.805   8.430  13.382  1.00  0.00    -0.300 OA
ENDBRANCH  45  50
ENDBRANCH  40  41
ENDBRANCH  13  40
TORSDOF 13
ENDMDL
