MODEL 1
REMARK minimizedAffinity -6.86469984
REMARK  11 active torsions:
REMARK  status: ('A' for Active; 'I' for Inactive)
REMARK    1  A    between atoms: O1_2  and  C2_3 
REMARK    2  A    between atoms: C5_6  and  N1_7 
REMARK    3  A    between atoms: N1_7  and  C6_8 
REMARK    4  A    between atoms: C6_8  and  C7_9 
REMARK    5  A    between atoms: C7_9  and  C8_10 
REMARK    6  A    between atoms: C8_10  and  C9_11 
REMARK    7  A    between atoms: C9_11  and  C10_12 
REMARK    8  A    between atoms: C10_12  and  O2_13 
REMARK    9  A    between atoms: O2_13  and  N2_14 
REMARK   10  A    between atoms: C13_23  and  O5_24 
REMARK   11  A    between atoms: C15_26  and  O6_27 
ROOT
HETATM    1  C2  UNL     1      -0.883  51.723 -20.873  1.00  0.00     0.105 A 
HETATM    2  C3  UNL     1      -0.786  52.321 -22.128  1.00  0.00     0.057 A 
HETATM    3  C4  UNL     1      -1.796  52.149 -23.115  1.00  0.00     0.035 A 
HETATM    4  C5  UNL     1      -1.744  52.714 -24.407  1.00  0.00     0.093 A 
HETATM    5  N3  UNL     1      -2.741  52.566 -25.295  1.00  0.00    -0.342 N 
ATOM      6  H3  UNL     1      -2.702  52.996 -26.219  1.00  0.00     0.167 HD
HETATM    7  C11 UNL     1      -3.783  51.829 -24.907  1.00  0.00     0.182 A 
HETATM    8  N4  UNL     1      -3.926  51.227 -23.725  1.00  0.00    -0.349 N 
ATOM      9  H4  UNL     1      -4.751  50.668 -23.510  1.00  0.00     0.166 HD
HETATM   10  C12 UNL     1      -2.938  51.386 -22.827  1.00  0.00     0.083 A 
HETATM   11  C13 UNL     1      -3.022  50.796 -21.559  1.00  0.00     0.132 A 
HETATM   12  C15 UNL     1      -2.000  50.930 -20.607  1.00  0.00     0.137 A 
ENDROOT
BRANCH   4  13
HETATM   13  N1  UNL     1      -0.607  53.469 -24.783  1.00  0.00    -0.278 NA
HETATM   14  H5  UNL     1      -0.611  54.330 -24.239  1.00  0.00     0.129 HD
BRANCH  13  15
HETATM   15  C6  UNL     1       0.667  52.763 -24.656  1.00  0.00     0.094 C 
BRANCH  15  16
HETATM   16  C7  UNL     1       0.679  51.583 -25.632  1.00  0.00     0.015 C 
BRANCH  16  17
HETATM   17  C8  UNL     1       1.971  51.479 -26.447  1.00  0.00     0.003 C 
BRANCH  17  18
HETATM   18  C9  UNL     1       1.786  51.828 -27.927  1.00  0.00     0.029 C 
BRANCH  18  19
HETATM   19  C10 UNL     1       0.310  51.953 -28.311  1.00  0.00     0.208 C 
BRANCH  19  20
HETATM   20  O2  UNL     1       0.073  53.267 -28.806  1.00  0.00    -0.221 OA
BRANCH  20  21
HETATM   21  N2  UNL     1      -0.663  54.067 -27.900  1.00  0.00     0.004 N 
HETATM   22  O3  UNL     1      -0.047  54.947 -27.295  1.00  0.00    -0.511 OA
HETATM   23  O4  UNL     1      -1.851  53.755 -27.845  1.00  0.00    -0.511 OA
ENDBRANCH  20  21
ENDBRANCH  19  20
ENDBRANCH  18  19
ENDBRANCH  17  18
ENDBRANCH  16  17
ENDBRANCH  15  16
ENDBRANCH  13  15
ENDBRANCH   4  13
BRANCH   1  24
HETATM   24  O1  UNL     1       0.044  51.832 -19.874  1.00  0.00    -0.353 OA
HETATM   25  C1  UNL     1       0.856  53.000 -19.860  1.00  0.00     0.210 C 
ENDBRANCH   1  24
BRANCH  11  26
HETATM   26  O5  UNL     1      -4.107  49.999 -21.248  1.00  0.00    -0.351 OA
HETATM   27  C14 UNL     1      -5.192  50.812 -20.802  1.00  0.00     0.210 C 
ENDBRANCH  11  26
BRANCH  12  28
HETATM   28  O6  UNL     1      -2.147  50.349 -19.368  1.00  0.00    -0.351 OA
HETATM   29  C16 UNL     1      -2.639  51.314 -18.437  1.00  0.00     0.210 C 
ENDBRANCH  12  28
TORSDOF 11
ENDMDL
