MODEL 1
REMARK minimizedAffinity -6.8597312
REMARK CNNscore 0.629623115
REMARK CNNaffinity 6.12145948
REMARK  12 active torsions:
REMARK  status: ('A' for Active; 'I' for Inactive)
REMARK    1  A    between atoms: C3_4  and  O2_5 
REMARK    2  A    between atoms: O2_5  and  C4_6 
REMARK    3  A    between atoms: C7_9  and  C8_10 
REMARK    4  A    between atoms: N1_11  and  C9_13 
REMARK    5  A    between atoms: C9_13  and  C10_14 
REMARK    6  A    between atoms: C10_14  and  C11_15 
REMARK    7  A    between atoms: C11_15  and  O3_16 
REMARK    8  A    between atoms: C17_22  and  C18_23 
REMARK    9  A    between atoms: C24_31  and  O6_32 
REMARK   10  A    between atoms: C28_36  and  O7_37 
REMARK   11  A    between atoms: C31_40  and  O8_41 
REMARK   12  A    between atoms: C32_42  and  O9_43 
ROOT
HETATM    1  C4  UNL     1      -0.622  53.607 -10.489  1.00  0.00     0.127 C 
HETATM    2  C5  UNL     1      -1.303  54.809  -9.818  1.00  0.00     0.033 C 
HETATM    3  C6  UNL     1      -0.312  55.643  -9.014  1.00  0.00     0.021 C 
HETATM    4  C7  UNL     1       0.427  54.852  -7.883  1.00  0.00     0.026 C 
HETATM    5  C12 UNL     1       1.943  55.323  -7.869  1.00  0.00     0.009 C 
HETATM    6  C13 UNL     1       2.132  56.837  -7.618  1.00  0.00     0.007 C 
HETATM    7  C14 UNL     1       3.598  57.254  -7.690  1.00  0.00     0.013 C 
HETATM    8  C15 UNL     1       4.522  56.462  -6.718  1.00  0.00    -0.005 C 
HETATM    9  C16 UNL     1       4.208  56.913  -5.277  1.00  0.00     0.019 C 
HETATM   10  C17 UNL     1       6.013  56.723  -7.145  1.00  0.00     0.028 C 
HETATM   11  C22 UNL     1       6.349  55.593  -8.149  1.00  0.00     0.013 C 
HETATM   12  C23 UNL     1       5.121  54.684  -8.238  1.00  0.00     0.040 C 
HETATM   13  C24 UNL     1       4.343  54.938  -6.937  1.00  0.00     0.070 C 
HETATM   14  C25 UNL     1       2.858  54.469  -6.951  1.00  0.00     0.026 C 
HETATM   15  C26 UNL     1       2.731  52.982  -7.326  1.00  0.00     0.011 C 
HETATM   16  C27 UNL     1       1.291  52.507  -7.240  1.00  0.00     0.039 C 
HETATM   17  C28 UNL     1       0.314  53.302  -8.119  1.00  0.00     0.073 C 
HETATM   18  C29 UNL     1       0.488  52.982  -9.619  1.00  0.00     0.071 C 
ENDROOT
BRANCH   1  19
HETATM   19  O2  UNL     1      -1.561  52.570 -10.807  1.00  0.00    -0.356 OA
BRANCH  19  20
HETATM   20  C3  UNL     1      -2.099  52.664 -12.127  1.00  0.00     0.263 C 
HETATM   21  O1  UNL     1      -3.477  52.289 -12.183  1.00  0.00    -0.354 OA
HETATM   22  C2  UNL     1      -3.786  50.891 -12.033  1.00  0.00     0.151 C 
HETATM   23  C1  UNL     1      -3.684  50.412 -10.589  1.00  0.00     0.042 C 
HETATM   24  C32 UNL     1      -2.971  50.036 -13.017  1.00  0.00     0.175 C 
HETATM   25  C31 UNL     1      -1.472  50.353 -12.884  1.00  0.00     0.154 C 
HETATM   26  C30 UNL     1      -1.230  51.842 -13.074  1.00  0.00     0.095 C 
BRANCH  24  27
HETATM   27  O9  UNL     1      -3.431  50.325 -14.354  1.00  0.00    -0.390 OA
HETATM   28  H49 UNL     1      -3.577  51.287 -14.414  1.00  0.00     0.210 HD
ENDBRANCH  24  27
BRANCH  25  29
HETATM   29  O8  UNL     1      -0.716  49.608 -13.839  1.00  0.00    -0.393 OA
HETATM   30  H47 UNL     1       0.217  49.869 -13.758  1.00  0.00     0.210 HD
ENDBRANCH  25  29
ENDBRANCH  19  20
ENDBRANCH   1  19
BRANCH  17  31
HETATM   31  O7  UNL     1      -0.993  52.827  -7.744  1.00  0.00    -0.389 OA
HETATM   32  H41 UNL     1      -1.105  51.929  -8.102  1.00  0.00     0.210 HD
ENDBRANCH  17  31
BRANCH   4  33
HETATM   33  C8  UNL     1      -0.337  55.150  -6.584  1.00  0.00     0.068 C 
HETATM   34  N1  UNL     1      -0.054  54.599  -5.454  1.00  0.00    -0.401 N 
ATOM     35  H1  UNL     1       0.716  53.939  -5.344  1.00  0.00     0.158 HD
BRANCH  34  36
HETATM   36  C9  UNL     1      -0.920  54.992  -4.337  1.00  0.00     0.121 C 
BRANCH  36  37
HETATM   37  C10 UNL     1      -2.052  53.980  -4.140  1.00  0.00     0.045 C 
BRANCH  37  38
HETATM   38  C11 UNL     1      -3.225  54.591  -3.385  1.00  0.00     0.165 C 
BRANCH  38  39
HETATM   39  O3  UNL     1      -4.425  54.469  -4.146  1.00  0.00    -0.401 OA
HETATM   40  H18 UNL     1      -4.627  53.516  -4.219  1.00  0.00     0.209 HD
ENDBRANCH  38  39
ENDBRANCH  37  38
ENDBRANCH  36  37
ENDBRANCH  34  36
ENDBRANCH   4  33
BRANCH  13  41
HETATM   41  O6  UNL     1       5.037  54.244  -5.891  1.00  0.00    -0.389 OA
HETATM   42  H35 UNL     1       5.053  53.295  -6.095  1.00  0.00     0.210 HD
ENDBRANCH  13  41
BRANCH  10  43
HETATM   43  C18 UNL     1       7.068  56.868  -6.078  1.00  0.00    -0.045 A 
HETATM   44  C19 UNL     1       7.257  57.961  -5.335  1.00  0.00     0.087 A 
HETATM   45  C20 UNL     1       8.406  57.709  -4.470  1.00  0.00     0.283 A 
HETATM   46  O4  UNL     1       8.857  58.506  -3.668  1.00  0.00    -0.260 OA
HETATM   47  O5  UNL     1       8.888  56.466  -4.722  1.00  0.00    -0.314 OA
HETATM   48  C21 UNL     1       8.073  55.837  -5.717  1.00  0.00     0.213 A 
ENDBRANCH  10  43
TORSDOF 12
ENDMDL
