MODEL 1
REMARK minimizedAffinity -7.88963556
REMARK CNNscore 0.600846708
REMARK CNNaffinity 7.39970922
REMARK  12 active torsions:
REMARK  status: ('A' for Active; 'I' for Inactive)
REMARK    1  A    between atoms: C2_2  and  C3_3 
REMARK    2  A    between atoms: C2_2  and  C9_10 
REMARK    3  A    between atoms: C3_3  and  C4_4 
REMARK    4  A    between atoms: C5_5  and  C6_6 
REMARK    5  A    between atoms: C6_6  and  O1_9 
REMARK    6  A    between atoms: C27_29  and  O3_30 
REMARK    7  A    between atoms: O3_30  and  C28_31 
REMARK    8  A    between atoms: C29_33  and  C30_34 
REMARK    9  A    between atoms: C30_34  and  O5_35 
REMARK   10  A    between atoms: C31_36  and  O6_37 
REMARK   11  A    between atoms: C32_38  and  O7_39 
REMARK   12  A    between atoms: C33_40  and  O8_41 
ROOT
HETATM    1  C9  UNL     1      -3.522   8.870  14.916  1.00  0.00    -0.002 C 
HETATM    2  C10 UNL     1      -2.436   8.892  13.801  1.00  0.00     0.006 C 
HETATM    3  C11 UNL     1      -1.222   9.684  14.381  1.00  0.00     0.011 C 
HETATM    4  C12 UNL     1      -1.570   9.899  15.875  1.00  0.00    -0.029 C 
HETATM    5  C13 UNL     1      -1.143   8.551  16.581  1.00  0.00     0.016 C 
HETATM    6  C14 UNL     1      -0.869  11.039  16.707  1.00  0.00     0.028 C 
HETATM    7  C15 UNL     1       0.079  12.013  16.070  1.00  0.00    -0.021 C 
HETATM    8  C16 UNL     1       0.405  13.131  16.746  1.00  0.00     0.008 C 
HETATM    9  C17 UNL     1      -0.219  13.489  18.106  1.00  0.00     0.092 C 
HETATM   10  O2  UNL     1      -1.406  14.203  17.725  1.00  0.00    -0.374 OA
HETATM   11  C18 UNL     1      -2.381  13.170  17.382  1.00  0.00     0.179 C 
HETATM   12  C19 UNL     1      -1.788  11.761  17.775  1.00  0.00    -0.004 C 
HETATM   13  C20 UNL     1      -2.890  10.815  18.274  1.00  0.00     0.014 C 
HETATM   14  C21 UNL     1      -3.758  10.157  17.177  1.00  0.00     0.011 C 
HETATM   15  C22 UNL     1      -3.124  10.109  15.774  1.00  0.00    -0.032 C 
HETATM   16  C23 UNL     1      -3.442  11.410  14.976  1.00  0.00     0.016 C 
HETATM   17  C24 UNL     1      -0.859  12.310  18.878  1.00  0.00     0.036 C 
HETATM   18  C25 UNL     1       0.133  11.430  19.633  1.00  0.00     0.011 C 
HETATM   19  C26 UNL     1       1.601  11.812  19.429  1.00  0.00     0.033 C 
HETATM   20  C27 UNL     1       1.932  13.327  19.424  1.00  0.00     0.136 C 
HETATM   21  C34 UNL     1       0.730  14.268  19.059  1.00  0.00     0.014 C 
HETATM   22  C35 UNL     1      -0.021  14.751  20.333  1.00  0.00     0.021 C 
HETATM   23  C36 UNL     1       1.276  15.566  18.413  1.00  0.00     0.021 C 
ENDROOT
BRANCH  20  24
HETATM   24  O3  UNL     1       2.476  13.745  20.685  1.00  0.00    -0.352 OA
BRANCH  24  25
HETATM   25  C28 UNL     1       3.632  13.015  21.114  1.00  0.00     0.292 C 
HETATM   26  O4  UNL     1       3.271  11.847  21.836  1.00  0.00    -0.348 OA
HETATM   27  C29 UNL     1       4.407  10.998  22.119  1.00  0.00     0.179 C 
HETATM   28  C31 UNL     1       5.698  11.787  22.408  1.00  0.00     0.180 C 
HETATM   29  C32 UNL     1       5.374  13.178  22.967  1.00  0.00     0.183 C 
HETATM   30  C33 UNL     1       4.414  13.959  22.054  1.00  0.00     0.204 C 
BRANCH  27  31
HETATM   31  C30 UNL     1       3.997  10.146  23.325  1.00  0.00     0.198 C 
BRANCH  31  32
HETATM   32  O5  UNL     1       3.561   8.862  22.884  1.00  0.00    -0.398 OA
HETATM   33  H46 UNL     1       2.966   9.034  22.128  1.00  0.00     0.209 HD
ENDBRANCH  31  32
ENDBRANCH  27  31
BRANCH  28  34
HETATM   34  O6  UNL     1       6.431  11.957  21.180  1.00  0.00    -0.390 OA
HETATM   35  H48 UNL     1       7.175  12.551  21.408  1.00  0.00     0.210 HD
ENDBRANCH  28  34
BRANCH  29  36
HETATM   36  O7  UNL     1       6.598  13.906  23.147  1.00  0.00    -0.390 OA
HETATM   37  H50 UNL     1       6.533  14.664  22.523  1.00  0.00     0.210 HD
ENDBRANCH  29  36
BRANCH  30  38
HETATM   38  O8  UNL     1       5.147  14.956  21.309  1.00  0.00    -0.388 OA
HETATM   39  H52 UNL     1       4.515  15.313  20.658  1.00  0.00     0.210 HD
ENDBRANCH  30  38
ENDBRANCH  24  25
ENDBRANCH  20  24
BRANCH   1  40
HETATM   40  C2  UNL     1      -4.995   8.564  14.502  1.00  0.00    -0.010 C 
HETATM   41  C1  UNL     1      -5.724   7.940  15.711  1.00  0.00     0.010 C 
BRANCH  40  42
HETATM   42  C3  UNL     1      -5.217   7.711  13.238  1.00  0.00     0.031 C 
BRANCH  42  43
HETATM   43  C4  UNL     1      -6.330   6.688  13.226  1.00  0.00    -0.027 C 
HETATM   44  C5  UNL     1      -6.233   5.361  13.428  1.00  0.00     0.006 C 
BRANCH  44  45
HETATM   45  C6  UNL     1      -7.367   4.357  13.440  1.00  0.00     0.068 C 
HETATM   46  C7  UNL     1      -8.604   4.946  12.758  1.00  0.00     0.050 C 
HETATM   47  C8  UNL     1      -6.937   3.065  12.740  1.00  0.00     0.050 C 
BRANCH  45  48
HETATM   48  O1  UNL     1      -7.722   4.018  14.781  1.00  0.00    -0.387 OA
HETATM   49  H15 UNL     1      -8.029   4.835  15.208  1.00  0.00     0.211 HD
ENDBRANCH  45  48
ENDBRANCH  44  45
ENDBRANCH  42  43
ENDBRANCH  40  42
ENDBRANCH   1  40
TORSDOF 12
ENDMDL
