MODEL 1
REMARK minimizedAffinity -8.96603966
REMARK CNNscore 0.522753894
REMARK CNNaffinity 6.88298655
REMARK  4 active torsions:
REMARK  status: ('A' for Active; 'I' for Inactive)
REMARK    1  A    between atoms: C4_4  and  C5_5 
REMARK    2  A    between atoms: C5_5  and  C6_6 
REMARK    3  A    between atoms: C6_6  and  C7_7 
REMARK    4  A    between atoms: C7_7  and  C9_9 
ROOT
HETATM    1  C9  UNL     1       0.663   7.188  10.480  1.00  0.00    -0.002 C 
HETATM    2  C10 UNL     1       1.165   5.745  10.742  1.00  0.00     0.010 C 
HETATM    3  C11 UNL     1       0.586   5.310  12.114  1.00  0.00    -0.013 C 
HETATM    4  C12 UNL     1      -0.137   3.974  11.960  1.00  0.00     0.010 C 
HETATM    5  C13 UNL     1      -0.306   6.491  12.534  1.00  0.00     0.003 C 
HETATM    6  C14 UNL     1      -0.672   6.729  14.019  1.00  0.00    -0.000 C 
HETATM    7  C15 UNL     1      -1.224   5.528  14.776  1.00  0.00     0.006 C 
HETATM    8  C16 UNL     1      -2.644   5.110  14.414  1.00  0.00     0.006 C 
HETATM    9  C17 UNL     1      -3.549   6.157  13.731  1.00  0.00     0.003 C 
HETATM   10  C18 UNL     1      -5.079   5.927  14.011  1.00  0.00    -0.043 C 
HETATM   11  C19 UNL     1      -5.439   6.084  15.505  1.00  0.00     0.015 C 
HETATM   12  C20 UNL     1      -5.500   4.509  13.569  1.00  0.00     0.015 C 
HETATM   13  C21 UNL     1      -5.908   6.936  13.175  1.00  0.00     0.009 C 
HETATM   14  C22 UNL     1      -5.493   8.383  13.410  1.00  0.00     0.002 C 
HETATM   15  C23 UNL     1      -4.012   8.586  13.125  1.00  0.00     0.011 C 
HETATM   16  C24 UNL     1      -3.143   7.627  13.928  1.00  0.00    -0.027 A 
HETATM   17  C25 UNL     1      -2.577   8.124  15.242  1.00  0.00     0.021 A 
HETATM   18  C26 UNL     1      -1.640   7.925  14.064  1.00  0.00    -0.028 A 
HETATM   19  C27 UNL     1      -1.030   9.180  13.447  1.00  0.00     0.011 C 
HETATM   20  C28 UNL     1      -0.557   8.934  12.006  1.00  0.00     0.011 C 
HETATM   21  C29 UNL     1       0.418   7.740  11.911  1.00  0.00    -0.036 C 
HETATM   22  C30 UNL     1       1.742   8.105  12.622  1.00  0.00     0.016 C 
ENDROOT
BRANCH   1  23
HETATM   23  C7  UNL     1       1.493   7.934   9.394  1.00  0.00    -0.014 C 
HETATM   24  C8  UNL     1       0.867   8.035   8.000  1.00  0.00     0.010 C 
BRANCH  23  25
HETATM   25  C6  UNL     1       2.938   7.390   9.309  1.00  0.00     0.008 C 
BRANCH  25  26
HETATM   26  C5  UNL     1       3.066   5.856   9.337  1.00  0.00     0.028 C 
BRANCH  26  27
HETATM   27  C4  UNL     1       3.132   5.251   7.961  1.00  0.00    -0.025 C 
HETATM   28  C2  UNL     1       3.772   4.129   7.575  1.00  0.00    -0.091 C 
HETATM   29  C1  UNL     1       4.604   3.248   8.463  1.00  0.00     0.042 C 
HETATM   30  C3  UNL     1       3.696   3.663   6.145  1.00  0.00     0.042 C 
ENDBRANCH  26  27
ENDBRANCH  25  26
ENDBRANCH  23  25
ENDBRANCH   1  23
TORSDOF 4
ENDMDL
