MODEL 1
REMARK minimizedAffinity -9.06252289
REMARK CNNscore 0.527046442
REMARK CNNaffinity 7.23557281
REMARK  11 active torsions:
REMARK  status: ('A' for Active; 'I' for Inactive)
REMARK    1  A    between atoms: C2_2  and  O1_4 
REMARK    2  A    between atoms: C2_2  and  C4_5 
REMARK    3  A    between atoms: C5_6  and  C6_7 
REMARK    4  A    between atoms: C6_7  and  C7_8 
REMARK    5  A    between atoms: C7_8  and  C8_9 
REMARK    6  A    between atoms: C7_8  and  C14_21 
REMARK    7  A    between atoms: C8_9  and  O3_11 
REMARK    8  A    between atoms: O3_11  and  C9_12 
REMARK    9  A    between atoms: C10_13  and  O4_14 
REMARK   10  A    between atoms: C11_15  and  O5_16 
REMARK   11  A    between atoms: C13_19  and  O7_20 
ROOT
HETATM    1  C7  UNL     1       0.174   6.043  13.120  1.00  0.00     0.094 C 
ENDROOT
BRANCH   1   2
HETATM    2  C6  UNL     1       0.083   4.498  13.242  1.00  0.00     0.042 C 
BRANCH   2   3
HETATM    3  C5  UNL     1      -0.595   3.792  12.102  1.00  0.00    -0.027 C 
HETATM    4  C4  UNL     1      -1.911   3.512  12.075  1.00  0.00     0.006 C 
BRANCH   4   5
HETATM    5  C2  UNL     1      -2.654   2.779  10.979  1.00  0.00     0.068 C 
HETATM    6  C1  UNL     1      -3.276   1.489  11.520  1.00  0.00     0.050 C 
HETATM    7  C3  UNL     1      -3.734   3.674  10.370  1.00  0.00     0.050 C 
BRANCH   5   8
HETATM    8  O1  UNL     1      -1.747   2.426   9.935  1.00  0.00    -0.387 OA
HETATM    9  H7  UNL     1      -1.081   1.839  10.335  1.00  0.00     0.211 HD
ENDBRANCH   5   8
ENDBRANCH   4   5
ENDBRANCH   2   3
ENDBRANCH   1   2
BRANCH   1  10
HETATM   10  C8  UNL     1       0.810   6.283  11.755  1.00  0.00     0.264 C 
HETATM   11  O2  UNL     1       0.212   6.662  10.756  1.00  0.00    -0.265 OA
BRANCH  10  12
HETATM   12  O3  UNL     1       2.133   5.976  11.785  1.00  0.00    -0.308 OA
BRANCH  12  13
HETATM   13  C9  UNL     1       2.873   6.094  10.542  1.00  0.00     0.218 C 
HETATM   14  C10 UNL     1       2.433   7.414   9.896  1.00  0.00     0.183 C 
HETATM   15  C11 UNL     1       2.934   7.553   8.453  1.00  0.00     0.173 C 
HETATM   16  C12 UNL     1       2.571   6.303   7.662  1.00  0.00     0.205 C 
HETATM   17  O6  UNL     1       3.125   5.154   8.287  1.00  0.00    -0.356 OA
HETATM   18  C13 UNL     1       2.574   4.920   9.581  1.00  0.00     0.288 C 
BRANCH  14  19
HETATM   19  O4  UNL     1       2.931   8.524  10.658  1.00  0.00    -0.390 OA
HETATM   20  H15 UNL     1       2.523   9.317  10.249  1.00  0.00     0.210 HD
ENDBRANCH  14  19
BRANCH  15  21
HETATM   21  O5  UNL     1       2.345   8.722   7.878  1.00  0.00    -0.391 OA
HETATM   22  H17 UNL     1       2.725   8.826   6.984  1.00  0.00     0.210 HD
ENDBRANCH  15  21
BRANCH  18  23
HETATM   23  O7  UNL     1       3.104   3.683  10.036  1.00  0.00    -0.369 OA
HETATM   24  H21 UNL     1       3.743   3.865  10.754  1.00  0.00     0.212 HD
ENDBRANCH  18  23
ENDBRANCH  12  13
ENDBRANCH  10  12
ENDBRANCH   1  10
BRANCH   1  25
HETATM   25  C14 UNL     1      -1.183   6.789  13.287  1.00  0.00     0.009 C 
HETATM   26  C15 UNL     1      -2.215   5.978  14.134  1.00  0.00     0.007 C 
HETATM   27  C16 UNL     1      -2.995   6.974  15.012  1.00  0.00     0.015 C 
HETATM   28  C17 UNL     1      -2.726   8.343  14.376  1.00  0.00    -0.013 C 
HETATM   29  C18 UNL     1      -3.704   8.491  13.172  1.00  0.00     0.021 C 
HETATM   30  C19 UNL     1      -2.926   9.604  15.215  1.00  0.00    -0.068 C 
HETATM   31  C23 UNL     1      -1.206   8.181  14.003  1.00  0.00    -0.028 C 
HETATM   32  C20 UNL     1      -2.219  10.730  14.927  1.00  0.00    -0.068 C 
HETATM   33  C35 UNL     1      -3.958   9.539  16.310  1.00  0.00     0.036 C 
HETATM   34  C21 UNL     1      -1.146  10.732  13.830  1.00  0.00     0.036 C 
HETATM   35  C25 UNL     1      -2.433  12.064  15.696  1.00  0.00    -0.015 C 
HETATM   36  C22 UNL     1      -0.825   9.391  13.142  1.00  0.00     0.015 C 
HETATM   37  C26 UNL     1      -1.184  12.275  16.593  1.00  0.00     0.020 C 
HETATM   38  C27 UNL     1      -2.545  13.247  14.689  1.00  0.00     0.021 C 
HETATM   39  C33 UNL     1      -3.776  12.037  16.516  1.00  0.00     0.013 C 
HETATM   40  C28 UNL     1      -3.288  14.483  15.193  1.00  0.00     0.080 C 
HETATM   41  C29 UNL     1      -3.413  14.533  16.698  1.00  0.00     0.135 C 
HETATM   42  O8  UNL     1      -3.103  15.554  17.313  1.00  0.00    -0.297 OA
HETATM   43  C30 UNL     1      -4.035  13.309  17.392  1.00  0.00     0.018 C 
HETATM   44  C31 UNL     1      -3.494  13.201  18.835  1.00  0.00     0.023 C 
HETATM   45  C32 UNL     1      -5.553  13.582  17.498  1.00  0.00     0.023 C 
HETATM   46  C34 UNL     1      -3.919  10.718  17.282  1.00  0.00     0.011 C 
HETATM   47  C24 UNL     1      -0.276   8.141  15.258  1.00  0.00     0.016 C 
ENDBRANCH   1  25
TORSDOF 11
ENDMDL
