MODEL 1
REMARK minimizedAffinity -7.86576176
REMARK CNNscore 0.441322416
REMARK CNNaffinity 6.3878417
REMARK  14 active torsions:
REMARK  status: ('A' for Active; 'I' for Inactive)
REMARK    1  A    between atoms: C19_21  and  O3_22 
REMARK    2  A    between atoms: C19_21  and  C20_23 
REMARK    3  A    between atoms: C20_23  and  C21_25 
REMARK    4  A    between atoms: C21_25  and  O5_26 
REMARK    5  A    between atoms: O5_26  and  C22_27 
REMARK    6  A    between atoms: C22_27  and  C23_29 
REMARK    7  A    between atoms: C23_29  and  C24_30 
REMARK    8  A    between atoms: C24_30  and  C25_31 
REMARK       I    between atoms: C25_31  and  N1_33 
REMARK    9  A    between atoms: N1_33  and  C26_34 
REMARK   10  A    between atoms: C26_34  and  C27_35 
REMARK   11  A    between atoms: C26_34  and  C30_40 
REMARK   12  A    between atoms: C27_35  and  C28_36 
REMARK   13  A    between atoms: C28_36  and  C29_37 
REMARK       I    between atoms: C29_37  and  N2_38 
REMARK   14  A    between atoms: C30_40  and  O10_42 
ROOT
HETATM    1  C20 UNL     1      -6.707   6.179  15.235  1.00  0.00     0.185 C 
HETATM    2  O4  UNL     1      -6.234   5.813  16.317  1.00  0.00    -0.292 OA
ENDROOT
BRANCH   1   3
HETATM    3  C19 UNL     1      -5.889   7.047  14.232  1.00  0.00     0.128 C 
HETATM    4  C14 UNL     1      -4.383   6.640  14.107  1.00  0.00     0.005 C 
HETATM    5  C13 UNL     1      -4.067   5.527  13.102  1.00  0.00     0.091 C 
HETATM    6  C15 UNL     1      -3.790   6.251  15.489  1.00  0.00     0.019 C 
HETATM    7  C16 UNL     1      -3.789   7.953  13.533  1.00  0.00     0.002 C 
HETATM    8  C12 UNL     1      -2.565   5.449  12.862  1.00  0.00     0.133 C 
HETATM    9  C11 UNL     1      -1.855   6.756  12.444  1.00  0.00     0.072 C 
HETATM   10  O2  UNL     1      -1.999   4.359  12.928  1.00  0.00    -0.297 OA
HETATM   11  C2  UNL     1      -0.300   6.645  12.235  1.00  0.00    -0.009 C 
HETATM   12  C10 UNL     1      -2.259   7.914  13.404  1.00  0.00     0.003 C 
HETATM   13  C1  UNL     1       0.426   6.138  13.500  1.00  0.00     0.021 C 
HETATM   14  C3  UNL     1      -0.022   5.677  11.044  1.00  0.00     0.022 C 
HETATM   15  C7  UNL     1       0.267   8.037  11.897  1.00  0.00    -0.067 C 
HETATM   16  C4  UNL     1       1.404   5.751  10.514  1.00  0.00     0.084 C 
HETATM   17  C5  UNL     1       1.739   7.162  10.116  1.00  0.00     0.149 C 
HETATM   18  O1  UNL     1       2.524   7.422   9.207  1.00  0.00    -0.293 OA
HETATM   19  C6  UNL     1       1.154   8.265  10.911  1.00  0.00     0.053 C 
HETATM   20  C8  UNL     1      -0.191   9.191  12.756  1.00  0.00     0.035 C 
HETATM   21  C9  UNL     1      -1.707   9.245  12.879  1.00  0.00     0.010 C 
HETATM   22  C17 UNL     1      -4.402   9.036  14.413  1.00  0.00     0.009 C 
HETATM   23  C18 UNL     1      -5.817   8.520  14.734  1.00  0.00     0.047 C 
BRANCH   3  24
HETATM   24  O3  UNL     1      -6.467   7.125  12.927  1.00  0.00    -0.381 OA
HETATM   25  H25 UNL     1      -6.663   6.223  12.614  1.00  0.00     0.211 HD
ENDBRANCH   3  24
ENDBRANCH   1   3
BRANCH   1  26
HETATM   26  C21 UNL     1      -8.062   5.639  14.777  1.00  0.00     0.260 C 
BRANCH  26  27
HETATM   27  O5  UNL     1      -9.082   6.607  14.548  1.00  0.00    -0.314 OA
BRANCH  27  28
HETATM   28  C22 UNL     1      -9.666   6.512  13.317  1.00  0.00     0.259 C 
HETATM   29  O6  UNL     1      -9.143   6.009  12.332  1.00  0.00    -0.265 OA
BRANCH  28  30
HETATM   30  C23 UNL     1     -11.095   6.996  13.344  1.00  0.00     0.120 C 
BRANCH  30  31
HETATM   31  C24 UNL     1     -11.633   7.268  14.742  1.00  0.00     0.112 C 
BRANCH  31  32
HETATM   32  C25 UNL     1     -13.135   7.471  14.720  1.00  0.00     0.218 C 
HETATM   33  O7  UNL     1     -13.775   7.728  15.732  1.00  0.00    -0.274 OA
HETATM   34  N1  UNL     1     -13.713   7.289  13.493  1.00  0.00    -0.347 N 
HETATM   35  H32 UNL     1     -13.140   7.213  12.656  1.00  0.00     0.163 HD
BRANCH  34  36
HETATM   36  C26 UNL     1     -15.132   7.542  13.242  1.00  0.00     0.182 C 
BRANCH  36  37
HETATM   37  C27 UNL     1     -16.006   6.275  13.263  1.00  0.00     0.045 C 
BRANCH  37  38
HETATM   38  C28 UNL     1     -16.792   5.982  14.542  1.00  0.00     0.105 C 
BRANCH  38  39
HETATM   39  C29 UNL     1     -16.333   4.766  15.311  1.00  0.00     0.215 C 
HETATM   40  N2  UNL     1     -15.248   4.141  14.769  1.00  0.00    -0.370 N 
HETATM   41  H38 UNL     1     -14.659   4.598  14.088  1.00  0.00     0.159 HD
HETATM   42  H39 UNL     1     -14.853   3.372  15.296  1.00  0.00     0.159 HD
HETATM   43  O8  UNL     1     -16.872   4.324  16.315  1.00  0.00    -0.274 OA
ENDBRANCH  38  39
ENDBRANCH  37  38
ENDBRANCH  36  37
BRANCH  36  44
HETATM   44  C30 UNL     1     -15.323   8.355  11.952  1.00  0.00     0.163 C 
HETATM   45  O9  UNL     1     -16.086   8.098  11.035  1.00  0.00    -0.648 OA
BRANCH  44  46
HETATM   46  O10 UNL     1     -14.591   9.493  11.925  1.00  0.00    -0.775 OA
HETATM   47  H40 UNL     1     -14.790   9.861  11.036  1.00  0.00     0.167 HD
ENDBRANCH  44  46
ENDBRANCH  36  44
ENDBRANCH  34  36
ENDBRANCH  31  32
ENDBRANCH  30  31
ENDBRANCH  28  30
ENDBRANCH  27  28
ENDBRANCH  26  27
ENDBRANCH   1  26
TORSDOF 14
ENDMDL
