MODEL 1
REMARK minimizedAffinity -8.55897617
REMARK CNNscore 0.718310893
REMARK CNNaffinity 7.48315811
REMARK  6 active torsions:
REMARK  status: ('A' for Active; 'I' for Inactive)
REMARK    1  A    between atoms: C2_2  and  C30_32 
REMARK    2  A    between atoms: C3_3  and  C4_4 
REMARK    3  A    between atoms: C4_4  and  C5_5 
REMARK    4  A    between atoms: C5_5  and  C6_6 
REMARK    5  A    between atoms: C6_6  and  C8_8 
REMARK    6  A    between atoms: C30_32  and  O4_34 
ROOT
HETATM    1  C8  UNL     1      -0.040   7.538  12.611  1.00  0.00    -0.002 C 
HETATM    2  C9  UNL     1      -0.602   8.954  12.294  1.00  0.00     0.007 C 
HETATM    3  C10 UNL     1      -2.126   8.907  12.513  1.00  0.00     0.015 C 
HETATM    4  C11 UNL     1      -2.381   7.591  13.271  1.00  0.00    -0.005 C 
HETATM    5  C12 UNL     1      -2.110   7.877  14.783  1.00  0.00     0.021 C 
HETATM    6  C13 UNL     1      -3.760   6.941  13.245  1.00  0.00    -0.000 C 
HETATM    7  C14 UNL     1      -3.908   5.592  13.315  1.00  0.00    -0.060 C 
HETATM    8  C15 UNL     1      -2.674   4.677  13.405  1.00  0.00     0.036 C 
HETATM    9  C16 UNL     1      -1.283   5.342  13.353  1.00  0.00     0.015 C 
HETATM   10  C17 UNL     1      -1.324   6.655  12.564  1.00  0.00    -0.028 C 
HETATM   11  C18 UNL     1      -1.678   6.338  11.075  1.00  0.00     0.016 C 
HETATM   12  C19 UNL     1      -5.292   4.882  13.317  1.00  0.00    -0.014 C 
HETATM   13  C20 UNL     1      -5.557   4.414  14.768  1.00  0.00     0.020 C 
HETATM   14  C21 UNL     1      -5.268   3.642  12.372  1.00  0.00     0.021 C 
HETATM   15  C22 UNL     1      -6.617   3.173  11.835  1.00  0.00     0.080 C 
HETATM   16  C23 UNL     1      -7.788   3.727  12.603  1.00  0.00     0.135 C 
HETATM   17  O1  UNL     1      -8.681   2.980  13.000  1.00  0.00    -0.297 OA
HETATM   18  C24 UNL     1      -7.852   5.249  12.773  1.00  0.00     0.018 C 
HETATM   19  C25 UNL     1      -8.630   5.798  11.558  1.00  0.00     0.023 C 
HETATM   20  C26 UNL     1      -8.672   5.583  14.036  1.00  0.00     0.023 C 
HETATM   21  C27 UNL     1      -6.400   5.845  12.779  1.00  0.00     0.020 C 
HETATM   22  C28 UNL     1      -6.319   7.211  13.458  1.00  0.00     0.090 C 
HETATM   23  C29 UNL     1      -4.962   7.834  13.265  1.00  0.00     0.157 C 
HETATM   24  O2  UNL     1      -4.854   9.057  13.199  1.00  0.00    -0.293 OA
ENDROOT
BRANCH   1  25
HETATM   25  C6  UNL     1       1.182   7.183  11.719  1.00  0.00    -0.014 C 
HETATM   26  C7  UNL     1       2.445   6.874  12.529  1.00  0.00     0.010 C 
BRANCH  25  27
HETATM   27  C5  UNL     1       1.473   8.255  10.629  1.00  0.00     0.008 C 
BRANCH  27  28
HETATM   28  C4  UNL     1       0.383   8.530   9.580  1.00  0.00     0.028 C 
BRANCH  28  29
HETATM   29  C3  UNL     1       0.620   7.853   8.259  1.00  0.00    -0.013 C 
HETATM   30  C2  UNL     1       1.794   7.635   7.634  1.00  0.00     0.008 C 
HETATM   31  C1  UNL     1       1.891   6.868   6.350  1.00  0.00     0.055 C 
BRANCH  30  32
HETATM   32  C30 UNL     1       3.098   8.083   8.165  1.00  0.00     0.171 C 
HETATM   33  O3  UNL     1       3.873   7.397   8.809  1.00  0.00    -0.646 OA
BRANCH  32  34
HETATM   34  O4  UNL     1       3.409   9.327   7.775  1.00  0.00    -0.773 OA
HETATM   35  H44 UNL     1       4.303   9.475   8.144  1.00  0.00     0.167 HD
ENDBRANCH  32  34
ENDBRANCH  30  32
ENDBRANCH  28  29
ENDBRANCH  27  28
ENDBRANCH  25  27
ENDBRANCH   1  25
TORSDOF 6
ENDMDL
