MODEL 1
REMARK minimizedAffinity -9.11358452
REMARK  4 active torsions:
REMARK  status: ('A' for Active; 'I' for Inactive)
REMARK    1  A    between atoms: C4_4  and  C5_5 
REMARK    2  A    between atoms: C5_5  and  C6_7 
REMARK    3  A    between atoms: C6_7  and  C7_8 
REMARK    4  A    between atoms: C7_8  and  C9_10 
ROOT
HETATM    1  C9  UNL     1       0.358   7.473  13.483  1.00  0.00    -0.002 C 
HETATM    2  C10 UNL     1       0.319   6.673  12.146  1.00  0.00     0.006 C 
HETATM    3  C11 UNL     1      -1.158   6.333  11.853  1.00  0.00     0.011 C 
HETATM    4  C12 UNL     1      -1.964   7.216  12.821  1.00  0.00    -0.032 C 
HETATM    5  C13 UNL     1      -2.022   8.631  12.137  1.00  0.00     0.016 C 
HETATM    6  C14 UNL     1      -3.446   6.823  13.133  1.00  0.00     0.004 C 
HETATM    7  C15 UNL     1      -3.870   5.406  12.730  1.00  0.00     0.007 C 
HETATM    8  C16 UNL     1      -5.350   5.093  13.031  1.00  0.00     0.007 C 
HETATM    9  C17 UNL     1      -6.143   6.230  13.722  1.00  0.00     0.010 C 
HETATM   10  C18 UNL     1      -7.569   5.811  14.204  1.00  0.00     0.018 C 
HETATM   11  C19 UNL     1      -7.546   4.751  15.318  1.00  0.00     0.023 C 
HETATM   12  C20 UNL     1      -8.406   5.280  13.026  1.00  0.00     0.023 C 
HETATM   13  C21 UNL     1      -8.289   7.050  14.764  1.00  0.00     0.135 C 
HETATM   14  O2  UNL     1      -9.501   7.051  14.992  1.00  0.00    -0.297 OA
HETATM   15  C22 UNL     1      -7.468   8.293  15.009  1.00  0.00     0.080 C 
HETATM   16  C23 UNL     1      -6.151   7.925  15.669  1.00  0.00     0.018 C 
HETATM   17  C24 UNL     1      -5.351   6.921  14.851  1.00  0.00    -0.026 A 
HETATM   18  C25 UNL     1      -4.315   6.115  15.595  1.00  0.00     0.021 A 
HETATM   19  C26 UNL     1      -3.849   7.156  14.588  1.00  0.00    -0.027 A 
HETATM   20  C27 UNL     1      -3.105   8.339  15.186  1.00  0.00     0.011 C 
HETATM   21  C28 UNL     1      -1.568   8.205  15.128  1.00  0.00     0.011 C 
HETATM   22  C29 UNL     1      -1.050   7.174  14.101  1.00  0.00    -0.032 C 
HETATM   23  C30 UNL     1      -0.990   5.775  14.782  1.00  0.00     0.016 C 
ENDROOT
BRANCH   1  24
HETATM   24  C7  UNL     1       1.644   7.185  14.308  1.00  0.00    -0.007 C 
HETATM   25  C8  UNL     1       1.462   7.461  15.804  1.00  0.00     0.011 C 
BRANCH  24  26
HETATM   26  C6  UNL     1       2.883   7.948  13.782  1.00  0.00     0.087 C 
BRANCH  26  27
HETATM   27  C5  UNL     1       2.999   7.983  12.267  1.00  0.00     0.149 C 
HETATM   28  O1  UNL     1       2.864   9.026  11.631  1.00  0.00    -0.293 OA
BRANCH  27  29
HETATM   29  C4  UNL     1       3.269   6.684  11.582  1.00  0.00     0.052 C 
HETATM   30  C2  UNL     1       3.450   6.536  10.256  1.00  0.00    -0.084 C 
HETATM   31  C1  UNL     1       3.466   7.657   9.252  1.00  0.00     0.043 C 
HETATM   32  C3  UNL     1       3.673   5.170   9.665  1.00  0.00     0.043 C 
ENDBRANCH  27  29
ENDBRANCH  26  27
ENDBRANCH  24  26
ENDBRANCH   1  24
TORSDOF 4
ENDMDL
