MODEL 1
REMARK minimizedAffinity -7.46259737
REMARK CNNscore 0.672019482
REMARK CNNaffinity 5.88066244
REMARK  5 active torsions:
REMARK  status: ('A' for Active; 'I' for Inactive)
REMARK    1  A    between atoms: C2_2  and  C3_3 
REMARK    2  A    between atoms: C6_6  and  C7_7 
REMARK    3  A    between atoms: C7_7  and  O1_9 
REMARK    4  A    between atoms: C23_29  and  O6_30 
REMARK    5  A    between atoms: C28_36  and  O8_37 
ROOT
HETATM    1  C3  UNL     1       1.671  69.335 -39.893  1.00  0.00     0.008 C 
HETATM    2  C4  UNL     1       2.543  68.368 -40.675  1.00  0.00    -0.023 C 
HETATM    3  C5  UNL     1       3.877  68.365 -40.835  1.00  0.00     0.004 C 
HETATM    4  C6  UNL     1       4.922  69.371 -40.392  1.00  0.00     0.183 C 
HETATM    5  O2  UNL     1       5.779  68.661 -39.472  1.00  0.00    -0.306 OA
HETATM    6  C9  UNL     1       6.435  69.409 -38.558  1.00  0.00     0.289 C 
HETATM    7  O3  UNL     1       6.431  70.631 -38.489  1.00  0.00    -0.260 OA
HETATM    8  C10 UNL     1       7.227  68.555 -37.630  1.00  0.00     0.010 C 
HETATM    9  C11 UNL     1       8.623  69.056 -37.399  1.00  0.00     0.054 C 
HETATM   10  C12 UNL     1       6.730  67.484 -36.976  1.00  0.00     0.004 C 
HETATM   11  C13 UNL     1       5.354  66.874 -37.090  1.00  0.00     0.147 C 
HETATM   12  C14 UNL     1       5.410  65.337 -36.991  1.00  0.00     0.233 C 
HETATM   13  O4  UNL     1       6.302  64.596 -37.373  1.00  0.00    -0.272 OA
HETATM   14  N1  UNL     1       4.203  64.922 -36.446  1.00  0.00    -0.327 N 
HETATM   15  C15 UNL     1       3.417  65.987 -36.118  1.00  0.00     0.056 C 
HETATM   16  C16 UNL     1       2.089  65.967 -36.072  1.00  0.00     0.084 C 
HETATM   17  C17 UNL     1       1.367  67.260 -36.053  1.00  0.00     0.185 C 
HETATM   18  O5  UNL     1       0.150  67.259 -35.936  1.00  0.00    -0.287 OA
HETATM   19  C18 UNL     1       2.143  68.520 -36.246  1.00  0.00     0.040 C 
HETATM   20  C19 UNL     1       3.545  68.504 -36.120  1.00  0.00    -0.001 C 
HETATM   21  C20 UNL     1       4.234  69.732 -36.064  1.00  0.00     0.021 C 
HETATM   22  C21 UNL     1       3.578  70.957 -36.220  1.00  0.00    -0.027 C 
HETATM   23  C22 UNL     1       4.342  72.246 -36.141  1.00  0.00     0.051 C 
HETATM   24  C23 UNL     1       2.201  70.947 -36.431  1.00  0.00     0.086 C 
HETATM   25  C24 UNL     1       1.490  69.736 -36.496  1.00  0.00     0.058 C 
HETATM   26  C25 UNL     1       0.085  69.843 -36.933  1.00  0.00     0.163 C 
HETATM   27  O7  UNL     1      -0.639  70.604 -36.284  1.00  0.00    -0.292 OA
HETATM   28  C26 UNL     1      -0.395  69.214 -38.239  1.00  0.00     0.084 C 
HETATM   29  C27 UNL     1       0.592  68.485 -39.162  1.00  0.00     0.016 C 
HETATM   30  C28 UNL     1       4.300  67.206 -35.993  1.00  0.00     0.143 C 
HETATM   31  H20 UNL     1       3.910  63.955 -36.522  1.00  0.00     0.168 HD
ENDROOT
BRANCH   4  32
HETATM   32  C7  UNL     1       5.691  69.885 -41.650  1.00  0.00     0.147 C 
HETATM   33  C8  UNL     1       4.821  70.566 -42.698  1.00  0.00     0.042 C 
BRANCH  32  34
HETATM   34  O1  UNL     1       6.726  70.805 -41.275  1.00  0.00    -0.393 OA
HETATM   35  H14 UNL     1       7.202  71.051 -42.086  1.00  0.00     0.210 HD
ENDBRANCH  32  34
ENDBRANCH   4  32
BRANCH   1  36
HETATM   36  C2  UNL     1       1.026  70.402 -40.798  1.00  0.00     0.004 C 
HETATM   37  C1  UNL     1       0.301  69.835 -42.013  1.00  0.00     0.006 C 
ENDBRANCH   1  36
BRANCH  30  38
HETATM   38  O8  UNL     1       4.895  67.199 -34.688  1.00  0.00    -0.377 OA
HETATM   39  H31 UNL     1       5.045  66.273 -34.425  1.00  0.00     0.211 HD
ENDBRANCH  30  38
BRANCH  24  40
HETATM   40  O6  UNL     1       1.566  72.158 -36.570  1.00  0.00    -0.359 OA
HETATM   41  H26 UNL     1       0.618  72.036 -36.333  1.00  0.00     0.217 HD
ENDBRANCH  24  40
TORSDOF 5
ENDMDL
