MODEL 1
REMARK minimizedAffinity -8.45105648
REMARK CNNscore 0.600363851
REMARK CNNaffinity 7.96123362
REMARK  19 active torsions:
REMARK  status: ('A' for Active; 'I' for Inactive)
REMARK    1  A    between atoms: C19_20  and  O2_21 
REMARK    2  A    between atoms: C19_20  and  C20_22 
REMARK    3  A    between atoms: C20_22  and  C21_24 
REMARK    4  A    between atoms: C21_24  and  O4_25 
REMARK    5  A    between atoms: O4_25  and  C22_26 
REMARK    6  A    between atoms: C22_26  and  C23_28 
REMARK    7  A    between atoms: C23_28  and  C24_29 
REMARK    8  A    between atoms: C24_29  and  C25_30 
REMARK       I    between atoms: C25_30  and  N1_32 
REMARK    9  A    between atoms: N1_32  and  C26_33 
REMARK   10  A    between atoms: C26_33  and  C27_34 
REMARK   11  A    between atoms: C27_34  and  C28_35 
REMARK   12  A    between atoms: C28_35  and  C29_36 
REMARK   13  A    between atoms: C29_36  and  C30_37 
REMARK   14  A    between atoms: C30_37  and  C31_38 
REMARK       I    between atoms: C31_38  and  N2_40 
REMARK   15  A    between atoms: N2_40  and  C32_41 
REMARK   16  A    between atoms: C32_41  and  C33_42 
REMARK   17  A    between atoms: C32_41  and  C40_49 
REMARK   18  A    between atoms: C33_42  and  C34_43 
REMARK   19  A    between atoms: C40_49  and  O9_51 
ROOT
HETATM    1  C22 UNL     1      -6.828   2.977  12.579  1.00  0.00     0.259 C 
HETATM    2  O5  UNL     1      -7.933   2.450  12.522  1.00  0.00    -0.265 OA
ENDROOT
BRANCH   1   3
HETATM    3  O4  UNL     1      -6.354   3.648  13.659  1.00  0.00    -0.314 OA
BRANCH   3   4
HETATM    4  C21 UNL     1      -6.174   5.047  13.446  1.00  0.00     0.260 C 
BRANCH   4   5
HETATM    5  C20 UNL     1      -6.150   5.789  14.776  1.00  0.00     0.185 C 
HETATM    6  O3  UNL     1      -5.100   6.238  15.244  1.00  0.00    -0.292 OA
BRANCH   5   7
HETATM    7  C19 UNL     1      -7.520   5.988  15.478  1.00  0.00     0.128 C 
HETATM    8  C14 UNL     1      -8.552   6.828  14.653  1.00  0.00    -0.002 C 
HETATM    9  C13 UNL     1      -9.379   6.087  13.585  1.00  0.00     0.013 C 
HETATM   10  C15 UNL     1      -7.844   8.044  13.991  1.00  0.00     0.019 C 
HETATM   11  C16 UNL     1      -9.531   7.235  15.781  1.00  0.00     0.002 C 
HETATM   12  C12 UNL     1     -10.548   6.940  13.059  1.00  0.00     0.007 C 
HETATM   13  C11 UNL     1     -11.468   7.478  14.184  1.00  0.00     0.002 C 
HETATM   14  C2  UNL     1     -12.667   8.359  13.660  1.00  0.00    -0.016 C 
HETATM   15  C10 UNL     1     -10.648   8.177  15.312  1.00  0.00    -0.004 C 
HETATM   16  C1  UNL     1     -12.180   9.569  12.831  1.00  0.00     0.020 C 
HETATM   17  C3  UNL     1     -13.574   7.464  12.763  1.00  0.00     0.022 C 
HETATM   18  C7  UNL     1     -13.478   8.888  14.849  1.00  0.00    -0.068 C 
HETATM   19  C4  UNL     1     -14.942   8.062  12.475  1.00  0.00     0.084 C 
HETATM   20  C5  UNL     1     -15.645   8.428  13.753  1.00  0.00     0.149 C 
HETATM   21  O1  UNL     1     -16.871   8.449  13.846  1.00  0.00    -0.293 OA
HETATM   22  C6  UNL     1     -14.821   8.874  14.901  1.00  0.00     0.053 C 
HETATM   23  C8  UNL     1     -12.696   9.484  15.996  1.00  0.00     0.035 C 
HETATM   24  C9  UNL     1     -11.577   8.564  16.470  1.00  0.00     0.010 C 
HETATM   25  C17 UNL     1      -8.611   7.712  16.900  1.00  0.00     0.009 C 
HETATM   26  C18 UNL     1      -7.365   6.813  16.790  1.00  0.00     0.047 C 
BRANCH   7  27
HETATM   27  O2  UNL     1      -8.065   4.730  15.886  1.00  0.00    -0.381 OA
HETATM   28  H27 UNL     1      -8.391   4.237  15.116  1.00  0.00     0.211 HD
ENDBRANCH   7  27
ENDBRANCH   5   7
ENDBRANCH   4   5
ENDBRANCH   3   4
ENDBRANCH   1   3
BRANCH   1  29
HETATM   29  C23 UNL     1      -5.873   3.053  11.410  1.00  0.00     0.120 C 
BRANCH  29  30
HETATM   30  C24 UNL     1      -4.842   1.929  11.384  1.00  0.00     0.112 C 
BRANCH  30  31
HETATM   31  C25 UNL     1      -3.457   2.422  11.750  1.00  0.00     0.217 C 
HETATM   32  O6  UNL     1      -2.440   1.764  11.560  1.00  0.00    -0.274 OA
HETATM   33  N1  UNL     1      -3.459   3.688  12.296  1.00  0.00    -0.361 N 
HETATM   34  H34 UNL     1      -4.331   4.198  12.362  1.00  0.00     0.162 HD
BRANCH  33  35
HETATM   35  C26 UNL     1      -2.228   4.390  12.599  1.00  0.00     0.122 C 
BRANCH  35  36
HETATM   36  C27 UNL     1      -2.410   5.897  12.439  1.00  0.00     0.020 C 
BRANCH  36  37
HETATM   37  C28 UNL     1      -2.132   6.684  13.721  1.00  0.00     0.002 C 
BRANCH  37  38
HETATM   38  C29 UNL     1      -0.805   7.451  13.670  1.00  0.00     0.009 C 
BRANCH  38  39
HETATM   39  C30 UNL     1       0.390   6.544  13.382  1.00  0.00     0.103 C 
BRANCH  39  40
HETATM   40  C31 UNL     1       1.511   7.239  12.628  1.00  0.00     0.218 C 
HETATM   41  O7  UNL     1       1.496   8.420  12.302  1.00  0.00    -0.274 OA
HETATM   42  N2  UNL     1       2.567   6.394  12.346  1.00  0.00    -0.346 N 
HETATM   43  H45 UNL     1       2.344   5.405  12.311  1.00  0.00     0.163 HD
BRANCH  42  44
HETATM   44  C32 UNL     1       3.649   6.838  11.457  1.00  0.00     0.186 C 
BRANCH  44  45
HETATM   45  C33 UNL     1       3.127   7.899  10.482  1.00  0.00     0.074 C 
BRANCH  45  46
HETATM   46  C34 UNL     1       2.796   7.357   9.113  1.00  0.00    -0.056 A 
HETATM   47  C35 UNL     1       3.126   6.038   8.773  1.00  0.00     0.007 A 
HETATM   48  C36 UNL     1       2.830   5.541   7.503  1.00  0.00     0.001 A 
HETATM   49  C37 UNL     1       2.203   6.356   6.562  1.00  0.00     0.000 A 
HETATM   50  C38 UNL     1       1.872   7.668   6.890  1.00  0.00     0.001 A 
HETATM   51  C39 UNL     1       2.166   8.169   8.159  1.00  0.00     0.007 A 
ENDBRANCH  45  46
ENDBRANCH  44  45
BRANCH  44  52
HETATM   52  C40 UNL     1       4.736   7.437  12.347  1.00  0.00     0.163 C 
HETATM   53  O8  UNL     1       4.694   8.541  12.877  1.00  0.00    -0.648 OA
BRANCH  52  54
HETATM   54  O9  UNL     1       5.806   6.637  12.510  1.00  0.00    -0.775 OA
HETATM   55  H54 UNL     1       6.405   7.134  13.105  1.00  0.00     0.167 HD
ENDBRANCH  52  54
ENDBRANCH  44  52
ENDBRANCH  42  44
ENDBRANCH  39  40
ENDBRANCH  38  39
ENDBRANCH  37  38
ENDBRANCH  36  37
ENDBRANCH  35  36
ENDBRANCH  33  35
ENDBRANCH  30  31
ENDBRANCH  29  30
ENDBRANCH   1  29
TORSDOF 19
ENDMDL
