MODEL 1
REMARK minimizedAffinity -8.69317722
REMARK  5 active torsions:
REMARK  status: ('A' for Active; 'I' for Inactive)
REMARK    1  A    between atoms: C2_2  and  C4_4 
REMARK    2  A    between atoms: C7_7  and  C8_8 
REMARK    3  A    between atoms: C8_8  and  O2_10 
REMARK    4  A    between atoms: C11_13  and  C12_14 
REMARK    5  A    between atoms: C12_14  and  O4_16 
ROOT
HETATM    1  C4  UNL     1      -0.809  50.681 -21.365  1.00  0.00     0.019 C 
HETATM    2  C5  UNL     1      -0.834  52.186 -21.673  1.00  0.00     0.011 C 
HETATM    3  C6  UNL     1      -0.726  52.215 -23.188  1.00  0.00     0.021 C 
HETATM    4  C7  UNL     1      -1.721  51.126 -23.648  1.00  0.00     0.050 C 
HETATM    5  C9  UNL     1      -3.124  51.764 -23.737  1.00  0.00     0.022 C 
HETATM    6  C10 UNL     1      -4.284  50.774 -23.666  1.00  0.00     0.023 C 
HETATM    7  C11 UNL     1      -4.253  49.822 -22.426  1.00  0.00     0.057 C 
HETATM    8  C13 UNL     1      -2.858  49.113 -22.433  1.00  0.00     0.011 C 
HETATM    9  C14 UNL     1      -2.741  47.953 -21.440  1.00  0.00     0.007 C 
HETATM   10  C15 UNL     1      -3.878  46.936 -21.570  1.00  0.00     0.006 C 
HETATM   11  C16 UNL     1      -5.264  47.595 -21.427  1.00  0.00     0.003 C 
HETATM   12  C17 UNL     1      -6.449  46.569 -21.167  1.00  0.00    -0.035 C 
HETATM   13  C18 UNL     1      -6.506  45.437 -22.231  1.00  0.00     0.016 C 
HETATM   14  C19 UNL     1      -6.170  45.843 -19.807  1.00  0.00     0.017 C 
HETATM   15  C20 UNL     1      -7.425  45.298 -19.152  1.00  0.00     0.080 C 
HETATM   16  C21 UNL     1      -8.320  46.439 -18.750  1.00  0.00     0.135 C 
HETATM   17  O5  UNL     1      -8.962  46.370 -17.699  1.00  0.00    -0.297 OA
HETATM   18  C22 UNL     1      -8.412  47.655 -19.691  1.00  0.00     0.017 C 
HETATM   19  C23 UNL     1      -9.916  48.018 -19.769  1.00  0.00     0.023 C 
HETATM   20  C24 UNL     1      -7.687  48.816 -19.000  1.00  0.00     0.023 C 
HETATM   21  C25 UNL     1      -7.866  47.272 -21.122  1.00  0.00     0.009 C 
HETATM   22  C26 UNL     1      -8.003  48.380 -22.191  1.00  0.00     0.007 C 
HETATM   23  C27 UNL     1      -6.844  49.373 -22.271  1.00  0.00     0.011 C 
HETATM   24  C28 UNL     1      -5.462  48.713 -22.518  1.00  0.00    -0.022 C 
HETATM   25  C29 UNL     1      -5.496  48.105 -23.953  1.00  0.00     0.017 C 
HETATM   26  C30 UNL     1      -1.582  50.005 -22.557  1.00  0.00     0.018 C 
ENDROOT
BRANCH   4  27
HETATM   27  C8  UNL     1      -1.366  50.565 -25.024  1.00  0.00     0.149 C 
HETATM   28  O1  UNL     1      -1.995  49.713 -25.635  1.00  0.00    -0.649 OA
BRANCH  27  29
HETATM   29  O2  UNL     1      -0.273  51.104 -25.595  1.00  0.00    -0.776 OA
HETATM   30  H11 UNL     1      -0.248  50.693 -26.482  1.00  0.00     0.167 HD
ENDBRANCH  27  29
ENDBRANCH   4  27
BRANCH   1  31
HETATM   31  C2  UNL     1      -0.995  50.311 -19.909  1.00  0.00    -0.088 C 
HETATM   32  C1  UNL     1      -1.148  49.054 -19.457  1.00  0.00     0.014 C 
HETATM   33  C3  UNL     1      -1.192  51.465 -18.955  1.00  0.00     0.043 C 
ENDBRANCH   1  31
BRANCH   7  34
HETATM   34  C12 UNL     1      -4.449  50.719 -21.184  1.00  0.00     0.149 C 
HETATM   35  O3  UNL     1      -3.737  50.758 -20.192  1.00  0.00    -0.649 OA
BRANCH  34  36
HETATM   36  O4  UNL     1      -5.477  51.574 -21.254  1.00  0.00    -0.776 OA
HETATM   37  H16 UNL     1      -5.452  52.044 -20.393  1.00  0.00     0.167 HD
ENDBRANCH  34  36
ENDBRANCH   7  34
TORSDOF 5
ENDMDL
