MODEL 1
REMARK minimizedAffinity -10.102725
REMARK  4 active torsions:
REMARK  status: ('A' for Active; 'I' for Inactive)
REMARK    1  A    between atoms: C4_4  and  O1_5 
REMARK    2  A    between atoms: C4_4  and  C5_6 
REMARK    3  A    between atoms: C5_6  and  C6_7 
REMARK    4  A    between atoms: C6_7  and  C8_9 
ROOT
HETATM    1  C8  UNL     1       0.782   6.324  11.649  1.00  0.00    -0.001 C 
HETATM    2  C9  UNL     1       1.084   4.800  11.655  1.00  0.00     0.007 C 
HETATM    3  C10 UNL     1      -0.221   4.092  12.114  1.00  0.00     0.015 C 
HETATM    4  C11 UNL     1      -1.300   5.197  12.088  1.00  0.00    -0.013 C 
HETATM    5  C12 UNL     1      -1.792   5.295  10.599  1.00  0.00     0.021 C 
HETATM    6  C13 UNL     1      -2.580   5.031  12.916  1.00  0.00    -0.070 C 
HETATM    7  C14 UNL     1      -3.267   3.874  12.893  1.00  0.00    -0.022 C 
HETATM    8  C15 UNL     1      -4.693   3.748  13.331  1.00  0.00     0.034 C 
HETATM    9  C16 UNL     1      -5.410   5.117  13.291  1.00  0.00     0.013 C 
HETATM   10  C17 UNL     1      -6.963   5.014  13.504  1.00  0.00     0.018 C 
HETATM   11  C18 UNL     1      -7.600   4.396  12.232  1.00  0.00     0.023 C 
HETATM   12  C19 UNL     1      -7.411   4.148  14.692  1.00  0.00     0.023 C 
HETATM   13  C20 UNL     1      -7.570   6.414  13.692  1.00  0.00     0.135 C 
HETATM   14  O2  UNL     1      -8.667   6.723  13.222  1.00  0.00    -0.297 OA
HETATM   15  C21 UNL     1      -6.832   7.388  14.574  1.00  0.00     0.080 C 
HETATM   16  C22 UNL     1      -5.383   7.505  14.131  1.00  0.00     0.017 C 
HETATM   17  C23 UNL     1      -4.622   6.159  14.158  1.00  0.00    -0.031 C 
HETATM   18  C24 UNL     1      -4.479   5.710  15.641  1.00  0.00     0.016 C 
HETATM   19  C25 UNL     1      -3.130   6.300  13.602  1.00  0.00     0.024 C 
HETATM   20  C26 UNL     1      -2.802   7.554  12.758  1.00  0.00     0.010 C 
HETATM   21  C27 UNL     1      -1.296   7.716  12.412  1.00  0.00     0.011 C 
HETATM   22  C28 UNL     1      -0.461   6.428  12.585  1.00  0.00    -0.029 C 
HETATM   23  C29 UNL     1      -0.016   6.265  14.073  1.00  0.00     0.016 C 
ENDROOT
BRANCH   1  24
HETATM   24  C6  UNL     1       2.002   7.287  11.779  1.00  0.00    -0.008 C 
HETATM   25  C7  UNL     1       1.787   8.469  10.815  1.00  0.00     0.010 C 
BRANCH  24  26
HETATM   26  C5  UNL     1       3.407   6.656  11.598  1.00  0.00     0.078 C 
BRANCH  26  27
HETATM   27  C4  UNL     1       4.019   6.726  10.184  1.00  0.00     0.191 A 
HETATM   28  C3  UNL     1       3.128   7.422   9.228  1.00  0.00     0.054 A 
HETATM   29  C2  UNL     1       2.741   6.596   8.258  1.00  0.00     0.015 A 
HETATM   30  C1  UNL     1       1.853   6.817   7.099  1.00  0.00     0.054 C 
HETATM   31  C30 UNL     1       3.385   5.307   8.533  1.00  0.00     0.291 A 
HETATM   32  O3  UNL     1       4.166   5.421   9.640  1.00  0.00    -0.276 OA
HETATM   33  O4  UNL     1       3.251   4.299   7.865  1.00  0.00    -0.260 OA
BRANCH  27  34
HETATM   34  O1  UNL     1       5.259   7.405  10.217  1.00  0.00    -0.362 OA
HETATM   35  H5  UNL     1       5.515   7.572   9.296  1.00  0.00     0.213 HD
ENDBRANCH  27  34
ENDBRANCH  26  27
ENDBRANCH  24  26
ENDBRANCH   1  24
TORSDOF 4
ENDMDL
