MODEL 1
REMARK minimizedAffinity -7.24160147
REMARK CNNscore 0.780030787
REMARK CNNaffinity 6.92718315
REMARK  5 active torsions:
REMARK  status: ('A' for Active; 'I' for Inactive)
REMARK    1  A    between atoms: C4_4  and  C5_5 
REMARK    2  A    between atoms: C5_5  and  C6_6 
REMARK    3  A    between atoms: C6_6  and  C7_7 
REMARK    4  A    between atoms: C7_7  and  C9_9 
REMARK    5  A    between atoms: C24_24  and  O1_25 
ROOT
HETATM    1  C9  UNL     1       4.941  55.997  -8.382  1.00  0.00    -0.002 C 
HETATM    2  C10 UNL     1       5.789  55.094  -9.305  1.00  0.00     0.007 C 
HETATM    3  C11 UNL     1       4.803  54.350 -10.239  1.00  0.00     0.015 C 
HETATM    4  C12 UNL     1       3.431  55.009  -9.993  1.00  0.00    -0.013 C 
HETATM    5  C13 UNL     1       3.351  56.253 -10.937  1.00  0.00     0.021 C 
HETATM    6  C14 UNL     1       2.151  54.229 -10.277  1.00  0.00    -0.068 C 
HETATM    7  C15 UNL     1       1.016  54.521  -9.586  1.00  0.00    -0.068 C 
HETATM    8  C16 UNL     1       1.007  55.544  -8.443  1.00  0.00     0.036 C 
HETATM    9  C17 UNL     1       2.349  56.213  -8.073  1.00  0.00     0.015 C 
HETATM   10  C18 UNL     1       3.537  55.327  -8.456  1.00  0.00    -0.029 C 
HETATM   11  C19 UNL     1       3.506  54.057  -7.550  1.00  0.00     0.016 C 
HETATM   12  C20 UNL     1      -0.313  53.788  -9.876  1.00  0.00    -0.017 C 
HETATM   13  C21 UNL     1      -0.413  52.628  -8.854  1.00  0.00     0.020 C 
HETATM   14  C22 UNL     1      -1.557  54.710  -9.723  1.00  0.00     0.016 C 
HETATM   15  C23 UNL     1      -2.868  54.034 -10.132  1.00  0.00     0.033 C 
HETATM   16  C24 UNL     1      -2.810  53.460 -11.543  1.00  0.00     0.118 C 
HETATM   17  C25 UNL     1      -1.591  52.562 -11.757  1.00  0.00     0.037 C 
HETATM   18  C26 UNL     1      -0.299  53.283 -11.356  1.00  0.00     0.001 C 
HETATM   19  C27 UNL     1       0.929  52.420 -11.637  1.00  0.00     0.010 C 
HETATM   20  C28 UNL     1       2.214  53.210 -11.395  1.00  0.00     0.036 C 
ENDROOT
BRANCH   1  21
HETATM   21  C7  UNL     1       5.508  56.355  -6.978  1.00  0.00    -0.014 C 
HETATM   22  C8  UNL     1       5.320  57.857  -6.711  1.00  0.00     0.010 C 
BRANCH  21  23
HETATM   23  C6  UNL     1       6.928  55.859  -6.601  1.00  0.00     0.008 C 
BRANCH  23  24
HETATM   24  C5  UNL     1       7.746  56.628  -5.540  1.00  0.00     0.028 C 
BRANCH  24  25
HETATM   25  C4  UNL     1       9.139  56.112  -5.317  1.00  0.00    -0.025 C 
HETATM   26  C2  UNL     1      10.262  56.800  -5.034  1.00  0.00    -0.091 C 
HETATM   27  C1  UNL     1      10.361  58.295  -4.890  1.00  0.00     0.042 C 
HETATM   28  C3  UNL     1      11.569  56.077  -4.838  1.00  0.00     0.042 C 
ENDBRANCH  24  25
ENDBRANCH  23  24
ENDBRANCH  21  23
ENDBRANCH   1  21
BRANCH  16  29
HETATM   29  O1  UNL     1      -4.000  52.720 -11.806  1.00  0.00    -0.396 OA
HETATM   30  H39 UNL     1      -4.020  51.961 -11.197  1.00  0.00     0.210 HD
ENDBRANCH  16  29
TORSDOF 5
ENDMDL
