MODEL 1
REMARK minimizedAffinity -7.76705694
REMARK CNNscore 0.436283529
REMARK CNNaffinity 6.82301664
REMARK  12 active torsions:
REMARK  status: ('A' for Active; 'I' for Inactive)
REMARK    1  A    between atoms: O1_2  and  C2_3 
REMARK    2  A    between atoms: C2_3  and  C5_6 
REMARK    3  A    between atoms: C6_7  and  C7_8 
REMARK    4  A    between atoms: C7_8  and  C8_9 
REMARK    5  A    between atoms: C8_9  and  C10_11 
REMARK    6  A    between atoms: C28_31  and  O4_32 
REMARK    7  A    between atoms: O4_32  and  C29_33 
REMARK    8  A    between atoms: C30_35  and  C31_36 
REMARK    9  A    between atoms: C31_36  and  O6_37 
REMARK   10  A    between atoms: C32_38  and  O7_39 
REMARK   11  A    between atoms: C33_40  and  O8_41 
REMARK   12  A    between atoms: C34_42  and  O9_43 
ROOT
HETATM    1  C10 UNL     1      -9.078  47.241 -23.162  1.00  0.00    -0.002 C 
HETATM    2  C11 UNL     1      -7.688  47.904 -22.915  1.00  0.00     0.006 C 
HETATM    3  C12 UNL     1      -6.928  47.921 -24.262  1.00  0.00     0.011 C 
HETATM    4  C13 UNL     1      -7.973  47.488 -25.306  1.00  0.00    -0.028 C 
HETATM    5  C14 UNL     1      -8.776  48.779 -25.665  1.00  0.00     0.016 C 
HETATM    6  C15 UNL     1      -7.394  46.833 -26.595  1.00  0.00     0.035 C 
HETATM    7  C16 UNL     1      -6.511  47.772 -27.392  1.00  0.00    -0.021 C 
HETATM    8  C17 UNL     1      -6.691  47.950 -28.708  1.00  0.00     0.009 C 
HETATM    9  C18 UNL     1      -7.832  47.275 -29.469  1.00  0.00     0.102 C 
HETATM   10  O2  UNL     1      -7.429  45.901 -29.606  1.00  0.00    -0.304 OA
HETATM   11  C19 UNL     1      -7.747  45.228 -28.449  1.00  0.00     0.270 C 
HETATM   12  O3  UNL     1      -7.430  44.069 -28.235  1.00  0.00    -0.264 OA
HETATM   13  C20 UNL     1      -8.503  46.162 -27.492  1.00  0.00     0.062 C 
HETATM   14  C21 UNL     1      -9.549  45.361 -26.667  1.00  0.00     0.022 C 
HETATM   15  C22 UNL     1      -9.998  45.984 -25.330  1.00  0.00     0.011 C 
HETATM   16  C23 UNL     1      -8.798  46.432 -24.477  1.00  0.00    -0.032 C 
HETATM   17  C24 UNL     1      -7.987  45.146 -24.100  1.00  0.00     0.016 C 
HETATM   18  C25 UNL     1      -9.069  47.141 -28.556  1.00  0.00     0.045 C 
HETATM   19  C26 UNL     1     -10.313  46.599 -29.286  1.00  0.00     0.012 C 
HETATM   20  C27 UNL     1     -10.602  47.345 -30.577  1.00  0.00     0.033 C 
HETATM   21  C28 UNL     1      -9.403  47.325 -31.528  1.00  0.00     0.136 C 
HETATM   22  C35 UNL     1      -8.131  47.944 -30.860  1.00  0.00     0.015 C 
HETATM   23  C36 UNL     1      -8.359  49.470 -30.698  1.00  0.00     0.021 C 
HETATM   24  C37 UNL     1      -6.941  47.756 -31.838  1.00  0.00     0.021 C 
ENDROOT
BRANCH  21  25
HETATM   25  O4  UNL     1      -9.097  45.990 -31.938  1.00  0.00    -0.352 OA
BRANCH  25  26
HETATM   26  C29 UNL     1      -9.265  45.726 -33.332  1.00  0.00     0.292 C 
HETATM   27  O5  UNL     1     -10.646  45.723 -33.682  1.00  0.00    -0.348 OA
HETATM   28  C30 UNL     1     -10.846  45.636 -35.113  1.00  0.00     0.179 C 
HETATM   29  C32 UNL     1      -9.777  44.797 -35.840  1.00  0.00     0.180 C 
HETATM   30  C33 UNL     1      -9.195  43.727 -34.910  1.00  0.00     0.183 C 
HETATM   31  C34 UNL     1      -8.687  44.319 -33.581  1.00  0.00     0.204 C 
BRANCH  28  32
HETATM   32  C31 UNL     1     -12.245  45.041 -35.308  1.00  0.00     0.198 C 
BRANCH  32  33
HETATM   33  O6  UNL     1     -12.295  43.736 -34.733  1.00  0.00    -0.398 OA
HETATM   34  H46 UNL     1     -11.456  43.304 -34.984  1.00  0.00     0.209 HD
ENDBRANCH  32  33
ENDBRANCH  28  32
BRANCH  29  35
HETATM   35  O7  UNL     1      -8.705  45.657 -36.265  1.00  0.00    -0.390 OA
HETATM   36  H48 UNL     1      -8.000  45.044 -36.573  1.00  0.00     0.210 HD
ENDBRANCH  29  35
BRANCH  30  37
HETATM   37  O8  UNL     1      -8.127  43.045 -35.591  1.00  0.00    -0.390 OA
HETATM   38  H50 UNL     1      -7.325  43.225 -35.053  1.00  0.00     0.210 HD
ENDBRANCH  30  37
BRANCH  31  39
HETATM   39  O9  UNL     1      -7.241  44.331 -33.568  1.00  0.00    -0.388 OA
HETATM   40  H52 UNL     1      -6.998  44.724 -32.702  1.00  0.00     0.210 HD
ENDBRANCH  31  39
ENDBRANCH  25  26
ENDBRANCH  21  25
BRANCH   1  41
HETATM   41  C8  UNL     1      -9.674  46.486 -21.933  1.00  0.00    -0.010 C 
HETATM   42  C9  UNL     1      -8.571  45.821 -21.093  1.00  0.00     0.010 C 
BRANCH  41  43
HETATM   43  C7  UNL     1     -10.769  45.436 -22.258  1.00  0.00     0.031 C 
BRANCH  43  44
HETATM   44  C6  UNL     1     -12.179  45.947 -22.353  1.00  0.00    -0.027 C 
HETATM   45  C5  UNL     1     -12.823  46.564 -21.344  1.00  0.00     0.006 C 
BRANCH  45  46
HETATM   46  C2  UNL     1     -14.205  47.187 -21.429  1.00  0.00     0.070 C 
HETATM   47  C3  UNL     1     -15.220  46.404 -20.585  1.00  0.00     0.050 C 
HETATM   48  C4  UNL     1     -14.663  47.161 -22.894  1.00  0.00     0.050 C 
BRANCH  46  49
HETATM   49  O1  UNL     1     -14.168  48.578 -21.058  1.00  0.00    -0.382 OA
HETATM   50  C1  UNL     1     -13.787  48.860 -19.718  1.00  0.00     0.202 C 
ENDBRANCH  46  49
ENDBRANCH  45  46
ENDBRANCH  43  44
ENDBRANCH  41  43
ENDBRANCH   1  41
TORSDOF 12
ENDMDL
