MODEL 1
REMARK minimizedAffinity -11.9824247
REMARK  5 active torsions:
REMARK  status: ('A' for Active; 'I' for Inactive)
REMARK    1  A    between atoms: N1_2  and  C2_3 
REMARK    2  A    between atoms: C4_5  and  N3_29 
REMARK    3  A    between atoms: C5_7  and  N2_12 
REMARK    4  A    between atoms: C7_9  and  O2_10 
REMARK    5  A    between atoms: C28_35  and  O4_36 
ROOT
HETATM    1  C2  UNL     1      -3.947  49.301 -19.834  1.00  0.00     0.257 C 
HETATM    2  C3  UNL     1      -3.402  50.027 -21.056  1.00  0.00     0.092 C 
HETATM    3  C4  UNL     1      -1.900  49.819 -21.163  1.00  0.00     0.234 C 
HETATM    4  O1  UNL     1      -1.257  49.418 -19.959  1.00  0.00    -0.333 OA
HETATM    5  C5  UNL     1      -1.736  49.920 -18.688  1.00  0.00     0.168 C 
HETATM    6  C6  UNL     1      -1.062  48.893 -17.745  1.00  0.00     0.074 C 
HETATM    7  C7  UNL     1      -3.309  49.919 -18.561  1.00  0.00     0.209 C 
ENDROOT
BRANCH   1   8
HETATM    8  N1  UNL     1      -5.423  49.235 -19.839  1.00  0.00     0.086 N 
HETATM    9  C1  UNL     1      -6.104  50.309 -20.547  1.00  0.00     0.307 C 
HETATM   10  H4  UNL     1      -5.745  49.198 -18.871  1.00  0.00     0.316 HD
ENDBRANCH   1   8
BRANCH   7  11
HETATM   11  O2  UNL     1      -3.741  49.167 -17.406  1.00  0.00    -0.384 OA
HETATM   12  C8  UNL     1      -4.145  47.835 -17.700  1.00  0.00     0.202 C 
ENDBRANCH   7  11
BRANCH   3  13
HETATM   13  N3  UNL     1      -1.211  50.975 -21.711  1.00  0.00    -0.316 N 
HETATM   14  C24 UNL     1      -0.360  51.822 -21.026  1.00  0.00     0.048 A 
HETATM   15  C19 UNL     1       0.122  52.762 -21.955  1.00  0.00     0.004 A 
HETATM   16  C23 UNL     1       0.033  51.839 -19.675  1.00  0.00     0.030 A 
HETATM   17  C18 UNL     1      -0.456  52.448 -23.224  1.00  0.00     0.022 A 
HETATM   18  C20 UNL     1       1.019  53.750 -21.495  1.00  0.00     0.014 A 
HETATM   19  C17 UNL     1      -0.428  52.907 -24.548  1.00  0.00     0.057 A 
HETATM   20  C25 UNL     1      -1.266  51.346 -23.016  1.00  0.00     0.077 A 
HETATM   21  C16 UNL     1      -1.145  52.314 -25.632  1.00  0.00     0.020 A 
HETATM   22  C27 UNL     1       0.338  54.032 -25.104  1.00  0.00     0.255 C 
HETATM   23  C15 UNL     1      -1.966  51.187 -25.453  1.00  0.00     0.017 A 
HETATM   24  C28 UNL     1      -0.804  53.056 -26.892  1.00  0.00     0.257 C 
HETATM   25  C14 UNL     1      -2.747  50.339 -26.282  1.00  0.00     0.004 A 
HETATM   26  C26 UNL     1      -2.071  50.685 -24.171  1.00  0.00     0.077 A 
HETATM   27  C9  UNL     1      -3.296  49.333 -25.467  1.00  0.00     0.049 A 
HETATM   28  C13 UNL     1      -3.012  50.324 -27.670  1.00  0.00     0.014 A 
HETATM   29  N2  UNL     1      -2.933  49.617 -24.147  1.00  0.00    -0.308 N 
HETATM   30  C10 UNL     1      -4.063  48.298 -26.037  1.00  0.00     0.030 A 
HETATM   31  C11 UNL     1      -4.301  48.302 -27.414  1.00  0.00     0.002 A 
HETATM   32  C12 UNL     1      -3.791  49.307 -28.223  1.00  0.00     0.001 A 
HETATM   33  N4  UNL     1       0.015  54.128 -26.439  1.00  0.00    -0.326 N 
HETATM   34  H24 UNL     1       0.531  54.740 -27.053  1.00  0.00     0.165 HD
HETATM   35  O3  UNL     1       1.125  54.755 -24.529  1.00  0.00    -0.268 OA
HETATM   36  C21 UNL     1       1.409  53.775 -20.151  1.00  0.00     0.001 A 
HETATM   37  C22 UNL     1       0.923  52.830 -19.256  1.00  0.00     0.002 A 
BRANCH  24  38
HETATM   38  O4  UNL     1      -1.926  53.641 -27.495  1.00  0.00    -0.372 OA
HETATM   39  H26 UNL     1      -2.205  54.338 -26.877  1.00  0.00     0.212 HD
ENDBRANCH  24  38
ENDBRANCH   3  13
TORSDOF 5
ENDMDL
