MODEL 1
REMARK minimizedAffinity -6.47388506
REMARK CNNscore 0.468518168
REMARK CNNaffinity 6.72567558
REMARK  13 active torsions:
REMARK  status: ('A' for Active; 'I' for Inactive)
REMARK    1  A    between atoms: C2_2  and  C4_4 
REMARK    2  A    between atoms: C5_6  and  C6_7 
REMARK    3  A    between atoms: C7_8  and  C8_9 
REMARK    4  A    between atoms: C9_10  and  C10_11 
REMARK    5  A    between atoms: C11_12  and  C12_13 
REMARK    6  A    between atoms: C12_13  and  C13_14 
REMARK    7  A    between atoms: C18_21  and  C19_22 
REMARK    8  A    between atoms: C19_22  and  O4_23 
REMARK    9  A    between atoms: C20_24  and  O5_25 
REMARK   10  A    between atoms: C21_26  and  O6_27 
REMARK   11  A    between atoms: C30_38  and  O9_39 
REMARK   12  A    between atoms: O9_39  and  C31_40 
REMARK   13  A    between atoms: C31_40  and  C32_41 
ROOT
HETATM    1  C4  UNL     1       4.751  15.573   1.165  1.00  0.00     0.142 C 
HETATM    2  O1  UNL     1       5.120  16.911   0.746  1.00  0.00    -0.308 OA
HETATM    3  C5  UNL     1       4.925  16.909  -0.658  1.00  0.00     0.306 C 
HETATM    4  O2  UNL     1       5.253  15.609  -1.109  1.00  0.00    -0.320 OA
HETATM    5  C15 UNL     1       4.523  14.814  -0.165  1.00  0.00     0.179 C 
HETATM    6  C16 UNL     1       3.062  14.846  -0.668  1.00  0.00     0.086 C 
HETATM    7  C17 UNL     1       3.009  14.248  -2.062  1.00  0.00     0.172 A 
HETATM    8  O3  UNL     1       2.685  15.127  -3.136  1.00  0.00    -0.363 OA
HETATM    9  C18 UNL     1       1.748  14.055  -2.906  1.00  0.00     0.138 A 
HETATM   10  C20 UNL     1       0.353  14.495  -2.476  1.00  0.00     0.200 C 
HETATM   11  C21 UNL     1       0.237  15.503  -1.316  1.00  0.00     0.161 C 
HETATM   12  C22 UNL     1      -1.059  16.306  -1.397  1.00  0.00     0.192 C 
HETATM   13  O7  UNL     1      -2.170  15.869  -1.664  1.00  0.00    -0.289 OA
HETATM   14  C23 UNL     1      -0.833  17.723  -1.050  1.00  0.00    -0.016 C 
HETATM   15  C24 UNL     1      -1.925  18.705  -0.894  1.00  0.00     0.052 C 
HETATM   16  C25 UNL     1       0.493  17.875  -0.979  1.00  0.00    -0.005 C 
HETATM   17  C26 UNL     1       1.286  16.630  -1.297  1.00  0.00     0.090 C 
HETATM   18  C27 UNL     1       2.568  16.320  -0.455  1.00  0.00     0.092 C 
HETATM   19  O8  UNL     1       3.570  17.245  -0.963  1.00  0.00    -0.316 OA
HETATM   20  C28 UNL     1       2.382  16.553   1.114  1.00  0.00     0.050 C 
HETATM   21  C29 UNL     1       2.423  18.025   1.572  1.00  0.00     0.016 C 
HETATM   22  C30 UNL     1       3.425  15.734   1.958  1.00  0.00     0.170 C 
ENDROOT
BRANCH   3  23
HETATM   23  C6  UNL     1       5.792  17.974  -1.248  1.00  0.00     0.074 C 
HETATM   24  C7  UNL     1       6.448  18.064  -2.419  1.00  0.00     0.004 C 
BRANCH  24  25
HETATM   25  C8  UNL     1       6.443  17.113  -3.507  1.00  0.00    -0.000 C 
HETATM   26  C9  UNL     1       5.427  17.007  -4.377  1.00  0.00    -0.000 C 
BRANCH  26  27
HETATM   27  C10 UNL     1       5.422  16.049  -5.460  1.00  0.00    -0.004 C 
HETATM   28  C11 UNL     1       5.292  14.728  -5.265  1.00  0.00    -0.027 C 
BRANCH  28  29
HETATM   29  C12 UNL     1       5.291  13.719  -6.378  1.00  0.00     0.027 C 
BRANCH  29  30
HETATM   30  C13 UNL     1       5.935  12.387  -5.986  1.00  0.00    -0.001 C 
HETATM   31  C14 UNL     1       4.957  11.391  -5.377  1.00  0.00     0.005 C 
ENDBRANCH  29  30
ENDBRANCH  28  29
ENDBRANCH  26  27
ENDBRANCH  24  25
ENDBRANCH   3  23
BRANCH   1  32
HETATM   32  C2  UNL     1       5.898  15.024   2.027  1.00  0.00    -0.054 C 
HETATM   33  C1  UNL     1       6.623  15.791   2.865  1.00  0.00     0.017 C 
HETATM   34  C3  UNL     1       6.214  13.553   1.930  1.00  0.00     0.046 C 
ENDBRANCH   1  32
BRANCH  22  35
HETATM   35  O9  UNL     1       2.888  14.439   2.279  1.00  0.00    -0.377 OA
BRANCH  35  36
HETATM   36  C31 UNL     1       2.173  14.399   3.517  1.00  0.00     0.207 C 
BRANCH  36  37
HETATM   37  C32 UNL     1       0.713  14.103   3.278  1.00  0.00    -0.035 A 
HETATM   38  C33 UNL     1      -0.265  15.078   3.519  1.00  0.00     0.009 A 
HETATM   39  C34 UNL     1      -1.615  14.795   3.305  1.00  0.00     0.001 A 
HETATM   40  C35 UNL     1      -1.999  13.536   2.848  1.00  0.00     0.000 A 
HETATM   41  C36 UNL     1      -1.036  12.558   2.608  1.00  0.00     0.001 A 
HETATM   42  C37 UNL     1       0.314  12.840   2.822  1.00  0.00     0.009 A 
ENDBRANCH  36  37
ENDBRANCH  35  36
ENDBRANCH  22  35
BRANCH  11  43
HETATM   43  O6  UNL     1       0.157  14.793  -0.066  1.00  0.00    -0.378 OA
HETATM   44  H27 UNL     1      -0.421  14.024  -0.280  1.00  0.00     0.211 HD
ENDBRANCH  11  43
BRANCH   9  45
HETATM   45  C19 UNL     1       1.790  13.078  -4.060  1.00  0.00     0.207 C 
BRANCH  45  46
HETATM   46  O4  UNL     1       0.495  12.978  -4.644  1.00  0.00    -0.398 OA
HETATM   47  H24 UNL     1       0.543  12.254  -5.295  1.00  0.00     0.209 HD
ENDBRANCH  45  46
ENDBRANCH   9  45
BRANCH  10  48
HETATM   48  O5  UNL     1      -0.381  13.321  -2.048  1.00  0.00    -0.389 OA
HETATM   49  H26 UNL     1      -0.105  12.579  -2.628  1.00  0.00     0.210 HD
ENDBRANCH  10  48
TORSDOF 13
ENDMDL
