MODEL 1
REMARK minimizedAffinity -9.71788502
REMARK  6 active torsions:
REMARK  status: ('A' for Active; 'I' for Inactive)
REMARK    1  A    between atoms: C3_3  and  C4_4 
REMARK    2  A    between atoms: C4_4  and  O2_6 
REMARK    3  A    between atoms: O2_6  and  C5_7 
REMARK    4  A    between atoms: C5_7  and  C6_8 
REMARK    5  A    between atoms: C6_8  and  C7_9 
REMARK    6  A    between atoms: C13_15  and  C14_16 
ROOT
HETATM    1  C1  UNL     1       1.261  53.687 -21.422  1.00  0.00     0.069 C 
HETATM    2  C2  UNL     1       0.504  52.911 -22.468  1.00  0.00     0.018 A 
HETATM    3  C3  UNL     1      -0.184  51.769 -22.235  1.00  0.00     0.052 A 
HETATM    4  C13 UNL     1      -0.885  51.009 -23.358  1.00  0.00     0.104 A 
HETATM    5  C23 UNL     1      -0.669  51.647 -24.724  1.00  0.00     0.024 A 
HETATM    6  C24 UNL     1       0.009  52.805 -24.864  1.00  0.00     0.020 A 
HETATM    7  C25 UNL     1       0.175  53.504 -26.190  1.00  0.00     0.058 C 
HETATM    8  C26 UNL     1      -0.892  53.081 -27.192  1.00  0.00     0.014 C 
HETATM    9  C27 UNL     1      -0.973  51.568 -27.288  1.00  0.00     0.084 C 
HETATM   10  C28 UNL     1      -1.177  50.934 -25.930  1.00  0.00     0.158 C 
HETATM   11  O5  UNL     1      -1.684  49.818 -25.826  1.00  0.00    -0.293 OA
HETATM   12  N1  UNL     1       0.574  53.414 -23.759  1.00  0.00    -0.362 N 
HETATM   13  H24 UNL     1       1.024  54.316 -23.890  1.00  0.00     0.165 HD
ENDROOT
BRANCH   4  14
HETATM   14  C14 UNL     1      -2.358  50.795 -23.043  1.00  0.00     0.029 A 
HETATM   15  C15 UNL     1      -3.252  51.796 -23.031  1.00  0.00     0.154 A 
HETATM   16  O3  UNL     1      -4.595  51.702 -22.770  1.00  0.00    -0.321 OA
HETATM   17  C16 UNL     1      -5.102  50.461 -22.488  1.00  0.00     0.089 A 
HETATM   18  C17 UNL     1      -6.470  50.374 -22.230  1.00  0.00     0.040 A 
HETATM   19  C21 UNL     1      -4.310  49.316 -22.456  1.00  0.00     0.050 A 
HETATM   20  C18 UNL     1      -7.042  49.133 -21.938  1.00  0.00     0.026 A 
HETATM   21  C19 UNL     1      -6.244  47.989 -21.907  1.00  0.00     0.035 A 
HETATM   22 CL1  UNL     1      -6.955  46.465 -21.549  1.00  0.00    -0.084 Cl
HETATM   23  C20 UNL     1      -4.877  48.070 -22.165  1.00  0.00     0.042 A 
HETATM   24  C22 UNL     1      -2.868  49.436 -22.732  1.00  0.00     0.194 A 
HETATM   25  O4  UNL     1      -2.147  48.447 -22.699  1.00  0.00    -0.287 OA
ENDBRANCH   4  14
BRANCH   3  26
HETATM   26  C4  UNL     1      -0.294  51.144 -20.900  1.00  0.00     0.292 C 
HETATM   27  O1  UNL     1       0.068  50.000 -20.666  1.00  0.00    -0.259 OA
BRANCH  26  28
HETATM   28  O2  UNL     1      -0.924  51.977 -20.039  1.00  0.00    -0.317 OA
BRANCH  28  29
HETATM   29  C5  UNL     1      -0.551  51.839 -18.657  1.00  0.00     0.183 C 
BRANCH  29  30
HETATM   30  C6  UNL     1       0.681  52.688 -18.348  1.00  0.00     0.065 C 
BRANCH  30  31
HETATM   31  C7  UNL     1       1.378  52.228 -17.096  1.00  0.00    -0.056 A 
HETATM   32  C8  UNL     1       0.749  51.338 -16.215  1.00  0.00     0.007 A 
HETATM   33  C9  UNL     1       1.408  50.895 -15.068  1.00  0.00     0.001 A 
HETATM   34  C10 UNL     1       2.701  51.334 -14.792  1.00  0.00     0.000 A 
HETATM   35  C11 UNL     1       3.338  52.217 -15.663  1.00  0.00     0.001 A 
HETATM   36  C12 UNL     1       2.680  52.662 -16.810  1.00  0.00     0.007 A 
ENDBRANCH  30  31
ENDBRANCH  29  30
ENDBRANCH  28  29
ENDBRANCH  26  28
ENDBRANCH   3  26
TORSDOF 6
ENDMDL
