MODEL 1
REMARK minimizedAffinity -9.62654305
REMARK CNNscore 0.724538565
REMARK CNNaffinity 7.94273758
REMARK  8 active torsions:
REMARK  status: ('A' for Active; 'I' for Inactive)
REMARK    1  A    between atoms: C3_3  and  O1_4 
REMARK    2  A    between atoms: N1_14  and  O2_16 
REMARK    3  A    between atoms: O2_16  and  C13_17 
REMARK    4  A    between atoms: C13_17  and  C14_18 
REMARK       I    between atoms: C14_18  and  N2_20 
REMARK    5  A    between atoms: N2_20  and  C15_21 
REMARK    6  A    between atoms: C15_21  and  C16_22 
REMARK    7  A    between atoms: C16_22  and  O4_23 
REMARK    8  A    between atoms: C16_22  and  C17_24 
ROOT
HETATM    1  C1  UNL     1       1.891   7.549   8.523  1.00  0.00     0.015 C 
HETATM    2  C2  UNL     1       1.456   7.106   9.552  1.00  0.00    -0.078 C 
HETATM    3  C3  UNL     1       0.922   6.549  10.804  1.00  0.00     0.128 C 
HETATM    4  C4  UNL     1       2.021   5.928  11.674  1.00  0.00     0.052 C 
HETATM    5  C5  UNL     1       1.311   5.724  13.005  1.00  0.00     0.010 C 
HETATM    6  C6  UNL     1       0.489   7.005  13.193  1.00  0.00     0.002 C 
HETATM    7  C7  UNL     1      -0.735   6.911  14.129  1.00  0.00    -0.004 C 
HETATM    8  C8  UNL     1      -1.639   5.677  13.977  1.00  0.00     0.010 C 
HETATM    9  C9  UNL     1      -2.768   5.680  15.009  1.00  0.00     0.035 C 
HETATM   10  C10 UNL     1      -3.542   6.979  15.086  1.00  0.00    -0.069 C 
HETATM   11  C11 UNL     1      -4.883   6.946  15.199  1.00  0.00     0.030 C 
HETATM   12  C12 UNL     1      -5.683   8.174  15.475  1.00  0.00     0.032 C 
HETATM   13  N1  UNL     1      -6.970   8.218  15.648  1.00  0.00    -0.271 N 
ATOM     14  H1  UNL     1      -7.483   9.072  15.870  1.00  0.00     0.194 HD
HETATM   15  C23 UNL     1      -4.930   9.477  15.667  1.00  0.00     0.060 C 
HETATM   16  C24 UNL     1      -3.641   9.502  14.856  1.00  0.00     0.020 C 
HETATM   17  C25 UNL     1      -2.724   8.270  15.110  1.00  0.00    -0.016 C 
HETATM   18  C26 UNL     1      -2.100   8.426  16.526  1.00  0.00     0.020 C 
HETATM   19  C27 UNL     1      -1.572   8.214  14.032  1.00  0.00     0.002 C 
HETATM   20  C28 UNL     1      -2.068   8.448  12.581  1.00  0.00     0.007 C 
HETATM   21  C29 UNL     1      -1.261   7.773  11.468  1.00  0.00     0.014 C 
HETATM   22  C30 UNL     1       0.237   7.589  11.763  1.00  0.00     0.003 C 
HETATM   23  C31 UNL     1       0.927   8.981  11.691  1.00  0.00     0.020 C 
ENDROOT
BRANCH   3  24
HETATM   24  O1  UNL     1       0.013   5.497  10.465  1.00  0.00    -0.377 OA
HETATM   25  H2  UNL     1       0.457   4.938   9.803  1.00  0.00     0.211 HD
ENDBRANCH   3  24
BRANCH  13  26
HETATM   26  O2  UNL     1      -7.577   6.961  15.495  1.00  0.00    -0.271 OA
BRANCH  26  27
HETATM   27  C13 UNL     1      -8.621   7.082  14.532  1.00  0.00     0.303 C 
BRANCH  27  28
HETATM   28  C14 UNL     1      -8.415   6.098  13.389  1.00  0.00     0.243 C 
HETATM   29  O3  UNL     1      -7.981   6.450  12.293  1.00  0.00    -0.271 OA
HETATM   30  N2  UNL     1      -8.675   4.782  13.724  1.00  0.00    -0.356 N 
HETATM   31  H16 UNL     1      -9.227   4.628  14.560  1.00  0.00     0.162 HD
BRANCH  30  32
HETATM   32  C15 UNL     1      -8.541   3.707  12.750  1.00  0.00     0.159 C 
BRANCH  32  33
HETATM   33  C16 UNL     1      -7.430   2.688  13.093  1.00  0.00     0.170 C 
BRANCH  33  34
HETATM   34  O4  UNL     1      -7.857   1.348  12.818  1.00  0.00    -0.389 OA
HETATM   35  H20 UNL     1      -7.068   0.819  12.607  1.00  0.00     0.210 HD
ENDBRANCH  33  34
BRANCH  33  36
HETATM   36  C17 UNL     1      -6.162   3.010  12.340  1.00  0.00    -0.013 A 
HETATM   37  C18 UNL     1      -5.266   3.987  12.791  1.00  0.00     0.013 A 
HETATM   38  C19 UNL     1      -4.086   4.225  12.088  1.00  0.00     0.025 A 
HETATM   39  C20 UNL     1      -3.822   3.472  10.949  1.00  0.00     0.005 A 
HETATM   40  C21 UNL     1      -2.571   3.715  10.161  1.00  0.00     0.068 C 
HETATM   41  N3  UNL     1      -4.670   2.519  10.491  1.00  0.00    -0.369 N 
HETATM   42  C22 UNL     1      -5.809   2.308  11.192  1.00  0.00     0.097 A 
ATOM     43  H3  UNL     1      -4.457   1.980   9.651  1.00  0.00     0.165 HD
ENDBRANCH  33  36
ENDBRANCH  32  33
ENDBRANCH  30  32
ENDBRANCH  27  28
ENDBRANCH  26  27
ENDBRANCH  13  26
TORSDOF 8
ENDMDL
