MODEL 1
REMARK minimizedAffinity -7.1302309
REMARK CNNscore 0.350157708
REMARK CNNaffinity 6.70472574
REMARK  7 active torsions:
REMARK  status: ('A' for Active; 'I' for Inactive)
REMARK    1  A    between atoms: C3_3  and  C4_4 
REMARK    2  A    between atoms: C4_4  and  O1_5 
REMARK    3  A    between atoms: C7_9  and  O3_10 
REMARK    4  A    between atoms: C25_30  and  C26_31 
REMARK    5  A    between atoms: C41_47  and  O7_49 
REMARK    6  A    between atoms: C43_50  and  O8_51 
REMARK    7  A    between atoms: C43_50  and  O9_52 
ROOT
HETATM    1  C1  UNL     1       0.864  15.800  -4.018  1.00  0.00     0.013 C 
HETATM    2  C2  UNL     1       2.150  16.039  -3.229  1.00  0.00     0.023 C 
HETATM    3  C3  UNL     1       2.682  14.724  -2.583  1.00  0.00     0.050 C 
HETATM    4  C5  UNL     1       2.178  14.755  -1.091  1.00  0.00     0.194 C 
HETATM    5  O2  UNL     1       1.312  15.905  -1.112  1.00  0.00    -0.371 OA
HETATM    6  C6  UNL     1       1.930  16.870  -1.984  1.00  0.00     0.167 C 
HETATM    7  C7  UNL     1       1.141  18.186  -1.979  1.00  0.00     0.226 C 
HETATM    8  C8  UNL     1       1.296  18.746  -0.614  1.00  0.00    -0.072 C 
HETATM    9  C9  UNL     1       1.473  18.903   0.566  1.00  0.00    -0.103 C 
HETATM   10  C10 UNL     1       1.602  18.853   2.041  1.00  0.00     0.099 C 
HETATM   11  C11 UNL     1       0.387  18.107   2.643  1.00  0.00     0.009 C 
HETATM   12  C12 UNL     1      -0.133  18.829   3.919  1.00  0.00     0.016 C 
HETATM   13  C13 UNL     1      -1.427  18.199   4.555  1.00  0.00     0.027 C 
HETATM   14  C14 UNL     1      -1.452  16.667   4.511  1.00  0.00    -0.036 C 
HETATM   15  C15 UNL     1      -1.928  15.904   5.505  1.00  0.00     0.057 C 
HETATM   16  C16 UNL     1      -2.550  16.467   6.709  1.00  0.00     0.154 C 
HETATM   17  O4  UNL     1      -2.985  15.689   7.554  1.00  0.00    -0.293 OA
HETATM   18  C17 UNL     1      -2.748  17.965   6.847  1.00  0.00     0.071 C 
HETATM   19  C18 UNL     1      -4.246  18.288   6.708  1.00  0.00     0.045 C 
HETATM   20  C19 UNL     1      -4.555  18.754   5.293  1.00  0.00     0.122 C 
HETATM   21  C20 UNL     1      -3.884  20.109   5.045  1.00  0.00     0.033 C 
HETATM   22  C21 UNL     1      -2.499  20.221   5.712  1.00  0.00     0.013 C 
HETATM   23  C22 UNL     1      -1.798  18.847   5.963  1.00  0.00    -0.026 C 
HETATM   24  C23 UNL     1      -0.529  19.108   6.819  1.00  0.00     0.016 C 
HETATM   25  O5  UNL     1      -5.955  18.859   5.049  1.00  0.00    -0.384 OA
HETATM   26  C24 UNL     1      -6.599  17.590   4.835  1.00  0.00     0.190 C 
HETATM   27  C25 UNL     1      -6.598  17.144   3.352  1.00  0.00     0.121 C 
HETATM   28  C32 UNL     1      -5.259  16.711   2.870  1.00  0.00    -0.093 C 
HETATM   29  C33 UNL     1      -4.197  16.359   2.424  1.00  0.00    -0.080 C 
HETATM   30  C34 UNL     1      -2.978  15.902   1.751  1.00  0.00     0.263 C 
HETATM   31  O6  UNL     1      -1.793  16.581   2.162  1.00  0.00    -0.363 OA
HETATM   32  C35 UNL     1      -0.945  16.054   3.213  1.00  0.00     0.094 C 
HETATM   33  C36 UNL     1      -0.733  14.545   3.032  1.00  0.00     0.044 C 
HETATM   34  C37 UNL     1       0.004  14.496   1.686  1.00  0.00     0.012 C 
HETATM   35  C38 UNL     1       1.054  15.638   1.743  1.00  0.00     0.037 C 
HETATM   36  C39 UNL     1       0.556  16.560   2.960  1.00  0.00     0.003 C 
HETATM   37  C40 UNL     1       1.446  16.363   4.225  1.00  0.00     0.019 C 
HETATM   38  C41 UNL     1       2.533  15.062   1.637  1.00  0.00     0.117 C 
HETATM   39  C42 UNL     1       2.695  13.713   2.402  1.00  0.00     0.052 C 
HETATM   40  C43 UNL     1       3.176  14.888   0.129  1.00  0.00     0.218 C 
ENDROOT
BRANCH  27  41
HETATM   41  C26 UNL     1      -7.624  16.031   3.165  1.00  0.00    -0.040 A 
HETATM   42  C27 UNL     1      -8.430  15.589   4.231  1.00  0.00     0.008 A 
HETATM   43  C28 UNL     1      -9.393  14.600   4.029  1.00  0.00     0.001 A 
HETATM   44  C29 UNL     1      -9.569  14.044   2.763  1.00  0.00     0.000 A 
HETATM   45  C30 UNL     1      -8.771  14.464   1.701  1.00  0.00     0.001 A 
HETATM   46  C31 UNL     1      -7.801  15.448   1.898  1.00  0.00     0.008 A 
ENDBRANCH  27  41
BRANCH  38  47
HETATM   47  O7  UNL     1       3.432  15.990   2.311  1.00  0.00    -0.384 OA
HETATM   48  H52 UNL     1       4.299  15.539   2.332  1.00  0.00     0.210 HD
ENDBRANCH  38  47
BRANCH  40  49
HETATM   49  O8  UNL     1       4.076  13.781   0.197  1.00  0.00    -0.361 OA
HETATM   50  H53 UNL     1       4.244  13.489  -0.724  1.00  0.00     0.213 HD
ENDBRANCH  40  49
BRANCH  40  51
HETATM   51  O9  UNL     1       4.041  16.015  -0.084  1.00  0.00    -0.361 OA
HETATM   52  H54 UNL     1       3.889  16.600   0.685  1.00  0.00     0.213 HD
ENDBRANCH  40  51
BRANCH   7  53
HETATM   53  O3  UNL     1       1.673  19.090  -2.939  1.00  0.00    -0.381 OA
HETATM   54  H12 UNL     1       1.331  19.970  -2.696  1.00  0.00     0.211 HD
ENDBRANCH   7  53
BRANCH   3  55
HETATM   55  C4  UNL     1       4.180  14.568  -2.825  1.00  0.00     0.172 C 
BRANCH  55  56
HETATM   56  O1  UNL     1       4.548  13.205  -2.658  1.00  0.00    -0.400 OA
HETATM   57  H8  UNL     1       5.498  13.140  -2.877  1.00  0.00     0.209 HD
ENDBRANCH  55  56
ENDBRANCH   3  55
TORSDOF 7
ENDMDL
