MODEL 1
REMARK minimizedAffinity -4.87539768
REMARK  7 active torsions:
REMARK  status: ('A' for Active; 'I' for Inactive)
REMARK    1  A    between atoms: S1_2  and  C2_4 
REMARK    2  A    between atoms: C2_4  and  C3_5 
REMARK    3  A    between atoms: C3_5  and  N1_6 
REMARK       I    between atoms: N1_6  and  C4_7 
REMARK       I    between atoms: C4_7  and  N2_9 
REMARK    4  A    between atoms: N2_9  and  C5_10 
REMARK    5  A    between atoms: N2_9  and  N3_13 
REMARK    6  A    between atoms: C5_10  and  C6_11 
REMARK    7  A    between atoms: N3_13  and  O3_15 
ROOT
HETATM    1  N1  UNL     1      -3.968   3.313  11.923  1.00  0.00    -0.341 N 
HETATM    2  C4  UNL     1      -3.190   2.213  11.574  1.00  0.00     0.338 C 
HETATM    3  O2  UNL     1      -3.691   1.092  11.541  1.00  0.00    -0.245 OA
HETATM    4  N2  UNL     1      -1.864   2.527  11.251  1.00  0.00    -0.222 N 
HETATM    5  H8  UNL     1      -3.486   3.994  12.493  1.00  0.00     0.164 HD
ENDROOT
BRANCH   1   6
HETATM    6  C3  UNL     1      -5.351   3.111  12.343  1.00  0.00     0.137 C 
BRANCH   6   7
HETATM    7  C2  UNL     1      -5.979   4.350  12.973  1.00  0.00     0.128 C 
BRANCH   7   8
HETATM    8  S1  UNL     1      -7.677   4.031  13.552  1.00  0.00     0.012 S 
HETATM    9  C1  UNL     1      -8.451   5.380  12.631  1.00  0.00     0.127 C 
HETATM   10  O1  UNL     1      -8.130   2.735  12.949  1.00  0.00    -0.258 OA
ENDBRANCH   7   8
ENDBRANCH   6   7
ENDBRANCH   1   6
BRANCH   4  11
HETATM   11  C5  UNL     1      -1.326   3.883  11.128  1.00  0.00     0.171 C 
BRANCH  11  12
HETATM   12  C6  UNL     1      -0.138   4.099  12.057  1.00  0.00     0.136 C 
HETATM   13 CL1  UNL     1       1.128   5.036  11.230  1.00  0.00    -0.129 Cl
ENDBRANCH  11  12
ENDBRANCH   4  11
BRANCH   4  14
HETATM   14  N3  UNL     1      -0.852   1.446  10.973  1.00  0.00    -0.204 N 
ATOM     15  H3  UNL     1      -0.112   1.205  11.632  1.00  0.00     0.216 HD
BRANCH  14  16
HETATM   16  O3  UNL     1      -0.985   0.875   9.889  1.00  0.00    -0.274 OA
ATOM     17  H3  UNL     1      -0.347   0.193   9.714  1.00  0.00     0.246 HD
ENDBRANCH  14  16
ENDBRANCH   4  14
TORSDOF 7
ENDMDL
