MODEL 1
REMARK minimizedAffinity -7.99415922
REMARK CNNscore 0.699824691
REMARK CNNaffinity 7.20304489
REMARK  6 active torsions:
REMARK  status: ('A' for Active; 'I' for Inactive)
REMARK    1  A    between atoms: C2_2  and  C4_4 
REMARK    2  A    between atoms: C4_4  and  O1_5 
REMARK    3  A    between atoms: C4_4  and  C5_6 
REMARK    4  A    between atoms: C5_6  and  C6_7 
REMARK    5  A    between atoms: C6_7  and  C7_8 
REMARK    6  A    between atoms: C7_8  and  C9_10 
ROOT
HETATM    1  C9  UNL     1      -1.594  52.463  -9.792  1.00  0.00    -0.001 C 
HETATM    2  C10 UNL     1      -1.071  51.093  -9.278  1.00  0.00     0.007 C 
HETATM    3  C11 UNL     1       0.461  51.201  -9.157  1.00  0.00     0.024 C 
HETATM    4  C12 UNL     1       0.765  52.652  -9.448  1.00  0.00     0.092 C 
HETATM    5  C13 UNL     1       0.704  53.518  -8.159  1.00  0.00     0.272 C 
HETATM    6  O2  UNL     1       0.071  53.302  -7.141  1.00  0.00    -0.264 OA
HETATM    7  O3  UNL     1       1.510  54.627  -8.340  1.00  0.00    -0.305 OA
HETATM    8  C14 UNL     1       2.121  54.553  -9.651  1.00  0.00     0.113 C 
HETATM    9  C15 UNL     1       1.119  55.225 -10.644  1.00  0.00     0.043 C 
HETATM   10  C16 UNL     1      -0.325  54.659 -10.539  1.00  0.00     0.014 C 
HETATM   11  C17 UNL     1      -0.341  53.110 -10.460  1.00  0.00    -0.020 C 
HETATM   12  C18 UNL     1      -0.121  52.558 -11.886  1.00  0.00     0.017 C 
HETATM   13  C19 UNL     1       2.112  53.072  -9.888  1.00  0.00     0.137 A 
HETATM   14  O4  UNL     1       2.761  52.500 -11.007  1.00  0.00    -0.364 OA
HETATM   15  C20 UNL     1       3.351  52.221  -9.720  1.00  0.00     0.162 A 
HETATM   16  C21 UNL     1       4.675  52.875  -9.473  1.00  0.00     0.042 C 
HETATM   17  C22 UNL     1       4.480  54.222  -8.742  1.00  0.00     0.014 C 
HETATM   18  C23 UNL     1       5.789  54.837  -8.142  1.00  0.00     0.018 C 
HETATM   19  C24 UNL     1       6.316  53.937  -7.002  1.00  0.00     0.023 C 
HETATM   20  C25 UNL     1       6.923  55.045  -9.154  1.00  0.00     0.023 C 
HETATM   21  C26 UNL     1       5.470  56.196  -7.499  1.00  0.00     0.135 C 
HETATM   22  O5  UNL     1       6.348  56.902  -6.999  1.00  0.00    -0.297 OA
HETATM   23  C27 UNL     1       4.026  56.630  -7.485  1.00  0.00     0.080 C 
HETATM   24  C28 UNL     1       3.507  56.606  -8.915  1.00  0.00     0.020 C 
HETATM   25  C29 UNL     1       3.561  55.196  -9.591  1.00  0.00    -0.004 C 
HETATM   26  C30 UNL     1       4.084  55.413 -11.036  1.00  0.00     0.019 C 
ENDROOT
BRANCH   1  27
HETATM   27  C7  UNL     1      -2.990  52.386 -10.483  1.00  0.00    -0.014 C 
HETATM   28  C8  UNL     1      -3.847  53.658 -10.458  1.00  0.00     0.010 C 
BRANCH  27  29
HETATM   29  C6  UNL     1      -3.797  51.168  -9.982  1.00  0.00     0.007 C 
BRANCH  29  30
HETATM   30  C5  UNL     1      -5.045  50.767 -10.791  1.00  0.00     0.036 C 
BRANCH  30  31
HETATM   31  C4  UNL     1      -6.077  49.937 -10.005  1.00  0.00     0.146 C 
BRANCH  31  32
HETATM   32  C2  UNL     1      -6.946  48.999 -10.825  1.00  0.00    -0.065 C 
HETATM   33  C1  UNL     1      -6.509  47.914 -11.488  1.00  0.00     0.016 C 
HETATM   34  C3  UNL     1      -8.409  49.371 -10.863  1.00  0.00     0.045 C 
ENDBRANCH  31  32
BRANCH  31  35
HETATM   35  O1  UNL     1      -5.408  49.128  -9.043  1.00  0.00    -0.391 OA
HETATM   36  H7  UNL     1      -4.928  48.443  -9.542  1.00  0.00     0.210 HD
ENDBRANCH  31  35
ENDBRANCH  30  31
ENDBRANCH  29  30
ENDBRANCH  27  29
ENDBRANCH   1  27
TORSDOF 6
ENDMDL
