MODEL 1
REMARK minimizedAffinity -10.3489561
REMARK CNNscore 0.435395718
REMARK CNNaffinity 7.4721961
REMARK  12 active torsions:
REMARK  status: ('A' for Active; 'I' for Inactive)
REMARK    1  A    between atoms: C3_3  and  O1_4 
REMARK    2  A    between atoms: N1_14  and  O2_16 
REMARK    3  A    between atoms: O2_16  and  C13_17 
REMARK    4  A    between atoms: C13_17  and  C14_18 
REMARK       I    between atoms: C14_18  and  N2_20 
REMARK    5  A    between atoms: N2_20  and  C15_21 
REMARK    6  A    between atoms: C15_21  and  C16_22 
REMARK    7  A    between atoms: C15_21  and  C27_38 
REMARK       I    between atoms: C16_22  and  N3_24 
REMARK    8  A    between atoms: N3_24  and  C17_25 
REMARK    9  A    between atoms: C17_25  and  C18_26 
REMARK   10  A    between atoms: C17_25  and  C20_30 
REMARK   11  A    between atoms: C18_26  and  C19_27 
REMARK   12  A    between atoms: C19_27  and  O6_29 
ROOT
HETATM    1  C1  UNL     1      -3.452  49.752 -27.724  1.00  0.00     0.015 C 
HETATM    2  C2  UNL     1      -3.113  50.700 -27.067  1.00  0.00    -0.078 C 
HETATM    3  C3  UNL     1      -2.734  51.896 -26.283  1.00  0.00     0.128 C 
HETATM    4  C4  UNL     1      -3.836  52.181 -25.246  1.00  0.00     0.052 C 
HETATM    5  C5  UNL     1      -3.387  51.490 -23.947  1.00  0.00     0.010 C 
HETATM    6  C6  UNL     1      -1.995  50.883 -24.219  1.00  0.00     0.002 C 
HETATM    7  C7  UNL     1      -1.045  50.810 -23.010  1.00  0.00    -0.004 C 
HETATM    8  C8  UNL     1      -1.692  50.060 -21.837  1.00  0.00     0.010 C 
HETATM    9  C9  UNL     1      -0.696  49.846 -20.704  1.00  0.00     0.035 C 
HETATM   10  C10 UNL     1      -0.079  51.141 -20.225  1.00  0.00    -0.069 C 
HETATM   11  C11 UNL     1       0.027  51.375 -18.903  1.00  0.00     0.030 C 
HETATM   12  C12 UNL     1       0.740  52.568 -18.370  1.00  0.00     0.032 C 
HETATM   13  N1  UNL     1       0.971  52.831 -17.124  1.00  0.00    -0.271 N 
ATOM     14  H1  UNL     1       1.450  53.673 -16.805  1.00  0.00     0.194 HD
HETATM   15  C30 UNL     1       1.326  53.543 -19.368  1.00  0.00     0.060 C 
HETATM   16  C31 UNL     1       0.598  53.513 -20.698  1.00  0.00     0.020 C 
HETATM   17  C32 UNL     1       0.458  52.090 -21.305  1.00  0.00    -0.016 C 
HETATM   18  C33 UNL     1       1.849  51.560 -21.723  1.00  0.00     0.020 C 
HETATM   19  C34 UNL     1      -0.527  52.188 -22.542  1.00  0.00     0.002 C 
HETATM   20  C35 UNL     1       0.075  52.953 -23.742  1.00  0.00     0.007 C 
HETATM   21  C36 UNL     1      -0.902  53.074 -24.911  1.00  0.00     0.014 C 
HETATM   22  C37 UNL     1      -1.451  51.708 -25.409  1.00  0.00     0.003 C 
HETATM   23  C38 UNL     1      -0.323  50.965 -26.152  1.00  0.00     0.020 C 
ENDROOT
BRANCH   3  24
HETATM   24  O1  UNL     1      -2.579  52.969 -27.199  1.00  0.00    -0.377 OA
HETATM   25  H2  UNL     1      -2.781  53.803 -26.741  1.00  0.00     0.211 HD
ENDBRANCH   3  24
BRANCH  13  26
HETATM   26  O2  UNL     1       0.493  51.838 -16.256  1.00  0.00    -0.271 OA
BRANCH  26  27
HETATM   27  C13 UNL     1       1.003  52.112 -14.953  1.00  0.00     0.303 C 
BRANCH  27  28
HETATM   28  C14 UNL     1      -0.082  52.072 -13.880  1.00  0.00     0.244 C 
HETATM   29  O3  UNL     1      -1.078  51.356 -13.987  1.00  0.00    -0.271 OA
HETATM   30  N2  UNL     1       0.152  52.860 -12.771  1.00  0.00    -0.346 N 
HETATM   31  H16 UNL     1       1.125  53.142 -12.655  1.00  0.00     0.163 HD
BRANCH  30  32
HETATM   32  C15 UNL     1      -0.602  52.623 -11.547  1.00  0.00     0.180 C 
BRANCH  32  33
HETATM   33  C16 UNL     1       0.408  52.242 -10.443  1.00  0.00     0.241 C 
HETATM   34  O4  UNL     1       0.049  51.895  -9.316  1.00  0.00    -0.271 OA
HETATM   35  N3  UNL     1       1.733  52.291 -10.837  1.00  0.00    -0.354 N 
HETATM   36  H18 UNL     1       1.948  52.738 -11.722  1.00  0.00     0.162 HD
BRANCH  35  37
HETATM   37  C17 UNL     1       2.839  52.062  -9.896  1.00  0.00     0.098 C 
BRANCH  37  38
HETATM   38  C18 UNL     1       3.167  50.563  -9.935  1.00  0.00     0.135 C 
BRANCH  38  39
HETATM   39  C19 UNL     1       3.855  50.154 -11.208  1.00  0.00     0.141 C 
HETATM   40  O5  UNL     1       4.868  49.484 -11.318  1.00  0.00    -0.650 OA
BRANCH  39  41
HETATM   41  O6  UNL     1       3.181  50.566 -12.306  1.00  0.00    -0.776 OA
HETATM   42  H22 UNL     1       3.703  50.201 -13.054  1.00  0.00     0.167 HD
ENDBRANCH  39  41
ENDBRANCH  38  39
ENDBRANCH  37  38
BRANCH  37  43
HETATM   43  C20 UNL     1       4.055  52.960 -10.296  1.00  0.00     0.014 C 
HETATM   44  C21 UNL     1       4.975  53.308  -9.112  1.00  0.00     0.033 C 
HETATM   45  C22 UNL     1       5.769  54.576  -9.397  1.00  0.00     0.169 C 
HETATM   46  O7  UNL     1       4.933  55.723  -9.520  1.00  0.00    -0.381 OA
HETATM   47  C23 UNL     1       3.711  55.542 -10.247  1.00  0.00     0.054 C 
HETATM   48  C24 UNL     1       2.550  55.605  -9.247  1.00  0.00     0.045 C 
HETATM   49  C25 UNL     1       3.588  56.747 -11.194  1.00  0.00     0.045 C 
HETATM   50  C26 UNL     1       3.679  54.243 -11.074  1.00  0.00     0.044 C 
ENDBRANCH  37  43
ENDBRANCH  35  37
ENDBRANCH  32  33
BRANCH  32  51
HETATM   51  C27 UNL     1      -1.479  53.817 -11.116  1.00  0.00     0.009 C 
HETATM   52  C28 UNL     1      -0.687  54.766 -10.208  1.00  0.00     0.012 C 
HETATM   53  C29 UNL     1      -2.783  53.412 -10.423  1.00  0.00     0.012 C 
ENDBRANCH  32  51
ENDBRANCH  30  32
ENDBRANCH  27  28
ENDBRANCH  26  27
ENDBRANCH  13  26
TORSDOF 12
ENDMDL
