MODEL 1
REMARK minimizedAffinity -9.37323189
REMARK CNNscore 0.320279032
REMARK CNNaffinity 6.86923218
REMARK  12 active torsions:
REMARK  status: ('A' for Active; 'I' for Inactive)
REMARK    1  A    between atoms: C3_3  and  O1_4 
REMARK    2  A    between atoms: N1_14  and  O2_16 
REMARK    3  A    between atoms: O2_16  and  C13_17 
REMARK    4  A    between atoms: C13_17  and  C14_18 
REMARK       I    between atoms: C14_18  and  N2_20 
REMARK    5  A    between atoms: N2_20  and  C15_21 
REMARK    6  A    between atoms: C15_21  and  C16_22 
REMARK    7  A    between atoms: C15_21  and  C27_38 
REMARK       I    between atoms: C16_22  and  N3_24 
REMARK    8  A    between atoms: N3_24  and  C17_25 
REMARK    9  A    between atoms: C17_25  and  C18_26 
REMARK   10  A    between atoms: C17_25  and  C20_30 
REMARK   11  A    between atoms: C18_26  and  C19_27 
REMARK   12  A    between atoms: C19_27  and  O6_29 
ROOT
HETATM    1  C1  UNL     1      -7.276   8.235  15.557  1.00  0.00     0.015 C 
HETATM    2  C2  UNL     1      -6.379   7.526  15.187  1.00  0.00    -0.078 C 
HETATM    3  C3  UNL     1      -5.284   6.645  14.752  1.00  0.00     0.128 C 
HETATM    4  C4  UNL     1      -5.791   5.466  13.919  1.00  0.00     0.052 C 
HETATM    5  C5  UNL     1      -4.502   4.903  13.330  1.00  0.00     0.010 C 
HETATM    6  C6  UNL     1      -3.725   6.153  12.898  1.00  0.00     0.002 C 
HETATM    7  C7  UNL     1      -2.196   5.987  12.729  1.00  0.00    -0.004 C 
HETATM    8  C8  UNL     1      -1.469   5.124  13.783  1.00  0.00     0.010 C 
HETATM    9  C9  UNL     1       0.047   5.047  13.547  1.00  0.00     0.035 C 
HETATM   10  C10 UNL     1       0.648   6.418  13.343  1.00  0.00    -0.069 C 
HETATM   11  C11 UNL     1       1.619   6.859  14.159  1.00  0.00     0.030 C 
HETATM   12  C12 UNL     1       2.106   8.259  14.129  1.00  0.00     0.032 C 
HETATM   13  N1  UNL     1       3.111   8.560  14.902  1.00  0.00    -0.271 N 
ATOM     14  H1  UNL     1       3.587   7.894  15.509  1.00  0.00     0.194 HD
HETATM   15  C30 UNL     1       1.340   9.263  13.293  1.00  0.00     0.060 C 
HETATM   16  C31 UNL     1       0.710   8.637  12.058  1.00  0.00     0.020 C 
HETATM   17  C32 UNL     1       0.014   7.256  12.239  1.00  0.00    -0.016 C 
HETATM   18  C33 UNL     1       0.198   6.547  10.865  1.00  0.00     0.020 C 
HETATM   19  C34 UNL     1      -1.522   7.381  12.564  1.00  0.00     0.002 C 
HETATM   20  C35 UNL     1      -1.822   8.303  13.772  1.00  0.00     0.007 C 
HETATM   21  C36 UNL     1      -3.047   7.941  14.614  1.00  0.00     0.014 C 
HETATM   22  C37 UNL     1      -4.209   7.319  13.825  1.00  0.00     0.003 C 
HETATM   23  C38 UNL     1      -4.834   8.420  12.924  1.00  0.00     0.020 C 
ENDROOT
BRANCH   3  24
HETATM   24  O1  UNL     1      -4.669   6.096  15.923  1.00  0.00    -0.377 OA
HETATM   25  H2  UNL     1      -5.388   5.803  16.507  1.00  0.00     0.211 HD
ENDBRANCH   3  24
BRANCH  13  26
HETATM   26  O2  UNL     1       3.454   9.915  14.793  1.00  0.00    -0.271 OA
BRANCH  26  27
HETATM   27  C13 UNL     1       4.855  10.065  14.961  1.00  0.00     0.303 C 
BRANCH  27  28
HETATM   28  C14 UNL     1       5.188  11.263  15.849  1.00  0.00     0.244 C 
HETATM   29  O3  UNL     1       4.423  12.196  16.074  1.00  0.00    -0.271 OA
HETATM   30  N2  UNL     1       6.472  11.213  16.373  1.00  0.00    -0.346 N 
HETATM   31  H16 UNL     1       6.843  10.280  16.513  1.00  0.00     0.163 HD
BRANCH  30  32
HETATM   32  C15 UNL     1       6.884  12.201  17.364  1.00  0.00     0.180 C 
BRANCH  32  33
HETATM   33  C16 UNL     1       6.887  11.531  18.756  1.00  0.00     0.241 C 
HETATM   34  O4  UNL     1       7.216  10.356  18.925  1.00  0.00    -0.271 OA
HETATM   35  N3  UNL     1       6.546  12.378  19.793  1.00  0.00    -0.354 N 
HETATM   36  H18 UNL     1       6.197  13.298  19.556  1.00  0.00     0.162 HD
BRANCH  35  37
HETATM   37  C17 UNL     1       6.431  11.908  21.178  1.00  0.00     0.098 C 
BRANCH  37  38
HETATM   38  C18 UNL     1       7.220  12.843  22.113  1.00  0.00     0.135 C 
BRANCH  38  39
HETATM   39  C19 UNL     1       8.631  12.375  22.340  1.00  0.00     0.141 C 
HETATM   40  O5  UNL     1       9.316  11.683  21.608  1.00  0.00    -0.650 OA
BRANCH  39  41
HETATM   41  O6  UNL     1       9.127  12.832  23.508  1.00  0.00    -0.776 OA
HETATM   42  H22 UNL     1      10.051  12.501  23.522  1.00  0.00     0.167 HD
ENDBRANCH  39  41
ENDBRANCH  38  39
ENDBRANCH  37  38
BRANCH  37  43
HETATM   43  C20 UNL     1       4.939  11.724  21.589  1.00  0.00     0.014 C 
HETATM   44  C21 UNL     1       4.590  12.577  22.822  1.00  0.00     0.033 C 
HETATM   45  C22 UNL     1       3.141  12.376  23.236  1.00  0.00     0.169 C 
HETATM   46  O7  UNL     1       2.860  10.998  23.472  1.00  0.00    -0.381 OA
HETATM   47  C23 UNL     1       3.077  10.131  22.353  1.00  0.00     0.054 C 
HETATM   48  C24 UNL     1       2.045  10.391  21.245  1.00  0.00     0.045 C 
HETATM   49  C25 UNL     1       2.861   8.704  22.881  1.00  0.00     0.045 C 
HETATM   50  C26 UNL     1       4.526  10.262  21.843  1.00  0.00     0.044 C 
ENDBRANCH  37  43
ENDBRANCH  35  37
ENDBRANCH  32  33
BRANCH  32  51
HETATM   51  C27 UNL     1       8.258  12.832  17.046  1.00  0.00     0.009 C 
HETATM   52  C28 UNL     1       8.971  12.049  15.938  1.00  0.00     0.012 C 
HETATM   53  C29 UNL     1       9.173  12.950  18.272  1.00  0.00     0.012 C 
ENDBRANCH  32  51
ENDBRANCH  30  32
ENDBRANCH  27  28
ENDBRANCH  26  27
ENDBRANCH  13  26
TORSDOF 12
ENDMDL
