MODEL 1
REMARK minimizedAffinity -10.2609396
REMARK  6 active torsions:
REMARK  status: ('A' for Active; 'I' for Inactive)
REMARK    1  A    between atoms: C2_2  and  C3_3 
REMARK    2  A    between atoms: C2_2  and  C4_5 
REMARK    3  A    between atoms: C3_3  and  O1_4 
REMARK    4  A    between atoms: C4_5  and  C6_7 
REMARK    5  A    between atoms: C7_8  and  C8_9 
REMARK    6  A    between atoms: C8_9  and  C10_11 
ROOT
HETATM    1  C10 UNL     1      -0.427  51.612 -25.671  1.00  0.00     0.002 C 
HETATM    2  C11 UNL     1       0.372  52.933 -25.823  1.00  0.00     0.007 C 
HETATM    3  C12 UNL     1       0.789  53.357 -24.405  1.00  0.00     0.010 C 
HETATM    4  C13 UNL     1       0.397  52.171 -23.522  1.00  0.00     0.023 C 
HETATM    5  C14 UNL     1       0.305  52.315 -22.023  1.00  0.00    -0.070 C 
HETATM    6  C15 UNL     1       0.775  53.376 -21.350  1.00  0.00     0.004 C 
HETATM    7  C16 UNL     1       0.895  53.378 -19.916  1.00  0.00     0.004 C 
HETATM    8  C17 UNL     1       0.322  52.444 -19.139  1.00  0.00    -0.071 C 
HETATM    9  C18 UNL     1       0.444  52.517 -17.634  1.00  0.00     0.035 C 
HETATM   10  C19 UNL     1       0.745  51.159 -17.010  1.00  0.00     0.004 C 
HETATM   11  C20 UNL     1      -0.262  50.108 -17.462  1.00  0.00     0.001 C 
HETATM   12  C21 UNL     1      -0.264  49.982 -18.985  1.00  0.00     0.014 C 
HETATM   13  C22 UNL     1      -0.533  51.318 -19.740  1.00  0.00    -0.013 C 
HETATM   14  C23 UNL     1      -2.009  51.741 -19.529  1.00  0.00     0.021 C 
HETATM   15  C24 UNL     1      -0.200  51.073 -21.282  1.00  0.00     0.027 C 
HETATM   16  C25 UNL     1      -1.347  50.340 -22.036  1.00  0.00     0.011 C 
HETATM   17  C26 UNL     1      -1.168  50.252 -23.560  1.00  0.00     0.011 C 
HETATM   18  C27 UNL     1      -0.897  51.634 -24.183  1.00  0.00    -0.032 C 
HETATM   19  C28 UNL     1      -2.103  52.572 -23.953  1.00  0.00     0.016 C 
ENDROOT
BRANCH   1  20
HETATM   20  C8  UNL     1      -1.405  51.322 -26.846  1.00  0.00     0.008 C 
HETATM   21  C9  UNL     1      -2.322  52.471 -27.282  1.00  0.00     0.014 C 
BRANCH  20  22
HETATM   22  C7  UNL     1      -2.120  49.996 -26.646  1.00  0.00    -0.026 C 
HETATM   23  C6  UNL     1      -3.444  49.790 -26.526  1.00  0.00    -0.026 C 
BRANCH  23  24
HETATM   24  C4  UNL     1      -4.152  48.457 -26.329  1.00  0.00     0.009 C 
HETATM   25  C5  UNL     1      -5.064  48.084 -27.508  1.00  0.00     0.014 C 
BRANCH  24  26
HETATM   26  C2  UNL     1      -4.911  48.422 -24.966  1.00  0.00     0.012 C 
HETATM   27  C1  UNL     1      -6.384  48.014 -25.144  1.00  0.00     0.012 C 
BRANCH  26  28
HETATM   28  C3  UNL     1      -4.842  49.757 -24.201  1.00  0.00     0.168 C 
BRANCH  28  29
HETATM   29  O1  UNL     1      -6.045  50.502 -24.330  1.00  0.00    -0.400 OA
HETATM   30  H7  UNL     1      -6.742  50.026 -23.848  1.00  0.00     0.209 HD
ENDBRANCH  28  29
ENDBRANCH  26  28
ENDBRANCH  24  26
ENDBRANCH  23  24
ENDBRANCH  20  22
ENDBRANCH   1  20
TORSDOF 6
ENDMDL
