MODEL 1
REMARK minimizedAffinity -9.25999928
REMARK CNNscore 0.50620842
REMARK CNNaffinity 6.51424408
REMARK  5 active torsions:
REMARK  status: ('A' for Active; 'I' for Inactive)
REMARK    1  A    between atoms: C4_4  and  O1_5 
REMARK    2  A    between atoms: C5_6  and  O2_7 
REMARK    3  A    between atoms: C8_11  and  C9_12 
REMARK    4  A    between atoms: C19_23  and  C20_24 
REMARK    5  A    between atoms: C26_32  and  O7_33 
ROOT
HETATM    1  C1  UNL     1      -5.145  14.105  20.477  1.00  0.00     0.040 C 
HETATM    2  C2  UNL     1      -3.966  13.589  19.662  1.00  0.00     0.123 C 
HETATM    3  C3  UNL     1      -3.263  14.733  18.924  1.00  0.00     0.069 C 
HETATM    4  C4  UNL     1      -2.591  14.261  17.636  1.00  0.00     0.188 C 
HETATM    5  C5  UNL     1      -2.151  12.790  17.729  1.00  0.00     0.240 C 
HETATM    6  O3  UNL     1      -1.450  12.440  16.526  1.00  0.00    -0.341 OA
HETATM    7  C6  UNL     1      -1.661  11.062  16.216  1.00  0.00     0.156 C 
HETATM    8  C7  UNL     1      -0.776  10.686  15.024  1.00  0.00     0.056 C 
HETATM    9  C8  UNL     1      -1.001   9.232  14.527  1.00  0.00     0.043 C 
HETATM   10  C10 UNL     1      -2.502   8.969  14.376  1.00  0.00    -0.065 C 
HETATM   11  C11 UNL     1      -3.017   8.343  13.304  1.00  0.00    -0.022 C 
HETATM   12  C12 UNL     1      -2.208   7.799  12.168  1.00  0.00     0.035 C 
HETATM   13  C13 UNL     1      -0.687   7.741  12.433  1.00  0.00     0.030 C 
HETATM   14  C14 UNL     1      -0.228   9.027  13.167  1.00  0.00     0.012 C 
HETATM   15  C15 UNL     1       1.302   9.069  13.330  1.00  0.00     0.007 C 
HETATM   16  C16 UNL     1       2.032   8.860  12.009  1.00  0.00     0.013 C 
HETATM   17  C17 UNL     1       1.656   7.532  11.297  1.00  0.00    -0.005 C 
HETATM   18  C18 UNL     1       2.241   6.354  12.102  1.00  0.00     0.019 C 
HETATM   19  C19 UNL     1       2.186   7.613   9.817  1.00  0.00     0.028 C 
HETATM   20  C24 UNL     1       0.990   8.134   8.983  1.00  0.00     0.013 C 
HETATM   21  C25 UNL     1      -0.166   8.372   9.954  1.00  0.00     0.040 C 
HETATM   22  C26 UNL     1       0.111   7.430  11.134  1.00  0.00     0.070 C 
HETATM   23  C27 UNL     1      -3.410   9.429  15.497  1.00  0.00     0.069 C 
HETATM   24  C28 UNL     1      -3.140  10.884  15.873  1.00  0.00     0.158 C 
HETATM   25  O8  UNL     1      -4.029  11.291  16.915  1.00  0.00    -0.347 OA
HETATM   26  C29 UNL     1      -3.413  11.898  18.058  1.00  0.00     0.325 C 
HETATM   27  O9  UNL     1      -4.454  12.631  18.728  1.00  0.00    -0.351 OA
ENDROOT
BRANCH  19  28
HETATM   28  C20 UNL     1       2.817   6.376   9.234  1.00  0.00    -0.045 A 
HETATM   29  C21 UNL     1       3.545   5.434   9.835  1.00  0.00     0.087 A 
HETATM   30  C22 UNL     1       3.892   4.441   8.822  1.00  0.00     0.283 A 
HETATM   31  O5  UNL     1       4.541   3.433   9.025  1.00  0.00    -0.260 OA
HETATM   32  O6  UNL     1       3.356   4.815   7.628  1.00  0.00    -0.314 OA
HETATM   33  C23 UNL     1       2.651   6.043   7.800  1.00  0.00     0.213 A 
ENDBRANCH  19  28
BRANCH  22  34
HETATM   34  O7  UNL     1      -0.215   6.100  10.706  1.00  0.00    -0.389 OA
HETATM   35  H34 UNL     1      -1.157   6.063  10.471  1.00  0.00     0.210 HD
ENDBRANCH  22  34
BRANCH   9  36
HETATM   36  C9  UNL     1      -0.441   8.267  15.592  1.00  0.00     0.245 C 
HETATM   37  O4  UNL     1       0.304   8.581  16.515  1.00  0.00    -0.306 OA
ENDBRANCH   9  36
BRANCH   5  38
HETATM   38  O2  UNL     1      -1.184  12.675  18.786  1.00  0.00    -0.360 OA
HETATM   39  H9  UNL     1      -0.672  13.505  18.740  1.00  0.00     0.213 HD
ENDBRANCH   5  38
BRANCH   4  40
HETATM   40  O1  UNL     1      -1.438  15.090  17.398  1.00  0.00    -0.390 OA
HETATM   41  H8  UNL     1      -1.020  14.730  16.591  1.00  0.00     0.210 HD
ENDBRANCH   4  40
TORSDOF 5
ENDMDL
