MODEL 1
REMARK minimizedAffinity -7.413486
REMARK CNNscore 0.682424545
REMARK CNNaffinity 6.93983078
REMARK  7 active torsions:
REMARK  status: ('A' for Active; 'I' for Inactive)
REMARK    1  A    between atoms: C4_4  and  C5_5 
REMARK    2  A    between atoms: C5_5  and  O1_6 
REMARK    3  A    between atoms: C5_5  and  C6_7 
REMARK    4  A    between atoms: C6_7  and  C7_8 
REMARK    5  A    between atoms: C7_8  and  C8_9 
REMARK    6  A    between atoms: C7_8  and  C9_11 
REMARK    7  A    between atoms: C8_9  and  O2_10 
ROOT
HETATM    1  C9  UNL     1       1.555  55.642  -9.619  1.00  0.00     0.001 C 
HETATM    2  C10 UNL     1       0.977  55.899  -8.193  1.00  0.00     0.007 C 
HETATM    3  C11 UNL     1      -0.223  54.960  -7.995  1.00  0.00     0.015 C 
HETATM    4  C12 UNL     1      -0.520  54.397  -9.398  1.00  0.00    -0.013 C 
HETATM    5  C13 UNL     1      -1.419  55.456 -10.104  1.00  0.00     0.021 C 
HETATM    6  C14 UNL     1      -1.240  53.063  -9.483  1.00  0.00    -0.070 C 
HETATM    7  C15 UNL     1      -1.930  52.511  -8.473  1.00  0.00    -0.022 C 
HETATM    8  C16 UNL     1      -2.507  51.139  -8.596  1.00  0.00     0.034 C 
HETATM    9  C17 UNL     1      -3.174  50.870  -9.967  1.00  0.00     0.013 C 
HETATM   10  C18 UNL     1      -3.538  49.357 -10.158  1.00  0.00     0.018 C 
HETATM   11  C19 UNL     1      -4.631  48.950  -9.135  1.00  0.00     0.023 C 
HETATM   12  C20 UNL     1      -2.359  48.386  -9.964  1.00  0.00     0.023 C 
HETATM   13  C21 UNL     1      -4.117  49.167 -11.564  1.00  0.00     0.135 C 
HETATM   14  O3  UNL     1      -5.172  48.557 -11.766  1.00  0.00    -0.297 OA
HETATM   15  C22 UNL     1      -3.348  49.712 -12.742  1.00  0.00     0.080 C 
HETATM   16  C23 UNL     1      -2.163  50.579 -12.353  1.00  0.00     0.017 C 
HETATM   17  C24 UNL     1      -2.445  51.574 -11.198  1.00  0.00    -0.031 C 
HETATM   18  C25 UNL     1      -3.431  52.652 -11.744  1.00  0.00     0.016 C 
HETATM   19  C26 UNL     1      -1.079  52.251 -10.763  1.00  0.00     0.024 C 
HETATM   20  C27 UNL     1      -0.356  53.026 -11.898  1.00  0.00     0.010 C 
HETATM   21  C28 UNL     1       0.844  53.907 -11.488  1.00  0.00     0.011 C 
HETATM   22  C29 UNL     1       0.932  54.250  -9.986  1.00  0.00    -0.029 C 
HETATM   23  C30 UNL     1       1.772  53.131  -9.292  1.00  0.00     0.016 C 
ENDROOT
BRANCH   1  24
HETATM   24  C7  UNL     1       3.107  55.862  -9.665  1.00  0.00     0.017 C 
BRANCH  24  25
HETATM   25  C6  UNL     1       3.538  56.747  -8.450  1.00  0.00     0.043 C 
BRANCH  25  26
HETATM   26  C5  UNL     1       4.514  56.192  -7.396  1.00  0.00     0.141 C 
BRANCH  26  27
HETATM   27  C4  UNL     1       5.182  57.245  -6.550  1.00  0.00     0.006 C 
HETATM   28  C2  UNL     1       6.433  57.206  -6.045  1.00  0.00    -0.089 C 
HETATM   29  C1  UNL     1       7.397  56.067  -6.229  1.00  0.00     0.042 C 
HETATM   30  C3  UNL     1       6.972  58.351  -5.230  1.00  0.00     0.042 C 
ENDBRANCH  26  27
BRANCH  26  31
HETATM   31  O1  UNL     1       5.504  55.365  -7.991  1.00  0.00    -0.392 OA
HETATM   32  H9  UNL     1       6.029  55.948  -8.580  1.00  0.00     0.210 HD
ENDBRANCH  26  31
ENDBRANCH  25  26
ENDBRANCH  24  25
BRANCH  24  33
HETATM   33  C8  UNL     1       3.567  56.458 -11.002  1.00  0.00     0.169 C 
BRANCH  33  34
HETATM   34  O2  UNL     1       4.077  55.429 -11.847  1.00  0.00    -0.400 OA
HETATM   35  H15 UNL     1       4.213  55.830 -12.725  1.00  0.00     0.209 HD
ENDBRANCH  33  34
ENDBRANCH  24  33
ENDBRANCH   1  24
TORSDOF 7
ENDMDL
