MODEL 1
REMARK minimizedAffinity -7.15360117
REMARK CNNscore 0.309492916
REMARK CNNaffinity 6.72096014
REMARK  9 active torsions:
REMARK  status: ('A' for Active; 'I' for Inactive)
REMARK    1  A    between atoms: O1_2  and  C2_3 
REMARK    2  A    between atoms: C2_3  and  C3_4 
REMARK    3  A    between atoms: C3_4  and  C4_5 
REMARK    4  A    between atoms: C4_5  and  O2_6 
REMARK    5  A    between atoms: O2_6  and  C5_7 
REMARK    6  A    between atoms: C15_18  and  O4_19 
REMARK    7  A    between atoms: C21_25  and  O5_27 
REMARK    8  A    between atoms: C23_28  and  O6_29 
REMARK    9  A    between atoms: C29_37  and  O8_38 
ROOT
HETATM    1  C5  UNL     1     -18.672  -8.004   6.488  1.00  0.00     0.122 C 
HETATM    2  C6  UNL     1     -18.414  -9.090   7.549  1.00  0.00     0.033 C 
HETATM    3  C7  UNL     1     -17.948  -8.524   8.890  1.00  0.00     0.014 C 
HETATM    4  C8  UNL     1     -16.625  -7.679   8.776  1.00  0.00    -0.010 C 
HETATM    5  C9  UNL     1     -15.466  -8.717   8.738  1.00  0.00     0.018 C 
HETATM    6  C10 UNL     1     -16.546  -6.990   7.370  1.00  0.00     0.073 C 
HETATM    7  C11 UNL     1     -17.927  -6.692   6.780  1.00  0.00     0.045 C 
HETATM    8  C12 UNL     1     -15.596  -5.806   7.249  1.00  0.00     0.161 C 
HETATM    9  O3  UNL     1     -15.271  -5.381   6.137  1.00  0.00    -0.292 OA
HETATM   10  C13 UNL     1     -15.054  -5.132   8.463  1.00  0.00    -0.005 C 
HETATM   11  C14 UNL     1     -15.486  -5.500   9.686  1.00  0.00    -0.013 C 
HETATM   12  C15 UNL     1     -15.153  -4.589  10.837  1.00  0.00     0.095 C 
HETATM   13  C16 UNL     1     -13.920  -3.704  10.685  1.00  0.00     0.026 C 
HETATM   14  C17 UNL     1     -13.989  -2.930   9.380  1.00  0.00     0.013 C 
HETATM   15  C18 UNL     1     -14.153  -3.925   8.206  1.00  0.00     0.043 C 
HETATM   16  C19 UNL     1     -13.896  -2.928  12.025  1.00  0.00     0.016 C 
HETATM   17  C20 UNL     1     -14.812  -3.751  13.021  1.00  0.00     0.034 C 
HETATM   18  C21 UNL     1     -14.567  -3.510  14.548  1.00  0.00     0.087 C 
HETATM   19  C22 UNL     1     -13.058  -3.465  14.899  1.00  0.00     0.049 C 
HETATM   20  C23 UNL     1     -15.207  -2.134  15.051  1.00  0.00     0.181 C 
HETATM   21  C24 UNL     1     -16.751  -1.900  15.252  1.00  0.00     0.158 C 
HETATM   22  O7  UNL     1     -16.916  -0.421  15.322  1.00  0.00    -0.373 OA
HETATM   23  C25 UNL     1     -17.312   0.048  13.985  1.00  0.00     0.185 C 
HETATM   24  C26 UNL     1     -17.363  -1.212  13.122  1.00  0.00     0.028 C 
HETATM   25  C27 UNL     1     -18.193  -1.018  11.870  1.00  0.00     0.053 C 
HETATM   26  C28 UNL     1     -19.632  -0.597  12.148  1.00  0.00     0.309 C 
HETATM   27  N1  UNL     1     -19.824  -0.024  13.503  1.00  0.00     0.128 N 
HETATM   28  C29 UNL     1     -18.699   0.787  13.963  1.00  0.00     0.384 C 
HETATM   29  C30 UNL     1     -20.562  -1.808  11.860  1.00  0.00     0.233 C 
HETATM   30  O9  UNL     1     -21.241  -2.389  12.700  1.00  0.00    -0.277 OA
HETATM   31  N2  UNL     1     -20.550  -2.120  10.487  1.00  0.00    -0.243 NA
HETATM   32  C31 UNL     1     -21.682  -2.757   9.888  1.00  0.00     0.120 A 
HETATM   33  C32 UNL     1     -20.344  -3.431   9.921  1.00  0.00     0.090 A 
HETATM   34  C33 UNL     1     -20.202  -4.710  10.688  1.00  0.00     0.115 C 
HETATM   35  C34 UNL     1     -18.914  -5.316  10.282  1.00  0.00    -0.104 C 
HETATM   36  C35 UNL     1     -17.863  -5.873  10.071  1.00  0.00    -0.090 C 
HETATM   37  C36 UNL     1     -16.523  -6.596   9.979  1.00  0.00     0.062 C 
HETATM   38  C37 UNL     1     -16.242  -7.182  11.453  1.00  0.00     0.012 C 
HETATM   39  C38 UNL     1     -14.940  -8.004  11.597  1.00  0.00     0.007 C 
HETATM   40  C39 UNL     1     -14.024  -7.538  12.712  1.00  0.00     0.001 C 
HETATM   41  C40 UNL     1     -13.712  -6.056  12.519  1.00  0.00     0.013 C 
HETATM   42  C41 UNL     1     -14.970  -5.158  12.295  1.00  0.00     0.002 C 
HETATM   43  C42 UNL     1     -16.216  -6.034  12.531  1.00  0.00     0.020 C 
HETATM   44  C43 UNL     1     -17.791  -2.209  14.195  1.00  0.00     0.020 C 
HETATM   45  C44 UNL     1     -18.088  -3.645  13.882  1.00  0.00     0.013 C 
HETATM   46  H42 UNL     1     -20.683   0.519  13.518  1.00  0.00     0.320 HD
ENDROOT
BRANCH   1  47
HETATM   47  O2  UNL     1     -18.195  -8.495   5.228  1.00  0.00    -0.386 OA
BRANCH  47  48
HETATM   48  C4  UNL     1     -19.213  -8.934   4.339  1.00  0.00     0.170 C 
BRANCH  48  49
HETATM   49  C3  UNL     1     -20.449  -8.034   4.360  1.00  0.00     0.052 C 
BRANCH  49  50
HETATM   50  C2  UNL     1     -20.946  -7.685   2.960  1.00  0.00     0.169 C 
BRANCH  50  51
HETATM   51  O1  UNL     1     -22.058  -6.797   3.063  1.00  0.00    -0.396 OA
HETATM   52  C1  UNL     1     -22.968  -6.962   1.983  1.00  0.00     0.201 C 
ENDBRANCH  50  51
ENDBRANCH  49  50
ENDBRANCH  48  49
ENDBRANCH  47  48
ENDBRANCH   1  47
BRANCH  12  53
HETATM   53  O4  UNL     1     -16.283  -3.666  10.846  1.00  0.00    -0.384 OA
HETATM   54  H21 UNL     1     -16.590  -3.525   9.937  1.00  0.00     0.211 HD
ENDBRANCH  12  53
BRANCH  18  55
HETATM   55  O5  UNL     1     -15.137  -4.585  15.296  1.00  0.00    -0.387 OA
HETATM   56  H33 UNL     1     -15.034  -4.338  16.235  1.00  0.00     0.210 HD
ENDBRANCH  18  55
BRANCH  20  57
HETATM   57  O6  UNL     1     -14.652  -1.856  16.369  1.00  0.00    -0.390 OA
HETATM   58  H35 UNL     1     -15.036  -0.993  16.633  1.00  0.00     0.210 HD
ENDBRANCH  20  57
BRANCH  28  59
HETATM   59  O8  UNL     1     -18.611   1.916  13.108  1.00  0.00    -0.366 OA
HETATM   60  H44 UNL     1     -18.878   2.685  13.638  1.00  0.00     0.212 HD
ENDBRANCH  28  59
TORSDOF 9
ENDMDL
