MODEL 1
REMARK minimizedAffinity -9.6651001
REMARK  7 active torsions:
REMARK  status: ('A' for Active; 'I' for Inactive)
REMARK    1  A    between atoms: C2_2  and  C30_33 
REMARK    2  A    between atoms: C3_3  and  C4_4 
REMARK    3  A    between atoms: C4_4  and  C5_5 
REMARK    4  A    between atoms: C5_5  and  C6_6 
REMARK    5  A    between atoms: C6_6  and  C8_8 
REMARK    6  A    between atoms: C15_15  and  O1_16 
REMARK    7  A    between atoms: C30_33  and  O5_35 
ROOT
HETATM    1  C8  UNL     1      -2.134   5.959  13.393  1.00  0.00    -0.002 C 
HETATM    2  C9  UNL     1      -2.279   5.349  11.981  1.00  0.00     0.007 C 
HETATM    3  C10 UNL     1      -0.890   5.461  11.307  1.00  0.00     0.015 C 
HETATM    4  C11 UNL     1       0.095   5.781  12.454  1.00  0.00    -0.005 C 
HETATM    5  C12 UNL     1       0.457   4.425  13.136  1.00  0.00     0.021 C 
HETATM    6  C13 UNL     1       1.446   6.437  12.188  1.00  0.00     0.002 C 
HETATM    7  C14 UNL     1       2.021   7.268  13.106  1.00  0.00    -0.032 C 
HETATM    8  C15 UNL     1       1.320   7.580  14.430  1.00  0.00     0.149 C 
HETATM    9  C16 UNL     1      -0.107   7.020  14.637  1.00  0.00     0.047 C 
HETATM   10  C17 UNL     1      -0.808   6.765  13.303  1.00  0.00    -0.026 C 
HETATM   11  C18 UNL     1      -1.029   8.132  12.591  1.00  0.00     0.016 C 
HETATM   12  C19 UNL     1       3.343   8.017  12.777  1.00  0.00    -0.012 C 
HETATM   13  C20 UNL     1       2.912   9.230  11.908  1.00  0.00     0.021 C 
HETATM   14  C21 UNL     1       4.147   8.609  13.975  1.00  0.00     0.021 C 
HETATM   15  C22 UNL     1       5.214   7.668  14.510  1.00  0.00     0.080 C 
HETATM   16  C23 UNL     1       6.259   7.448  13.435  1.00  0.00     0.135 C 
HETATM   17  O2  UNL     1       7.456   7.416  13.725  1.00  0.00    -0.297 OA
HETATM   18  C24 UNL     1       5.764   7.254  11.988  1.00  0.00     0.018 C 
HETATM   19  C25 UNL     1       6.151   8.497  11.179  1.00  0.00     0.023 C 
HETATM   20  C26 UNL     1       6.525   6.043  11.405  1.00  0.00     0.023 C 
HETATM   21  C27 UNL     1       4.230   6.958  12.033  1.00  0.00     0.020 C 
HETATM   22  C28 UNL     1       3.587   6.580  10.699  1.00  0.00     0.090 C 
HETATM   23  C29 UNL     1       2.151   6.128  10.895  1.00  0.00     0.157 C 
HETATM   24  O3  UNL     1       1.582   5.515   9.993  1.00  0.00    -0.293 OA
ENDROOT
BRANCH   1  25
HETATM   25  C6  UNL     1      -3.403   6.545  14.071  1.00  0.00    -0.014 C 
HETATM   26  C7  UNL     1      -3.484   6.053  15.528  1.00  0.00     0.010 C 
BRANCH  25  27
HETATM   27  C5  UNL     1      -4.792   6.485  13.391  1.00  0.00     0.008 C 
BRANCH  27  28
HETATM   28  C4  UNL     1      -5.711   5.270  13.552  1.00  0.00     0.028 C 
BRANCH  28  29
HETATM   29  C3  UNL     1      -5.479   4.151  12.580  1.00  0.00    -0.013 C 
HETATM   30  C2  UNL     1      -6.314   3.129  12.303  1.00  0.00     0.008 C 
HETATM   31  C1  UNL     1      -7.638   2.879  12.959  1.00  0.00     0.055 C 
BRANCH  30  32
HETATM   32  C30 UNL     1      -5.857   2.160  11.273  1.00  0.00     0.171 C 
HETATM   33  O4  UNL     1      -5.943   0.946  11.323  1.00  0.00    -0.646 OA
BRANCH  32  34
HETATM   34  O5  UNL     1      -5.301   2.769  10.212  1.00  0.00    -0.773 OA
HETATM   35  H44 UNL     1      -5.049   2.023   9.630  1.00  0.00     0.167 HD
ENDBRANCH  32  34
ENDBRANCH  30  32
ENDBRANCH  28  29
ENDBRANCH  27  28
ENDBRANCH  25  27
ENDBRANCH   1  25
BRANCH   8  36
HETATM   36  O1  UNL     1       2.132   7.087  15.491  1.00  0.00    -0.391 OA
HETATM   37  H22 UNL     1       2.160   6.118  15.412  1.00  0.00     0.210 HD
ENDBRANCH   8  36
TORSDOF 7
ENDMDL
