MODEL 1
REMARK minimizedAffinity -6.41993952
REMARK CNNscore 0.511691153
REMARK CNNaffinity 6.67284155
REMARK  11 active torsions:
REMARK  status: ('A' for Active; 'I' for Inactive)
REMARK    1  A    between atoms: C2_2  and  C3_3 
REMARK    2  A    between atoms: C2_2  and  C4_5 
REMARK    3  A    between atoms: C3_3  and  O1_4 
REMARK    4  A    between atoms: C13_14  and  C14_15 
REMARK    5  A    between atoms: C14_15  and  C16_17 
REMARK    6  A    between atoms: C16_17  and  C17_18 
REMARK    7  A    between atoms: C17_18  and  C18_19 
REMARK    8  A    between atoms: C27_28  and  C28_29 
REMARK    9  A    between atoms: C28_29  and  C29_30 
REMARK   10  A    between atoms: C29_30  and  C30_31 
REMARK   11  A    between atoms: C30_31  and  O3_33 
ROOT
HETATM    1  C4  UNL     1       3.400  57.934  -6.084  1.00  0.00     0.025 C 
HETATM    2  C5  UNL     1       1.960  57.373  -6.233  1.00  0.00     0.010 C 
HETATM    3  C6  UNL     1       1.690  56.494  -7.458  1.00  0.00     0.007 C 
HETATM    4  C7  UNL     1       2.899  56.344  -8.377  1.00  0.00     0.004 C 
HETATM    5  C8  UNL     1       4.172  55.924  -7.610  1.00  0.00    -0.027 A 
HETATM    6  C9  UNL     1       5.246  55.303  -8.501  1.00  0.00     0.011 C 
HETATM    7  C10 UNL     1       4.759  54.107  -9.345  1.00  0.00     0.011 C 
HETATM    8  C11 UNL     1       3.231  54.028  -9.532  1.00  0.00    -0.032 C 
HETATM    9  C12 UNL     1       2.626  53.226  -8.342  1.00  0.00     0.016 C 
HETATM   10  C13 UNL     1       2.732  53.372 -10.867  1.00  0.00    -0.002 C 
HETATM   11  C22 UNL     1       1.305  53.980 -11.029  1.00  0.00     0.006 C 
HETATM   12  C23 UNL     1       1.207  55.197 -10.088  1.00  0.00     0.011 C 
HETATM   13  C24 UNL     1       2.659  55.486  -9.667  1.00  0.00    -0.032 C 
HETATM   14  C25 UNL     1       3.278  56.298 -10.863  1.00  0.00     0.016 C 
HETATM   15  C26 UNL     1       4.223  55.449  -6.163  1.00  0.00     0.022 A 
HETATM   16  C27 UNL     1       4.514  56.902  -6.441  1.00  0.00    -0.024 A 
ENDROOT
BRANCH  10  17
HETATM   17  C14 UNL     1       2.731  51.820 -11.032  1.00  0.00    -0.014 C 
HETATM   18  C15 UNL     1       4.150  51.242 -11.039  1.00  0.00     0.010 C 
BRANCH  17  19
HETATM   19  C16 UNL     1       1.988  51.426 -12.340  1.00  0.00     0.008 C 
BRANCH  19  20
HETATM   20  C17 UNL     1       2.905  51.251 -13.555  1.00  0.00     0.028 C 
BRANCH  20  21
HETATM   21  C18 UNL     1       2.227  51.706 -14.820  1.00  0.00    -0.025 C 
HETATM   22  C19 UNL     1       2.811  52.195 -15.932  1.00  0.00    -0.091 C 
HETATM   23  C20 UNL     1       1.982  52.589 -17.125  1.00  0.00     0.042 C 
HETATM   24  C21 UNL     1       4.288  52.418 -16.100  1.00  0.00     0.042 C 
ENDBRANCH  20  21
ENDBRANCH  19  20
ENDBRANCH  17  19
ENDBRANCH  10  17
BRANCH  16  25
HETATM   25  C28 UNL     1       5.948  57.457  -6.473  1.00  0.00     0.021 C 
BRANCH  25  26
HETATM   26  C29 UNL     1       6.902  57.140  -5.324  1.00  0.00     0.111 C 
BRANCH  26  27
HETATM   27  C30 UNL     1       7.431  58.342  -4.590  1.00  0.00     0.139 C 
HETATM   28  O2  UNL     1       8.264  59.150  -4.958  1.00  0.00    -0.650 OA
BRANCH  27  29
HETATM   29  O3  UNL     1       6.884  58.454  -3.362  1.00  0.00    -0.776 OA
HETATM   30  H48 UNL     1       7.321  59.244  -2.979  1.00  0.00     0.167 HD
ENDBRANCH  27  29
ENDBRANCH  26  27
ENDBRANCH  25  26
ENDBRANCH  16  25
BRANCH   1  31
HETATM   31  C2  UNL     1       3.498  58.591  -4.706  1.00  0.00    -0.061 C 
HETATM   32  C1  UNL     1       3.892  59.876  -4.596  1.00  0.00     0.017 C 
BRANCH  31  33
HETATM   33  C3  UNL     1       3.134  57.736  -3.513  1.00  0.00     0.198 C 
BRANCH  33  34
HETATM   34  O1  UNL     1       2.038  58.291  -2.792  1.00  0.00    -0.397 OA
HETATM   35  H5  UNL     1       1.932  57.739  -2.003  1.00  0.00     0.209 HD
ENDBRANCH  33  34
ENDBRANCH  31  33
ENDBRANCH   1  31
TORSDOF 11
ENDMDL
