MODEL 1
REMARK minimizedAffinity -7.51990128
REMARK CNNscore 0.648431778
REMARK CNNaffinity 6.02415037
REMARK  9 active torsions:
REMARK  status: ('A' for Active; 'I' for Inactive)
REMARK    1  A    between atoms: C3_4  and  O2_5 
REMARK    2  A    between atoms: O2_5  and  C4_6 
REMARK    3  A    between atoms: C11_13  and  O3_14 
REMARK    4  A    between atoms: C15_18  and  C16_19 
REMARK    5  A    between atoms: C23_28  and  O6_29 
REMARK    6  A    between atoms: C24_30  and  C25_31 
REMARK    7  A    between atoms: C28_35  and  O8_36 
REMARK    8  A    between atoms: C29_37  and  O9_38 
REMARK    9  A    between atoms: C30_39  and  O10_40 
ROOT
HETATM    1  C4  UNL     1      -1.293   7.809  13.870  1.00  0.00     0.148 C 
HETATM    2  C5  UNL     1      -1.358   9.283  13.603  1.00  0.00     0.009 C 
HETATM    3  C6  UNL     1      -1.388  10.241  14.553  1.00  0.00    -0.065 C 
HETATM    4  C7  UNL     1      -1.407  11.694  14.144  1.00  0.00     0.036 C 
HETATM    5  C8  UNL     1      -2.508  12.459  14.859  1.00  0.00     0.012 C 
HETATM    6  C9  UNL     1      -2.398  12.312  16.390  1.00  0.00     0.029 C 
HETATM    7  C10 UNL     1      -2.504  10.814  16.791  1.00  0.00     0.041 C 
HETATM    8  C11 UNL     1      -2.518  10.671  18.332  1.00  0.00     0.125 C 
HETATM    9  C12 UNL     1      -3.575  11.557  18.991  1.00  0.00     0.045 C 
HETATM   10  C13 UNL     1      -3.462  13.065  18.650  1.00  0.00    -0.003 C 
HETATM   11  C14 UNL     1      -2.233  13.637  19.380  1.00  0.00     0.019 C 
HETATM   12  C15 UNL     1      -4.822  13.751  19.064  1.00  0.00     0.032 C 
HETATM   13  C21 UNL     1      -5.680  13.781  17.775  1.00  0.00     0.013 C 
HETATM   14  C22 UNL     1      -4.870  13.067  16.690  1.00  0.00     0.040 C 
HETATM   15  C23 UNL     1      -3.405  13.246  17.111  1.00  0.00     0.070 C 
HETATM   16  C24 UNL     1      -1.411   9.929  16.060  1.00  0.00     0.043 C 
HETATM   17  C26 UNL     1      -1.671   8.411  16.290  1.00  0.00     0.025 C 
HETATM   18  C27 UNL     1      -0.903   7.519  15.316  1.00  0.00     0.037 C 
ENDROOT
BRANCH   1  19
HETATM   19  O2  UNL     1      -0.286   7.279  13.004  1.00  0.00    -0.349 OA
BRANCH  19  20
HETATM   20  C3  UNL     1       0.648   8.259  12.568  1.00  0.00     0.292 C 
HETATM   21  O1  UNL     1       0.400   8.697  11.226  1.00  0.00    -0.351 OA
HETATM   22  C2  UNL     1       0.525   7.648  10.251  1.00  0.00     0.152 C 
HETATM   23  C1  UNL     1       0.163   8.245   8.895  1.00  0.00     0.042 C 
HETATM   24  C30 UNL     1       1.941   7.057  10.246  1.00  0.00     0.178 C 
HETATM   25  C29 UNL     1       2.317   6.598  11.659  1.00  0.00     0.183 C 
HETATM   26  C28 UNL     1       2.086   7.715  12.679  1.00  0.00     0.204 C 
BRANCH  24  27
HETATM   27  O10 UNL     1       2.036   5.949   9.348  1.00  0.00    -0.390 OA
HETATM   28  H40 UNL     1       2.873   5.498   9.575  1.00  0.00     0.210 HD
ENDBRANCH  24  27
BRANCH  25  29
HETATM   29  O9  UNL     1       3.703   6.207  11.652  1.00  0.00    -0.390 OA
HETATM   30  H38 UNL     1       4.205   7.017  11.884  1.00  0.00     0.210 HD
ENDBRANCH  25  29
BRANCH  26  31
HETATM   31  O8  UNL     1       3.058   8.755  12.432  1.00  0.00    -0.388 OA
HETATM   32  H36 UNL     1       2.643   9.401  11.825  1.00  0.00     0.210 HD
ENDBRANCH  26  31
ENDBRANCH  19  20
ENDBRANCH   1  19
BRANCH  16  33
HETATM   33  C25 UNL     1      -0.011  10.262  16.610  1.00  0.00     0.245 C 
HETATM   34  O7  UNL     1       1.037  10.118  15.984  1.00  0.00    -0.306 OA
ENDBRANCH  16  33
BRANCH   8  35
HETATM   35  O3  UNL     1      -2.853   9.336  18.693  1.00  0.00    -0.395 OA
HETATM   36  H15 UNL     1      -2.448   9.157  19.561  1.00  0.00     0.210 HD
ENDBRANCH   8  35
BRANCH  15  37
HETATM   37  O6  UNL     1      -3.054  14.598  16.783  1.00  0.00    -0.389 OA
HETATM   38  H29 UNL     1      -2.113  14.734  16.985  1.00  0.00     0.210 HD
ENDBRANCH  15  37
BRANCH  12  39
HETATM   39  C16 UNL     1      -4.770  15.080  19.801  1.00  0.00    -0.030 A 
HETATM   40  C17 UNL     1      -4.804  16.247  19.140  1.00  0.00     0.153 A 
HETATM   41  O4  UNL     1      -4.769  17.507  19.756  1.00  0.00    -0.287 OA
HETATM   42  C18 UNL     1      -4.693  17.597  21.120  1.00  0.00     0.287 A 
HETATM   43  O5  UNL     1      -4.672  18.670  21.711  1.00  0.00    -0.260 OA
HETATM   44  C19 UNL     1      -4.635  16.330  21.871  1.00  0.00     0.083 A 
HETATM   45  C20 UNL     1      -4.670  15.151  21.241  1.00  0.00     0.015 A 
ENDBRANCH  12  39
TORSDOF 9
ENDMDL
