MODEL 1
REMARK minimizedAffinity -9.99291611
REMARK  9 active torsions:
REMARK  status: ('A' for Active; 'I' for Inactive)
REMARK    1  A    between atoms: C3_3  and  C4_4 
REMARK    2  A    between atoms: C3_3  and  C27_30 
REMARK    3  A    between atoms: C4_4  and  C5_5 
REMARK    4  A    between atoms: C5_5  and  C6_6 
REMARK    5  A    between atoms: C6_6  and  C8_8 
REMARK    6  A    between atoms: C15_15  and  O1_16 
REMARK    7  A    between atoms: C18_19  and  C19_20 
REMARK    8  A    between atoms: C19_20  and  O2_21 
REMARK    9  A    between atoms: C22_24  and  O3_25 
ROOT
HETATM    1  C8  UNL     1      -0.755  51.075 -23.750  1.00  0.00     0.001 C 
HETATM    2  C9  UNL     1      -0.084  52.469 -23.812  1.00  0.00     0.006 C 
HETATM    3  C10 UNL     1       0.359  52.803 -22.375  1.00  0.00     0.010 C 
HETATM    4  C11 UNL     1       0.115  51.515 -21.586  1.00  0.00     0.026 C 
HETATM    5  C12 UNL     1       0.063  51.517 -20.074  1.00  0.00    -0.072 C 
HETATM    6  C13 UNL     1      -0.586  50.519 -19.417  1.00  0.00    -0.064 C 
HETATM    7  C14 UNL     1      -1.347  49.432 -20.190  1.00  0.00     0.068 C 
HETATM    8  C15 UNL     1      -1.251  49.478 -21.735  1.00  0.00     0.131 C 
HETATM    9  C16 UNL     1      -1.159  50.928 -22.251  1.00  0.00    -0.006 C 
HETATM   10  C17 UNL     1      -2.441  51.729 -21.912  1.00  0.00     0.019 C 
HETATM   11  C18 UNL     1      -0.656  50.475 -17.859  1.00  0.00     0.009 C 
HETATM   12  C20 UNL     1      -0.539  49.024 -17.285  1.00  0.00     0.019 C 
HETATM   13  C21 UNL     1       0.381  48.846 -16.065  1.00  0.00     0.033 C 
HETATM   14  C22 UNL     1       0.365  50.000 -15.071  1.00  0.00     0.118 C 
HETATM   15  C23 UNL     1       0.556  51.369 -15.731  1.00  0.00     0.037 C 
HETATM   16  C24 UNL     1       0.532  51.306 -17.269  1.00  0.00     0.003 C 
HETATM   17  C25 UNL     1       0.604  52.707 -17.872  1.00  0.00     0.010 C 
HETATM   18  C26 UNL     1       0.813  52.631 -19.383  1.00  0.00     0.035 C 
ENDROOT
BRANCH   1  19
HETATM   19  C6  UNL     1      -1.814  50.770 -24.852  1.00  0.00    -0.013 C 
HETATM   20  C7  UNL     1      -2.516  52.084 -25.242  1.00  0.00     0.010 C 
BRANCH  19  21
HETATM   21  C5  UNL     1      -2.880  49.714 -24.476  1.00  0.00     0.009 C 
BRANCH  21  22
HETATM   22  C4  UNL     1      -2.957  48.473 -25.387  1.00  0.00     0.034 C 
BRANCH  22  23
HETATM   23  C3  UNL     1      -4.211  48.371 -26.241  1.00  0.00    -0.081 C 
HETATM   24  C2  UNL     1      -5.447  48.255 -25.708  1.00  0.00    -0.028 C 
HETATM   25  C1  UNL     1      -5.815  48.157 -24.260  1.00  0.00     0.036 C 
BRANCH  23  26
HETATM   26  C27 UNL     1      -3.981  48.505 -27.750  1.00  0.00     0.006 C 
HETATM   27  C28 UNL     1      -5.182  48.121 -28.625  1.00  0.00     0.014 C 
HETATM   28  C29 UNL     1      -3.513  49.923 -28.097  1.00  0.00     0.014 C 
ENDBRANCH  23  26
ENDBRANCH  22  23
ENDBRANCH  21  22
ENDBRANCH  19  21
ENDBRANCH   1  19
BRANCH   8  29
HETATM   29  O1  UNL     1      -2.344  48.762 -22.306  1.00  0.00    -0.394 OA
HETATM   30  H22 UNL     1      -3.170  49.210 -22.063  1.00  0.00     0.210 HD
ENDBRANCH   8  29
BRANCH  11  31
HETATM   31  C19 UNL     1      -2.064  51.068 -17.513  1.00  0.00     0.178 C 
BRANCH  31  32
HETATM   32  O2  UNL     1      -2.588  51.931 -18.515  1.00  0.00    -0.400 OA
HETATM   33  H28 UNL     1      -3.482  52.189 -18.217  1.00  0.00     0.209 HD
ENDBRANCH  31  32
ENDBRANCH  11  31
BRANCH  14  34
HETATM   34  O3  UNL     1      -0.851  49.974 -14.327  1.00  0.00    -0.396 OA
HETATM   35  H34 UNL     1      -1.553  50.281 -14.940  1.00  0.00     0.210 HD
ENDBRANCH  14  34
TORSDOF 9
ENDMDL
