MODEL 1
REMARK minimizedAffinity -8.15393066
REMARK CNNscore 0.742790401
REMARK CNNaffinity 6.28035784
REMARK  8 active torsions:
REMARK  status: ('A' for Active; 'I' for Inactive)
REMARK    1  A    between atoms: C2_2  and  C30_35 
REMARK    2  A    between atoms: C3_3  and  C4_4 
REMARK    3  A    between atoms: C4_4  and  O1_5 
REMARK    4  A    between atoms: C4_4  and  C5_6 
REMARK    5  A    between atoms: C5_6  and  C6_7 
REMARK    6  A    between atoms: C6_7  and  C8_9 
REMARK    7  A    between atoms: C29_33  and  O5_34 
REMARK    8  A    between atoms: C30_35  and  O7_37 
ROOT
HETATM    1  C8  UNL     1     -12.762  45.851 -27.512  1.00  0.00     0.006 C 
HETATM    2  C9  UNL     1     -13.234  44.810 -28.558  1.00  0.00     0.085 C 
HETATM    3  C10 UNL     1     -12.050  44.697 -29.500  1.00  0.00     0.140 C 
HETATM    4  O2  UNL     1     -12.016  43.922 -30.450  1.00  0.00    -0.297 OA
HETATM    5  C11 UNL     1     -10.892  45.607 -29.067  1.00  0.00     0.051 C 
HETATM    6  C12 UNL     1     -10.011  44.665 -28.195  1.00  0.00     0.029 C 
HETATM    7  C13 UNL     1      -9.950  46.298 -30.041  1.00  0.00    -0.024 C 
HETATM    8  C14 UNL     1      -9.191  47.343 -29.614  1.00  0.00     0.003 C 
HETATM    9  C15 UNL     1      -9.477  47.923 -28.234  1.00  0.00     0.157 C 
HETATM   10  O3  UNL     1      -8.717  48.745 -27.722  1.00  0.00    -0.293 OA
HETATM   11  C16 UNL     1     -10.720  47.498 -27.453  1.00  0.00     0.094 C 
HETATM   12  C17 UNL     1     -11.714  46.703 -28.299  1.00  0.00    -0.015 C 
HETATM   13  C18 UNL     1     -12.429  47.696 -29.265  1.00  0.00     0.018 C 
HETATM   14  C19 UNL     1      -8.077  47.996 -30.461  1.00  0.00    -0.008 C 
HETATM   15  C20 UNL     1      -8.625  49.369 -30.941  1.00  0.00     0.021 C 
HETATM   16  C21 UNL     1      -6.778  48.256 -29.634  1.00  0.00     0.022 C 
HETATM   17  C22 UNL     1      -5.510  48.266 -30.472  1.00  0.00     0.080 C 
HETATM   18  C23 UNL     1      -5.291  46.924 -31.132  1.00  0.00     0.135 C 
HETATM   19  O4  UNL     1      -4.145  46.530 -31.360  1.00  0.00    -0.297 OA
HETATM   20  C24 UNL     1      -6.538  46.111 -31.527  1.00  0.00     0.018 C 
HETATM   21  C25 UNL     1      -6.752  45.038 -30.448  1.00  0.00     0.023 C 
HETATM   22  C26 UNL     1      -6.210  45.380 -32.848  1.00  0.00     0.023 C 
HETATM   23  C27 UNL     1      -7.713  47.131 -31.733  1.00  0.00     0.016 C 
HETATM   24  C28 UNL     1      -8.985  46.567 -32.382  1.00  0.00     0.043 C 
HETATM   25  C29 UNL     1      -9.871  45.755 -31.444  1.00  0.00     0.149 C 
ENDROOT
BRANCH   1  26
HETATM   26  C6  UNL     1     -13.939  46.488 -26.705  1.00  0.00    -0.011 C 
HETATM   27  C7  UNL     1     -13.658  46.812 -25.235  1.00  0.00     0.010 C 
BRANCH  26  28
HETATM   28  C5  UNL     1     -15.242  45.663 -26.872  1.00  0.00     0.040 C 
BRANCH  28  29
HETATM   29  C4  UNL     1     -15.846  45.002 -25.617  1.00  0.00     0.142 C 
BRANCH  29  30
HETATM   30  C3  UNL     1     -17.112  45.634 -25.117  1.00  0.00     0.018 C 
HETATM   31  C2  UNL     1     -18.329  45.572 -25.702  1.00  0.00     0.010 C 
HETATM   32  C1  UNL     1     -18.656  44.847 -26.972  1.00  0.00     0.055 C 
BRANCH  31  33
HETATM   33  C30 UNL     1     -19.434  46.273 -25.000  1.00  0.00     0.171 C 
HETATM   34  O6  UNL     1     -20.516  45.803 -24.697  1.00  0.00    -0.646 OA
BRANCH  33  35
HETATM   35  O7  UNL     1     -19.132  47.552 -24.720  1.00  0.00    -0.773 OA
HETATM   36  H42 UNL     1     -19.930  47.885 -24.261  1.00  0.00     0.167 HD
ENDBRANCH  33  35
ENDBRANCH  31  33
ENDBRANCH  29  30
BRANCH  29  37
HETATM   37  O1  UNL     1     -16.065  43.616 -25.847  1.00  0.00    -0.392 OA
HETATM   38  H6  UNL     1     -16.893  43.511 -26.347  1.00  0.00     0.210 HD
ENDBRANCH  29  37
ENDBRANCH  28  29
ENDBRANCH  26  28
ENDBRANCH   1  26
BRANCH  25  39
HETATM   39  O5  UNL     1     -11.174  45.807 -32.019  1.00  0.00    -0.391 OA
HETATM   40  H41 UNL     1     -11.560  44.911 -31.902  1.00  0.00     0.210 HD
ENDBRANCH  25  39
TORSDOF 8
ENDMDL
