MODEL 1
REMARK minimizedAffinity -7.32527637
REMARK CNNscore 0.791419744
REMARK CNNaffinity 7.16732454
REMARK  7 active torsions:
REMARK  status: ('A' for Active; 'I' for Inactive)
REMARK    1  A    between atoms: C2_2  and  C30_32 
REMARK    2  A    between atoms: C3_3  and  C4_4 
REMARK    3  A    between atoms: C4_4  and  O1_5 
REMARK    4  A    between atoms: C4_4  and  C5_6 
REMARK    5  A    between atoms: C5_6  and  C6_7 
REMARK    6  A    between atoms: C6_7  and  C8_9 
REMARK    7  A    between atoms: C30_32  and  O3_33 
ROOT
HETATM    1  C8  UNL     1      -1.901  52.487 -10.808  1.00  0.00    -0.002 C 
HETATM    2  C9  UNL     1      -1.147  51.139 -11.026  1.00  0.00     0.007 C 
HETATM    3  C10 UNL     1       0.324  51.358 -10.621  1.00  0.00     0.015 C 
HETATM    4  C11 UNL     1       0.468  52.885 -10.487  1.00  0.00    -0.013 C 
HETATM    5  C12 UNL     1       0.708  53.422 -11.936  1.00  0.00     0.021 C 
HETATM    6  C13 UNL     1       1.616  53.427  -9.641  1.00  0.00    -0.070 C 
HETATM    7  C14 UNL     1       2.801  52.797  -9.553  1.00  0.00    -0.022 C 
HETATM    8  C15 UNL     1       4.003  53.342  -8.847  1.00  0.00     0.034 C 
HETATM    9  C16 UNL     1       3.736  54.590  -7.975  1.00  0.00     0.013 C 
HETATM   10  C17 UNL     1       5.060  55.250  -7.437  1.00  0.00     0.018 C 
HETATM   11  C18 UNL     1       6.244  55.225  -8.424  1.00  0.00     0.023 C 
HETATM   12  C19 UNL     1       5.518  54.514  -6.160  1.00  0.00     0.023 C 
HETATM   13  C20 UNL     1       4.784  56.701  -7.032  1.00  0.00     0.135 C 
HETATM   14  O2  UNL     1       5.663  57.563  -6.998  1.00  0.00    -0.297 OA
HETATM   15  C21 UNL     1       3.385  57.017  -6.583  1.00  0.00     0.080 C 
HETATM   16  C22 UNL     1       2.379  56.764  -7.695  1.00  0.00     0.017 C 
HETATM   17  C23 UNL     1       2.712  55.576  -8.655  1.00  0.00    -0.031 C 
HETATM   18  C24 UNL     1       3.282  56.165  -9.970  1.00  0.00     0.016 C 
HETATM   19  C25 UNL     1       1.381  54.762  -8.933  1.00  0.00     0.024 C 
HETATM   20  C26 UNL     1       0.247  55.582  -9.596  1.00  0.00     0.010 C 
HETATM   21  C27 UNL     1      -1.068  54.805  -9.848  1.00  0.00     0.011 C 
HETATM   22  C28 UNL     1      -0.924  53.267  -9.863  1.00  0.00    -0.029 C 
HETATM   23  C29 UNL     1      -1.125  52.727  -8.410  1.00  0.00     0.016 C 
ENDROOT
BRANCH   1  24
HETATM   24  C6  UNL     1      -3.396  52.266 -10.404  1.00  0.00    -0.011 C 
HETATM   25  C7  UNL     1      -4.247  53.515 -10.648  1.00  0.00     0.010 C 
BRANCH  24  26
HETATM   26  C5  UNL     1      -3.962  51.029 -11.167  1.00  0.00     0.040 C 
BRANCH  26  27
HETATM   27  C4  UNL     1      -4.537  49.903 -10.286  1.00  0.00     0.141 C 
BRANCH  27  28
HETATM   28  C3  UNL     1      -6.042  49.983 -10.188  1.00  0.00     0.009 C 
HETATM   29  C2  UNL     1      -6.930  49.068 -10.637  1.00  0.00    -0.062 C 
HETATM   30  C1  UNL     1      -6.546  47.809 -11.368  1.00  0.00     0.045 C 
BRANCH  29  31
HETATM   31  C30 UNL     1      -8.410  49.256 -10.435  1.00  0.00     0.198 C 
BRANCH  31  32
HETATM   32  O3  UNL     1      -9.034  49.288 -11.709  1.00  0.00    -0.397 OA
HETATM   33  H48 UNL     1      -9.983  49.430 -11.551  1.00  0.00     0.209 HD
ENDBRANCH  31  32
ENDBRANCH  29  31
ENDBRANCH  27  28
BRANCH  27  34
HETATM   34  O1  UNL     1      -3.992  50.021  -8.974  1.00  0.00    -0.392 OA
HETATM   35  H6  UNL     1      -4.637  50.505  -8.429  1.00  0.00     0.210 HD
ENDBRANCH  27  34
ENDBRANCH  26  27
ENDBRANCH  24  26
ENDBRANCH   1  24
TORSDOF 7
ENDMDL
