MODEL 1
REMARK minimizedAffinity -9.79985428
REMARK  7 active torsions:
REMARK  status: ('A' for Active; 'I' for Inactive)
REMARK    1  A    between atoms: C2_2  and  C30_34 
REMARK    2  A    between atoms: C3_3  and  C4_4 
REMARK    3  A    between atoms: C4_4  and  C5_5 
REMARK    4  A    between atoms: C5_5  and  C6_6 
REMARK    5  A    between atoms: C6_6  and  C8_8 
REMARK    6  A    between atoms: C15_16  and  O2_17 
REMARK    7  A    between atoms: C30_34  and  O6_36 
ROOT
HETATM    1  C8  UNL     1      -0.483  51.755 -20.079  1.00  0.00     0.006 C 
HETATM    2  C9  UNL     1      -1.171  52.419 -18.863  1.00  0.00     0.085 C 
HETATM    3  C10 UNL     1      -2.082  51.318 -18.324  1.00  0.00     0.141 C 
HETATM    4  O1  UNL     1      -2.908  51.526 -17.448  1.00  0.00    -0.297 OA
HETATM    5  C11 UNL     1      -1.826  49.985 -19.047  1.00  0.00     0.055 C 
HETATM    6  C12 UNL     1      -0.644  49.312 -18.301  1.00  0.00     0.030 C 
HETATM    7  C13 UNL     1      -2.894  48.940 -19.234  1.00  0.00     0.010 C 
HETATM    8  C14 UNL     1      -2.979  48.153 -20.337  1.00  0.00    -0.032 C 
HETATM    9  C15 UNL     1      -1.915  48.311 -21.446  1.00  0.00     0.149 C 
HETATM   10  C16 UNL     1      -0.935  49.510 -21.344  1.00  0.00     0.047 C 
HETATM   11  C17 UNL     1      -1.490  50.622 -20.453  1.00  0.00    -0.018 C 
HETATM   12  C18 UNL     1      -2.737  51.235 -21.172  1.00  0.00     0.017 C 
HETATM   13  C19 UNL     1      -4.147  47.117 -20.568  1.00  0.00    -0.012 C 
HETATM   14  C20 UNL     1      -3.533  45.760 -20.982  1.00  0.00     0.021 C 
HETATM   15  C21 UNL     1      -5.025  47.681 -21.720  1.00  0.00     0.021 C 
HETATM   16  C22 UNL     1      -6.268  46.863 -22.019  1.00  0.00     0.080 C 
HETATM   17  C23 UNL     1      -7.133  46.747 -20.792  1.00  0.00     0.135 C 
HETATM   18  O3  UNL     1      -8.339  46.992 -20.862  1.00  0.00    -0.297 OA
HETATM   19  C24 UNL     1      -6.478  46.207 -19.516  1.00  0.00     0.018 C 
HETATM   20  C25 UNL     1      -7.446  46.446 -18.330  1.00  0.00     0.023 C 
HETATM   21  C26 UNL     1      -6.374  44.672 -19.657  1.00  0.00     0.023 C 
HETATM   22  C27 UNL     1      -5.067  46.898 -19.283  1.00  0.00     0.020 C 
HETATM   23  C28 UNL     1      -5.215  48.233 -18.529  1.00  0.00     0.090 C 
HETATM   24  C29 UNL     1      -3.848  48.697 -18.132  1.00  0.00     0.157 C 
HETATM   25  O4  UNL     1      -3.509  48.795 -16.958  1.00  0.00    -0.293 OA
ENDROOT
BRANCH   1  26
HETATM   26  C6  UNL     1      -0.017  52.695 -21.229  1.00  0.00    -0.013 C 
HETATM   27  C7  UNL     1       0.974  53.797 -20.838  1.00  0.00     0.010 C 
BRANCH  26  28
HETATM   28  C5  UNL     1       0.528  51.891 -22.440  1.00  0.00     0.008 C 
BRANCH  28  29
HETATM   29  C4  UNL     1      -0.162  52.164 -23.778  1.00  0.00     0.028 C 
BRANCH  29  30
HETATM   30  C3  UNL     1       0.836  52.225 -24.903  1.00  0.00    -0.013 C 
HETATM   31  C2  UNL     1       0.721  51.621 -26.105  1.00  0.00     0.008 C 
HETATM   32  C1  UNL     1      -0.408  50.707 -26.484  1.00  0.00     0.055 C 
BRANCH  31  33
HETATM   33  C30 UNL     1       1.754  51.809 -27.158  1.00  0.00     0.171 C 
HETATM   34  O5  UNL     1       1.547  51.808 -28.358  1.00  0.00    -0.646 OA
BRANCH  33  35
HETATM   35  O6  UNL     1       2.996  51.989 -26.679  1.00  0.00    -0.773 OA
HETATM   36  H42 UNL     1       3.537  52.102 -27.488  1.00  0.00     0.167 HD
ENDBRANCH  33  35
ENDBRANCH  31  33
ENDBRANCH  29  30
ENDBRANCH  28  29
ENDBRANCH  26  28
ENDBRANCH   1  26
BRANCH   9  37
HETATM   37  O2  UNL     1      -1.110  47.136 -21.468  1.00  0.00    -0.391 OA
HETATM   38  H20 UNL     1      -0.536  47.185 -22.250  1.00  0.00     0.210 HD
ENDBRANCH   9  37
TORSDOF 7
ENDMDL
