MODEL 1
REMARK minimizedAffinity -8.47952652
REMARK CNNscore 0.476325095
REMARK CNNaffinity 6.50552368
REMARK  9 active torsions:
REMARK  status: ('A' for Active; 'I' for Inactive)
REMARK    1  A    between atoms: C4_4  and  C5_5 
REMARK    2  A    between atoms: C7_7  and  O1_9 
REMARK    3  A    between atoms: C20_21  and  O2_22 
REMARK    4  A    between atoms: O2_22  and  C21_23 
REMARK    5  A    between atoms: C22_25  and  C23_26 
REMARK    6  A    between atoms: C23_26  and  O4_27 
REMARK    7  A    between atoms: C24_28  and  O5_29 
REMARK    8  A    between atoms: C25_30  and  O6_31 
REMARK    9  A    between atoms: C26_32  and  O7_33 
ROOT
HETATM    1  C5  UNL     1      -5.024  47.838 -27.707  1.00  0.00     0.147 C 
HETATM    2  C6  UNL     1      -6.062  48.179 -26.640  1.00  0.00     0.074 C 
HETATM    3  C7  UNL     1      -7.432  47.514 -26.923  1.00  0.00     0.064 C 
HETATM    4  C8  UNL     1      -7.599  46.235 -26.093  1.00  0.00     0.046 C 
HETATM    5  C9  UNL     1      -7.583  47.202 -28.439  1.00  0.00     0.058 C 
HETATM    6  C10 UNL     1      -6.835  48.259 -29.238  1.00  0.00     0.131 C 
HETATM    7  C11 UNL     1      -7.119  47.854 -30.676  1.00  0.00     0.042 C 
HETATM    8  C12 UNL     1      -8.629  47.448 -30.704  1.00  0.00    -0.029 C 
HETATM    9  C13 UNL     1      -9.332  48.749 -31.190  1.00  0.00     0.016 C 
HETATM   10  C14 UNL     1      -8.929  46.261 -31.719  1.00  0.00     0.014 C 
HETATM   11  C15 UNL     1      -7.789  45.197 -31.714  1.00  0.00     0.034 C 
HETATM   12  C16 UNL     1      -8.120  43.814 -32.164  1.00  0.00    -0.022 C 
HETATM   13  C17 UNL     1      -9.342  43.397 -32.532  1.00  0.00    -0.059 C 
HETATM   14  C18 UNL     1     -10.525  44.341 -32.479  1.00  0.00     0.057 C 
HETATM   15  C19 UNL     1     -10.886  44.630 -33.921  1.00  0.00     0.024 C 
HETATM   16  C20 UNL     1     -10.723  43.762 -34.934  1.00  0.00     0.116 C 
HETATM   17  C27 UNL     1     -10.167  42.381 -34.647  1.00  0.00     0.194 C 
HETATM   18  O8  UNL     1     -10.167  41.521 -35.529  1.00  0.00    -0.289 OA
HETATM   19  C28 UNL     1      -9.640  42.059 -33.223  1.00  0.00     0.044 C 
HETATM   20  C29 UNL     1     -10.712  41.250 -32.474  1.00  0.00     0.028 C 
HETATM   21  C30 UNL     1      -8.397  41.156 -33.383  1.00  0.00     0.028 C 
HETATM   22  C31 UNL     1     -10.330  45.591 -31.531  1.00  0.00     0.032 C 
HETATM   23  C32 UNL     1     -11.525  46.546 -31.765  1.00  0.00     0.025 C 
HETATM   24  C33 UNL     1     -10.477  45.139 -30.069  1.00  0.00     0.137 C 
HETATM   25  O9  UNL     1     -11.410  44.412 -29.715  1.00  0.00    -0.297 OA
HETATM   26  C34 UNL     1      -9.450  45.587 -29.045  1.00  0.00     0.089 C 
HETATM   27  C35 UNL     1      -8.970  47.055 -29.182  1.00  0.00    -0.021 C 
HETATM   28  C36 UNL     1     -10.064  47.950 -28.565  1.00  0.00     0.017 C 
HETATM   29  O10 UNL     1      -5.428  48.225 -29.021  1.00  0.00    -0.376 OA
ENDROOT
BRANCH  16  30
HETATM   30  O2  UNL     1     -11.135  44.169 -36.192  1.00  0.00    -0.314 OA
BRANCH  30  31
HETATM   31  C21 UNL     1     -10.183  44.257 -37.261  1.00  0.00     0.298 C 
HETATM   32  O3  UNL     1     -10.464  43.193 -38.197  1.00  0.00    -0.348 OA
HETATM   33  C22 UNL     1     -11.345  43.512 -39.269  1.00  0.00     0.179 C 
HETATM   34  C24 UNL     1     -10.817  44.682 -40.131  1.00  0.00     0.180 C 
HETATM   35  C25 UNL     1      -9.747  45.520 -39.405  1.00  0.00     0.183 C 
HETATM   36  C26 UNL     1     -10.093  45.665 -37.929  1.00  0.00     0.205 C 
BRANCH  33  37
HETATM   37  C23 UNL     1     -12.792  43.704 -38.791  1.00  0.00     0.198 C 
BRANCH  37  38
HETATM   38  O4  UNL     1     -13.690  42.969 -39.622  1.00  0.00    -0.398 OA
HETATM   39  H32 UNL     1     -13.708  42.057 -39.282  1.00  0.00     0.209 HD
ENDBRANCH  37  38
ENDBRANCH  33  37
BRANCH  34  40
HETATM   40  O5  UNL     1     -10.197  44.186 -41.337  1.00  0.00    -0.390 OA
HETATM   41  H34 UNL     1     -10.903  43.777 -41.869  1.00  0.00     0.210 HD
ENDBRANCH  34  40
BRANCH  35  42
HETATM   42  O6  UNL     1      -8.444  44.950 -39.563  1.00  0.00    -0.390 OA
HETATM   43  H36 UNL     1      -8.511  44.385 -40.365  1.00  0.00     0.210 HD
ENDBRANCH  35  42
BRANCH  36  44
HETATM   44  O7  UNL     1     -11.319  46.410 -37.827  1.00  0.00    -0.388 OA
HETATM   45  H38 UNL     1     -11.106  47.340 -38.028  1.00  0.00     0.210 HD
ENDBRANCH  36  44
ENDBRANCH  30  31
ENDBRANCH  16  30
BRANCH   3  46
HETATM   46  O1  UNL     1      -8.409  48.446 -26.466  1.00  0.00    -0.390 OA
HETATM   47  H14 UNL     1      -8.289  48.581 -25.508  1.00  0.00     0.210 HD
ENDBRANCH   3  46
BRANCH   1  48
HETATM   48  C4  UNL     1      -3.683  48.449 -27.376  1.00  0.00     0.007 C 
HETATM   49  C2  UNL     1      -3.146  48.760 -26.177  1.00  0.00    -0.089 C 
HETATM   50  C1  UNL     1      -1.801  49.431 -26.085  1.00  0.00     0.042 C 
HETATM   51  C3  UNL     1      -3.788  48.480 -24.846  1.00  0.00     0.042 C 
ENDBRANCH   1  48
TORSDOF 9
ENDMDL
