MODEL 1
REMARK minimizedAffinity -7.26519537
REMARK CNNscore 0.802931964
REMARK CNNaffinity 6.91457605
REMARK  15 active torsions:
REMARK  status: ('A' for Active; 'I' for Inactive)
REMARK    1  A    between atoms: C2_2  and  C3_3 
REMARK    2  A    between atoms: C2_2  and  C35_44 
REMARK    3  A    between atoms: C3_3  and  C4_4 
REMARK    4  A    between atoms: C4_4  and  C5_5 
REMARK    5  A    between atoms: C5_5  and  C7_7 
REMARK    6  A    between atoms: C9_9  and  O1_10 
REMARK    7  A    between atoms: C10_11  and  C11_12 
REMARK    8  A    between atoms: C11_12  and  O3_14 
REMARK    9  A    between atoms: C22_25  and  O4_26 
REMARK   10  A    between atoms: O4_26  and  C23_27 
REMARK   11  A    between atoms: C24_29  and  C25_30 
REMARK   12  A    between atoms: C25_30  and  O6_31 
REMARK   13  A    between atoms: C26_32  and  O7_33 
REMARK   14  A    between atoms: C28_35  and  O8_36 
REMARK   15  A    between atoms: C29_37  and  O9_38 
ROOT
HETATM    1  C7  UNL     1     -10.931  12.045  23.622  1.00  0.00     0.001 C 
HETATM    2  C8  UNL     1     -11.840  12.640  22.496  1.00  0.00     0.039 C 
HETATM    3  C9  UNL     1     -13.070  11.715  22.345  1.00  0.00     0.142 C 
HETATM    4  C10 UNL     1     -12.972  10.751  23.554  1.00  0.00     0.102 C 
HETATM    5  C12 UNL     1     -13.710   9.405  23.539  1.00  0.00    -0.054 C 
HETATM    6  C13 UNL     1     -13.236   8.346  24.251  1.00  0.00    -0.067 C 
HETATM    7  C14 UNL     1     -11.870   8.405  24.945  1.00  0.00     0.036 C 
HETATM    8  C15 UNL     1     -11.149   9.769  24.969  1.00  0.00     0.015 C 
HETATM    9  C16 UNL     1     -11.409  10.561  23.681  1.00  0.00    -0.016 C 
HETATM   10  C17 UNL     1     -10.766   9.765  22.502  1.00  0.00     0.017 C 
HETATM   11  C18 UNL     1     -14.036   7.022  24.398  1.00  0.00    -0.013 C 
HETATM   12  C19 UNL     1     -13.301   5.969  23.523  1.00  0.00     0.021 C 
HETATM   13  C20 UNL     1     -14.061   6.521  25.883  1.00  0.00     0.017 C 
HETATM   14  C21 UNL     1     -15.413   5.991  26.384  1.00  0.00     0.037 C 
HETATM   15  C22 UNL     1     -16.212   5.186  25.352  1.00  0.00     0.153 C 
HETATM   16  C30 UNL     1     -16.285   5.882  24.002  1.00  0.00    -0.055 C 
HETATM   17  C31 UNL     1     -16.976   5.338  22.982  1.00  0.00     0.017 C 
HETATM   18  C32 UNL     1     -15.525   7.204  23.935  1.00  0.00     0.029 C 
HETATM   19  C33 UNL     1     -15.603   7.968  22.612  1.00  0.00     0.014 C 
HETATM   20  C34 UNL     1     -15.026   9.368  22.798  1.00  0.00     0.036 C 
ENDROOT
BRANCH  15  21
HETATM   21  O4  UNL     1     -15.602   3.906  25.147  1.00  0.00    -0.349 OA
BRANCH  21  22
HETATM   22  C23 UNL     1     -14.737   3.529  26.224  1.00  0.00     0.292 C 
HETATM   23  O5  UNL     1     -13.414   3.292  25.756  1.00  0.00    -0.348 OA
HETATM   24  C24 UNL     1     -13.074   1.904  25.667  1.00  0.00     0.179 C 
HETATM   25  C26 UNL     1     -13.088   1.254  27.073  1.00  0.00     0.183 C 
HETATM   26  C28 UNL     1     -14.357   1.673  27.843  1.00  0.00     0.183 C 
HETATM   27  C29 UNL     1     -15.384   2.315  26.920  1.00  0.00     0.204 C 
BRANCH  24  28
HETATM   28  C25 UNL     1     -11.724   1.775  24.955  1.00  0.00     0.198 C 
BRANCH  28  29
HETATM   29  O6  UNL     1     -11.494   0.437  24.512  1.00  0.00    -0.398 OA
HETATM   30  H36 UNL     1     -12.110   0.265  23.779  1.00  0.00     0.209 HD
ENDBRANCH  28  29
ENDBRANCH  24  28
BRANCH  25  31
HETATM   31  O7  UNL     1     -11.927   1.692  27.809  1.00  0.00    -0.385 OA
HETATM   32  C27 UNL     1     -12.265   2.451  28.971  1.00  0.00     0.202 C 
ENDBRANCH  25  31
BRANCH  26  33
HETATM   33  O8  UNL     1     -14.942   0.528  28.480  1.00  0.00    -0.390 OA
HETATM   34  H42 UNL     1     -15.808   0.837  28.816  1.00  0.00     0.210 HD
ENDBRANCH  26  33
BRANCH  27  35
HETATM   35  O9  UNL     1     -16.541   2.699  27.681  1.00  0.00    -0.388 OA
HETATM   36  H44 UNL     1     -17.129   3.158  27.051  1.00  0.00     0.210 HD
ENDBRANCH  27  35
ENDBRANCH  21  22
ENDBRANCH  15  21
BRANCH   4  37
HETATM   37  C11 UNL     1     -13.599  11.463  24.801  1.00  0.00     0.156 C 
HETATM   38  O2  UNL     1     -14.341  12.437  24.807  1.00  0.00    -0.649 OA
BRANCH  37  39
HETATM   39  O3  UNL     1     -13.294  10.915  26.003  1.00  0.00    -0.775 OA
HETATM   40  H16 UNL     1     -13.789  11.490  26.629  1.00  0.00     0.167 HD
ENDBRANCH  37  39
ENDBRANCH   4  37
BRANCH   3  41
HETATM   41  O1  UNL     1     -12.987  11.042  21.087  1.00  0.00    -0.394 OA
HETATM   42  H15 UNL     1     -12.995  11.716  20.387  1.00  0.00     0.210 HD
ENDBRANCH   3  41
BRANCH   1  43
HETATM   43  C5  UNL     1      -9.426  12.375  23.382  1.00  0.00    -0.013 C 
HETATM   44  C6  UNL     1      -8.882  13.355  24.423  1.00  0.00     0.010 C 
BRANCH  43  45
HETATM   45  C4  UNL     1      -9.221  12.940  21.947  1.00  0.00     0.009 C 
BRANCH  45  46
HETATM   46  C3  UNL     1      -8.170  14.060  21.858  1.00  0.00     0.034 C 
BRANCH  46  47
HETATM   47  C2  UNL     1      -6.818  13.543  21.391  1.00  0.00    -0.086 C 
HETATM   48  C1  UNL     1      -5.907  13.154  22.306  1.00  0.00     0.014 C 
BRANCH  47  49
HETATM   49  C35 UNL     1      -6.584  13.498  19.883  1.00  0.00     0.005 C 
HETATM   50  C36 UNL     1      -5.111  13.409  19.453  1.00  0.00     0.014 C 
HETATM   51  C37 UNL     1      -7.249  14.699  19.204  1.00  0.00     0.014 C 
ENDBRANCH  47  49
ENDBRANCH  46  47
ENDBRANCH  45  46
ENDBRANCH  43  45
ENDBRANCH   1  43
TORSDOF 15
ENDMDL
