MODEL 1
REMARK minimizedAffinity -9.18723965
REMARK CNNscore 0.678711772
REMARK CNNaffinity 7.18898439
REMARK  6 active torsions:
REMARK  status: ('A' for Active; 'I' for Inactive)
REMARK    1  A    between atoms: C2_2  and  C3_3 
REMARK    2  A    between atoms: C2_2  and  C4_5 
REMARK    3  A    between atoms: C3_3  and  O1_4 
REMARK    4  A    between atoms: C4_5  and  C6_7 
REMARK    5  A    between atoms: C7_8  and  C8_9 
REMARK    6  A    between atoms: C8_9  and  C10_11 
ROOT
HETATM    1  C10 UNL     1      -2.111   5.012  11.842  1.00  0.00     0.002 C 
HETATM    2  C11 UNL     1      -2.619   3.568  11.594  1.00  0.00     0.007 C 
HETATM    3  C12 UNL     1      -4.056   3.511  12.135  1.00  0.00     0.010 C 
HETATM    4  C13 UNL     1      -4.392   4.963  12.481  1.00  0.00     0.023 C 
HETATM    5  C14 UNL     1      -5.564   5.301  13.366  1.00  0.00    -0.070 C 
HETATM    6  C15 UNL     1      -6.514   4.417  13.708  1.00  0.00     0.004 C 
HETATM    7  C16 UNL     1      -7.739   4.821  14.344  1.00  0.00     0.004 C 
HETATM    8  C17 UNL     1      -7.917   6.046  14.866  1.00  0.00    -0.071 C 
HETATM    9  C18 UNL     1      -9.210   6.406  15.562  1.00  0.00     0.035 C 
HETATM   10  C19 UNL     1      -9.713   7.790  15.170  1.00  0.00     0.004 C 
HETATM   11  C20 UNL     1      -8.633   8.847  15.368  1.00  0.00     0.001 C 
HETATM   12  C21 UNL     1      -7.388   8.506  14.550  1.00  0.00     0.014 C 
HETATM   13  C22 UNL     1      -6.794   7.096  14.842  1.00  0.00    -0.013 C 
HETATM   14  C23 UNL     1      -6.166   7.084  16.259  1.00  0.00     0.021 C 
HETATM   15  C24 UNL     1      -5.712   6.786  13.710  1.00  0.00     0.027 C 
HETATM   16  C25 UNL     1      -4.348   7.487  13.973  1.00  0.00     0.011 C 
HETATM   17  C26 UNL     1      -3.211   7.072  13.026  1.00  0.00     0.011 C 
HETATM   18  C27 UNL     1      -3.042   5.541  12.977  1.00  0.00    -0.032 C 
HETATM   19  C28 UNL     1      -2.650   5.000  14.369  1.00  0.00     0.016 C 
ENDROOT
BRANCH   1  20
HETATM   20  C8  UNL     1      -0.562   5.139  11.913  1.00  0.00     0.008 C 
HETATM   21  C9  UNL     1       0.088   4.914  13.283  1.00  0.00     0.014 C 
BRANCH  20  22
HETATM   22  C7  UNL     1      -0.083   6.389  11.193  1.00  0.00    -0.026 C 
HETATM   23  C6  UNL     1       0.855   6.472  10.233  1.00  0.00    -0.026 C 
BRANCH  23  24
HETATM   24  C4  UNL     1       1.326   7.728   9.515  1.00  0.00     0.009 C 
HETATM   25  C5  UNL     1       0.230   8.369   8.648  1.00  0.00     0.014 C 
BRANCH  24  26
HETATM   26  C2  UNL     1       2.631   7.454   8.704  1.00  0.00     0.012 C 
HETATM   27  C1  UNL     1       3.081   8.694   7.912  1.00  0.00     0.012 C 
BRANCH  26  28
HETATM   28  C3  UNL     1       2.507   6.256   7.745  1.00  0.00     0.168 C 
BRANCH  28  29
HETATM   29  O1  UNL     1       3.294   5.154   8.171  1.00  0.00    -0.400 OA
HETATM   30  H7  UNL     1       2.898   4.804   8.987  1.00  0.00     0.209 HD
ENDBRANCH  28  29
ENDBRANCH  26  28
ENDBRANCH  24  26
ENDBRANCH  23  24
ENDBRANCH  20  22
ENDBRANCH   1  20
TORSDOF 6
ENDMDL
