MODEL 1
REMARK minimizedAffinity -9.40474033
REMARK  11 active torsions:
REMARK  status: ('A' for Active; 'I' for Inactive)
REMARK    1  A    between atoms: C2_2  and  C3_3 
REMARK    2  A    between atoms: C2_2  and  C4_5 
REMARK    3  A    between atoms: C3_3  and  O1_4 
REMARK    4  A    between atoms: C13_14  and  C14_15 
REMARK    5  A    between atoms: C14_15  and  C16_17 
REMARK    6  A    between atoms: C16_17  and  C17_18 
REMARK    7  A    between atoms: C17_18  and  C18_19 
REMARK    8  A    between atoms: C27_28  and  C28_29 
REMARK    9  A    between atoms: C28_29  and  C29_30 
REMARK   10  A    between atoms: C29_30  and  C30_31 
REMARK   11  A    between atoms: C30_31  and  O3_33 
ROOT
HETATM    1  C4  UNL     1       0.113  51.151 -25.426  1.00  0.00     0.025 C 
HETATM    2  C5  UNL     1      -1.036  50.634 -26.335  1.00  0.00     0.010 C 
HETATM    3  C6  UNL     1      -2.220  49.968 -25.629  1.00  0.00     0.007 C 
HETATM    4  C7  UNL     1      -2.057  49.881 -24.115  1.00  0.00     0.004 C 
HETATM    5  C8  UNL     1      -1.674  51.239 -23.486  1.00  0.00    -0.027 A 
HETATM    6  C9  UNL     1      -1.968  51.325 -21.990  1.00  0.00     0.011 C 
HETATM    7  C10 UNL     1      -3.426  50.996 -21.608  1.00  0.00     0.011 C 
HETATM    8  C11 UNL     1      -4.206  50.192 -22.668  1.00  0.00    -0.032 C 
HETATM    9  C12 UNL     1      -4.863  51.192 -23.665  1.00  0.00     0.016 C 
HETATM   10  C13 UNL     1      -5.324  49.237 -22.124  1.00  0.00    -0.002 C 
HETATM   11  C22 UNL     1      -5.459  48.188 -23.271  1.00  0.00     0.006 C 
HETATM   12  C23 UNL     1      -4.213  48.316 -24.169  1.00  0.00     0.011 C 
HETATM   13  C24 UNL     1      -3.227  49.170 -23.352  1.00  0.00    -0.032 C 
HETATM   14  C25 UNL     1      -2.556  48.168 -22.343  1.00  0.00     0.016 C 
HETATM   15  C26 UNL     1      -1.698  52.587 -24.196  1.00  0.00     0.022 A 
HETATM   16  C27 UNL     1      -0.386  51.850 -24.125  1.00  0.00    -0.024 A 
ENDROOT
BRANCH  10  17
HETATM   17  C14 UNL     1      -6.709  49.811 -21.688  1.00  0.00    -0.014 C 
HETATM   18  C15 UNL     1      -6.743  50.158 -20.196  1.00  0.00     0.010 C 
BRANCH  17  19
HETATM   19  C16 UNL     1      -7.835  48.793 -22.024  1.00  0.00     0.008 C 
BRANCH  19  20
HETATM   20  C17 UNL     1      -8.109  47.770 -20.916  1.00  0.00     0.028 C 
BRANCH  20  21
HETATM   21  C18 UNL     1      -9.580  47.675 -20.613  1.00  0.00    -0.025 C 
HETATM   22  C19 UNL     1     -10.218  48.111 -19.508  1.00  0.00    -0.091 C 
HETATM   23  C20 UNL     1     -11.709  47.954 -19.370  1.00  0.00     0.042 C 
HETATM   24  C21 UNL     1      -9.548  48.753 -18.326  1.00  0.00     0.042 C 
ENDBRANCH  20  21
ENDBRANCH  19  20
ENDBRANCH  17  19
ENDBRANCH  10  17
BRANCH  16  25
HETATM   25  C28 UNL     1       0.710  52.228 -23.112  1.00  0.00     0.021 C 
BRANCH  25  26
HETATM   26  C29 UNL     1       0.331  52.989 -21.845  1.00  0.00     0.111 C 
BRANCH  26  27
HETATM   27  C30 UNL     1       1.288  54.083 -21.453  1.00  0.00     0.139 C 
HETATM   28  O2  UNL     1       2.010  54.751 -22.169  1.00  0.00    -0.650 OA
BRANCH  27  29
HETATM   29  O3  UNL     1       1.310  54.267 -20.116  1.00  0.00    -0.776 OA
HETATM   30  H48 UNL     1       1.978  54.972 -19.985  1.00  0.00     0.167 HD
ENDBRANCH  27  29
ENDBRANCH  26  27
ENDBRANCH  25  26
ENDBRANCH  16  25
BRANCH   1  31
HETATM   31  C2  UNL     1       1.070  51.956 -26.307  1.00  0.00    -0.061 C 
HETATM   32  C1  UNL     1       0.635  53.063 -26.943  1.00  0.00     0.017 C 
BRANCH  31  33
HETATM   33  C3  UNL     1       2.491  51.450 -26.414  1.00  0.00     0.198 C 
BRANCH  33  34
HETATM   34  O1  UNL     1       3.217  52.151 -27.419  1.00  0.00    -0.397 OA
HETATM   35  H5  UNL     1       4.077  51.708 -27.484  1.00  0.00     0.209 HD
ENDBRANCH  33  34
ENDBRANCH  31  33
ENDBRANCH   1  31
TORSDOF 11
ENDMDL
