MODEL 1
REMARK minimizedAffinity -9.12079048
REMARK  6 active torsions:
REMARK  status: ('A' for Active; 'I' for Inactive)
REMARK    1  A    between atoms: C4_4  and  C5_5 
REMARK    2  A    between atoms: C5_5  and  C6_6 
REMARK    3  A    between atoms: C6_6  and  C7_7 
REMARK    4  A    between atoms: C7_7  and  C9_9 
REMARK    5  A    between atoms: C17_17  and  C18_18 
REMARK    6  A    between atoms: C18_18  and  O1_21 
ROOT
HETATM    1  C9  UNL     1      -5.539   6.663  14.669  1.00  0.00    -0.002 C 
HETATM    2  C10 UNL     1      -6.093   7.597  13.556  1.00  0.00     0.006 C 
HETATM    3  C11 UNL     1      -4.855   8.197  12.831  1.00  0.00     0.011 C 
HETATM    4  C12 UNL     1      -3.665   7.859  13.759  1.00  0.00    -0.032 C 
HETATM    5  C13 UNL     1      -3.721   8.941  14.890  1.00  0.00     0.016 C 
HETATM    6  C14 UNL     1      -2.257   7.813  13.094  1.00  0.00     0.003 C 
HETATM    7  C15 UNL     1      -1.780   9.134  12.487  1.00  0.00     0.009 C 
HETATM    8  C16 UNL     1      -0.664   8.847  11.488  1.00  0.00     0.042 C 
HETATM    9  C17 UNL     1       0.544   8.021  12.028  1.00  0.00     0.095 C 
HETATM   10  O2  UNL     1       1.277   8.979  12.831  1.00  0.00    -0.377 OA
HETATM   11  C21 UNL     1       2.488   8.512  13.410  1.00  0.00     0.169 C 
HETATM   12  C22 UNL     1       2.335   7.247  14.238  1.00  0.00     0.027 C 
HETATM   13  C23 UNL     1       1.324   6.233  13.703  1.00  0.00     0.010 C 
HETATM   14  C24 UNL     1       0.098   6.844  12.985  1.00  0.00     0.032 C 
HETATM   15  C25 UNL     1      -1.119   7.173  13.980  1.00  0.00    -0.033 C 
HETATM   16  C26 UNL     1      -0.656   8.089  15.139  1.00  0.00     0.016 C 
HETATM   17  C27 UNL     1      -1.637   5.847  14.658  1.00  0.00     0.011 C 
HETATM   18  C28 UNL     1      -3.070   5.893  15.244  1.00  0.00     0.011 C 
HETATM   19  C29 UNL     1      -4.081   6.395  14.200  1.00  0.00    -0.032 C 
HETATM   20  C30 UNL     1      -4.090   5.355  13.037  1.00  0.00     0.016 C 
ENDROOT
BRANCH   1  21
HETATM   21  C7  UNL     1      -6.464   5.537  15.204  1.00  0.00    -0.014 C 
HETATM   22  C8  UNL     1      -7.166   6.025  16.488  1.00  0.00     0.010 C 
BRANCH  21  23
HETATM   23  C6  UNL     1      -7.492   4.822  14.303  1.00  0.00     0.008 C 
BRANCH  23  24
HETATM   24  C5  UNL     1      -7.104   4.559  12.847  1.00  0.00     0.028 C 
BRANCH  24  25
HETATM   25  C4  UNL     1      -6.874   3.092  12.591  1.00  0.00    -0.025 C 
HETATM   26  C2  UNL     1      -6.171   2.535  11.586  1.00  0.00    -0.091 C 
HETATM   27  C1  UNL     1      -5.409   3.304  10.540  1.00  0.00     0.042 C 
HETATM   28  C3  UNL     1      -6.056   1.037  11.470  1.00  0.00     0.042 C 
ENDBRANCH  24  25
ENDBRANCH  23  24
ENDBRANCH  21  23
ENDBRANCH   1  21
BRANCH   9  29
HETATM   29  C18 UNL     1       1.418   7.542  10.747  1.00  0.00     0.082 C 
HETATM   30  C19 UNL     1       2.802   8.224  10.713  1.00  0.00     0.049 C 
HETATM   31  C20 UNL     1       0.713   7.778   9.395  1.00  0.00     0.049 C 
BRANCH  29  32
HETATM   32  O1  UNL     1       1.673   6.127  10.777  1.00  0.00    -0.388 OA
HETATM   33  H35 UNL     1       2.231   5.900  10.014  1.00  0.00     0.210 HD
ENDBRANCH  29  32
ENDBRANCH   9  29
TORSDOF 6
ENDMDL
