MODEL 1
REMARK minimizedAffinity -10.4939241
REMARK  6 active torsions:
REMARK  status: ('A' for Active; 'I' for Inactive)
REMARK    1  A    between atoms: C4_4  and  C5_5 
REMARK    2  A    between atoms: C5_5  and  C6_6 
REMARK    3  A    between atoms: C6_6  and  C7_7 
REMARK    4  A    between atoms: C19_21  and  C20_22 
REMARK    5  A    between atoms: C26_28  and  C27_29 
REMARK    6  A    between atoms: C30_32  and  O2_33 
ROOT
HETATM    1  C7  UNL     1      -1.116  49.250 -16.546  1.00  0.00     0.082 C 
HETATM    2  C8  UNL     1      -2.335  49.763 -15.769  1.00  0.00     0.051 C 
HETATM    3  C9  UNL     1      -1.547  48.843 -17.940  1.00  0.00     0.012 C 
HETATM    4  C10 UNL     1      -1.208  49.506 -19.050  1.00  0.00     0.015 C 
HETATM    5  C11 UNL     1      -0.389  50.690 -18.893  1.00  0.00     0.025 A 
HETATM    6  C12 UNL     1       0.105  51.063 -17.639  1.00  0.00     0.088 A 
HETATM    7  O1  UNL     1      -0.149  50.334 -16.508  1.00  0.00    -0.335 OA
HETATM    8  C13 UNL     1       0.908  52.201 -17.485  1.00  0.00    -0.027 A 
HETATM    9  C14 UNL     1       1.446  52.584 -16.136  1.00  0.00     0.051 C 
HETATM   10  C15 UNL     1       1.215  52.990 -18.608  1.00  0.00     0.024 A 
HETATM   11  C16 UNL     1       0.720  52.637 -19.881  1.00  0.00     0.005 A 
HETATM   12  C17 UNL     1      -0.068  51.493 -20.001  1.00  0.00     0.057 A 
HETATM   13  N1  UNL     1      -0.398  51.385 -21.331  1.00  0.00    -0.354 N 
HETATM   14  C18 UNL     1       0.125  52.420 -22.078  1.00  0.00     0.053 A 
HETATM   15  C19 UNL     1       0.007  52.698 -23.465  1.00  0.00     0.011 A 
HETATM   16  C30 UNL     1       0.725  53.831 -23.904  1.00  0.00     0.074 A 
HETATM   17  C31 UNL     1       1.449  54.650 -23.037  1.00  0.00     0.038 A 
HETATM   18  C32 UNL     1       1.508  54.356 -21.675  1.00  0.00     0.017 A 
HETATM   19  C33 UNL     1       0.843  53.216 -21.185  1.00  0.00     0.004 A 
HETATM   20  H21 UNL     1      -0.964  50.643 -21.713  1.00  0.00     0.166 HD
ENDROOT
BRANCH  15  21
HETATM   21  C20 UNL     1      -0.774  51.790 -24.420  1.00  0.00     0.051 C 
HETATM   22  C21 UNL     1       0.083  51.537 -25.649  1.00  0.00    -0.014 C 
HETATM   23  C22 UNL     1      -0.343  51.659 -26.916  1.00  0.00    -0.087 C 
HETATM   24  C23 UNL     1       0.571  51.477 -28.093  1.00  0.00     0.043 C 
HETATM   25  C24 UNL     1      -1.768  52.008 -27.223  1.00  0.00     0.034 C 
HETATM   26  C25 UNL     1      -2.716  51.664 -26.075  1.00  0.00     0.010 C 
HETATM   27  C26 UNL     1      -2.254  52.237 -24.715  1.00  0.00     0.001 C 
BRANCH  27  28
HETATM   28  C27 UNL     1      -3.260  51.828 -23.578  1.00  0.00    -0.018 C 
HETATM   29  C28 UNL     1      -3.153  50.340 -23.209  1.00  0.00     0.010 C 
HETATM   30  C29 UNL     1      -4.723  52.117 -23.929  1.00  0.00     0.010 C 
ENDBRANCH  27  28
ENDBRANCH  15  21
BRANCH  16  31
HETATM   31  O2  UNL     1       0.733  54.135 -25.241  1.00  0.00    -0.360 OA
HETATM   32  H39 UNL     1       1.345  54.870 -25.396  1.00  0.00     0.217 HD
ENDBRANCH  16  31
BRANCH   1  33
HETATM   33  C6  UNL     1      -0.404  48.087 -15.804  1.00  0.00     0.046 C 
BRANCH  33  34
HETATM   34  C5  UNL     1       0.935  48.358 -15.104  1.00  0.00     0.030 C 
BRANCH  34  35
HETATM   35  C4  UNL     1       0.896  49.315 -13.948  1.00  0.00    -0.025 C 
HETATM   36  C2  UNL     1       1.947  49.895 -13.338  1.00  0.00    -0.091 C 
HETATM   37  C1  UNL     1       1.743  50.866 -12.205  1.00  0.00     0.042 C 
HETATM   38  C3  UNL     1       3.387  49.649 -13.693  1.00  0.00     0.042 C 
ENDBRANCH  34  35
ENDBRANCH  33  34
ENDBRANCH   1  33
TORSDOF 6
ENDMDL
