MODEL 1
REMARK minimizedAffinity -8.4932909
REMARK  16 active torsions:
REMARK  status: ('A' for Active; 'I' for Inactive)
REMARK    1  A    between atoms: C4_4  and  C5_5 
REMARK    2  A    between atoms: C5_5  and  C6_6 
REMARK    3  A    between atoms: C6_6  and  C7_7 
REMARK    4  A    between atoms: C9_9  and  C10_10 
REMARK    5  A    between atoms: C10_10  and  O1_11 
REMARK    6  A    between atoms: C10_10  and  C11_12 
REMARK    7  A    between atoms: C11_12  and  C12_13 
REMARK    8  A    between atoms: C14_15  and  C15_16 
REMARK    9  A    between atoms: C15_16  and  C16_17 
REMARK   10  A    between atoms: C16_17  and  C17_18 
REMARK   11  A    between atoms: C19_20  and  C20_21 
REMARK   12  A    between atoms: C20_21  and  C21_22 
REMARK   13  A    between atoms: C21_22  and  C22_23 
REMARK   14  A    between atoms: C22_23  and  O2_24 
REMARK   15  A    between atoms: C24_26  and  C26_28 
REMARK   16  A    between atoms: C29_32  and  O4_34 
ROOT
HETATM    1  C17 UNL     1       0.493   6.566  11.770  1.00  0.00    -0.006 C 
HETATM    2  C18 UNL     1       1.226   6.041  13.037  1.00  0.00     0.019 C 
HETATM    3  C19 UNL     1       1.318   6.242  10.433  1.00  0.00     0.026 C 
HETATM    4  C23 UNL     1       2.207   7.396   9.935  1.00  0.00    -0.066 C 
HETATM    5  C24 UNL     1       2.441   7.668   8.626  1.00  0.00    -0.021 C 
HETATM    6  C25 UNL     1       3.297   8.807   8.143  1.00  0.00     0.052 C 
HETATM    7  C27 UNL     1       2.777   8.233  11.049  1.00  0.00     0.038 C 
HETATM    8  C28 UNL     1       1.688   8.856  11.920  1.00  0.00     0.042 C 
HETATM    9  C29 UNL     1       0.318   8.132  11.888  1.00  0.00     0.062 C 
HETATM   10  C30 UNL     1      -0.568   8.742  10.783  1.00  0.00     0.046 C 
ENDROOT
BRANCH   1  11
HETATM   11  C16 UNL     1      -0.880   5.791  11.667  1.00  0.00     0.016 C 
BRANCH  11  12
HETATM   12  C15 UNL     1      -0.935   4.274  11.927  1.00  0.00     0.028 C 
BRANCH  12  13
HETATM   13  C14 UNL     1      -2.308   3.662  11.900  1.00  0.00    -0.024 C 
HETATM   14  C12 UNL     1      -2.653   2.411  11.531  1.00  0.00    -0.085 C 
HETATM   15  C13 UNL     1      -1.686   1.369  11.040  1.00  0.00     0.043 C 
BRANCH  14  16
HETATM   16  C11 UNL     1      -4.104   1.961  11.646  1.00  0.00     0.069 C 
BRANCH  16  17
HETATM   17  C10 UNL     1      -5.100   2.935  10.988  1.00  0.00     0.145 C 
BRANCH  17  18
HETATM   18  C9  UNL     1      -6.244   3.286  11.904  1.00  0.00     0.007 C 
HETATM   19  C7  UNL     1      -6.320   4.230  12.868  1.00  0.00    -0.085 C 
HETATM   20  C8  UNL     1      -5.211   5.180  13.230  1.00  0.00     0.043 C 
BRANCH  19  21
HETATM   21  C6  UNL     1      -7.579   4.362  13.705  1.00  0.00     0.037 C 
BRANCH  21  22
HETATM   22  C5  UNL     1      -8.011   5.807  13.993  1.00  0.00     0.031 C 
BRANCH  22  23
HETATM   23  C4  UNL     1      -9.351   6.171  13.408  1.00  0.00    -0.024 C 
HETATM   24  C2  UNL     1     -10.206   7.121  13.837  1.00  0.00    -0.091 C 
HETATM   25  C1  UNL     1      -9.947   8.059  14.982  1.00  0.00     0.042 C 
HETATM   26  C3  UNL     1     -11.531   7.328  13.151  1.00  0.00     0.042 C 
ENDBRANCH  22  23
ENDBRANCH  21  22
ENDBRANCH  19  21
ENDBRANCH  17  18
BRANCH  17  27
HETATM   27  O1  UNL     1      -5.614   2.415   9.766  1.00  0.00    -0.391 OA
HETATM   28  H17 UNL     1      -4.859   2.357   9.156  1.00  0.00     0.210 HD
ENDBRANCH  17  27
ENDBRANCH  16  17
ENDBRANCH  14  16
ENDBRANCH  12  13
ENDBRANCH  11  12
ENDBRANCH   1  11
BRANCH   3  29
HETATM   29  C20 UNL     1       2.194   4.956  10.453  1.00  0.00     0.012 C 
BRANCH  29  30
HETATM   30  C21 UNL     1       3.590   5.151   9.844  1.00  0.00     0.027 C 
BRANCH  30  31
HETATM   31  C22 UNL     1       4.009   3.975   8.968  1.00  0.00     0.164 C 
BRANCH  31  32
HETATM   32  O2  UNL     1       4.497   2.884   9.737  1.00  0.00    -0.401 OA
HETATM   33  H38 UNL     1       4.813   3.223  10.604  1.00  0.00     0.209 HD
ENDBRANCH  31  32
ENDBRANCH  30  31
ENDBRANCH  29  30
ENDBRANCH   3  29
BRANCH   9  34
HETATM   34  O4  UNL     1      -0.320   8.455  13.132  1.00  0.00    -0.389 OA
HETATM   35  H50 UNL     1      -0.350   9.427  13.216  1.00  0.00     0.210 HD
ENDBRANCH   9  34
BRANCH   5  36
HETATM   36  C26 UNL     1       1.873   6.847   7.503  1.00  0.00     0.265 C 
HETATM   37  O3  UNL     1       1.769   7.219   6.340  1.00  0.00    -0.302 OA
ENDBRANCH   5  36
TORSDOF 16
ENDMDL
