MODEL 1
REMARK minimizedAffinity -6.65588236
REMARK CNNscore 0.656796694
REMARK CNNaffinity 5.34769106
REMARK  12 active torsions:
REMARK  status: ('A' for Active; 'I' for Inactive)
REMARK    1  A    between atoms: C2_2  and  O1_3 
REMARK    2  A    between atoms: C2_2  and  C3_4 
REMARK    3  A    between atoms: C4_5  and  C5_6 
REMARK    4  A    between atoms: C5_6  and  O2_7 
REMARK    5  A    between atoms: C8_10  and  O3_11 
REMARK    6  A    between atoms: O3_11  and  C9_12 
REMARK    7  A    between atoms: C10_14  and  C11_15 
REMARK    8  A    between atoms: C11_15  and  O5_16 
REMARK    9  A    between atoms: C12_17  and  O6_18 
REMARK   10  A    between atoms: C13_19  and  O7_20 
REMARK   11  A    between atoms: C14_21  and  O8_22 
REMARK   12  A    between atoms: C15_23  and  O9_24 
ROOT
HETATM    1  C5  UNL     1      -6.001   6.668  15.113  1.00  0.00     0.088 C 
HETATM    2  C6  UNL     1      -4.899   7.747  14.769  1.00  0.00     0.052 C 
HETATM    3  C7  UNL     1      -4.316   8.377  16.052  1.00  0.00     0.016 C 
HETATM    4  C8  UNL     1      -3.793   7.205  13.819  1.00  0.00     0.160 C 
HETATM    5  C15 UNL     1      -3.606   5.697  13.996  1.00  0.00     0.148 C 
HETATM    6  C16 UNL     1      -4.869   4.927  13.594  1.00  0.00     0.046 C 
HETATM    7  C17 UNL     1      -6.217   5.633  13.943  1.00  0.00    -0.010 C 
HETATM    8  C18 UNL     1      -6.788   6.320  12.676  1.00  0.00     0.018 C 
HETATM    9  C19 UNL     1      -7.239   4.522  14.313  1.00  0.00     0.018 C 
ENDROOT
BRANCH   4  10
HETATM   10  O3  UNL     1      -2.516   7.845  13.993  1.00  0.00    -0.350 OA
BRANCH  10  11
HETATM   11  C9  UNL     1      -2.409   9.101  13.317  1.00  0.00     0.292 C 
HETATM   12  O4  UNL     1      -1.921   8.935  11.988  1.00  0.00    -0.348 OA
HETATM   13  C10 UNL     1      -0.499   8.896  11.838  1.00  0.00     0.179 C 
HETATM   14  C12 UNL     1       0.284   8.613  13.131  1.00  0.00     0.180 C 
HETATM   15  C13 UNL     1      -0.086   9.631  14.220  1.00  0.00     0.183 C 
HETATM   16  C14 UNL     1      -1.555  10.075  14.153  1.00  0.00     0.204 C 
BRANCH  13  17
HETATM   17  C11 UNL     1      -0.191   7.853  10.755  1.00  0.00     0.198 C 
BRANCH  17  18
HETATM   18  O5  UNL     1       0.984   8.174  10.020  1.00  0.00    -0.398 OA
HETATM   19  H18 UNL     1       0.764   8.933   9.449  1.00  0.00     0.209 HD
ENDBRANCH  17  18
ENDBRANCH  13  17
BRANCH  14  20
HETATM   20  O6  UNL     1       1.700   8.685  12.906  1.00  0.00    -0.390 OA
HETATM   21  H20 UNL     1       1.905   8.049  12.189  1.00  0.00     0.210 HD
ENDBRANCH  14  20
BRANCH  15  22
HETATM   22  O7  UNL     1       0.187   9.043  15.504  1.00  0.00    -0.390 OA
HETATM   23  H22 UNL     1       0.335   9.777  16.122  1.00  0.00     0.210 HD
ENDBRANCH  15  22
BRANCH  16  24
HETATM   24  O8  UNL     1      -1.604  11.401  13.598  1.00  0.00    -0.388 OA
HETATM   25  H24 UNL     1      -2.537  11.665  13.542  1.00  0.00     0.210 HD
ENDBRANCH  16  24
ENDBRANCH  10  11
ENDBRANCH   4  10
BRANCH   5  26
HETATM   26  O9  UNL     1      -2.526   5.230  13.184  1.00  0.00    -0.393 OA
HETATM   27  H26 UNL     1      -1.757   5.779  13.441  1.00  0.00     0.210 HD
ENDBRANCH   5  26
BRANCH   1  28
HETATM   28  C4  UNL     1      -7.314   7.271  15.595  1.00  0.00     0.010 C 
HETATM   29  C3  UNL     1      -7.899   8.420  15.213  1.00  0.00     0.003 C 
BRANCH  29  30
HETATM   30  C2  UNL     1      -9.179   9.014  15.730  1.00  0.00     0.136 C 
HETATM   31  C1  UNL     1     -10.254   9.319  14.692  1.00  0.00     0.043 C 
BRANCH  30  32
HETATM   32  O1  UNL     1      -9.695   8.078  16.674  1.00  0.00    -0.392 OA
HETATM   33  H5  UNL     1     -10.545   8.427  16.994  1.00  0.00     0.210 HD
ENDBRANCH  30  32
ENDBRANCH  29  30
ENDBRANCH   1  28
BRANCH   1  34
HETATM   34  O2  UNL     1      -5.534   5.967  16.285  1.00  0.00    -0.385 OA
HETATM   35  H8  UNL     1      -5.380   5.027  16.084  1.00  0.00     0.211 HD
ENDBRANCH   1  34
TORSDOF 12
ENDMDL
