MODEL 1
REMARK minimizedAffinity -7.35942936
REMARK CNNscore 0.526029646
REMARK CNNaffinity 6.08880424
REMARK  15 active torsions:
REMARK  status: ('A' for Active; 'I' for Inactive)
REMARK    1  A    between atoms: C2_2  and  C4_4 
REMARK    2  A    between atoms: C4_4  and  C5_5 
REMARK    3  A    between atoms: C4_4  and  C28_40 
REMARK    4  A    between atoms: C6_6  and  C7_7 
REMARK    5  A    between atoms: C7_7  and  C8_8 
REMARK    6  A    between atoms: C7_7  and  C9_14 
REMARK    7  A    between atoms: C8_8  and  O1_9 
REMARK    8  A    between atoms: O1_9  and  S1_10 
REMARK    9  A    between atoms: S1_10  and  O4_13 
REMARK   10  A    between atoms: C17_22  and  O5_23 
REMARK   11  A    between atoms: C18_24  and  O6_25 
REMARK   12  A    between atoms: O6_25  and  S2_26 
REMARK   13  A    between atoms: S2_26  and  O9_29 
REMARK   14  A    between atoms: C19_30  and  O10_31 
REMARK   15  A    between atoms: C28_40  and  O11_41 
ROOT
HETATM    1  C9  UNL     1       6.636  66.861 -35.868  1.00  0.00     0.004 C 
HETATM    2  C10 UNL     1       7.562  68.078 -36.136  1.00  0.00     0.006 C 
HETATM    3  C11 UNL     1       6.755  69.039 -37.028  1.00  0.00     0.006 C 
HETATM    4  C12 UNL     1       5.370  68.396 -37.119  1.00  0.00    -0.002 C 
HETATM    5  C13 UNL     1       4.432  68.835 -38.253  1.00  0.00    -0.005 C 
HETATM    6  C14 UNL     1       4.194  70.356 -38.218  1.00  0.00     0.006 C 
HETATM    7  C15 UNL     1       2.733  70.754 -38.368  1.00  0.00     0.008 C 
HETATM    8  C16 UNL     1       2.032  69.996 -39.506  1.00  0.00     0.026 C 
HETATM    9  C17 UNL     1       0.598  70.549 -39.704  1.00  0.00     0.156 C 
HETATM   10  C18 UNL     1      -0.212  69.643 -40.629  1.00  0.00     0.202 C 
HETATM   11  C19 UNL     1      -0.420  68.260 -40.000  1.00  0.00     0.151 C 
HETATM   12  C20 UNL     1       0.703  67.829 -39.045  1.00  0.00     0.044 C 
HETATM   13  C21 UNL     1       2.110  68.424 -39.342  1.00  0.00    -0.032 C 
HETATM   14  C22 UNL     1       2.612  67.820 -40.683  1.00  0.00     0.016 C 
HETATM   15  C23 UNL     1       3.097  68.037 -38.165  1.00  0.00    -0.001 C 
HETATM   16  C24 UNL     1       3.327  66.510 -37.999  1.00  0.00     0.006 C 
HETATM   17  C25 UNL     1       4.335  66.152 -36.894  1.00  0.00     0.010 C 
HETATM   18  C26 UNL     1       5.672  66.875 -37.092  1.00  0.00    -0.036 C 
HETATM   19  C27 UNL     1       6.346  66.377 -38.394  1.00  0.00     0.016 C 
ENDROOT
BRANCH   1  20
HETATM   20  C7  UNL     1       7.346  65.571 -35.367  1.00  0.00     0.038 C 
BRANCH  20  21
HETATM   21  C6  UNL     1       6.338  64.678 -34.651  1.00  0.00    -0.023 C 
HETATM   22  C5  UNL     1       5.656  63.630 -35.146  1.00  0.00    -0.023 C 
BRANCH  22  23
HETATM   23  C4  UNL     1       4.695  62.791 -34.322  1.00  0.00     0.035 C 
BRANCH  23  24
HETATM   24  C2  UNL     1       4.566  63.360 -32.876  1.00  0.00    -0.013 C 
HETATM   25  C1  UNL     1       4.152  64.840 -32.887  1.00  0.00     0.010 C 
HETATM   26  C3  UNL     1       3.562  62.581 -32.019  1.00  0.00     0.010 C 
ENDBRANCH  23  24
BRANCH  23  27
HETATM   27  C28 UNL     1       5.168  61.322 -34.356  1.00  0.00     0.173 C 
BRANCH  27  28
HETATM   28  O11 UNL     1       6.165  61.123 -35.355  1.00  0.00    -0.400 OA
HETATM   29  H48 UNL     1       6.930  61.671 -35.114  1.00  0.00     0.209 HD
ENDBRANCH  27  28
ENDBRANCH  23  27
ENDBRANCH  22  23
ENDBRANCH  20  21
BRANCH  20  30
HETATM   30  C8  UNL     1       8.263  64.804 -36.336  1.00  0.00     0.201 C 
BRANCH  30  31
HETATM   31  O1  UNL     1       9.527  64.535 -35.758  1.00  0.00    -0.263 OA
BRANCH  31  32
HETATM   32  S1  UNL     1       9.721  63.101 -35.027  1.00  0.00     0.240 S 
HETATM   33  O2  UNL     1      11.056  62.635 -35.323  1.00  0.00    -0.579 OA
HETATM   34  O3  UNL     1       9.215  63.190 -33.677  1.00  0.00    -0.579 OA
BRANCH  32  35
HETATM   35  O4  UNL     1       8.727  62.159 -35.873  1.00  0.00    -0.274 OA
HETATM   36  H14 UNL     1       9.140  61.994 -36.742  1.00  0.00     0.234 HD
ENDBRANCH  32  35
ENDBRANCH  31  32
ENDBRANCH  30  31
ENDBRANCH  20  30
ENDBRANCH   1  20
BRANCH   9  37
HETATM   37  O5  UNL     1      -0.079  70.679 -38.448  1.00  0.00    -0.392 OA
HETATM   38  H28 UNL     1      -0.961  71.050 -38.635  1.00  0.00     0.210 HD
ENDBRANCH   9  37
BRANCH  11  39
HETATM   39  O10 UNL     1      -0.542  67.292 -41.050  1.00  0.00    -0.393 OA
HETATM   40  H32 UNL     1      -1.424  67.406 -41.446  1.00  0.00     0.210 HD
ENDBRANCH  11  39
BRANCH  10  41
HETATM   41  O6  UNL     1      -1.504  70.218 -40.848  1.00  0.00    -0.253 OA
BRANCH  41  42
HETATM   42  S2  UNL     1      -2.029  70.368 -42.375  1.00  0.00     0.240 S 
HETATM   43  O7  UNL     1      -1.261  71.405 -43.022  1.00  0.00    -0.579 OA
HETATM   44  O8  UNL     1      -2.162  69.054 -42.957  1.00  0.00    -0.579 OA
BRANCH  42  45
HETATM   45  O9  UNL     1      -3.516  70.957 -42.195  1.00  0.00    -0.274 OA
HETATM   46  H30 UNL     1      -3.850  71.194 -43.084  1.00  0.00     0.234 HD
ENDBRANCH  42  45
ENDBRANCH  41  42
ENDBRANCH  10  41
TORSDOF 15
ENDMDL
