MODEL 1
REMARK minimizedAffinity -7.1031599
REMARK CNNscore 0.807516038
REMARK CNNaffinity 7.00660563
REMARK  6 active torsions:
REMARK  status: ('A' for Active; 'I' for Inactive)
REMARK    1  A    between atoms: C4_4  and  C5_5 
REMARK    2  A    between atoms: C5_5  and  C6_6 
REMARK    3  A    between atoms: C6_6  and  C7_7 
REMARK    4  A    between atoms: C7_7  and  C9_9 
REMARK    5  A    between atoms: C24_24  and  O1_25 
REMARK    6  A    between atoms: C27_28  and  O2_29 
ROOT
HETATM    1  C9  UNL     1       5.309  56.179  -8.352  1.00  0.00    -0.002 C 
HETATM    2  C10 UNL     1       6.121  55.247  -9.290  1.00  0.00     0.007 C 
HETATM    3  C11 UNL     1       5.093  54.410 -10.087  1.00  0.00     0.015 C 
HETATM    4  C12 UNL     1       3.743  55.120  -9.862  1.00  0.00    -0.013 C 
HETATM    5  C13 UNL     1       3.675  56.298 -10.884  1.00  0.00     0.021 C 
HETATM    6  C14 UNL     1       2.436  54.361 -10.069  1.00  0.00    -0.065 C 
HETATM    7  C15 UNL     1       1.321  54.733  -9.385  1.00  0.00    -0.068 C 
HETATM    8  C16 UNL     1       1.373  55.811  -8.287  1.00  0.00     0.036 C 
HETATM    9  C17 UNL     1       2.739  56.469  -7.994  1.00  0.00     0.015 C 
HETATM   10  C18 UNL     1       3.895  55.528  -8.348  1.00  0.00    -0.029 C 
HETATM   11  C19 UNL     1       3.835  54.299  -7.394  1.00  0.00     0.016 C 
HETATM   12  C20 UNL     1      -0.046  54.030  -9.604  1.00  0.00    -0.014 C 
HETATM   13  C21 UNL     1      -0.215  53.059  -8.405  1.00  0.00     0.020 C 
HETATM   14  C22 UNL     1      -1.222  55.057  -9.635  1.00  0.00     0.016 C 
HETATM   15  C23 UNL     1      -2.349  54.753 -10.636  1.00  0.00     0.033 C 
HETATM   16  C24 UNL     1      -2.629  53.270 -10.812  1.00  0.00     0.118 C 
HETATM   17  C25 UNL     1      -1.371  52.484 -11.203  1.00  0.00     0.039 C 
HETATM   18  C26 UNL     1      -0.060  53.267 -10.962  1.00  0.00     0.029 C 
HETATM   19  C27 UNL     1       1.180  52.385 -11.130  1.00  0.00     0.127 C 
HETATM   20  C28 UNL     1       2.454  53.235 -11.076  1.00  0.00     0.067 C 
ENDROOT
BRANCH   1  21
HETATM   21  C7  UNL     1       6.017  56.599  -7.032  1.00  0.00    -0.014 C 
HETATM   22  C8  UNL     1       5.166  56.550  -5.756  1.00  0.00     0.010 C 
BRANCH  21  23
HETATM   23  C6  UNL     1       7.284  55.739  -6.758  1.00  0.00     0.008 C 
BRANCH  23  24
HETATM   24  C5  UNL     1       8.208  56.280  -5.661  1.00  0.00     0.028 C 
BRANCH  24  25
HETATM   25  C4  UNL     1       8.775  55.150  -4.841  1.00  0.00    -0.025 C 
HETATM   26  C2  UNL     1      10.062  54.927  -4.506  1.00  0.00    -0.091 C 
HETATM   27  C1  UNL     1      10.434  53.751  -3.642  1.00  0.00     0.042 C 
HETATM   28  C3  UNL     1      11.227  55.779  -4.925  1.00  0.00     0.042 C 
ENDBRANCH  24  25
ENDBRANCH  23  24
ENDBRANCH  21  23
ENDBRANCH   1  21
BRANCH  19  29
HETATM   29  O2  UNL     1       1.136  51.688 -12.379  1.00  0.00    -0.395 OA
HETATM   30  H44 UNL     1       1.108  52.351 -13.088  1.00  0.00     0.210 HD
ENDBRANCH  19  29
BRANCH  16  31
HETATM   31  O1  UNL     1      -3.172  52.745  -9.606  1.00  0.00    -0.396 OA
HETATM   32  H39 UNL     1      -4.000  53.220  -9.423  1.00  0.00     0.210 HD
ENDBRANCH  16  31
TORSDOF 6
ENDMDL
