MODEL 1
REMARK minimizedAffinity -6.13797617
REMARK CNNscore 0.312203079
REMARK CNNaffinity 5.93863487
REMARK  9 active torsions:
REMARK  status: ('A' for Active; 'I' for Inactive)
REMARK    1  A    between atoms: C12_14  and  C13_15 
REMARK    2  A    between atoms: C13_15  and  C15_17 
REMARK    3  A    between atoms: C15_17  and  C16_18 
REMARK    4  A    between atoms: C16_18  and  C17_19 
REMARK    5  A    between atoms: C18_20  and  C20_22 
REMARK    6  A    between atoms: C26_29  and  C27_30 
REMARK    7  A    between atoms: C27_30  and  C28_31 
REMARK    8  A    between atoms: C28_31  and  C29_32 
REMARK    9  A    between atoms: C29_32  and  O5_34 
ROOT
HETATM    1  C1  UNL     1       3.418   9.998  23.776  1.00  0.00     0.025 C 
HETATM    2  C2  UNL     1       3.222  10.830  22.745  1.00  0.00     0.015 C 
HETATM    3  C3  UNL     1       2.262  10.478  21.677  1.00  0.00     0.289 C 
HETATM    4  O1  UNL     1       1.796   9.375  21.452  1.00  0.00    -0.260 OA
HETATM    5  O2  UNL     1       1.987  11.609  20.981  1.00  0.00    -0.311 OA
HETATM    6  C4  UNL     1       2.618  12.737  21.604  1.00  0.00     0.142 C 
HETATM    7  C5  UNL     1       3.056  13.719  20.530  1.00  0.00     0.039 C 
HETATM    8  C6  UNL     1       4.089  13.078  19.590  1.00  0.00     0.006 C 
HETATM    9  C7  UNL     1       5.367  12.726  20.380  1.00  0.00    -0.027 A 
HETATM   10  C8  UNL     1       6.647  13.439  19.930  1.00  0.00     0.011 C 
HETATM   11  C9  UNL     1       6.866  13.572  18.409  1.00  0.00     0.011 C 
HETATM   12  C10 UNL     1       5.613  13.339  17.553  1.00  0.00    -0.032 C 
HETATM   13  C11 UNL     1       5.495  11.811  17.267  1.00  0.00     0.016 C 
HETATM   14  C12 UNL     1       5.542  14.110  16.193  1.00  0.00    -0.002 C 
HETATM   15  C21 UNL     1       4.010  14.174  15.923  1.00  0.00     0.006 C 
HETATM   16  C22 UNL     1       3.287  13.863  17.245  1.00  0.00     0.011 C 
HETATM   17  C23 UNL     1       4.383  13.938  18.325  1.00  0.00    -0.032 C 
HETATM   18  C24 UNL     1       4.522  15.452  18.693  1.00  0.00     0.016 C 
HETATM   19  C25 UNL     1       5.573  11.296  20.840  1.00  0.00     0.022 A 
HETATM   20  C26 UNL     1       5.173  12.315  21.883  1.00  0.00    -0.021 A 
HETATM   21  C30 UNL     1       3.748  12.207  22.487  1.00  0.00     0.063 C 
ENDROOT
BRANCH  14  22
HETATM   22  C13 UNL     1       6.340  13.594  14.955  1.00  0.00    -0.014 C 
HETATM   23  C14 UNL     1       5.672  14.002  13.636  1.00  0.00     0.010 C 
BRANCH  22  24
HETATM   24  C15 UNL     1       6.491  12.049  15.021  1.00  0.00     0.008 C 
BRANCH  24  25
HETATM   25  C16 UNL     1       7.693  11.499  14.243  1.00  0.00     0.028 C 
BRANCH  25  26
HETATM   26  C17 UNL     1       7.975  10.073  14.639  1.00  0.00    -0.017 C 
HETATM   27  C18 UNL     1       8.648   9.648  15.724  1.00  0.00    -0.028 C 
HETATM   28  C19 UNL     1       9.291  10.482  16.788  1.00  0.00     0.051 C 
BRANCH  27  29
HETATM   29  C20 UNL     1       8.775   8.171  15.902  1.00  0.00     0.265 C 
HETATM   30  O3  UNL     1       9.299   7.663  16.886  1.00  0.00    -0.302 OA
ENDBRANCH  27  29
ENDBRANCH  25  26
ENDBRANCH  24  25
ENDBRANCH  22  24
ENDBRANCH  14  22
BRANCH  20  31
HETATM   31  C27 UNL     1       6.223  12.856  22.867  1.00  0.00     0.021 C 
BRANCH  31  32
HETATM   32  C28 UNL     1       7.300  11.874  23.311  1.00  0.00     0.111 C 
BRANCH  32  33
HETATM   33  C29 UNL     1       8.691  12.361  23.010  1.00  0.00     0.139 C 
HETATM   34  O4  UNL     1       9.476  11.891  22.204  1.00  0.00    -0.650 OA
BRANCH  33  35
HETATM   35  O5  UNL     1       9.000  13.476  23.702  1.00  0.00    -0.776 OA
HETATM   36  H41 UNL     1       9.911  13.696  23.409  1.00  0.00     0.167 HD
ENDBRANCH  33  35
ENDBRANCH  32  33
ENDBRANCH  31  32
ENDBRANCH  20  31
TORSDOF 9
ENDMDL
