MODEL 1
REMARK minimizedAffinity -7.37067986
REMARK CNNscore 0.679316938
REMARK CNNaffinity 6.45263529
REMARK  9 active torsions:
REMARK  status: ('A' for Active; 'I' for Inactive)
REMARK    1  A    between atoms: C2_2  and  C32_37 
REMARK    2  A    between atoms: C3_3  and  C4_4 
REMARK    3  A    between atoms: C4_4  and  O1_5 
REMARK    4  A    between atoms: C4_4  and  C5_6 
REMARK    5  A    between atoms: C5_6  and  C6_7 
REMARK    6  A    between atoms: C6_7  and  C8_9 
REMARK    7  A    between atoms: C29_32  and  O4_33 
REMARK    8  A    between atoms: C30_34  and  O5_35 
REMARK    9  A    between atoms: C32_37  and  O7_39 
ROOT
HETATM    1  C8  UNL     1      -2.521   9.411  15.732  1.00  0.00    -0.026 C 
HETATM    2  C9  UNL     1      -2.559   8.035  16.504  1.00  0.00     0.011 C 
HETATM    3  C10 UNL     1      -2.544   6.797  15.626  1.00  0.00     0.002 C 
HETATM    4  C11 UNL     1      -1.555   6.918  14.484  1.00  0.00     0.017 C 
HETATM    5  C12 UNL     1      -1.520   8.328  13.815  1.00  0.00     0.021 C 
HETATM    6  C13 UNL     1      -0.408   8.249  12.769  1.00  0.00    -0.029 C 
HETATM    7  C14 UNL     1       0.888   8.528  13.067  1.00  0.00     0.002 C 
HETATM    8  C15 UNL     1       1.230   8.888  14.505  1.00  0.00     0.157 C 
HETATM    9  O2  UNL     1       2.395   8.878  14.904  1.00  0.00    -0.293 OA
HETATM   10  C16 UNL     1       0.126   9.210  15.508  1.00  0.00     0.094 C 
HETATM   11  C17 UNL     1      -1.215   9.489  14.830  1.00  0.00    -0.015 C 
HETATM   12  C18 UNL     1      -1.081  10.861  14.069  1.00  0.00     0.018 C 
HETATM   13  C19 UNL     1       2.034   8.317  12.036  1.00  0.00    -0.008 C 
HETATM   14  C20 UNL     1       3.150   9.385  12.216  1.00  0.00     0.021 C 
HETATM   15  C21 UNL     1       2.598   6.914  12.374  1.00  0.00     0.022 C 
HETATM   16  C22 UNL     1       3.582   6.380  11.367  1.00  0.00     0.080 C 
HETATM   17  C23 UNL     1       2.876   6.224  10.052  1.00  0.00     0.135 C 
HETATM   18  O3  UNL     1       2.936   5.153   9.450  1.00  0.00    -0.297 OA
HETATM   19  C24 UNL     1       2.249   7.481   9.439  1.00  0.00     0.018 C 
HETATM   20  C25 UNL     1       1.314   7.028   8.295  1.00  0.00     0.023 C 
HETATM   21  C26 UNL     1       3.422   8.224   8.750  1.00  0.00     0.023 C 
HETATM   22  C27 UNL     1       1.554   8.440  10.507  1.00  0.00     0.016 C 
HETATM   23  C28 UNL     1       0.019   8.609  10.379  1.00  0.00     0.043 C 
HETATM   24  C29 UNL     1      -0.782   7.803  11.383  1.00  0.00     0.149 C 
HETATM   25  C30 UNL     1      -2.950   8.758  13.358  1.00  0.00     0.132 C 
HETATM   26  C31 UNL     1      -3.624   9.362  14.620  1.00  0.00     0.043 C 
ENDROOT
BRANCH   1  27
HETATM   27  C6  UNL     1      -2.797  10.501  16.859  1.00  0.00    -0.006 C 
HETATM   28  C7  UNL     1      -2.627   9.904  18.273  1.00  0.00     0.011 C 
BRANCH  27  29
HETATM   29  C5  UNL     1      -4.102  11.325  16.766  1.00  0.00     0.040 C 
BRANCH  29  30
HETATM   30  C4  UNL     1      -3.909  12.847  16.597  1.00  0.00     0.142 C 
BRANCH  30  31
HETATM   31  C3  UNL     1      -4.992  13.616  17.309  1.00  0.00     0.018 C 
HETATM   32  C2  UNL     1      -5.303  13.643  18.624  1.00  0.00     0.010 C 
HETATM   33  C1  UNL     1      -4.648  12.819  19.694  1.00  0.00     0.055 C 
BRANCH  32  34
HETATM   34  C32 UNL     1      -6.397  14.520  19.122  1.00  0.00     0.171 C 
HETATM   35  O6  UNL     1      -7.454  14.723  18.553  1.00  0.00    -0.646 OA
BRANCH  34  36
HETATM   36  O7  UNL     1      -6.121  15.132  20.288  1.00  0.00    -0.773 OA
HETATM   37  H46 UNL     1      -6.919  15.675  20.456  1.00  0.00     0.167 HD
ENDBRANCH  34  36
ENDBRANCH  32  34
ENDBRANCH  30  31
BRANCH  30  38
HETATM   38  O1  UNL     1      -2.636  13.246  17.077  1.00  0.00    -0.392 OA
HETATM   39  H6  UNL     1      -2.495  14.154  16.750  1.00  0.00     0.210 HD
ENDBRANCH  30  38
ENDBRANCH  29  30
ENDBRANCH  27  29
ENDBRANCH   1  27
BRANCH  25  40
HETATM   40  O5  UNL     1      -3.710   7.681  12.833  1.00  0.00    -0.394 OA
HETATM   41  H43 UNL     1      -4.582   8.038  12.581  1.00  0.00     0.210 HD
ENDBRANCH  25  40
BRANCH  24  42
HETATM   42  O4  UNL     1      -0.490   6.427  11.235  1.00  0.00    -0.391 OA
HETATM   43  H41 UNL     1      -1.209   5.936  11.672  1.00  0.00     0.210 HD
ENDBRANCH  24  42
TORSDOF 9
ENDMDL
