MODEL 1
REMARK minimizedAffinity -9.66879272
REMARK  5 active torsions:
REMARK  status: ('A' for Active; 'I' for Inactive)
REMARK    1  A    between atoms: C2_2  and  C4_4 
REMARK    2  A    between atoms: C10_10  and  C11_11 
REMARK    3  A    between atoms: C11_11  and  O2_13 
REMARK    4  A    between atoms: C20_22  and  C22_24 
REMARK    5  A    between atoms: C22_24  and  O3_25 
ROOT
HETATM    1  C4  UNL     1      -6.942   5.012  14.585  1.00  0.00     0.025 C 
HETATM    2  C5  UNL     1      -8.010   5.522  15.577  1.00  0.00     0.037 C 
HETATM    3  C6  UNL     1      -7.396   6.762  16.135  1.00  0.00    -0.023 C 
HETATM    4  C7  UNL     1      -6.344   7.166  15.414  1.00  0.00    -0.078 C 
HETATM    5  C8  UNL     1      -5.497   8.368  15.647  1.00  0.00     0.036 C 
HETATM    6  C9  UNL     1      -4.009   8.022  15.505  1.00  0.00     0.026 C 
HETATM    7  C10 UNL     1      -3.663   7.264  14.173  1.00  0.00     0.057 C 
HETATM    8  C12 UNL     1      -4.535   5.946  14.163  1.00  0.00     0.014 C 
HETATM    9  C13 UNL     1      -4.207   4.971  13.017  1.00  0.00     0.007 C 
HETATM   10  C14 UNL     1      -2.714   4.702  12.843  1.00  0.00     0.007 C 
HETATM   11  C15 UNL     1      -1.890   5.996  12.770  1.00  0.00     0.007 C 
HETATM   12  C16 UNL     1      -0.396   5.783  12.358  1.00  0.00    -0.018 C 
HETATM   13  C17 UNL     1       0.385   4.818  13.281  1.00  0.00     0.020 C 
HETATM   14  C18 UNL     1      -0.127   5.301  10.944  1.00  0.00    -0.020 C 
HETATM   15  C19 UNL     1       0.905   5.961  10.384  1.00  0.00    -0.018 C 
HETATM   16  C20 UNL     1       1.425   7.093  11.258  1.00  0.00    -0.001 C 
HETATM   17  C21 UNL     1       1.582   8.373  10.418  1.00  0.00     0.022 C 
HETATM   18  C23 UNL     1       0.198   7.209  12.192  1.00  0.00     0.012 C 
HETATM   19  C24 UNL     1       0.257   7.971  13.505  1.00  0.00     0.007 C 
HETATM   20  C25 UNL     1      -1.192   8.190  13.994  1.00  0.00     0.011 C 
HETATM   21  C26 UNL     1      -2.092   6.900  14.065  1.00  0.00    -0.021 C 
HETATM   22  C27 UNL     1      -1.640   6.156  15.359  1.00  0.00     0.017 C 
HETATM   23  C28 UNL     1      -6.056   6.251  14.254  1.00  0.00     0.028 C 
ENDROOT
BRANCH   7  24
HETATM   24  C11 UNL     1      -4.053   8.247  13.041  1.00  0.00     0.149 C 
HETATM   25  O1  UNL     1      -5.185   8.462  12.634  1.00  0.00    -0.649 OA
BRANCH  24  26
HETATM   26  O2  UNL     1      -3.038   8.931  12.490  1.00  0.00    -0.776 OA
HETATM   27  H14 UNL     1      -3.474   9.500  11.821  1.00  0.00     0.167 HD
ENDBRANCH  24  26
ENDBRANCH   7  24
BRANCH   1  28
HETATM   28  C2  UNL     1      -7.556   4.283  13.397  1.00  0.00    -0.088 C 
HETATM   29  C1  UNL     1      -7.421   2.952  13.257  1.00  0.00     0.014 C 
HETATM   30  C3  UNL     1      -8.335   5.080  12.385  1.00  0.00     0.043 C 
ENDBRANCH   1  28
BRANCH  16  31
HETATM   31  C22 UNL     1       2.749   6.754  11.972  1.00  0.00     0.177 C 
BRANCH  31  32
HETATM   32  O3  UNL     1       3.553   5.844  11.223  1.00  0.00    -0.400 OA
HETATM   33  H31 UNL     1       3.927   6.328  10.469  1.00  0.00     0.209 HD
ENDBRANCH  31  32
ENDBRANCH  16  31
TORSDOF 5
ENDMDL
