MODEL 1
REMARK minimizedAffinity -8.72684288
REMARK CNNscore 0.566343665
REMARK CNNaffinity 5.85972071
REMARK  9 active torsions:
REMARK  status: ('A' for Active; 'I' for Inactive)
REMARK    1  A    between atoms: C2_2  and  C3_3 
REMARK    2  A    between atoms: C2_2  and  C11_13 
REMARK    3  A    between atoms: C3_3  and  C4_4 
REMARK    4  A    between atoms: C4_4  and  C5_5 
REMARK    5  A    between atoms: C5_5  and  C8_9 
REMARK    6  A    between atoms: C6_6  and  C7_7 
REMARK    7  A    between atoms: C7_7  and  O1_8 
REMARK    8  A    between atoms: C8_9  and  O2_12 
REMARK    9  A    between atoms: C25_27  and  O3_28 
ROOT
HETATM    1  C11 UNL     1       5.934  65.511 -36.166  1.00  0.00     0.005 C 
HETATM    2  C12 UNL     1       4.881  65.291 -35.057  1.00  0.00     0.033 C 
HETATM    3  C13 UNL     1       3.619  65.742 -35.708  1.00  0.00    -0.018 C 
HETATM    4  C14 UNL     1       3.861  66.506 -36.782  1.00  0.00    -0.047 C 
HETATM    5  C15 UNL     1       2.898  67.096 -37.698  1.00  0.00    -0.048 C 
HETATM    6  C16 UNL     1       3.306  67.615 -38.884  1.00  0.00    -0.064 C 
HETATM    7  C17 UNL     1       4.770  67.570 -39.306  1.00  0.00     0.036 C 
HETATM    8  C18 UNL     1       5.652  66.629 -38.476  1.00  0.00     0.019 C 
HETATM    9  C19 UNL     1       5.354  66.722 -36.975  1.00  0.00    -0.012 C 
HETATM   10  C20 UNL     1       5.748  68.095 -36.393  1.00  0.00     0.021 C 
HETATM   11  C21 UNL     1       2.321  68.337 -39.834  1.00  0.00    -0.016 C 
HETATM   12  C22 UNL     1       2.482  69.853 -39.554  1.00  0.00     0.020 C 
HETATM   13  C23 UNL     1       2.610  68.070 -41.340  1.00  0.00     0.016 C 
HETATM   14  C24 UNL     1       1.565  68.677 -42.280  1.00  0.00     0.033 C 
HETATM   15  C25 UNL     1       0.147  68.238 -41.930  1.00  0.00     0.118 C 
HETATM   16  C26 UNL     1      -0.184  68.474 -40.457  1.00  0.00     0.037 C 
HETATM   17  C27 UNL     1       0.871  67.826 -39.553  1.00  0.00     0.001 C 
HETATM   18  C28 UNL     1       0.511  67.971 -38.078  1.00  0.00     0.010 C 
HETATM   19  C29 UNL     1       1.459  67.133 -37.222  1.00  0.00     0.040 C 
ENDROOT
BRANCH   1  20
HETATM   20  C2  UNL     1       7.377  65.614 -35.603  1.00  0.00    -0.013 C 
HETATM   21  C1  UNL     1       8.445  65.653 -36.702  1.00  0.00     0.010 C 
BRANCH  20  22
HETATM   22  C3  UNL     1       7.705  64.487 -34.583  1.00  0.00     0.009 C 
BRANCH  22  23
HETATM   23  C4  UNL     1       8.732  63.443 -35.060  1.00  0.00     0.037 C 
BRANCH  23  24
HETATM   24  C5  UNL     1       9.107  62.431 -33.976  1.00  0.00    -0.049 C 
HETATM   25  C6  UNL     1       8.445  61.256 -33.856  1.00  0.00     0.004 C 
BRANCH  25  26
HETATM   26  C7  UNL     1       7.305  60.740 -34.676  1.00  0.00     0.191 C 
BRANCH  26  27
HETATM   27  O1  UNL     1       7.831  59.820 -35.621  1.00  0.00    -0.397 OA
HETATM   28  H12 UNL     1       8.475  60.312 -36.161  1.00  0.00     0.209 HD
ENDBRANCH  26  27
ENDBRANCH  25  26
BRANCH  24  29
HETATM   29  C8  UNL     1      10.310  62.805 -33.089  1.00  0.00     0.074 C 
HETATM   30  C9  UNL     1      10.661  61.709 -32.075  1.00  0.00     0.050 C 
HETATM   31  C10 UNL     1      11.598  63.184 -33.842  1.00  0.00     0.050 C 
BRANCH  29  32
HETATM   32  O2  UNL     1       9.931  63.966 -32.340  1.00  0.00    -0.386 OA
HETATM   33  H19 UNL     1       9.641  64.633 -32.985  1.00  0.00     0.211 HD
ENDBRANCH  29  32
ENDBRANCH  24  29
ENDBRANCH  23  24
ENDBRANCH  22  23
ENDBRANCH  20  22
ENDBRANCH   1  20
BRANCH  15  34
HETATM   34  O3  UNL     1      -0.787  68.936 -42.747  1.00  0.00    -0.396 OA
HETATM   35  H39 UNL     1      -0.701  69.886 -42.560  1.00  0.00     0.210 HD
ENDBRANCH  15  34
TORSDOF 9
ENDMDL
