MODEL 1
REMARK minimizedAffinity -10.348011
REMARK  5 active torsions:
REMARK  status: ('A' for Active; 'I' for Inactive)
REMARK    1  A    between atoms: N1_2  and  C2_3 
REMARK    2  A    between atoms: C4_5  and  N3_29 
REMARK    3  A    between atoms: C5_7  and  N2_12 
REMARK    4  A    between atoms: C7_9  and  O2_10 
REMARK    5  A    between atoms: C28_35  and  O4_36 
ROOT
HETATM    1  C2  UNL     1       9.238  -9.366  25.095  1.00  0.00     0.257 C 
HETATM    2  C3  UNL     1       8.241  -9.103  26.230  1.00  0.00     0.092 C 
HETATM    3  C4  UNL     1       8.812  -9.476  27.603  1.00  0.00     0.234 C 
HETATM    4  O1  UNL     1      10.065 -10.152  27.559  1.00  0.00    -0.333 OA
HETATM    5  C5  UNL     1      11.123  -9.568  26.759  1.00  0.00     0.168 C 
HETATM    6  C6  UNL     1      11.844 -10.855  26.295  1.00  0.00     0.074 C 
HETATM    7  C7  UNL     1      10.607  -8.780  25.508  1.00  0.00     0.209 C 
ENDROOT
BRANCH   1   8
HETATM    8  N1  UNL     1       8.812  -8.765  23.813  1.00  0.00     0.086 N 
HETATM    9  C1  UNL     1       9.627  -9.170  22.677  1.00  0.00     0.307 C 
HETATM   10  H4  UNL     1       7.834  -9.017  23.644  1.00  0.00     0.316 HD
ENDBRANCH   1   8
BRANCH   7  11
HETATM   11  O2  UNL     1      10.375  -7.380  25.789  1.00  0.00    -0.384 OA
HETATM   12  C8  UNL     1      11.559  -6.681  26.152  1.00  0.00     0.202 C 
ENDBRANCH   7  11
BRANCH   3  13
HETATM   13  N3  UNL     1       8.837  -8.400  28.589  1.00  0.00    -0.316 N 
HETATM   14  C24 UNL     1       9.973  -7.971  29.260  1.00  0.00     0.048 A 
HETATM   15  C19 UNL     1       9.616  -6.834  30.002  1.00  0.00     0.004 A 
HETATM   16  C23 UNL     1      11.284  -8.483  29.265  1.00  0.00     0.030 A 
HETATM   17  C18 UNL     1       8.229  -6.585  29.770  1.00  0.00     0.022 A 
HETATM   18  C20 UNL     1      10.617  -6.203  30.772  1.00  0.00     0.014 A 
HETATM   19  C17 UNL     1       7.238  -5.666  30.145  1.00  0.00     0.057 A 
HETATM   20  C25 UNL     1       7.797  -7.585  28.914  1.00  0.00     0.077 A 
HETATM   21  C16 UNL     1       5.872  -5.716  29.725  1.00  0.00     0.020 A 
HETATM   22  C27 UNL     1       7.371  -4.493  31.021  1.00  0.00     0.255 A 
HETATM   23  C15 UNL     1       5.391  -6.732  28.883  1.00  0.00     0.017 A 
HETATM   24  C28 UNL     1       5.125  -4.588  30.375  1.00  0.00     0.257 A 
HETATM   25  C14 UNL     1       4.138  -7.125  28.341  1.00  0.00     0.004 A 
HETATM   26  C26 UNL     1       6.310  -7.665  28.453  1.00  0.00     0.077 A 
HETATM   27  C9  UNL     1       4.334  -8.323  27.627  1.00  0.00     0.049 A 
HETATM   28  C13 UNL     1       2.837  -6.584  28.438  1.00  0.00     0.014 A 
HETATM   29  N2  UNL     1       5.701  -8.602  27.656  1.00  0.00    -0.308 N 
HETATM   30  C10 UNL     1       3.234  -9.000  27.066  1.00  0.00     0.030 A 
HETATM   31  C11 UNL     1       1.956  -8.442  27.182  1.00  0.00     0.002 A 
HETATM   32  C12 UNL     1       1.758  -7.243  27.850  1.00  0.00     0.001 A 
HETATM   33  N4  UNL     1       6.141  -3.882  31.075  1.00  0.00    -0.326 N 
HETATM   34  H24 UNL     1       5.973  -3.073  31.654  1.00  0.00     0.165 HD
HETATM   35  O3  UNL     1       8.364  -4.106  31.601  1.00  0.00    -0.268 OA
HETATM   36  C21 UNL     1      11.921  -6.709  30.784  1.00  0.00     0.001 A 
HETATM   37  C22 UNL     1      12.248  -7.834  30.039  1.00  0.00     0.002 A 
BRANCH  24  38
HETATM   38  O4  UNL     1       4.570  -3.685  29.453  1.00  0.00    -0.372 OA
HETATM   39  H26 UNL     1       5.203  -3.627  28.718  1.00  0.00     0.212 HD
ENDBRANCH  24  38
ENDBRANCH   3  13
TORSDOF 5
ENDMDL
