MODEL 1
REMARK minimizedAffinity -8.88759136
REMARK  5 active torsions:
REMARK  status: ('A' for Active; 'I' for Inactive)
REMARK    1  A    between atoms: C4_4  and  C5_5 
REMARK    2  A    between atoms: N1_23  and  C22_24 
REMARK    3  A    between atoms: C22_24  and  C23_25 
REMARK    4  A    between atoms: C23_25  and  O2_26 
REMARK    5  A    between atoms: C26_29  and  O3_31 
ROOT
HETATM    1  C5  UNL     1      -5.279   8.659  14.022  1.00  0.00     0.146 C 
HETATM    2  C6  UNL     1      -5.098   8.621  15.528  1.00  0.00     0.043 C 
HETATM    3  C7  UNL     1      -3.860   9.481  15.745  1.00  0.00     0.019 C 
HETATM    4  C8  UNL     1      -4.279  10.953  15.857  1.00  0.00     0.013 C 
HETATM    5  C9  UNL     1      -3.008   9.144  14.506  1.00  0.00     0.069 C 
HETATM    6  C10 UNL     1      -2.123  10.285  13.941  1.00  0.00     0.040 C 
HETATM    7  C11 UNL     1      -0.786   9.628  13.567  1.00  0.00     0.012 C 
HETATM    8  C12 UNL     1      -0.607   8.531  14.626  1.00  0.00    -0.037 C 
HETATM    9  C13 UNL     1      -0.266   9.204  15.988  1.00  0.00     0.015 C 
HETATM   10  C14 UNL     1       0.532   7.504  14.358  1.00  0.00     0.021 C 
HETATM   11  C15 UNL     1       0.459   6.329  13.359  1.00  0.00     0.052 C 
HETATM   12  C16 UNL     1      -0.709   5.385  13.188  1.00  0.00    -0.038 C 
HETATM   13  C17 UNL     1      -1.863   5.057  13.796  1.00  0.00     0.015 C 
HETATM   14  C18 UNL     1      -2.599   5.481  15.027  1.00  0.00     0.045 C 
HETATM   15  C19 UNL     1      -2.193   6.817  15.648  1.00  0.00     0.013 C 
HETATM   16  C20 UNL     1      -2.024   7.926  14.599  1.00  0.00     0.029 C 
HETATM   17  C21 UNL     1      -2.592   4.194  12.820  1.00  0.00     0.250 C 
HETATM   18  O1  UNL     1      -3.634   3.604  13.042  1.00  0.00    -0.268 OA
HETATM   19  N1  UNL     1      -1.876   4.203  11.639  1.00  0.00    -0.338 N 
HETATM   20  C24 UNL     1      -0.573   4.739  11.841  1.00  0.00     0.120 C 
HETATM   21  C25 UNL     1      -0.158   5.921  10.993  1.00  0.00     0.068 C 
HETATM   22  C26 UNL     1       0.884   6.643  11.874  1.00  0.00     0.064 C 
HETATM   23  C27 UNL     1       2.303   6.133  11.587  1.00  0.00     0.046 C 
HETATM   24  O4  UNL     1      -3.967   8.817  13.463  1.00  0.00    -0.370 OA
ENDROOT
BRANCH   1  25
HETATM   25  C4  UNL     1      -5.880   7.407  13.462  1.00  0.00     0.007 C 
HETATM   26  C2  UNL     1      -6.278   6.311  14.137  1.00  0.00    -0.089 C 
HETATM   27  C1  UNL     1      -6.151   6.127  15.624  1.00  0.00     0.042 C 
HETATM   28  C3  UNL     1      -6.896   5.146  13.410  1.00  0.00     0.042 C 
ENDBRANCH   1  25
BRANCH  22  29
HETATM   29  O3  UNL     1       0.882   8.031  11.576  1.00  0.00    -0.389 OA
HETATM   30  H41 UNL     1       0.987   8.142  10.615  1.00  0.00     0.210 HD
ENDBRANCH  22  29
BRANCH  19  31
HETATM   31  C22 UNL     1      -2.193   3.328  10.528  1.00  0.00     0.152 C 
BRANCH  31  32
HETATM   32  C23 UNL     1      -1.753   1.881  10.750  1.00  0.00     0.184 C 
BRANCH  32  33
HETATM   33  O2  UNL     1      -1.194   1.340   9.558  1.00  0.00    -0.399 OA
HETATM   34  H34 UNL     1      -1.926   1.229   8.926  1.00  0.00     0.209 HD
ENDBRANCH  32  33
ENDBRANCH  31  32
ENDBRANCH  19  31
TORSDOF 5
ENDMDL
