MODEL 1
REMARK minimizedAffinity -7.6727562
REMARK CNNscore 0.630469561
REMARK CNNaffinity 5.07544184
REMARK  11 active torsions:
REMARK  status: ('A' for Active; 'I' for Inactive)
REMARK    1  A    between atoms: C2_2  and  O1_3 
REMARK    2  A    between atoms: C2_2  and  C3_4 
REMARK    3  A    between atoms: C4_5  and  C5_6 
REMARK    4  A    between atoms: C5_6  and  O2_7 
REMARK    5  A    between atoms: C9_11  and  O3_12 
REMARK    6  A    between atoms: O3_12  and  C10_13 
REMARK    7  A    between atoms: C11_15  and  C12_16 
REMARK    8  A    between atoms: C12_16  and  O5_17 
REMARK    9  A    between atoms: C13_18  and  O6_19 
REMARK   10  A    between atoms: C14_20  and  O7_21 
REMARK   11  A    between atoms: C15_22  and  O8_23 
ROOT
HETATM    1  C5  UNL     1      -2.919  50.132 -21.041  1.00  0.00     0.086 C 
HETATM    2  C6  UNL     1      -1.801  51.222 -20.970  1.00  0.00     0.023 C 
HETATM    3  C7  UNL     1      -0.460  50.761 -20.383  1.00  0.00     0.013 C 
HETATM    4  C8  UNL     1      -1.567  51.877 -22.355  1.00  0.00     0.039 C 
HETATM    5  C9  UNL     1      -1.932  50.986 -23.550  1.00  0.00     0.126 C 
HETATM    6  C16 UNL     1      -1.681  49.513 -23.241  1.00  0.00     0.044 C 
HETATM    7  C17 UNL     1      -2.555  48.973 -22.069  1.00  0.00    -0.010 C 
HETATM    8  C18 UNL     1      -3.836  48.356 -22.692  1.00  0.00     0.018 C 
HETATM    9  C19 UNL     1      -1.786  47.807 -21.405  1.00  0.00     0.018 C 
ENDROOT
BRANCH   5  10
HETATM   10  O3  UNL     1      -1.094  51.370 -24.648  1.00  0.00    -0.353 OA
BRANCH  10  11
HETATM   11  C10 UNL     1      -1.147  50.433 -25.733  1.00  0.00     0.292 C 
HETATM   12  O4  UNL     1       0.043  50.539 -26.523  1.00  0.00    -0.348 OA
HETATM   13  C11 UNL     1      -0.036  51.435 -27.649  1.00  0.00     0.179 C 
HETATM   14  C13 UNL     1      -0.974  52.614 -27.385  1.00  0.00     0.180 C 
HETATM   15  C14 UNL     1      -2.408  52.092 -27.171  1.00  0.00     0.183 C 
HETATM   16  C15 UNL     1      -2.449  50.700 -26.517  1.00  0.00     0.204 C 
BRANCH  13  17
HETATM   17  C12 UNL     1       1.396  51.897 -27.957  1.00  0.00     0.198 C 
BRANCH  17  18
HETATM   18  O5  UNL     1       2.076  52.222 -26.740  1.00  0.00    -0.398 OA
HETATM   19  H20 UNL     1       1.432  52.745 -26.219  1.00  0.00     0.209 HD
ENDBRANCH  17  18
ENDBRANCH  13  17
BRANCH  14  20
HETATM   20  O6  UNL     1      -0.970  53.559 -28.457  1.00  0.00    -0.390 OA
HETATM   21  H22 UNL     1      -1.667  54.212 -28.252  1.00  0.00     0.210 HD
ENDBRANCH  14  20
BRANCH  15  22
HETATM   22  O7  UNL     1      -3.129  53.050 -26.377  1.00  0.00    -0.390 OA
HETATM   23  H24 UNL     1      -2.713  53.053 -25.494  1.00  0.00     0.210 HD
ENDBRANCH  15  22
BRANCH  16  24
HETATM   24  O8  UNL     1      -2.638  49.689 -27.516  1.00  0.00    -0.388 OA
HETATM   25  H26 UNL     1      -3.529  49.813 -27.890  1.00  0.00     0.210 HD
ENDBRANCH  16  24
ENDBRANCH  10  11
ENDBRANCH   5  10
BRANCH   1  26
HETATM   26  C4  UNL     1      -3.436  49.605 -19.712  1.00  0.00     0.010 C 
HETATM   27  C3  UNL     1      -2.736  49.107 -18.678  1.00  0.00     0.003 C 
BRANCH  27  28
HETATM   28  C2  UNL     1      -3.350  48.642 -17.391  1.00  0.00     0.136 C 
HETATM   29  C1  UNL     1      -2.926  49.514 -16.220  1.00  0.00     0.043 C 
BRANCH  28  30
HETATM   30  O1  UNL     1      -4.760  48.736 -17.539  1.00  0.00    -0.392 OA
HETATM   31  H5  UNL     1      -5.004  48.139 -18.267  1.00  0.00     0.210 HD
ENDBRANCH  28  30
ENDBRANCH  27  28
ENDBRANCH   1  26
BRANCH   1  32
HETATM   32  O2  UNL     1      -4.070  50.828 -21.568  1.00  0.00    -0.385 OA
HETATM   33  H8  UNL     1      -4.351  51.473 -20.895  1.00  0.00     0.211 HD
ENDBRANCH   1  32
TORSDOF 11
ENDMDL
