MODEL 1
REMARK minimizedAffinity -9.40927696
REMARK CNNscore 0.567590714
REMARK CNNaffinity 7.39275599
REMARK  14 active torsions:
REMARK  status: ('A' for Active; 'I' for Inactive)
REMARK    1  A    between atoms: C12_13  and  O2_14 
REMARK    2  A    between atoms: C19_21  and  O3_22 
REMARK    3  A    between atoms: C19_21  and  C20_23 
REMARK    4  A    between atoms: C20_23  and  C21_25 
REMARK    5  A    between atoms: C21_25  and  O5_26 
REMARK    6  A    between atoms: O5_26  and  C22_27 
REMARK    7  A    between atoms: C22_27  and  C23_29 
REMARK    8  A    between atoms: C23_29  and  C24_30 
REMARK    9  A    between atoms: C24_30  and  C25_31 
REMARK       I    between atoms: C25_31  and  N1_33 
REMARK   10  A    between atoms: N1_33  and  C26_34 
REMARK   11  A    between atoms: C26_34  and  C27_35 
REMARK   12  A    between atoms: C26_34  and  C36_45 
REMARK   13  A    between atoms: C27_35  and  C28_36 
REMARK   14  A    between atoms: C36_45  and  O9_47 
ROOT
HETATM    1  C20 UNL     1      -3.114  50.912 -13.135  1.00  0.00     0.185 C 
HETATM    2  O4  UNL     1      -3.301  49.735 -12.803  1.00  0.00    -0.292 OA
ENDROOT
BRANCH   1   3
HETATM    3  C19 UNL     1      -2.918  52.050 -12.088  1.00  0.00     0.128 C 
HETATM    4  C14 UNL     1      -1.448  52.218 -11.560  1.00  0.00     0.001 C 
HETATM    5  C13 UNL     1      -0.501  53.117 -12.388  1.00  0.00     0.045 C 
HETATM    6  C15 UNL     1      -0.817  50.815 -11.344  1.00  0.00     0.019 C 
HETATM    7  C16 UNL     1      -1.717  52.972 -10.235  1.00  0.00     0.002 C 
HETATM    8  C12 UNL     1       0.799  53.502 -11.646  1.00  0.00     0.124 C 
HETATM    9  C11 UNL     1       0.551  54.084 -10.223  1.00  0.00     0.031 C 
HETATM   10  C2  UNL     1       1.852  54.461  -9.406  1.00  0.00    -0.014 C 
HETATM   11  C10 UNL     1      -0.456  53.227  -9.394  1.00  0.00    -0.002 C 
HETATM   12  C1  UNL     1       2.774  53.256  -9.111  1.00  0.00     0.020 C 
HETATM   13  C3  UNL     1       2.650  55.520 -10.225  1.00  0.00     0.022 C 
HETATM   14  C7  UNL     1       1.442  55.056  -8.050  1.00  0.00    -0.068 C 
HETATM   15  C4  UNL     1       3.707  56.254  -9.415  1.00  0.00     0.084 C 
HETATM   16  C5  UNL     1       3.083  56.894  -8.204  1.00  0.00     0.149 C 
HETATM   17  O1  UNL     1       3.510  57.938  -7.718  1.00  0.00    -0.293 OA
HETATM   18  C6  UNL     1       1.972  56.181  -7.535  1.00  0.00     0.053 C 
HETATM   19  C8  UNL     1       0.418  54.278  -7.260  1.00  0.00     0.035 C 
HETATM   20  C9  UNL     1      -0.817  53.955  -8.088  1.00  0.00     0.010 C 
HETATM   21  C17 UNL     1      -2.853  52.185  -9.595  1.00  0.00     0.009 C 
HETATM   22  C18 UNL     1      -3.718  51.731 -10.784  1.00  0.00     0.047 C 
BRANCH   8  23
HETATM   23  O2  UNL     1       1.662  52.377 -11.603  1.00  0.00    -0.395 OA
HETATM   24  H16 UNL     1       1.898  52.142 -12.518  1.00  0.00     0.210 HD
ENDBRANCH   8  23
BRANCH   3  25
HETATM   25  O3  UNL     1      -3.452  53.293 -12.548  1.00  0.00    -0.381 OA
HETATM   26  H27 UNL     1      -2.910  53.632 -13.288  1.00  0.00     0.211 HD
ENDBRANCH   3  25
ENDBRANCH   1   3
BRANCH   1  27
HETATM   27  C21 UNL     1      -3.030  51.260 -14.614  1.00  0.00     0.260 C 
BRANCH  27  28
HETATM   28  O5  UNL     1      -1.986  50.564 -15.290  1.00  0.00    -0.314 OA
BRANCH  28  29
HETATM   29  C22 UNL     1      -2.003  50.636 -16.642  1.00  0.00     0.259 C 
HETATM   30  O6  UNL     1      -2.985  50.984 -17.291  1.00  0.00    -0.265 OA
BRANCH  29  31
HETATM   31  C23 UNL     1      -0.697  50.228 -17.282  1.00  0.00     0.120 C 
BRANCH  31  32
HETATM   32  C24 UNL     1       0.264  51.377 -17.566  1.00  0.00     0.112 C 
BRANCH  32  33
HETATM   33  C25 UNL     1      -0.065  52.087 -18.863  1.00  0.00     0.218 C 
HETATM   34  O7  UNL     1      -0.972  52.902 -18.980  1.00  0.00    -0.274 OA
HETATM   35  N1  UNL     1       0.754  51.717 -19.901  1.00  0.00    -0.346 N 
HETATM   36  H34 UNL     1       1.551  51.111 -19.732  1.00  0.00     0.163 HD
BRANCH  35  37
HETATM   37  C26 UNL     1       0.645  52.328 -21.232  1.00  0.00     0.186 C 
BRANCH  37  38
HETATM   38  C27 UNL     1      -0.820  52.444 -21.669  1.00  0.00     0.077 C 
BRANCH  38  39
HETATM   39  C28 UNL     1      -1.136  51.657 -22.902  1.00  0.00    -0.028 A 
HETATM   40  C29 UNL     1      -2.170  50.755 -23.062  1.00  0.00     0.096 A 
HETATM   41  N2  UNL     1      -2.107  50.251 -24.334  1.00  0.00    -0.365 N 
HETATM   42  C30 UNL     1      -1.049  50.807 -25.015  1.00  0.00     0.042 A 
HETATM   43  H39 UNL     1      -2.741  49.570 -24.724  1.00  0.00     0.165 HD
HETATM   44  C31 UNL     1      -0.607  50.592 -26.327  1.00  0.00     0.030 A 
HETATM   45  C35 UNL     1      -0.416  51.690 -24.141  1.00  0.00    -0.002 A 
HETATM   46  C32 UNL     1       0.516  51.306 -26.755  1.00  0.00     0.002 A 
HETATM   47  C33 UNL     1       1.170  52.195 -25.906  1.00  0.00     0.001 A 
HETATM   48  C34 UNL     1       0.715  52.397 -24.598  1.00  0.00     0.014 A 
ENDBRANCH  38  39
ENDBRANCH  37  38
BRANCH  37  49
HETATM   49  C36 UNL     1       1.270  53.714 -21.123  1.00  0.00     0.163 C 
HETATM   50  O8  UNL     1       1.405  54.507 -22.045  1.00  0.00    -0.648 OA
BRANCH  49  51
HETATM   51  O9  UNL     1       1.669  54.040 -19.879  1.00  0.00    -0.775 OA
HETATM   52  H44 UNL     1       2.048  54.937 -19.964  1.00  0.00     0.167 HD
ENDBRANCH  49  51
ENDBRANCH  37  49
ENDBRANCH  35  37
ENDBRANCH  32  33
ENDBRANCH  31  32
ENDBRANCH  29  31
ENDBRANCH  28  29
ENDBRANCH  27  28
ENDBRANCH   1  27
TORSDOF 14
ENDMDL
