MODEL 1
REMARK minimizedAffinity -6.83369684
REMARK CNNscore 0.534894288
REMARK CNNaffinity 6.59155798
REMARK  10 active torsions:
REMARK  status: ('A' for Active; 'I' for Inactive)
REMARK    1  A    between atoms: C3_3  and  O1_4 
REMARK    2  A    between atoms: N1_14  and  O2_16 
REMARK    3  A    between atoms: O2_16  and  C13_17 
REMARK    4  A    between atoms: C13_17  and  C14_18 
REMARK       I    between atoms: C14_18  and  N2_20 
REMARK    5  A    between atoms: N2_20  and  C15_21 
REMARK    6  A    between atoms: C15_21  and  C16_22 
REMARK    7  A    between atoms: C15_21  and  C19_29 
REMARK       I    between atoms: C16_22  and  N3_24 
REMARK    8  A    between atoms: N3_24  and  C17_25 
REMARK    9  A    between atoms: C17_25  and  C18_26 
REMARK   10  A    between atoms: C18_26  and  O6_28 
ROOT
HETATM    1  C1  UNL     1     -13.458   7.385  25.740  1.00  0.00     0.015 C 
HETATM    2  C2  UNL     1     -13.709   8.186  24.882  1.00  0.00    -0.078 C 
HETATM    3  C3  UNL     1     -14.044   9.142  23.816  1.00  0.00     0.128 C 
HETATM    4  C4  UNL     1     -14.339  10.542  24.364  1.00  0.00     0.052 C 
HETATM    5  C5  UNL     1     -14.356  11.395  23.100  1.00  0.00     0.010 C 
HETATM    6  C6  UNL     1     -13.167  10.871  22.285  1.00  0.00     0.002 C 
HETATM    7  C7  UNL     1     -13.217  11.112  20.759  1.00  0.00    -0.004 C 
HETATM    8  C8  UNL     1     -14.552  10.824  20.053  1.00  0.00     0.010 C 
HETATM    9  C9  UNL     1     -14.484  11.126  18.557  1.00  0.00     0.035 C 
HETATM   10  C10 UNL     1     -13.290  10.512  17.861  1.00  0.00    -0.069 C 
HETATM   11  C11 UNL     1     -13.455   9.878  16.688  1.00  0.00     0.030 C 
HETATM   12  C12 UNL     1     -12.300   9.399  15.885  1.00  0.00     0.032 C 
HETATM   13  N1  UNL     1     -12.555   8.716  14.806  1.00  0.00    -0.271 N 
ATOM     14  H1  UNL     1     -13.493   8.460  14.496  1.00  0.00     0.194 HD
HETATM   15  C22 UNL     1     -10.911   9.800  16.346  1.00  0.00     0.060 C 
HETATM   16  C23 UNL     1     -10.837   9.815  17.868  1.00  0.00     0.020 C 
HETATM   17  C24 UNL     1     -11.932  10.698  18.538  1.00  0.00    -0.016 C 
HETATM   18  C25 UNL     1     -11.496  12.178  18.367  1.00  0.00     0.020 C 
HETATM   19  C26 UNL     1     -12.055  10.349  20.072  1.00  0.00     0.002 C 
HETATM   20  C27 UNL     1     -12.144   8.825  20.357  1.00  0.00     0.007 C 
HETATM   21  C28 UNL     1     -12.951   8.401  21.587  1.00  0.00     0.014 C 
HETATM   22  C29 UNL     1     -12.914   9.397  22.757  1.00  0.00     0.003 C 
HETATM   23  C30 UNL     1     -11.502   9.338  23.399  1.00  0.00     0.020 C 
ENDROOT
BRANCH   3  24
HETATM   24  O1  UNL     1     -15.249   8.698  23.185  1.00  0.00    -0.377 OA
HETATM   25  H2  UNL     1     -15.186   7.732  23.098  1.00  0.00     0.211 HD
ENDBRANCH   3  24
BRANCH  13  26
HETATM   26  O2  UNL     1     -11.380   8.378  14.124  1.00  0.00    -0.271 OA
BRANCH  26  27
HETATM   27  C13 UNL     1     -11.340   6.970  13.944  1.00  0.00     0.303 C 
BRANCH  27  28
HETATM   28  C14 UNL     1     -10.059   6.592  13.210  1.00  0.00     0.244 C 
HETATM   29  O3  UNL     1      -9.945   6.589  11.984  1.00  0.00    -0.271 OA
HETATM   30  N2  UNL     1      -9.014   6.216  14.035  1.00  0.00    -0.346 N 
HETATM   31  H16 UNL     1      -9.256   5.886  14.962  1.00  0.00     0.163 HD
BRANCH  30  32
HETATM   32  C15 UNL     1      -7.720   5.765  13.490  1.00  0.00     0.180 C 
BRANCH  32  33
HETATM   33  C16 UNL     1      -7.816   4.304  12.966  1.00  0.00     0.241 C 
HETATM   34  O4  UNL     1      -8.866   3.666  12.888  1.00  0.00    -0.271 OA
HETATM   35  N3  UNL     1      -6.590   3.714  12.715  1.00  0.00    -0.349 N 
HETATM   36  H18 UNL     1      -5.771   4.146  13.140  1.00  0.00     0.163 HD
BRANCH  35  37
HETATM   37  C17 UNL     1      -6.498   2.325  12.305  1.00  0.00     0.232 C 
BRANCH  37  38
HETATM   38  C18 UNL     1      -5.598   2.085  11.094  1.00  0.00     0.158 C 
HETATM   39  O5  UNL     1      -5.561   2.787  10.094  1.00  0.00    -0.649 OA
BRANCH  38  40
HETATM   40  O6  UNL     1      -4.845   0.965  11.156  1.00  0.00    -0.775 OA
HETATM   41  H21 UNL     1      -4.333   0.989  10.322  1.00  0.00     0.167 HD
ENDBRANCH  38  40
ENDBRANCH  37  38
ENDBRANCH  35  37
ENDBRANCH  32  33
BRANCH  32  42
HETATM   42  C19 UNL     1      -6.591   6.030  14.517  1.00  0.00     0.009 C 
HETATM   43  C20 UNL     1      -7.136   6.374  15.906  1.00  0.00     0.012 C 
HETATM   44  C21 UNL     1      -5.572   7.079  14.068  1.00  0.00     0.012 C 
ENDBRANCH  32  42
ENDBRANCH  30  32
ENDBRANCH  27  28
ENDBRANCH  26  27
ENDBRANCH  13  26
TORSDOF 10
ENDMDL
