MODEL 1
REMARK minimizedAffinity -8.79632854
REMARK  8 active torsions:
REMARK  status: ('A' for Active; 'I' for Inactive)
REMARK    1  A    between atoms: C12_14  and  C13_15 
REMARK    2  A    between atoms: C13_15  and  C15_17 
REMARK    3  A    between atoms: C15_17  and  C16_18 
REMARK    4  A    between atoms: C16_18  and  C17_20 
REMARK    5  A    between atoms: C26_29  and  C27_30 
REMARK    6  A    between atoms: C27_30  and  C28_31 
REMARK    7  A    between atoms: C28_31  and  C29_32 
REMARK    8  A    between atoms: C29_32  and  O5_34 
ROOT
HETATM    1  C1  UNL     1       1.346   8.412  11.112  1.00  0.00     0.025 C 
HETATM    2  C2  UNL     1       0.799   8.393  12.334  1.00  0.00     0.015 C 
HETATM    3  C3  UNL     1       1.539   8.888  13.512  1.00  0.00     0.289 C 
HETATM    4  O1  UNL     1       2.744   9.019  13.610  1.00  0.00    -0.260 OA
HETATM    5  O2  UNL     1       0.619   9.193  14.462  1.00  0.00    -0.311 OA
HETATM    6  C4  UNL     1      -0.715   9.044  13.928  1.00  0.00     0.142 C 
HETATM    7  C5  UNL     1      -1.641   8.691  15.088  1.00  0.00     0.039 C 
HETATM    8  C6  UNL     1      -2.596   7.505  14.912  1.00  0.00     0.006 C 
HETATM    9  C7  UNL     1      -1.994   6.331  14.115  1.00  0.00    -0.027 A 
HETATM   10  C8  UNL     1      -2.932   5.117  14.027  1.00  0.00     0.011 C 
HETATM   11  C9  UNL     1      -4.380   5.464  13.630  1.00  0.00     0.011 C 
HETATM   12  C10 UNL     1      -4.960   6.581  14.518  1.00  0.00    -0.032 C 
HETATM   13  C11 UNL     1      -5.080   6.033  15.977  1.00  0.00     0.016 C 
HETATM   14  C12 UNL     1      -6.342   7.187  14.114  1.00  0.00    -0.002 C 
HETATM   15  C21 UNL     1      -6.293   8.592  14.799  1.00  0.00     0.006 C 
HETATM   16  C22 UNL     1      -4.822   8.893  15.156  1.00  0.00     0.011 C 
HETATM   17  C23 UNL     1      -4.017   7.847  14.372  1.00  0.00    -0.032 C 
HETATM   18  C24 UNL     1      -3.904   8.394  12.915  1.00  0.00     0.016 C 
HETATM   19  C25 UNL     1      -0.541   5.990  14.361  1.00  0.00     0.022 A 
HETATM   20  C26 UNL     1      -0.925   6.611  13.028  1.00  0.00    -0.021 A 
HETATM   21  C31 UNL     1      -0.604   8.086  12.745  1.00  0.00     0.063 C 
ENDROOT
BRANCH  14  22
HETATM   22  C13 UNL     1      -7.662   6.428  14.441  1.00  0.00    -0.007 C 
HETATM   23  C14 UNL     1      -7.434   5.250  15.398  1.00  0.00     0.011 C 
BRANCH  22  24
HETATM   24  C15 UNL     1      -8.314   5.895  13.142  1.00  0.00     0.087 C 
BRANCH  24  25
HETATM   25  C16 UNL     1      -7.991   4.436  12.854  1.00  0.00     0.149 C 
HETATM   26  O3  UNL     1      -8.681   3.511  13.275  1.00  0.00    -0.293 OA
BRANCH  25  27
HETATM   27  C17 UNL     1      -6.812   4.195  11.965  1.00  0.00     0.052 C 
HETATM   28  C18 UNL     1      -6.307   2.993  11.628  1.00  0.00    -0.084 C 
HETATM   29  C19 UNL     1      -6.813   1.668  12.131  1.00  0.00     0.043 C 
HETATM   30  C20 UNL     1      -5.140   2.894  10.681  1.00  0.00     0.043 C 
ENDBRANCH  25  27
ENDBRANCH  24  25
ENDBRANCH  22  24
ENDBRANCH  14  22
BRANCH  20  31
HETATM   31  C27 UNL     1      -0.954   5.757  11.746  1.00  0.00     0.021 C 
BRANCH  31  32
HETATM   32  C28 UNL     1      -0.085   4.502  11.726  1.00  0.00     0.112 C 
BRANCH  32  33
HETATM   33  C29 UNL     1      -0.833   3.247  11.357  1.00  0.00     0.258 C 
HETATM   34  O4  UNL     1      -2.010   3.232  11.018  1.00  0.00    -0.265 OA
BRANCH  33  35
HETATM   35  O5  UNL     1      -0.017   2.159  11.407  1.00  0.00    -0.326 OA
HETATM   36  C30 UNL     1      -0.551   1.010  10.747  1.00  0.00     0.213 C 
ENDBRANCH  33  35
ENDBRANCH  32  33
ENDBRANCH  31  32
ENDBRANCH  20  31
TORSDOF 8
ENDMDL
