MODEL 1
REMARK minimizedAffinity -7.65440273
REMARK  2 active torsions:
REMARK  status: ('A' for Active; 'I' for Inactive)
REMARK    1  A    between atoms: C2_2  and  C3_3 
REMARK    2  A    between atoms: C3_3  and  C4_4 
ROOT
HETATM    1  C3  UNL     1       0.336  52.575 -25.131  1.00  0.00     0.011 C 
HETATM    2  C7  UNL     1       0.756  53.696 -24.125  1.00  0.00     0.055 C 
HETATM    3  C8  UNL     1       0.610  53.024 -22.793  1.00  0.00    -0.051 A 
HETATM    4  C9  UNL     1       1.132  53.424 -21.573  1.00  0.00     0.011 A 
HETATM    5  C10 UNL     1       0.832  52.659 -20.444  1.00  0.00     0.043 A 
HETATM    6  C11 UNL     1       0.012  51.530 -20.558  1.00  0.00     0.117 A 
HETATM    7  F1  UNL     1      -0.268  50.814 -19.461  1.00  0.00    -0.206 F 
HETATM    8  C12 UNL     1      -0.522  51.137 -21.782  1.00  0.00     0.049 A 
HETATM    9  C13 UNL     1      -0.207  51.894 -22.897  1.00  0.00    -0.048 A 
HETATM   10  C14 UNL     1      -0.676  51.703 -24.308  1.00  0.00     0.055 C 
ENDROOT
BRANCH   1  11
HETATM   11  C2  UNL     1       1.552  51.678 -25.534  1.00  0.00     0.012 C 
HETATM   12  C1  UNL     1       1.972  51.752 -26.999  1.00  0.00     0.006 C 
ENDBRANCH   1  11
BRANCH   1  13
HETATM   13  C4  UNL     1      -0.337  53.121 -26.368  1.00  0.00     0.035 A 
HETATM   14  C5  UNL     1      -1.376  52.606 -27.119  1.00  0.00     0.114 A 
HETATM   15  N1  UNL     1      -1.595  53.520 -28.112  1.00  0.00    -0.360 N 
HETATM   16  C6  UNL     1      -0.712  54.543 -27.932  1.00  0.00     0.180 A 
HETATM   17  H7  UNL     1      -2.290  53.458 -28.845  1.00  0.00     0.166 HD
HETATM   18  N2  UNL     1       0.056  54.336 -26.889  1.00  0.00    -0.354 N 
ATOM     19  H2  UNL     1       0.792  54.946 -26.537  1.00  0.00     0.166 HD
ENDBRANCH   1  13
TORSDOF 2
ENDMDL
