MODEL 1
REMARK minimizedAffinity -7.02040243
REMARK CNNscore 0.607034564
REMARK CNNaffinity 6.8494339
REMARK  10 active torsions:
REMARK  status: ('A' for Active; 'I' for Inactive)
REMARK    1  A    between atoms: C2_2  and  O2_4 
REMARK    2  A    between atoms: O2_4  and  C3_5 
REMARK    3  A    between atoms: C3_5  and  C4_6 
REMARK    4  A    between atoms: C3_5  and  C30_36 
REMARK    5  A    between atoms: C4_6  and  O3_7 
REMARK    6  A    between atoms: C4_6  and  C5_8 
REMARK    7  A    between atoms: C5_8  and  C6_9 
REMARK    8  A    between atoms: C6_9  and  C8_11 
REMARK    9  A    between atoms: C27_31  and  O5_32 
REMARK   10  A    between atoms: C30_36  and  O7_39 
ROOT
HETATM    1  C8  UNL     1       4.708   7.606  10.592  1.00  0.00     0.097 A 
HETATM    2  C9  UNL     1       4.365   8.935   9.982  1.00  0.00     0.042 C 
HETATM    3  C10 UNL     1       3.345   8.613   8.869  1.00  0.00     0.016 C 
HETATM    4  C11 UNL     1       2.639   7.268   9.266  1.00  0.00    -0.002 C 
HETATM    5  C12 UNL     1       2.482   6.409   7.981  1.00  0.00     0.019 C 
HETATM    6  C13 UNL     1       1.235   7.456  10.036  1.00  0.00    -0.027 C 
HETATM    7  C14 UNL     1       0.194   7.838   8.942  1.00  0.00     0.016 C 
HETATM    8  C15 UNL     1       1.267   8.612  11.070  1.00  0.00     0.011 C 
HETATM    9  C16 UNL     1      -0.021   8.785  11.883  1.00  0.00     0.007 C 
HETATM   10  C17 UNL     1      -0.467   7.514  12.629  1.00  0.00     0.009 C 
HETATM   11  C18 UNL     1      -1.729   7.725  13.545  1.00  0.00     0.017 C 
HETATM   12  C19 UNL     1      -1.268   8.250  14.925  1.00  0.00     0.023 C 
HETATM   13  C20 UNL     1      -2.733   8.750  12.972  1.00  0.00     0.023 C 
HETATM   14  C21 UNL     1      -2.515   6.435  13.830  1.00  0.00     0.135 C 
HETATM   15  O4  UNL     1      -3.645   6.477  14.335  1.00  0.00    -0.297 OA
HETATM   16  C22 UNL     1      -1.898   5.079  13.572  1.00  0.00     0.080 C 
HETATM   17  C23 UNL     1      -0.682   5.047  12.661  1.00  0.00     0.017 C 
HETATM   18  C24 UNL     1      -0.525   6.260  11.702  1.00  0.00    -0.032 C 
HETATM   19  C25 UNL     1      -1.765   6.261  10.766  1.00  0.00     0.016 C 
HETATM   20  C26 UNL     1       0.816   6.120  10.812  1.00  0.00     0.032 C 
HETATM   21  C27 UNL     1       2.014   5.492  11.619  1.00  0.00     0.126 C 
HETATM   22  C28 UNL     1       3.299   5.330  10.819  1.00  0.00     0.074 C 
HETATM   23  C29 UNL     1       3.666   6.606  10.160  1.00  0.00     0.104 A 
HETATM   24  O6  UNL     1       5.001   6.586   9.620  1.00  0.00    -0.362 OA
ENDROOT
BRANCH   1  25
HETATM   25  C6  UNL     1       5.564   7.505  11.837  1.00  0.00     0.022 C 
HETATM   26  C7  UNL     1       6.266   6.148  11.929  1.00  0.00     0.013 C 
BRANCH  25  27
HETATM   27  C5  UNL     1       4.706   7.798  13.094  1.00  0.00     0.041 C 
BRANCH  27  28
HETATM   28  C4  UNL     1       5.505   7.866  14.403  1.00  0.00     0.151 C 
BRANCH  28  29
HETATM   29  C3  UNL     1       6.487   9.068  14.511  1.00  0.00     0.194 C 
BRANCH  29  30
HETATM   30  O2  UNL     1       7.018   9.406  13.209  1.00  0.00    -0.311 OA
BRANCH  30  31
HETATM   31  C2  UNL     1       6.795  10.672  12.766  1.00  0.00     0.255 C 
HETATM   32  C1  UNL     1       7.949  11.133  11.926  1.00  0.00     0.126 C 
HETATM   33  O1  UNL     1       5.794  11.339  12.982  1.00  0.00    -0.266 OA
ENDBRANCH  30  31
ENDBRANCH  29  30
BRANCH  29  34
HETATM   34  C30 UNL     1       7.677   8.917  15.520  1.00  0.00     0.080 C 
HETATM   35  C31 UNL     1       8.025  10.304  16.090  1.00  0.00     0.048 C 
HETATM   36  C32 UNL     1       8.954   8.332  14.898  1.00  0.00     0.048 C 
BRANCH  34  37
HETATM   37  O7  UNL     1       7.286   8.087  16.626  1.00  0.00    -0.388 OA
HETATM   38  H52 UNL     1       8.035   8.053  17.250  1.00  0.00     0.210 HD
ENDBRANCH  34  37
ENDBRANCH  29  34
ENDBRANCH  28  29
BRANCH  28  39
HETATM   39  O3  UNL     1       6.191   6.626  14.599  1.00  0.00    -0.393 OA
HETATM   40  H6  UNL     1       6.970   6.651  13.999  1.00  0.00     0.210 HD
ENDBRANCH  28  39
ENDBRANCH  27  28
ENDBRANCH  25  27
ENDBRANCH   1  25
BRANCH  21  41
HETATM   41  O5  UNL     1       2.301   6.229  12.802  1.00  0.00    -0.395 OA
HETATM   42  H43 UNL     1       3.059   5.808  13.246  1.00  0.00     0.210 HD
ENDBRANCH  21  41
TORSDOF 10
ENDMDL
