MODEL 1
REMARK minimizedAffinity -9.3896513
REMARK  9 active torsions:
REMARK  status: ('A' for Active; 'I' for Inactive)
REMARK    1  A    between atoms: C2_2  and  C3_3 
REMARK    2  A    between atoms: C2_2  and  C9_12 
REMARK    3  A    between atoms: C3_3  and  C4_4 
REMARK    4  A    between atoms: C4_4  and  C5_5 
REMARK    5  A    between atoms: C5_5  and  O1_6 
REMARK    6  A    between atoms: C5_5  and  C6_7 
REMARK    7  A    between atoms: C6_7  and  O2_9 
REMARK    8  A    between atoms: C6_7  and  C8_10 
REMARK    9  A    between atoms: C8_10  and  O3_11 
ROOT
HETATM    1  C9  UNL     1      -6.380   7.247  15.024  1.00  0.00    -0.002 C 
HETATM    2  C10 UNL     1      -6.072   8.711  15.442  1.00  0.00     0.007 C 
HETATM    3  C11 UNL     1      -4.653   9.035  14.937  1.00  0.00     0.015 C 
HETATM    4  C12 UNL     1      -4.321   7.923  13.922  1.00  0.00    -0.005 C 
HETATM    5  C13 UNL     1      -4.979   8.333  12.567  1.00  0.00     0.021 C 
HETATM    6  C14 UNL     1      -2.874   7.605  13.558  1.00  0.00    -0.000 C 
HETATM    7  C15 UNL     1      -2.506   6.350  13.183  1.00  0.00    -0.060 C 
HETATM    8  C16 UNL     1      -3.526   5.205  13.171  1.00  0.00     0.036 C 
HETATM    9  C17 UNL     1      -4.955   5.506  13.669  1.00  0.00     0.015 C 
HETATM   10  C18 UNL     1      -4.977   6.681  14.652  1.00  0.00    -0.028 C 
HETATM   11  C19 UNL     1      -4.208   6.258  15.938  1.00  0.00     0.016 C 
HETATM   12  C20 UNL     1      -1.044   5.979  12.811  1.00  0.00    -0.014 C 
HETATM   13  C21 UNL     1      -0.407   5.439  14.112  1.00  0.00     0.020 C 
HETATM   14  C22 UNL     1      -0.989   4.886  11.713  1.00  0.00     0.021 C 
HETATM   15  C23 UNL     1       0.419   4.580  11.228  1.00  0.00     0.080 C 
HETATM   16  C24 UNL     1       1.091   5.823  10.701  1.00  0.00     0.135 C 
HETATM   17  O4  UNL     1       1.708   5.777   9.634  1.00  0.00    -0.297 OA
HETATM   18  C25 UNL     1       1.076   7.078  11.587  1.00  0.00     0.018 C 
HETATM   19  C26 UNL     1       1.376   8.296  10.676  1.00  0.00     0.023 C 
HETATM   20  C27 UNL     1       2.236   6.967  12.588  1.00  0.00     0.023 C 
HETATM   21  C28 UNL     1      -0.347   7.256  12.227  1.00  0.00     0.020 C 
HETATM   22  C29 UNL     1      -0.429   8.403  13.238  1.00  0.00     0.090 C 
HETATM   23  C30 UNL     1      -1.866   8.714  13.585  1.00  0.00     0.157 C 
HETATM   24  O5  UNL     1      -2.181   9.858  13.904  1.00  0.00    -0.293 OA
ENDROOT
BRANCH   1  25
HETATM   25  C2  UNL     1      -7.378   6.523  15.981  1.00  0.00    -0.014 C 
HETATM   26  C1  UNL     1      -7.538   5.009  15.800  1.00  0.00     0.010 C 
BRANCH  25  27
HETATM   27  C3  UNL     1      -8.757   7.217  15.989  1.00  0.00     0.007 C 
BRANCH  27  28
HETATM   28  C4  UNL     1      -9.438   7.431  14.627  1.00  0.00     0.035 C 
BRANCH  28  29
HETATM   29  C5  UNL     1     -10.976   7.354  14.553  1.00  0.00     0.154 C 
BRANCH  29  30
HETATM   30  O1  UNL     1     -11.511   8.103  15.648  1.00  0.00    -0.392 OA
HETATM   31  H10 UNL     1     -12.476   8.180  15.511  1.00  0.00     0.210 HD
ENDBRANCH  29  30
BRANCH  29  32
HETATM   32  C6  UNL     1     -11.635   7.723  13.180  1.00  0.00     0.101 C 
HETATM   33  C7  UNL     1     -13.063   7.176  13.081  1.00  0.00     0.051 C 
BRANCH  32  34
HETATM   34  O2  UNL     1     -10.860   7.194  12.091  1.00  0.00    -0.385 OA
HETATM   35  H14 UNL     1     -11.377   7.280  11.273  1.00  0.00     0.210 HD
ENDBRANCH  32  34
BRANCH  32  36
HETATM   36  C8  UNL     1     -11.656   9.256  12.985  1.00  0.00     0.204 C 
BRANCH  36  37
HETATM   37  O3  UNL     1     -11.838   9.569  11.601  1.00  0.00    -0.398 OA
HETATM   38  H17 UNL     1     -12.586   9.005  11.305  1.00  0.00     0.209 HD
ENDBRANCH  36  37
ENDBRANCH  32  36
ENDBRANCH  29  32
ENDBRANCH  28  29
ENDBRANCH  27  28
ENDBRANCH  25  27
ENDBRANCH   1  25
TORSDOF 9
ENDMDL
