MODEL 1
REMARK minimizedAffinity -8.45077229
REMARK CNNscore 0.827223599
REMARK CNNaffinity 7.0804882
REMARK  12 active torsions:
REMARK  status: ('A' for Active; 'I' for Inactive)
REMARK    1  A    between atoms: C2_2  and  C17_19 
REMARK    2  A    between atoms: C3_3  and  C4_4 
REMARK    3  A    between atoms: C4_4  and  C5_5 
REMARK    4  A    between atoms: C5_5  and  C6_6 
REMARK    5  A    between atoms: C12_12  and  O1_13 
REMARK    6  A    between atoms: C17_19  and  C18_20 
REMARK    7  A    between atoms: C19_21  and  C20_22 
REMARK    8  A    between atoms: C20_22  and  C22_24 
REMARK    9  A    between atoms: C22_24  and  C23_26 
REMARK   10  A    between atoms: C23_26  and  O4_27 
REMARK   11  A    between atoms: C23_26  and  C24_28 
REMARK   12  A    between atoms: C24_28  and  C25_29 
ROOT
HETATM    1  C1  UNL     1      -1.118   5.366  13.691  1.00  0.00     0.043 C 
HETATM    2  C2  UNL     1      -1.187   6.573  14.589  1.00  0.00    -0.084 C 
HETATM    3  C3  UNL     1      -2.258   6.892  15.347  1.00  0.00    -0.024 C 
ENDROOT
BRANCH   3   4
HETATM    4  C4  UNL     1      -3.514   6.085  15.522  1.00  0.00     0.030 C 
BRANCH   4   5
HETATM    5  C5  UNL     1      -4.836   6.860  15.472  1.00  0.00     0.042 C 
BRANCH   5   6
HETATM    6  C6  UNL     1      -5.430   7.225  14.085  1.00  0.00     0.065 C 
HETATM    7  C7  UNL     1      -4.783   8.505  13.529  1.00  0.00     0.046 C 
HETATM    8  C8  UNL     1      -6.955   7.403  14.056  1.00  0.00     0.043 C 
HETATM    9  C9  UNL     1      -7.665   6.107  14.408  1.00  0.00     0.044 C 
HETATM   10  C10 UNL     1      -7.076   4.964  13.634  1.00  0.00    -0.021 A 
HETATM   11  C11 UNL     1      -7.804   3.773  13.496  1.00  0.00     0.046 A 
HETATM   12  C16 UNL     1      -5.797   5.062  13.070  1.00  0.00     0.082 A 
HETATM   13  C12 UNL     1      -7.261   2.711  12.781  1.00  0.00     0.066 A 
HETATM   14  C13 UNL     1      -6.000   2.809  12.207  1.00  0.00     0.046 A 
HETATM   15  C14 UNL     1      -5.254   3.986  12.347  1.00  0.00    -0.025 A 
HETATM   16  C15 UNL     1      -3.891   4.086  11.722  1.00  0.00     0.051 C 
HETATM   17  O2  UNL     1      -5.021   6.189  13.161  1.00  0.00    -0.340 OA
BRANCH  13  18
HETATM   18  O1  UNL     1      -7.944   1.543  12.616  1.00  0.00    -0.361 OA
HETATM   19  H17 UNL     1      -8.812   1.627  13.042  1.00  0.00     0.217 HD
ENDBRANCH  13  18
ENDBRANCH   5   6
ENDBRANCH   4   5
ENDBRANCH   3   4
BRANCH   2  20
HETATM   20  C17 UNL     1       0.049   7.459  14.574  1.00  0.00     0.060 C 
BRANCH  20  21
HETATM   21  C18 UNL     1       1.270   6.687  14.155  1.00  0.00    -0.026 C 
HETATM   22  C19 UNL     1       1.918   6.624  12.980  1.00  0.00    -0.019 C 
BRANCH  22  23
HETATM   23  C20 UNL     1       1.671   7.260  11.629  1.00  0.00     0.076 C 
HETATM   24  C21 UNL     1       2.215   8.670  11.405  1.00  0.00     0.022 C 
BRANCH  23  25
HETATM   25  C22 UNL     1       2.157   6.300  10.533  1.00  0.00     0.162 C 
HETATM   26  O3  UNL     1       1.570   5.243  10.266  1.00  0.00    -0.294 OA
BRANCH  25  27
HETATM   27  C23 UNL     1       3.365   6.725   9.676  1.00  0.00     0.188 C 
BRANCH  27  28
HETATM   28  O4  UNL     1       4.525   6.909  10.485  1.00  0.00    -0.388 OA
HETATM   29  H31 UNL     1       4.285   6.598  11.384  1.00  0.00     0.210 HD
ENDBRANCH  27  28
BRANCH  27  30
HETATM   30  C24 UNL     1       3.153   7.961   8.790  1.00  0.00     0.043 C 
BRANCH  30  31
HETATM   31  C25 UNL     1       2.119   7.909   7.641  1.00  0.00    -0.020 C 
HETATM   32  C26 UNL     1       0.685   8.199   8.080  1.00  0.00     0.009 C 
HETATM   33  C27 UNL     1       2.174   6.613   6.834  1.00  0.00     0.009 C 
ENDBRANCH  30  31
ENDBRANCH  27  30
ENDBRANCH  25  27
ENDBRANCH  23  25
ENDBRANCH  22  23
ENDBRANCH  20  21
ENDBRANCH   2  20
TORSDOF 12
ENDMDL
