MODEL 1
REMARK minimizedAffinity -7.76468372
REMARK CNNscore 0.821581244
REMARK CNNaffinity 6.31984282
REMARK  13 active torsions:
REMARK  status: ('A' for Active; 'I' for Inactive)
REMARK    1  A    between atoms: C2_2  and  C3_3 
REMARK    2  A    between atoms: C2_2  and  C9_11 
REMARK    3  A    between atoms: C3_3  and  C4_4 
REMARK    4  A    between atoms: C4_4  and  C5_5 
REMARK    5  A    between atoms: C5_5  and  C6_6 
REMARK    6  A    between atoms: C6_6  and  O1_8 
REMARK    7  A    between atoms: C6_6  and  C8_9 
REMARK    8  A    between atoms: C8_9  and  O2_10 
REMARK    9  A    between atoms: C10_12  and  O3_13 
REMARK   10  A    between atoms: C11_14  and  O4_15 
REMARK   11  A    between atoms: C13_17  and  O5_18 
REMARK   12  A    between atoms: C15_20  and  O6_21 
REMARK   13  A    between atoms: C18_24  and  O7_25 
ROOT
HETATM    1  C9  UNL     1     -13.389  46.369 -27.826  1.00  0.00     0.029 C 
HETATM    2  C10 UNL     1     -13.119  47.522 -26.816  1.00  0.00     0.152 C 
HETATM    3  C11 UNL     1     -11.600  47.799 -26.859  1.00  0.00     0.155 C 
HETATM    4  C12 UNL     1     -11.194  47.277 -28.241  1.00  0.00     0.060 C 
HETATM    5  C13 UNL     1      -9.684  47.189 -28.603  1.00  0.00     0.071 C 
HETATM    6  C14 UNL     1      -9.123  48.591 -28.942  1.00  0.00     0.071 C 
HETATM    7  C15 UNL     1      -9.090  48.892 -30.433  1.00  0.00     0.126 C 
HETATM    8  C16 UNL     1      -8.165  47.931 -31.204  1.00  0.00     0.025 C 
HETATM    9  C17 UNL     1      -8.517  47.951 -32.708  1.00  0.00     0.039 C 
HETATM   10  C18 UNL     1      -7.496  47.175 -33.545  1.00  0.00     0.118 C 
HETATM   11  C19 UNL     1      -6.966  45.921 -32.849  1.00  0.00     0.032 C 
HETATM   12  C20 UNL     1      -7.935  45.427 -31.776  1.00  0.00     0.012 C 
HETATM   13  C21 UNL     1      -8.147  46.472 -30.631  1.00  0.00    -0.031 C 
HETATM   14  C22 UNL     1      -6.898  46.325 -29.704  1.00  0.00     0.016 C 
HETATM   15  C23 UNL     1      -9.439  46.150 -29.771  1.00  0.00     0.029 C 
HETATM   16  C24 UNL     1     -10.736  45.953 -30.597  1.00  0.00     0.009 C 
HETATM   17  C25 UNL     1     -11.933  45.435 -29.778  1.00  0.00     0.011 C 
HETATM   18  C26 UNL     1     -11.962  45.921 -28.314  1.00  0.00    -0.029 C 
HETATM   19  C27 UNL     1     -11.370  44.824 -27.403  1.00  0.00     0.016 C 
ENDROOT
BRANCH   1  20
HETATM   20  C2  UNL     1     -14.500  45.352 -27.427  1.00  0.00    -0.011 C 
HETATM   21  C1  UNL     1     -14.069  44.122 -26.618  1.00  0.00     0.010 C 
BRANCH  20  22
HETATM   22  C3  UNL     1     -15.331  44.923 -28.661  1.00  0.00     0.005 C 
BRANCH  22  23
HETATM   23  C4  UNL     1     -16.042  43.563 -28.568  1.00  0.00     0.003 C 
BRANCH  23  24
HETATM   24  C5  UNL     1     -17.524  43.619 -28.955  1.00  0.00     0.040 C 
BRANCH  24  25
HETATM   25  C6  UNL     1     -18.513  43.007 -27.935  1.00  0.00     0.075 C 
HETATM   26  C7  UNL     1     -17.767  41.982 -27.074  1.00  0.00     0.048 C 
BRANCH  25  27
HETATM   27  O1  UNL     1     -19.536  42.298 -28.647  1.00  0.00    -0.388 OA
HETATM   28  H14 UNL     1     -20.195  42.981 -28.887  1.00  0.00     0.210 HD
ENDBRANCH  25  27
BRANCH  25  29
HETATM   29  C8  UNL     1     -19.194  44.047 -27.021  1.00  0.00     0.201 C 
BRANCH  29  30
HETATM   30  O2  UNL     1     -18.801  45.368 -27.399  1.00  0.00    -0.398 OA
HETATM   31  H17 UNL     1     -19.272  45.981 -26.805  1.00  0.00     0.209 HD
ENDBRANCH  29  30
ENDBRANCH  25  29
ENDBRANCH  24  25
ENDBRANCH  23  24
ENDBRANCH  22  23
ENDBRANCH  20  22
ENDBRANCH   1  20
BRANCH   2  32
HETATM   32  O3  UNL     1     -13.538  47.268 -25.486  1.00  0.00    -0.393 OA
HETATM   33  H20 UNL     1     -13.326  48.072 -24.977  1.00  0.00     0.210 HD
ENDBRANCH   2  32
BRANCH   3  34
HETATM   34  O4  UNL     1     -11.384  49.192 -26.682  1.00  0.00    -0.392 OA
HETATM   35  H22 UNL     1     -10.464  49.320 -26.396  1.00  0.00     0.210 HD
ENDBRANCH   3  34
BRANCH   5  36
HETATM   36  O5  UNL     1      -8.975  46.702 -27.454  1.00  0.00    -0.389 OA
HETATM   37  H24 UNL     1      -8.765  47.447 -26.866  1.00  0.00     0.210 HD
ENDBRANCH   5  36
BRANCH   7  38
HETATM   38  O6  UNL     1      -8.625  50.237 -30.575  1.00  0.00    -0.395 OA
HETATM   39  H28 UNL     1      -8.456  50.408 -31.517  1.00  0.00     0.210 HD
ENDBRANCH   7  38
BRANCH  10  40
HETATM   40  O7  UNL     1      -6.404  48.041 -33.841  1.00  0.00    -0.396 OA
HETATM   41  H33 UNL     1      -5.785  47.549 -34.407  1.00  0.00     0.210 HD
ENDBRANCH  10  40
TORSDOF 13
ENDMDL
