MODEL 1
REMARK minimizedAffinity -9.05081463
REMARK CNNscore 0.479210138
REMARK CNNaffinity 7.18917847
REMARK  13 active torsions:
REMARK  status: ('A' for Active; 'I' for Inactive)
REMARK    1  A    between atoms: O1_2  and  C2_3 
REMARK    2  A    between atoms: C12_14  and  C13_15 
REMARK    3  A    between atoms: C13_15  and  C15_17 
REMARK    4  A    between atoms: C15_17  and  C16_18 
REMARK    5  A    between atoms: C17_19  and  C18_20 
REMARK    6  A    between atoms: C18_20  and  O3_23 
REMARK    7  A    between atoms: C28_31  and  O4_32 
REMARK    8  A    between atoms: O4_32  and  C29_33 
REMARK    9  A    between atoms: C30_35  and  C31_36 
REMARK   10  A    between atoms: C31_36  and  O6_37 
REMARK   11  A    between atoms: C32_38  and  O7_39 
REMARK   12  A    between atoms: C33_40  and  O8_41 
REMARK   13  A    between atoms: C34_42  and  O9_43 
ROOT
HETATM    1  C2  UNL     1      -0.691  53.682  -7.882  1.00  0.00     0.270 C 
HETATM    2  O2  UNL     1      -1.840  53.654  -8.767  1.00  0.00    -0.344 OA
HETATM    3  C3  UNL     1      -1.459  52.950  -9.973  1.00  0.00     0.095 C 
HETATM    4  C4  UNL     1      -1.092  54.027 -10.997  1.00  0.00     0.008 C 
HETATM    5  C5  UNL     1       0.024  54.768 -10.884  1.00  0.00    -0.021 C 
HETATM    6  C6  UNL     1       0.842  54.683  -9.620  1.00  0.00     0.030 C 
HETATM    7  C7  UNL     1       0.570  53.353  -8.786  1.00  0.00     0.024 C 
HETATM    8  C8  UNL     1       1.765  52.778  -7.967  1.00  0.00     0.016 C 
HETATM    9  C9  UNL     1       3.168  53.390  -8.126  1.00  0.00     0.011 C 
HETATM   10  C10 UNL     1       3.388  54.107  -9.450  1.00  0.00    -0.032 C 
HETATM   11  C11 UNL     1       3.312  53.101 -10.623  1.00  0.00     0.016 C 
HETATM   12  C12 UNL     1       4.702  54.938  -9.531  1.00  0.00    -0.002 C 
HETATM   13  C21 UNL     1       4.411  55.901 -10.710  1.00  0.00     0.006 C 
HETATM   14  C22 UNL     1       2.866  55.971 -10.844  1.00  0.00     0.011 C 
HETATM   15  C23 UNL     1       2.312  55.234  -9.602  1.00  0.00    -0.029 C 
HETATM   16  C24 UNL     1       2.316  56.299  -8.437  1.00  0.00     0.016 C 
HETATM   17  C25 UNL     1      -0.168  52.224  -9.582  1.00  0.00     0.039 C 
HETATM   18  C26 UNL     1       0.411  51.443 -10.759  1.00  0.00     0.011 C 
HETATM   19  C27 UNL     1      -0.621  50.410 -11.249  1.00  0.00     0.033 C 
HETATM   20  C28 UNL     1      -1.994  51.032 -11.596  1.00  0.00     0.136 C 
HETATM   21  C35 UNL     1      -2.558  51.933 -10.443  1.00  0.00     0.014 C 
HETATM   22  C36 UNL     1      -3.012  51.013  -9.275  1.00  0.00     0.021 C 
HETATM   23  C37 UNL     1      -3.846  52.672 -10.886  1.00  0.00     0.021 C 
ENDROOT
BRANCH  20  24
HETATM   24  O4  UNL     1      -1.798  51.795 -12.792  1.00  0.00    -0.352 OA
BRANCH  24  25
HETATM   25  C29 UNL     1      -1.329  51.025 -13.909  1.00  0.00     0.292 C 
HETATM   26  O5  UNL     1      -0.245  51.707 -14.532  1.00  0.00    -0.348 OA
HETATM   27  C30 UNL     1       0.333  50.997 -15.639  1.00  0.00     0.179 C 
HETATM   28  C32 UNL     1      -0.592  49.932 -16.275  1.00  0.00     0.180 C 
HETATM   29  C33 UNL     1      -2.062  50.376 -16.273  1.00  0.00     0.183 C 
HETATM   30  C34 UNL     1      -2.510  50.900 -14.897  1.00  0.00     0.204 C 
BRANCH  27  31
HETATM   31  C31 UNL     1       0.785  52.050 -16.660  1.00  0.00     0.198 C 
BRANCH  31  32
HETATM   32  O6  UNL     1       1.447  53.141 -16.028  1.00  0.00    -0.398 OA
HETATM   33  H48 UNL     1       0.757  53.755 -15.719  1.00  0.00     0.209 HD
ENDBRANCH  31  32
ENDBRANCH  27  31
BRANCH  28  34
HETATM   34  O7  UNL     1      -0.460  48.711 -15.522  1.00  0.00    -0.390 OA
HETATM   35  H50 UNL     1      -1.119  48.072 -15.851  1.00  0.00     0.210 HD
ENDBRANCH  28  34
BRANCH  29  36
HETATM   36  O8  UNL     1      -2.304  51.380 -17.264  1.00  0.00    -0.390 OA
HETATM   37  H52 UNL     1      -2.038  51.026 -18.133  1.00  0.00     0.210 HD
ENDBRANCH  29  36
BRANCH  30  38
HETATM   38  O9  UNL     1      -3.515  50.015 -14.364  1.00  0.00    -0.388 OA
HETATM   39  H54 UNL     1      -4.379  50.396 -14.611  1.00  0.00     0.210 HD
ENDBRANCH  30  38
ENDBRANCH  24  25
ENDBRANCH  20  24
BRANCH   1  40
HETATM   40  O1  UNL     1      -0.858  52.716  -6.839  1.00  0.00    -0.365 OA
HETATM   41  C1  UNL     1      -1.309  53.315  -5.632  1.00  0.00     0.204 C 
ENDBRANCH   1  40
BRANCH  12  42
HETATM   42  C13 UNL     1       6.123  54.303  -9.459  1.00  0.00    -0.010 C 
HETATM   43  C14 UNL     1       5.988  52.870  -8.896  1.00  0.00     0.010 C 
BRANCH  42  44
HETATM   44  C15 UNL     1       7.217  55.079  -8.695  1.00  0.00     0.031 C 
BRANCH  44  45
HETATM   45  C16 UNL     1       6.877  55.648  -7.332  1.00  0.00    -0.027 C 
HETATM   46  C17 UNL     1       5.992  56.627  -7.058  1.00  0.00     0.006 C 
BRANCH  46  47
HETATM   47  C18 UNL     1       5.637  57.203  -5.703  1.00  0.00     0.068 C 
HETATM   48  C19 UNL     1       6.677  58.255  -5.306  1.00  0.00     0.050 C 
HETATM   49  C20 UNL     1       5.473  56.183  -4.572  1.00  0.00     0.050 C 
BRANCH  47  50
HETATM   50  O3  UNL     1       4.372  57.860  -5.840  1.00  0.00    -0.387 OA
HETATM   51  H30 UNL     1       4.438  58.486  -6.581  1.00  0.00     0.211 HD
ENDBRANCH  47  50
ENDBRANCH  46  47
ENDBRANCH  44  45
ENDBRANCH  42  44
ENDBRANCH  12  42
TORSDOF 13
ENDMDL
