MODEL 1
REMARK minimizedAffinity -7.29448223
REMARK CNNscore 0.893933535
REMARK CNNaffinity 6.13602304
REMARK  11 active torsions:
REMARK  status: ('A' for Active; 'I' for Inactive)
REMARK    1  A    between atoms: C2_2  and  C27_32 
REMARK    2  A    between atoms: C3_3  and  C4_4 
REMARK    3  A    between atoms: C4_4  and  C5_5 
REMARK    4  A    between atoms: C5_5  and  C6_6 
REMARK    5  A    between atoms: C6_6  and  C8_8 
REMARK    6  A    between atoms: C10_10  and  O1_11 
REMARK    7  A    between atoms: C11_12  and  O2_13 
REMARK    8  A    between atoms: C21_23  and  O3_24 
REMARK    9  A    between atoms: C24_27  and  O4_28 
REMARK   10  A    between atoms: C26_30  and  O5_31 
REMARK   11  A    between atoms: C27_32  and  O6_33 
ROOT
HETATM    1  C8  UNL     1      -3.042  11.846  15.524  1.00  0.00     0.003 C 
HETATM    2  C9  UNL     1      -1.579  12.195  15.814  1.00  0.00     0.041 C 
HETATM    3  C10 UNL     1      -0.854  10.903  15.470  1.00  0.00     0.156 C 
HETATM    4  C11 UNL     1      -1.701   9.821  16.179  1.00  0.00     0.122 C 
HETATM    5  C12 UNL     1      -3.203  10.370  16.080  1.00  0.00    -0.003 C 
HETATM    6  C13 UNL     1      -3.896  10.296  17.451  1.00  0.00     0.019 C 
HETATM    7  C14 UNL     1      -4.042   9.543  15.073  1.00  0.00     0.013 C 
HETATM    8  C15 UNL     1      -3.229   9.064  13.874  1.00  0.00     0.009 C 
HETATM    9  C16 UNL     1      -2.099   8.076  14.244  1.00  0.00     0.032 C 
HETATM   10  C17 UNL     1      -1.108   7.769  13.032  1.00  0.00    -0.031 C 
HETATM   11  C18 UNL     1      -1.531   6.367  12.488  1.00  0.00     0.016 C 
HETATM   12  C19 UNL     1      -1.203   8.766  11.837  1.00  0.00     0.012 C 
HETATM   13  C20 UNL     1      -0.224   8.465  10.697  1.00  0.00     0.032 C 
HETATM   14  C21 UNL     1       1.217   8.318  11.177  1.00  0.00     0.118 C 
HETATM   15  C22 UNL     1       1.349   7.374  12.373  1.00  0.00     0.039 C 
HETATM   16  C23 UNL     1       0.376   7.779  13.491  1.00  0.00     0.025 C 
HETATM   17  C24 UNL     1       0.545   6.994  14.789  1.00  0.00     0.126 C 
HETATM   18  C25 UNL     1      -0.053   7.823  15.918  1.00  0.00     0.073 C 
HETATM   19  C26 UNL     1      -1.490   8.347  15.668  1.00  0.00     0.099 C 
ENDROOT
BRANCH   1  20
HETATM   20  C6  UNL     1      -4.000  13.035  15.847  1.00  0.00    -0.013 C 
HETATM   21  C7  UNL     1      -4.093  14.154  14.814  1.00  0.00     0.010 C 
BRANCH  20  22
HETATM   22  C5  UNL     1      -3.947  13.515  17.323  1.00  0.00     0.008 C 
BRANCH  22  23
HETATM   23  C4  UNL     1      -5.238  13.673  18.133  1.00  0.00     0.028 C 
BRANCH  23  24
HETATM   24  C3  UNL     1      -5.097  13.403  19.605  1.00  0.00    -0.022 C 
HETATM   25  C2  UNL     1      -6.063  13.477  20.545  1.00  0.00    -0.064 C 
HETATM   26  C1  UNL     1      -5.754  13.151  21.984  1.00  0.00     0.045 C 
BRANCH  25  27
HETATM   27  C27 UNL     1      -7.493  13.866  20.284  1.00  0.00     0.197 C 
BRANCH  27  28
HETATM   28  O6  UNL     1      -8.348  12.981  20.993  1.00  0.00    -0.397 OA
HETATM   29  H46 UNL     1      -8.085  13.034  21.928  1.00  0.00     0.209 HD
ENDBRANCH  27  28
ENDBRANCH  25  27
ENDBRANCH  23  24
ENDBRANCH  22  23
ENDBRANCH  20  22
ENDBRANCH   1  20
BRANCH   3  30
HETATM   30  O1  UNL     1       0.476  10.978  15.957  1.00  0.00    -0.392 OA
HETATM   31  H17 UNL     1       0.396  10.824  16.922  1.00  0.00     0.210 HD
ENDBRANCH   3  30
BRANCH   4  32
HETATM   32  O2  UNL     1      -1.270   9.850  17.569  1.00  0.00    -0.383 OA
HETATM   33  H18 UNL     1      -1.558   8.988  17.938  1.00  0.00     0.210 HD
ENDBRANCH   4  32
BRANCH  19  34
HETATM   34  O5  UNL     1      -2.248   7.535  16.632  1.00  0.00    -0.386 OA
HETATM   35  H43 UNL     1      -3.164   7.427  16.332  1.00  0.00     0.210 HD
ENDBRANCH  19  34
BRANCH  17  36
HETATM   36  O4  UNL     1       1.928   6.783  15.063  1.00  0.00    -0.395 OA
HETATM   37  H40 UNL     1       1.995   6.352  15.933  1.00  0.00     0.210 HD
ENDBRANCH  17  36
BRANCH  14  38
HETATM   38  O3  UNL     1       2.009   7.838  10.096  1.00  0.00    -0.396 OA
HETATM   39  H35 UNL     1       2.926   7.772  10.418  1.00  0.00     0.210 HD
ENDBRANCH  14  38
TORSDOF 11
ENDMDL
