MODEL 1
REMARK minimizedAffinity -6.63846016
REMARK CNNscore 0.596567512
REMARK CNNaffinity 6.28434515
REMARK  7 active torsions:
REMARK  status: ('A' for Active; 'I' for Inactive)
REMARK    1  A    between atoms: C2_2  and  C4_4 
REMARK    2  A    between atoms: C4_4  and  O2_6 
REMARK    3  A    between atoms: O2_6  and  C5_7 
REMARK    4  A    between atoms: C5_7  and  C6_8 
REMARK    5  A    between atoms: C6_8  and  C7_10 
REMARK    6  A    between atoms: C8_12  and  C9_13 
REMARK    7  A    between atoms: C29_35  and  O7_36 
ROOT
HETATM    1  C7  UNL     1       4.624  15.976   1.554  1.00  0.00     0.160 C 
HETATM    2  O4  UNL     1       4.346  15.844   0.160  1.00  0.00    -0.339 OA
HETATM    3  C8  UNL     1       5.257  14.859  -0.337  1.00  0.00     0.266 C 
HETATM    4  O5  UNL     1       5.659  14.003   0.729  1.00  0.00    -0.352 OA
HETATM    5  C15 UNL     1       5.223  14.613   1.941  1.00  0.00     0.168 C 
HETATM    6  C16 UNL     1       4.083  13.779   2.559  1.00  0.00     0.041 C 
HETATM    7  C17 UNL     1       2.828  14.601   2.265  1.00  0.00     0.004 C 
HETATM    8  C18 UNL     1       1.548  14.256   3.059  1.00  0.00    -0.001 C 
HETATM    9  C19 UNL     1       0.935  13.002   2.389  1.00  0.00     0.010 C 
HETATM   10  C20 UNL     1      -0.445  12.629   2.894  1.00  0.00     0.036 C 
HETATM   11  C21 UNL     1      -1.356  13.820   2.790  1.00  0.00    -0.064 A 
HETATM   12  C22 UNL     1      -2.483  13.762   2.057  1.00  0.00     0.058 A 
HETATM   13  C23 UNL     1      -3.400  14.916   1.947  1.00  0.00     0.172 A 
HETATM   14  O6  UNL     1      -4.416  14.860   1.266  1.00  0.00    -0.289 OA
HETATM   15  C24 UNL     1      -3.042  16.135   2.695  1.00  0.00     0.052 A 
HETATM   16  C25 UNL     1      -1.916  16.190   3.418  1.00  0.00    -0.009 A 
HETATM   17  C26 UNL     1      -0.907  15.062   3.553  1.00  0.00     0.004 A 
HETATM   18  C27 UNL     1      -0.907  14.730   5.071  1.00  0.00     0.025 C 
HETATM   19  C28 UNL     1       0.556  15.483   3.125  1.00  0.00     0.035 C 
HETATM   20  C29 UNL     1       0.753  16.358   1.854  1.00  0.00     0.124 C 
HETATM   21  C30 UNL     1       2.190  16.948   1.766  1.00  0.00     0.045 C 
HETATM   22  C31 UNL     1       3.299  16.060   2.375  1.00  0.00     0.004 C 
HETATM   23  C32 UNL     1       3.610  16.490   3.833  1.00  0.00     0.019 C 
ENDROOT
BRANCH   1  24
HETATM   24  C6  UNL     1       5.589  17.147   1.798  1.00  0.00     0.188 C 
HETATM   25  O3  UNL     1       5.289  18.311   1.515  1.00  0.00    -0.292 OA
BRANCH  24  26
HETATM   26  C5  UNL     1       6.979  16.787   2.322  1.00  0.00     0.260 C 
BRANCH  26  27
HETATM   27  O2  UNL     1       7.021  16.723   3.749  1.00  0.00    -0.314 OA
BRANCH  27  28
HETATM   28  C4  UNL     1       8.268  16.890   4.270  1.00  0.00     0.262 C 
HETATM   29  O1  UNL     1       9.186  17.466   3.697  1.00  0.00    -0.265 OA
BRANCH  28  30
HETATM   30  C2  UNL     1       8.372  16.340   5.680  1.00  0.00     0.077 C 
HETATM   31  C1  UNL     1       9.072  17.306   6.635  1.00  0.00     0.020 C 
HETATM   32  C3  UNL     1       9.063  14.983   5.652  1.00  0.00     0.020 C 
ENDBRANCH  28  30
ENDBRANCH  27  28
ENDBRANCH  26  27
ENDBRANCH  24  26
ENDBRANCH   1  24
BRANCH   3  33
HETATM   33  C9  UNL     1       4.575  14.040  -1.443  1.00  0.00     0.041 C 
HETATM   34  C10 UNL     1       4.395  14.868  -2.731  1.00  0.00     0.009 C 
HETATM   35  C11 UNL     1       4.283  14.018  -3.999  1.00  0.00     0.001 C 
HETATM   36  C12 UNL     1       3.692  12.645  -3.717  1.00  0.00     0.000 C 
HETATM   37  C13 UNL     1       4.542  11.853  -2.724  1.00  0.00     0.001 C 
HETATM   38  C14 UNL     1       5.317  12.730  -1.735  1.00  0.00     0.009 C 
ENDBRANCH   3  33
BRANCH  20  39
HETATM   39  O7  UNL     1      -0.118  17.484   1.825  1.00  0.00    -0.395 OA
HETATM   40  H39 UNL     1      -0.135  17.821   0.912  1.00  0.00     0.210 HD
ENDBRANCH  20  39
TORSDOF 7
ENDMDL
