MODEL 1
REMARK minimizedAffinity -9.82146835
REMARK  7 active torsions:
REMARK  status: ('A' for Active; 'I' for Inactive)
REMARK    1  A    between atoms: C2_2  and  C3_3 
REMARK    2  A    between atoms: C2_2  and  C4_5 
REMARK    3  A    between atoms: C3_3  and  O1_4 
REMARK    4  A    between atoms: C13_14  and  C14_15 
REMARK    5  A    between atoms: C14_15  and  C16_17 
REMARK    6  A    between atoms: C16_17  and  C17_18 
REMARK    7  A    between atoms: C17_18  and  C18_20 
ROOT
HETATM    1  C4  UNL     1      -6.077   5.292  12.911  1.00  0.00     0.051 C 
HETATM    2  C5  UNL     1      -4.775   4.449  12.872  1.00  0.00     0.012 C 
HETATM    3  C6  UNL     1      -3.618   4.789  13.810  1.00  0.00     0.006 C 
HETATM    4  C7  UNL     1      -2.990   6.204  13.745  1.00  0.00    -0.001 C 
HETATM    5  C8  UNL     1      -3.856   7.279  13.026  1.00  0.00    -0.007 C 
HETATM    6  C9  UNL     1      -3.138   8.646  12.829  1.00  0.00     0.006 C 
HETATM    7  C10 UNL     1      -1.660   8.589  12.414  1.00  0.00     0.011 C 
HETATM    8  C11 UNL     1      -0.870   7.610  13.294  1.00  0.00    -0.032 C 
HETATM    9  C12 UNL     1      -0.857   8.160  14.756  1.00  0.00     0.016 C 
HETATM   10  C13 UNL     1       0.598   7.300  12.862  1.00  0.00    -0.002 C 
HETATM   11  C22 UNL     1       0.855   5.916  13.527  1.00  0.00     0.006 C 
HETATM   12  C23 UNL     1      -0.517   5.308  13.884  1.00  0.00     0.011 C 
HETATM   13  C24 UNL     1      -1.543   6.188  13.148  1.00  0.00    -0.032 C 
HETATM   14  C25 UNL     1      -1.603   5.658  11.675  1.00  0.00     0.016 C 
HETATM   15  C26 UNL     1      -5.199   7.570  13.736  1.00  0.00     0.044 C 
HETATM   16  C27 UNL     1      -6.161   6.383  14.025  1.00  0.00     0.079 C 
HETATM   17  C28 UNL     1      -6.036   5.915  15.474  1.00  0.00     0.049 C 
HETATM   18  C29 UNL     1      -6.993   6.794  16.248  1.00  0.00     0.114 C 
HETATM   19  C30 UNL     1      -7.983   7.211  15.212  1.00  0.00     0.259 C 
HETATM   20  O3  UNL     1      -9.066   7.726  15.436  1.00  0.00    -0.265 OA
HETATM   21  O4  UNL     1      -7.495   6.962  13.966  1.00  0.00    -0.309 OA
ENDROOT
BRANCH  10  22
HETATM   22  C14 UNL     1       1.741   8.308  13.171  1.00  0.00    -0.007 C 
HETATM   23  C15 UNL     1       1.275   9.511  13.997  1.00  0.00     0.011 C 
BRANCH  22  24
HETATM   24  C16 UNL     1       2.470   8.798  11.894  1.00  0.00     0.087 C 
BRANCH  24  25
HETATM   25  C17 UNL     1       2.844   7.694  10.918  1.00  0.00     0.149 C 
HETATM   26  O2  UNL     1       3.475   6.708  11.289  1.00  0.00    -0.293 OA
BRANCH  25  27
HETATM   27  C18 UNL     1       2.371   7.851   9.506  1.00  0.00     0.052 C 
HETATM   28  C19 UNL     1       2.486   6.933   8.528  1.00  0.00    -0.084 C 
HETATM   29  C20 UNL     1       1.922   7.199   7.157  1.00  0.00     0.043 C 
HETATM   30  C21 UNL     1       3.150   5.594   8.701  1.00  0.00     0.043 C 
ENDBRANCH  25  27
ENDBRANCH  24  25
ENDBRANCH  22  24
ENDBRANCH  10  22
BRANCH   1  31
HETATM   31  C2  UNL     1      -7.284   4.346  12.705  1.00  0.00    -0.059 C 
HETATM   32  C1  UNL     1      -8.561   4.711  12.491  1.00  0.00     0.017 C 
BRANCH  31  33
HETATM   33  C3  UNL     1      -6.948   2.868  12.736  1.00  0.00     0.198 C 
BRANCH  33  34
HETATM   34  O1  UNL     1      -8.148   2.110  12.689  1.00  0.00    -0.397 OA
HETATM   35  H5  UNL     1      -8.795   2.578  13.247  1.00  0.00     0.209 HD
ENDBRANCH  33  34
ENDBRANCH  31  33
ENDBRANCH   1  31
TORSDOF 7
ENDMDL
