MODEL 1
REMARK minimizedAffinity -9.63679218
REMARK  7 active torsions:
REMARK  status: ('A' for Active; 'I' for Inactive)
REMARK    1  A    between atoms: C2_2  and  C4_4 
REMARK    2  A    between atoms: C7_7  and  O1_9 
REMARK    3  A    between atoms: C9_10  and  C10_11 
REMARK    4  A    between atoms: C11_12  and  C12_13 
REMARK    5  A    between atoms: C14_15  and  C15_16 
REMARK    6  A    between atoms: C24_26  and  C26_28 
REMARK    7  A    between atoms: C29_32  and  O4_34 
ROOT
HETATM    1  C15 UNL     1      -0.187   6.877  13.041  1.00  0.00     0.149 C 
HETATM    2  C16 UNL     1       1.191   6.230  12.918  1.00  0.00     0.054 C 
HETATM    3  C17 UNL     1       2.041   7.188  12.028  1.00  0.00     0.050 C 
HETATM    4  C18 UNL     1       1.166   8.471  12.118  1.00  0.00     0.272 C 
HETATM    5  O2  UNL     1       1.346   9.245  13.303  1.00  0.00    -0.360 OA
HETATM    6  C19 UNL     1       2.413  10.170  13.234  1.00  0.00     0.171 C 
HETATM    7  C20 UNL     1       3.675   9.577  13.834  1.00  0.00     0.027 C 
HETATM    8  C21 UNL     1       3.690   8.053  13.910  1.00  0.00     0.012 C 
HETATM    9  C22 UNL     1       3.519   7.296  12.572  1.00  0.00     0.032 C 
HETATM   10  C23 UNL     1       4.561   7.747  11.522  1.00  0.00    -0.066 C 
HETATM   11  C24 UNL     1       5.892   7.488  11.601  1.00  0.00    -0.021 C 
HETATM   12  C25 UNL     1       6.925   7.966  10.619  1.00  0.00     0.052 C 
HETATM   13  C27 UNL     1       3.971   8.474  10.335  1.00  0.00     0.038 C 
HETATM   14  C28 UNL     1       2.868   7.683   9.632  1.00  0.00     0.042 C 
HETATM   15  C29 UNL     1       2.116   6.672  10.530  1.00  0.00     0.067 C 
HETATM   16  C30 UNL     1       2.782   5.283  10.377  1.00  0.00     0.047 C 
HETATM   17  O5  UNL     1      -0.193   8.010  12.169  1.00  0.00    -0.351 OA
ENDROOT
BRANCH   1  18
HETATM   18  C14 UNL     1      -1.496   6.147  12.905  1.00  0.00     0.011 C 
HETATM   19  C12 UNL     1      -2.576   5.948  13.691  1.00  0.00    -0.064 C 
HETATM   20  C13 UNL     1      -2.711   6.385  15.121  1.00  0.00     0.048 C 
BRANCH  19  21
HETATM   21  C11 UNL     1      -3.707   5.205  13.116  1.00  0.00     0.003 C 
HETATM   22  C10 UNL     1      -5.012   5.427  13.335  1.00  0.00    -0.018 C 
BRANCH  22  23
HETATM   23  C9  UNL     1      -6.200   4.670  12.766  1.00  0.00     0.050 C 
HETATM   24  C4  UNL     1      -6.174   3.108  12.744  1.00  0.00     0.024 C 
HETATM   25  C5  UNL     1      -7.634   2.668  13.026  1.00  0.00     0.013 C 
HETATM   26  C6  UNL     1      -8.471   3.935  12.958  1.00  0.00     0.039 C 
HETATM   27  C7  UNL     1      -7.535   5.031  13.470  1.00  0.00     0.062 C 
HETATM   28  C8  UNL     1      -7.462   5.050  15.002  1.00  0.00     0.046 C 
BRANCH  24  29
HETATM   29  C2  UNL     1      -5.555   2.572  11.453  1.00  0.00    -0.088 C 
HETATM   30  C1  UNL     1      -4.709   3.264  10.668  1.00  0.00     0.014 C 
HETATM   31  C3  UNL     1      -5.932   1.162  11.082  1.00  0.00     0.043 C 
ENDBRANCH  24  29
BRANCH  27  32
HETATM   32  O1  UNL     1      -8.008   6.302  13.021  1.00  0.00    -0.390 OA
HETATM   33  H14 UNL     1      -8.863   6.469  13.453  1.00  0.00     0.210 HD
ENDBRANCH  27  32
ENDBRANCH  22  23
ENDBRANCH  19  21
ENDBRANCH   1  18
BRANCH  15  34
HETATM   34  O4  UNL     1       0.805   6.543   9.974  1.00  0.00    -0.389 OA
HETATM   35  H44 UNL     1       0.871   6.169   9.078  1.00  0.00     0.210 HD
ENDBRANCH  15  34
BRANCH  11  36
HETATM   36  C26 UNL     1       6.487   6.692  12.720  1.00  0.00     0.265 C 
HETATM   37  O3  UNL     1       7.178   7.174  13.608  1.00  0.00    -0.302 OA
ENDBRANCH  11  36
TORSDOF 7
ENDMDL
