MODEL 1
REMARK minimizedAffinity -9.71646118
REMARK  4 active torsions:
REMARK  status: ('A' for Active; 'I' for Inactive)
REMARK    1  A    between atoms: C2_2  and  C3_3 
REMARK    2  A    between atoms: C2_2  and  C9_9 
REMARK    3  A    between atoms: C3_3  and  C4_4 
REMARK    4  A    between atoms: C4_4  and  C5_5 
ROOT
HETATM    1  C9  UNL     1      -0.288  50.507 -18.633  1.00  0.00     0.018 C 
HETATM    2  C10 UNL     1      -1.008  49.214 -18.194  1.00  0.00     0.010 C 
HETATM    3  C11 UNL     1      -2.110  48.936 -19.235  1.00  0.00     0.011 C 
HETATM    4  C12 UNL     1      -1.757  49.804 -20.471  1.00  0.00    -0.032 C 
HETATM    5  C13 UNL     1      -0.661  49.024 -21.253  1.00  0.00     0.016 C 
HETATM    6  C14 UNL     1      -1.211  51.054 -19.747  1.00  0.00     0.002 C 
HETATM    7  C15 UNL     1      -0.584  52.069 -20.682  1.00  0.00     0.006 C 
HETATM    8  C16 UNL     1      -1.168  52.064 -22.094  1.00  0.00     0.006 C 
HETATM    9  C17 UNL     1      -2.617  51.519 -22.292  1.00  0.00     0.003 C 
HETATM   10  C18 UNL     1      -2.995  51.373 -23.833  1.00  0.00    -0.035 C 
HETATM   11  C19 UNL     1      -4.541  51.428 -23.993  1.00  0.00     0.016 C 
HETATM   12  C20 UNL     1      -2.411  52.539 -24.677  1.00  0.00     0.017 C 
HETATM   13  C21 UNL     1      -2.792  52.482 -26.149  1.00  0.00     0.080 C 
HETATM   14  C22 UNL     1      -2.921  51.070 -26.675  1.00  0.00     0.135 C 
HETATM   15  O1  UNL     1      -3.542  50.874 -27.723  1.00  0.00    -0.297 OA
HETATM   16  C23 UNL     1      -2.197  49.938 -25.931  1.00  0.00     0.017 C 
HETATM   17  C24 UNL     1      -0.698  50.075 -26.294  1.00  0.00     0.023 C 
HETATM   18  C25 UNL     1      -2.664  48.590 -26.520  1.00  0.00     0.023 C 
HETATM   19  C26 UNL     1      -2.379  50.042 -24.360  1.00  0.00     0.009 C 
HETATM   20  C27 UNL     1      -3.022  48.823 -23.681  1.00  0.00     0.007 C 
HETATM   21  C28 UNL     1      -3.487  49.005 -22.234  1.00  0.00     0.011 C 
HETATM   22  C29 UNL     1      -2.974  50.230 -21.412  1.00  0.00    -0.032 C 
HETATM   23  C30 UNL     1      -4.215  50.646 -20.542  1.00  0.00     0.016 C 
ENDROOT
BRANCH   1  24
HETATM   24  C2  UNL     1       0.080  51.418 -17.470  1.00  0.00    -0.084 C 
HETATM   25  C1  UNL     1       0.729  52.590 -17.592  1.00  0.00     0.014 C 
BRANCH  24  26
HETATM   26  C3  UNL     1      -0.263  50.905 -16.079  1.00  0.00     0.037 C 
BRANCH  26  27
HETATM   27  C4  UNL     1       0.928  50.920 -15.113  1.00  0.00     0.031 C 
BRANCH  27  28
HETATM   28  C5  UNL     1       2.097  51.668 -15.697  1.00  0.00    -0.024 C 
HETATM   29  C6  UNL     1       3.392  51.567 -15.339  1.00  0.00    -0.091 C 
HETATM   30  C7  UNL     1       3.912  50.701 -14.224  1.00  0.00     0.042 C 
HETATM   31  C8  UNL     1       4.454  52.366 -16.052  1.00  0.00     0.042 C 
ENDBRANCH  27  28
ENDBRANCH  26  27
ENDBRANCH  24  26
ENDBRANCH   1  24
TORSDOF 4
ENDMDL
