MODEL 1
REMARK minimizedAffinity -8.14779568
REMARK CNNscore 0.443288326
REMARK CNNaffinity 6.55075598
REMARK  9 active torsions:
REMARK  status: ('A' for Active; 'I' for Inactive)
REMARK    1  A    between atoms: C2_2  and  C3_3 
REMARK    2  A    between atoms: C2_2  and  C9_11 
REMARK    3  A    between atoms: C3_3  and  C4_4 
REMARK    4  A    between atoms: C4_4  and  C5_5 
REMARK    5  A    between atoms: C5_5  and  O1_6 
REMARK    6  A    between atoms: C5_5  and  C6_7 
REMARK    7  A    between atoms: C6_7  and  O2_10 
REMARK    8  A    between atoms: C12_14  and  C13_15 
REMARK    9  A    between atoms: C13_15  and  O4_17 
ROOT
HETATM    1  C9  UNL     1      -1.856  48.784 -17.818  1.00  0.00    -0.001 C 
HETATM    2  C10 UNL     1      -0.550  49.529 -17.452  1.00  0.00     0.007 C 
HETATM    3  C11 UNL     1       0.018  50.088 -18.766  1.00  0.00     0.022 C 
HETATM    4  C12 UNL     1      -1.240  50.379 -19.614  1.00  0.00     0.057 C 
HETATM    5  C14 UNL     1      -0.973  50.516 -21.132  1.00  0.00     0.014 C 
HETATM    6  C15 UNL     1      -0.234  51.810 -21.510  1.00  0.00     0.007 C 
HETATM    7  C16 UNL     1       0.034  51.865 -23.012  1.00  0.00     0.007 C 
HETATM    8  C17 UNL     1      -1.288  52.024 -23.777  1.00  0.00     0.010 C 
HETATM    9  C18 UNL     1      -1.136  52.114 -25.330  1.00  0.00     0.018 C 
HETATM   10  C19 UNL     1      -0.376  50.926 -25.945  1.00  0.00     0.023 C 
HETATM   11  C20 UNL     1      -0.422  53.419 -25.723  1.00  0.00     0.023 C 
HETATM   12  C21 UNL     1      -2.531  52.154 -25.975  1.00  0.00     0.135 C 
HETATM   13  O5  UNL     1      -2.690  52.088 -27.195  1.00  0.00    -0.297 OA
HETATM   14  C22 UNL     1      -3.710  52.356 -25.058  1.00  0.00     0.080 C 
HETATM   15  C23 UNL     1      -3.728  51.288 -23.973  1.00  0.00     0.018 C 
HETATM   16  C24 UNL     1      -2.348  50.987 -23.382  1.00  0.00    -0.026 A 
HETATM   17  C25 UNL     1      -1.977  49.528 -23.293  1.00  0.00     0.021 A 
HETATM   18  C26 UNL     1      -2.240  50.277 -21.999  1.00  0.00    -0.027 A 
HETATM   19  C27 UNL     1      -3.557  49.929 -21.276  1.00  0.00     0.011 C 
HETATM   20  C28 UNL     1      -3.492  49.253 -19.892  1.00  0.00     0.012 C 
HETATM   21  C29 UNL     1      -2.076  49.084 -19.344  1.00  0.00    -0.022 C 
HETATM   22  C30 UNL     1      -1.507  47.810 -20.078  1.00  0.00     0.017 C 
ENDROOT
BRANCH   1  23
HETATM   23  C2  UNL     1      -3.031  48.940 -16.807  1.00  0.00    -0.014 C 
HETATM   24  C1  UNL     1      -4.438  48.838 -17.401  1.00  0.00     0.010 C 
BRANCH  23  25
HETATM   25  C3  UNL     1      -2.878  50.286 -16.044  1.00  0.00     0.007 C 
BRANCH  25  26
HETATM   26  C4  UNL     1      -2.182  50.147 -14.680  1.00  0.00     0.035 C 
BRANCH  26  27
HETATM   27  C5  UNL     1      -3.111  50.545 -13.524  1.00  0.00     0.151 C 
BRANCH  27  28
HETATM   28  O1  UNL     1      -3.879  49.392 -13.145  1.00  0.00    -0.393 OA
HETATM   29  H10 UNL     1      -4.641  49.739 -12.645  1.00  0.00     0.210 HD
ENDBRANCH  27  28
BRANCH  27  30
HETATM   30  C6  UNL     1      -2.386  51.098 -12.266  1.00  0.00     0.076 C 
HETATM   31  C7  UNL     1      -3.380  51.635 -11.234  1.00  0.00     0.048 C 
HETATM   32  C8  UNL     1      -1.339  52.169 -12.591  1.00  0.00     0.048 C 
BRANCH  30  33
HETATM   33  O2  UNL     1      -1.705  49.989 -11.644  1.00  0.00    -0.388 OA
HETATM   34  H17 UNL     1      -0.882  49.847 -12.148  1.00  0.00     0.210 HD
ENDBRANCH  30  33
ENDBRANCH  27  30
ENDBRANCH  26  27
ENDBRANCH  25  26
ENDBRANCH  23  25
ENDBRANCH   1  23
BRANCH   4  35
HETATM   35  C13 UNL     1      -1.905  51.693 -19.129  1.00  0.00     0.149 C 
HETATM   36  O3  UNL     1      -3.099  51.944 -19.075  1.00  0.00    -0.649 OA
BRANCH  35  37
HETATM   37  O4  UNL     1      -1.047  52.672 -18.787  1.00  0.00    -0.776 OA
HETATM   38  H23 UNL     1      -1.635  53.413 -18.529  1.00  0.00     0.167 HD
ENDBRANCH  35  37
ENDBRANCH   4  35
TORSDOF 9
ENDMDL
