MODEL 1
REMARK minimizedAffinity -7.76586342
REMARK CNNscore 0.746879935
REMARK CNNaffinity 6.51594496
REMARK  11 active torsions:
REMARK  status: ('A' for Active; 'I' for Inactive)
REMARK    1  A    between atoms: C2_2  and  C3_3 
REMARK    2  A    between atoms: C3_3  and  C4_4 
REMARK    3  A    between atoms: C4_4  and  C6_6 
REMARK    4  A    between atoms: C9_9  and  O1_10 
REMARK    5  A    between atoms: C15_16  and  O2_17 
REMARK    6  A    between atoms: O2_17  and  C16_18 
REMARK    7  A    between atoms: C17_20  and  C18_21 
REMARK    8  A    between atoms: C18_21  and  O4_22 
REMARK    9  A    between atoms: C19_23  and  O5_24 
REMARK   10  A    between atoms: C20_25  and  O6_26 
REMARK   11  A    between atoms: C21_27  and  O7_28 
ROOT
HETATM    1  C6  UNL     1      -1.470  53.017 -10.574  1.00  0.00     0.000 C 
HETATM    2  C7  UNL     1      -0.931  51.636 -11.046  1.00  0.00     0.009 C 
HETATM    3  C8  UNL     1       0.606  51.675 -10.972  1.00  0.00     0.039 C 
HETATM    4  C9  UNL     1       0.920  53.142 -10.715  1.00  0.00     0.070 C 
HETATM    5  C10 UNL     1       2.345  53.519 -10.269  1.00  0.00     0.030 C 
HETATM    6  C11 UNL     1       3.015  52.646  -9.204  1.00  0.00     0.009 C 
HETATM    7  C12 UNL     1       4.440  53.099  -8.840  1.00  0.00     0.006 C 
HETATM    8  C13 UNL     1       4.919  54.400  -9.517  1.00  0.00    -0.003 C 
HETATM    9  C14 UNL     1       6.222  54.915  -8.894  1.00  0.00     0.037 C 
HETATM   10  C15 UNL     1       6.052  55.369  -7.436  1.00  0.00     0.125 C 
HETATM   11  C22 UNL     1       4.717  56.091  -7.196  1.00  0.00     0.033 C 
HETATM   12  C23 UNL     1       4.089  56.607  -8.488  1.00  0.00     0.013 C 
HETATM   13  C24 UNL     1       3.838  55.483  -9.482  1.00  0.00    -0.028 A 
HETATM   14  C25 UNL     1       3.210  55.915 -10.791  1.00  0.00     0.021 A 
HETATM   15  C26 UNL     1       2.426  55.007  -9.872  1.00  0.00    -0.025 A 
HETATM   16  C27 UNL     1       1.221  55.593  -9.148  1.00  0.00     0.012 C 
HETATM   17  C28 UNL     1      -0.148  55.132  -9.682  1.00  0.00     0.013 C 
HETATM   18  C29 UNL     1      -0.242  53.597  -9.778  1.00  0.00    -0.009 C 
HETATM   19  C30 UNL     1      -0.217  52.989  -8.355  1.00  0.00     0.019 C 
ENDROOT
BRANCH  10  20
HETATM   20  O2  UNL     1       7.156  56.239  -7.150  1.00  0.00    -0.353 OA
BRANCH  20  21
HETATM   21  C16 UNL     1       7.066  56.871  -5.857  1.00  0.00     0.292 C 
HETATM   22  O3  UNL     1       7.073  58.287  -6.017  1.00  0.00    -0.348 OA
HETATM   23  C17 UNL     1       7.623  59.048  -4.932  1.00  0.00     0.179 C 
HETATM   24  C19 UNL     1       9.090  58.656  -4.633  1.00  0.00     0.180 C 
HETATM   25  C20 UNL     1       9.438  57.265  -5.175  1.00  0.00     0.183 C 
HETATM   26  C21 UNL     1       8.252  56.327  -5.027  1.00  0.00     0.204 C 
BRANCH  23  27
HETATM   27  C18 UNL     1       6.698  58.974  -3.701  1.00  0.00     0.198 C 
BRANCH  27  28
HETATM   28  O4  UNL     1       5.394  59.449  -3.998  1.00  0.00    -0.398 OA
HETATM   29  H31 UNL     1       4.834  59.275  -3.222  1.00  0.00     0.209 HD
ENDBRANCH  27  28
ENDBRANCH  23  27
BRANCH  24  30
HETATM   30  O5  UNL     1       9.990  59.591  -5.260  1.00  0.00    -0.390 OA
HETATM   31  H33 UNL     1      10.888  59.271  -5.054  1.00  0.00     0.210 HD
ENDBRANCH  24  30
BRANCH  25  32
HETATM   32  O6  UNL     1      10.571  56.750  -4.453  1.00  0.00    -0.390 OA
HETATM   33  H35 UNL     1      10.565  55.786  -4.624  1.00  0.00     0.210 HD
ENDBRANCH  25  32
BRANCH  26  34
HETATM   34  O7  UNL     1       8.634  55.002  -5.435  1.00  0.00    -0.388 OA
HETATM   35  H37 UNL     1       8.415  54.963  -6.391  1.00  0.00     0.210 HD
ENDBRANCH  26  34
ENDBRANCH  20  21
ENDBRANCH  10  20
BRANCH   4  36
HETATM   36  O1  UNL     1       0.737  53.798 -12.003  1.00  0.00    -0.389 OA
HETATM   37  H17 UNL     1       1.442  53.496 -12.602  1.00  0.00     0.210 HD
ENDBRANCH   4  36
BRANCH   1  38
HETATM   38  C4  UNL     1      -2.871  52.918  -9.895  1.00  0.00    -0.014 C 
HETATM   39  C5  UNL     1      -3.921  53.751 -10.647  1.00  0.00     0.010 C 
BRANCH  38  40
HETATM   40  C3  UNL     1      -3.409  51.457  -9.834  1.00  0.00     0.004 C 
BRANCH  40  41
HETATM   41  C2  UNL     1      -4.609  51.095 -10.716  1.00  0.00    -0.004 C 
HETATM   42  C1  UNL     1      -5.536  50.054 -10.105  1.00  0.00     0.005 C 
ENDBRANCH  40  41
ENDBRANCH  38  40
ENDBRANCH   1  38
TORSDOF 11
ENDMDL
