MODEL 1
REMARK minimizedAffinity -7.30635738
REMARK CNNscore 0.553941548
REMARK CNNaffinity 6.75614309
REMARK  13 active torsions:
REMARK  status: ('A' for Active; 'I' for Inactive)
REMARK    1  A    between atoms: C3_3  and  O1_4 
REMARK    2  A    between atoms: N1_14  and  O2_16 
REMARK    3  A    between atoms: O2_16  and  C13_17 
REMARK    4  A    between atoms: C13_17  and  C14_18 
REMARK       I    between atoms: C14_18  and  N2_20 
REMARK    5  A    between atoms: N2_20  and  C15_21 
REMARK    6  A    between atoms: C15_21  and  C16_22 
REMARK    7  A    between atoms: C15_21  and  C21_32 
REMARK       I    between atoms: C16_22  and  N3_24 
REMARK    8  A    between atoms: N3_24  and  C17_25 
REMARK    9  A    between atoms: C17_25  and  C18_26 
REMARK   10  A    between atoms: C17_25  and  C19_28 
REMARK   11  A    between atoms: C18_26  and  S1_27 
REMARK   12  A    between atoms: C19_28  and  C20_29 
REMARK   13  A    between atoms: C20_29  and  O6_31 
ROOT
HETATM    1  C1  UNL     1       1.898   6.998   6.453  1.00  0.00     0.015 C 
HETATM    2  C2  UNL     1       2.160   6.760   7.600  1.00  0.00    -0.078 C 
HETATM    3  C3  UNL     1       2.416   6.422   9.011  1.00  0.00     0.128 C 
HETATM    4  C4  UNL     1       3.626   5.505   9.182  1.00  0.00     0.052 C 
HETATM    5  C5  UNL     1       3.981   5.614  10.666  1.00  0.00     0.010 C 
HETATM    6  C6  UNL     1       3.423   6.964  11.160  1.00  0.00     0.002 C 
HETATM    7  C7  UNL     1       2.605   6.893  12.467  1.00  0.00    -0.004 C 
HETATM    8  C8  UNL     1       1.412   5.929  12.532  1.00  0.00     0.010 C 
HETATM    9  C9  UNL     1       0.783   5.926  13.927  1.00  0.00     0.035 C 
HETATM   10  C10 UNL     1       0.459   7.307  14.463  1.00  0.00    -0.069 C 
HETATM   11  C11 UNL     1      -0.707   7.522  15.101  1.00  0.00     0.030 C 
HETATM   12  C12 UNL     1      -1.025   8.823  15.753  1.00  0.00     0.032 C 
HETATM   13  N1  UNL     1      -2.192   8.965  16.312  1.00  0.00    -0.271 N 
ATOM     14  H1  UNL     1      -2.915   8.246  16.341  1.00  0.00     0.194 HD
HETATM   15  C24 UNL     1       0.072   9.876  15.790  1.00  0.00     0.060 C 
HETATM   16  C25 UNL     1       0.912   9.798  14.526  1.00  0.00     0.020 C 
HETATM   17  C26 UNL     1       1.524   8.389  14.271  1.00  0.00    -0.016 C 
HETATM   18  C27 UNL     1       2.646   8.158  15.314  1.00  0.00     0.020 C 
HETATM   19  C28 UNL     1       2.140   8.323  12.816  1.00  0.00     0.002 C 
HETATM   20  C29 UNL     1       1.181   8.838  11.721  1.00  0.00     0.007 C 
HETATM   21  C30 UNL     1       1.521   8.522  10.254  1.00  0.00     0.014 C 
HETATM   22  C31 UNL     1       2.746   7.638   9.934  1.00  0.00     0.003 C 
HETATM   23  C32 UNL     1       3.817   8.560   9.270  1.00  0.00     0.020 C 
ENDROOT
BRANCH   3  24
HETATM   24  O1  UNL     1       1.289   5.689   9.490  1.00  0.00    -0.377 OA
HETATM   25  H2  UNL     1       0.490   6.130   9.172  1.00  0.00     0.211 HD
ENDBRANCH   3  24
BRANCH  13  26
HETATM   26  O2  UNL     1      -2.318  10.243  16.869  1.00  0.00    -0.271 OA
BRANCH  26  27
HETATM   27  C13 UNL     1      -2.393  10.152  18.284  1.00  0.00     0.303 C 
BRANCH  27  28
HETATM   28  C14 UNL     1      -1.481  11.230  18.853  1.00  0.00     0.244 C 
HETATM   29  O3  UNL     1      -1.847  12.380  19.089  1.00  0.00    -0.271 OA
HETATM   30  N2  UNL     1      -0.180  10.832  19.086  1.00  0.00    -0.346 N 
HETATM   31  H16 UNL     1       0.077   9.855  19.024  1.00  0.00     0.163 HD
BRANCH  30  32
HETATM   32  C15 UNL     1       0.832  11.763  19.619  1.00  0.00     0.180 C 
BRANCH  32  33
HETATM   33  C16 UNL     1       1.949  10.912  20.286  1.00  0.00     0.241 C 
HETATM   34  O4  UNL     1       2.330   9.829  19.842  1.00  0.00    -0.271 OA
HETATM   35  N3  UNL     1       2.527  11.517  21.394  1.00  0.00    -0.353 N 
HETATM   36  H18 UNL     1       2.185  12.439  21.656  1.00  0.00     0.163 HD
BRANCH  35  37
HETATM   37  C17 UNL     1       3.579  10.876  22.180  1.00  0.00     0.103 C 
BRANCH  37  38
HETATM   38  C18 UNL     1       3.001  10.062  23.367  1.00  0.00     0.096 C 
BRANCH  38  39
HETATM   39  S1  UNL     1       2.534   8.342  22.994  1.00  0.00    -0.180 SA
HETATM   40  H22 UNL     1       2.552   7.899  24.262  1.00  0.00     0.101 HD
ENDBRANCH  38  39
ENDBRANCH  37  38
BRANCH  37  41
HETATM   41  C19 UNL     1       4.546  11.934  22.746  1.00  0.00     0.136 C 
BRANCH  41  42
HETATM   42  C20 UNL     1       3.922  13.300  22.877  1.00  0.00     0.141 C 
HETATM   43  O5  UNL     1       3.112  13.691  23.698  1.00  0.00    -0.650 OA
BRANCH  42  44
HETATM   44  O6  UNL     1       4.390  14.140  21.927  1.00  0.00    -0.776 OA
HETATM   45  H25 UNL     1       3.965  14.999  22.135  1.00  0.00     0.167 HD
ENDBRANCH  42  44
ENDBRANCH  41  42
ENDBRANCH  37  41
ENDBRANCH  35  37
ENDBRANCH  32  33
BRANCH  32  46
HETATM   46  C21 UNL     1       1.377  12.703  18.516  1.00  0.00     0.009 C 
HETATM   47  C22 UNL     1       2.481  12.018  17.700  1.00  0.00     0.012 C 
HETATM   48  C23 UNL     1       1.943  14.011  19.089  1.00  0.00     0.012 C 
ENDBRANCH  32  46
ENDBRANCH  30  32
ENDBRANCH  27  28
ENDBRANCH  26  27
ENDBRANCH  13  26
TORSDOF 13
ENDMDL
