MODEL 1
REMARK minimizedAffinity -9.25071335
REMARK  6 active torsions:
REMARK  status: ('A' for Active; 'I' for Inactive)
REMARK    1  A    between atoms: C2_2  and  C9_11 
REMARK    2  A    between atoms: C3_3  and  C4_4 
REMARK    3  A    between atoms: C4_4  and  O1_5 
REMARK    4  A    between atoms: C4_4  and  C5_6 
REMARK    5  A    between atoms: C16_18  and  O3_19 
REMARK    6  A    between atoms: C18_21  and  C19_22 
ROOT
HETATM    1  C9  UNL     1      -2.832   4.390  12.832  1.00  0.00     0.019 C 
HETATM    2  C10 UNL     1      -2.757   3.834  11.379  1.00  0.00     0.010 C 
HETATM    3  C11 UNL     1      -1.565   4.540  10.700  1.00  0.00     0.011 C 
HETATM    4  C12 UNL     1      -0.641   4.959  11.864  1.00  0.00    -0.032 C 
HETATM    5  C13 UNL     1       0.068   3.655  12.356  1.00  0.00     0.016 C 
HETATM    6  C14 UNL     1      -1.714   5.458  12.864  1.00  0.00     0.005 C 
HETATM    7  C15 UNL     1      -1.097   5.814  14.207  1.00  0.00     0.038 C 
HETATM    8  C16 UNL     1       0.011   6.875  14.051  1.00  0.00     0.124 C 
HETATM    9  C17 UNL     1       1.092   6.514  12.982  1.00  0.00     0.039 C 
HETATM   10  C18 UNL     1       2.350   7.492  12.899  1.00  0.00     0.025 C 
HETATM   11  C20 UNL     1       3.151   7.457  14.249  1.00  0.00     0.025 C 
HETATM   12  C21 UNL     1       4.647   7.740  14.165  1.00  0.00     0.080 C 
HETATM   13  C22 UNL     1       5.007   8.517  12.930  1.00  0.00     0.135 C 
HETATM   14  O5  UNL     1       5.628   9.575  13.018  1.00  0.00    -0.297 OA
HETATM   15  C23 UNL     1       4.651   7.864  11.594  1.00  0.00     0.018 C 
HETATM   16  C24 UNL     1       4.612   8.937  10.491  1.00  0.00     0.023 C 
HETATM   17  C25 UNL     1       5.823   6.917  11.244  1.00  0.00     0.023 C 
HETATM   18  C26 UNL     1       3.327   7.021  11.763  1.00  0.00     0.016 C 
HETATM   19  C27 UNL     1       2.633   6.711  10.427  1.00  0.00     0.008 C 
HETATM   20  C28 UNL     1       1.501   5.694  10.594  1.00  0.00     0.011 C 
HETATM   21  C29 UNL     1       0.408   6.139  11.594  1.00  0.00    -0.029 C 
HETATM   22  C30 UNL     1      -0.312   7.367  10.960  1.00  0.00     0.016 C 
ENDROOT
BRANCH   1  23
HETATM   23  C2  UNL     1      -4.175   4.935  13.320  1.00  0.00    -0.081 C 
HETATM   24  C1  UNL     1      -5.391   4.279  12.711  1.00  0.00     0.043 C 
HETATM   25  C3  UNL     1      -4.294   5.934  14.223  1.00  0.00     0.010 C 
BRANCH  25  26
HETATM   26  C4  UNL     1      -5.565   6.494  14.811  1.00  0.00     0.173 C 
BRANCH  26  27
HETATM   27  O1  UNL     1      -5.525   6.197  16.207  1.00  0.00    -0.389 OA
HETATM   28  H6  UNL     1      -4.816   6.751  16.578  1.00  0.00     0.210 HD
ENDBRANCH  26  27
BRANCH  26  29
HETATM   29  C5  UNL     1      -6.812   5.882  14.237  1.00  0.00     0.188 A 
HETATM   30  O2  UNL     1      -7.795   5.465  15.201  1.00  0.00    -0.367 OA
HETATM   31  C6  UNL     1      -8.186   6.537  14.328  1.00  0.00     0.083 A 
HETATM   32  C7  UNL     1      -9.231   6.150  13.331  1.00  0.00     0.048 C 
HETATM   33  C8  UNL     1      -8.379   7.844  15.032  1.00  0.00     0.048 C 
ENDBRANCH  26  29
ENDBRANCH  25  26
ENDBRANCH   1  23
BRANCH   8  34
HETATM   34  O3  UNL     1       0.597   7.072  15.333  1.00  0.00    -0.395 OA
HETATM   35  H26 UNL     1       0.811   6.193  15.699  1.00  0.00     0.210 HD
ENDBRANCH   8  34
BRANCH  10  36
HETATM   36  C19 UNL     1       1.834   8.930  12.766  1.00  0.00     0.241 C 
HETATM   37  O4  UNL     1       2.068   9.837  13.555  1.00  0.00    -0.306 OA
ENDBRANCH  10  36
TORSDOF 6
ENDMDL
