MODEL 1
REMARK minimizedAffinity -5.79782248
REMARK CNNscore 0.764384985
REMARK CNNaffinity 6.74391508
REMARK  13 active torsions:
REMARK  status: ('A' for Active; 'I' for Inactive)
REMARK    1  A    between atoms: C2_2  and  C3_3 
REMARK    2  A    between atoms: C3_3  and  C4_4 
REMARK    3  A    between atoms: C4_4  and  C5_5 
REMARK    4  A    between atoms: C5_5  and  C6_6 
REMARK    5  A    between atoms: C6_6  and  C7_7 
REMARK    6  A    between atoms: C7_7  and  C8_8 
REMARK    7  A    between atoms: C8_8  and  C9_9 
REMARK    8  A    between atoms: C9_9  and  C10_10 
REMARK    9  A    between atoms: C10_10  and  C11_11 
REMARK   10  A    between atoms: C11_11  and  C12_12 
REMARK   11  A    between atoms: C12_12  and  C13_13 
REMARK   12  A    between atoms: C13_13  and  O2_15 
REMARK   13  A    between atoms: O2_15  and  C14_16 
ROOT
HETATM    1  C14 UNL     1      -1.153   5.766  35.417  1.00  0.00     0.140 C 
HETATM    2  C15 UNL     1       0.254   6.326  35.106  1.00  0.00     0.034 C 
HETATM    3  C16 UNL     1       0.464   6.158  33.591  1.00  0.00     0.008 C 
HETATM    4  C17 UNL     1      -0.900   5.708  33.077  1.00  0.00     0.001 C 
HETATM    5  C18 UNL     1      -0.990   5.019  31.713  1.00  0.00    -0.004 C 
HETATM    6  C19 UNL     1      -0.421   5.902  30.586  1.00  0.00     0.010 C 
HETATM    7  C20 UNL     1      -0.544   5.259  29.197  1.00  0.00     0.035 C 
HETATM    8  C21 UNL     1      -1.344   3.980  29.255  1.00  0.00    -0.068 C 
HETATM    9  C22 UNL     1      -0.794   2.835  28.812  1.00  0.00     0.053 C 
HETATM   10  C23 UNL     1      -1.422   1.525  29.094  1.00  0.00     0.149 C 
HETATM   11  O3  UNL     1      -0.965   0.507  28.583  1.00  0.00    -0.293 OA
HETATM   12  C24 UNL     1      -2.538   1.497  30.104  1.00  0.00     0.084 C 
HETATM   13  C25 UNL     1      -3.440   2.704  29.899  1.00  0.00     0.022 C 
HETATM   14  C26 UNL     1      -2.700   4.072  29.966  1.00  0.00    -0.016 C 
HETATM   15  C27 UNL     1      -3.609   5.060  29.178  1.00  0.00     0.020 C 
HETATM   16  C28 UNL     1      -2.490   4.678  31.418  1.00  0.00     0.002 C 
HETATM   17  C29 UNL     1      -3.163   3.915  32.586  1.00  0.00     0.007 C 
HETATM   18  C30 UNL     1      -2.932   4.570  33.961  1.00  0.00     0.012 C 
HETATM   19  C31 UNL     1      -1.443   4.830  34.222  1.00  0.00    -0.013 C 
HETATM   20  C32 UNL     1      -0.708   3.476  34.404  1.00  0.00     0.018 C 
ENDROOT
BRANCH   1  21
HETATM   21  O2  UNL     1      -1.193   5.062  36.660  1.00  0.00    -0.315 OA
BRANCH  21  22
HETATM   22  C13 UNL     1      -1.549   5.807  37.743  1.00  0.00     0.259 C 
HETATM   23  O1  UNL     1      -2.009   6.940  37.704  1.00  0.00    -0.265 OA
BRANCH  22  24
HETATM   24  C12 UNL     1      -1.276   5.041  39.016  1.00  0.00     0.111 C 
BRANCH  24  25
HETATM   25  C11 UNL     1      -0.042   5.566  39.744  1.00  0.00     0.010 C 
BRANCH  25  26
HETATM   26  C10 UNL     1       0.736   4.504  40.530  1.00  0.00     0.000 C 
BRANCH  26  27
HETATM   27  C9  UNL     1       1.641   5.037  41.648  1.00  0.00     0.000 C 
BRANCH  27  28
HETATM   28  C8  UNL     1       3.068   5.406  41.228  1.00  0.00     0.000 C 
BRANCH  28  29
HETATM   29  C7  UNL     1       4.144   5.215  42.302  1.00  0.00     0.000 C 
BRANCH  29  30
HETATM   30  C6  UNL     1       5.468   5.901  41.958  1.00  0.00     0.000 C 
BRANCH  30  31
HETATM   31  C5  UNL     1       5.370   7.430  41.941  1.00  0.00     0.000 C 
BRANCH  31  32
HETATM   32  C4  UNL     1       6.384   8.108  42.868  1.00  0.00     0.000 C 
BRANCH  32  33
HETATM   33  C3  UNL     1       7.212   7.072  43.633  1.00  0.00    -0.000 C 
BRANCH  33  34
HETATM   34  C2  UNL     1       8.271   7.699  44.545  1.00  0.00    -0.005 C 
HETATM   35  C1  UNL     1       8.623   6.835  45.746  1.00  0.00     0.005 C 
ENDBRANCH  33  34
ENDBRANCH  32  33
ENDBRANCH  31  32
ENDBRANCH  30  31
ENDBRANCH  29  30
ENDBRANCH  28  29
ENDBRANCH  27  28
ENDBRANCH  26  27
ENDBRANCH  25  26
ENDBRANCH  24  25
ENDBRANCH  22  24
ENDBRANCH  21  22
ENDBRANCH   1  21
TORSDOF 13
ENDMDL
