MODEL 1
REMARK minimizedAffinity -6.53258419
REMARK CNNscore 0.707960486
REMARK CNNaffinity 6.84254026
REMARK  4 active torsions:
REMARK  status: ('A' for Active; 'I' for Inactive)
REMARK    1  A    between atoms: C2_2  and  C3_3 
REMARK    2  A    between atoms: C2_2  and  C9_9 
REMARK    3  A    between atoms: C3_3  and  C4_4 
REMARK    4  A    between atoms: C4_4  and  C5_5 
ROOT
HETATM    1  C9  UNL     1     -13.373 -12.640  28.341  1.00  0.00     0.018 C 
HETATM    2  C10 UNL     1     -14.491 -13.281  29.193  1.00  0.00     0.010 C 
HETATM    3  C11 UNL     1     -14.942 -12.220  30.215  1.00  0.00     0.011 C 
HETATM    4  C12 UNL     1     -14.402 -10.864  29.691  1.00  0.00    -0.032 C 
HETATM    5  C13 UNL     1     -15.398 -10.394  28.591  1.00  0.00     0.016 C 
HETATM    6  C14 UNL     1     -13.049 -11.343  29.118  1.00  0.00     0.002 C 
HETATM    7  C15 UNL     1     -12.311 -10.274  28.337  1.00  0.00     0.006 C 
HETATM    8  C16 UNL     1     -12.610  -8.846  28.792  1.00  0.00     0.006 C 
HETATM    9  C17 UNL     1     -13.108  -8.627  30.254  1.00  0.00     0.003 C 
HETATM   10  C18 UNL     1     -13.585  -7.127  30.505  1.00  0.00    -0.035 C 
HETATM   11  C19 UNL     1     -13.486  -6.800  32.022  1.00  0.00     0.016 C 
HETATM   12  C20 UNL     1     -12.676  -6.109  29.762  1.00  0.00     0.017 C 
HETATM   13  C21 UNL     1     -13.050  -4.656  30.015  1.00  0.00     0.080 C 
HETATM   14  C22 UNL     1     -14.536  -4.449  30.202  1.00  0.00     0.135 C 
HETATM   15  O1  UNL     1     -14.935  -3.412  30.741  1.00  0.00    -0.297 OA
HETATM   16  C23 UNL     1     -15.504  -5.498  29.634  1.00  0.00     0.017 C 
HETATM   17  C24 UNL     1     -15.533  -5.270  28.102  1.00  0.00     0.023 C 
HETATM   18  C25 UNL     1     -16.924  -5.179  30.146  1.00  0.00     0.023 C 
HETATM   19  C26 UNL     1     -15.032  -6.978  29.946  1.00  0.00     0.009 C 
HETATM   20  C27 UNL     1     -16.026  -7.842  30.736  1.00  0.00     0.007 C 
HETATM   21  C28 UNL     1     -15.492  -9.156  31.312  1.00  0.00     0.011 C 
HETATM   22  C29 UNL     1     -14.140  -9.732  30.784  1.00  0.00    -0.032 C 
HETATM   23  C30 UNL     1     -13.470 -10.353  32.063  1.00  0.00     0.016 C 
ENDROOT
BRANCH   1  24
HETATM   24  C2  UNL     1     -12.241 -13.602  28.010  1.00  0.00    -0.084 C 
HETATM   25  C1  UNL     1     -11.780 -14.554  28.842  1.00  0.00     0.014 C 
BRANCH  24  26
HETATM   26  C3  UNL     1     -11.558 -13.401  26.665  1.00  0.00     0.037 C 
BRANCH  26  27
HETATM   27  C4  UNL     1     -10.220 -12.658  26.767  1.00  0.00     0.031 C 
BRANCH  27  28
HETATM   28  C5  UNL     1      -9.354 -12.921  25.563  1.00  0.00    -0.024 C 
HETATM   29  C6  UNL     1      -8.409 -13.873  25.430  1.00  0.00    -0.091 C 
HETATM   30  C7  UNL     1      -8.003 -14.840  26.510  1.00  0.00     0.042 C 
HETATM   31  C8  UNL     1      -7.649 -14.030  24.138  1.00  0.00     0.042 C 
ENDBRANCH  27  28
ENDBRANCH  26  27
ENDBRANCH  24  26
ENDBRANCH   1  24
TORSDOF 4
ENDMDL
