MODEL 1
REMARK minimizedAffinity -7.15840578
REMARK CNNscore 0.598069668
REMARK CNNaffinity 6.53404474
REMARK  7 active torsions:
REMARK  status: ('A' for Active; 'I' for Inactive)
REMARK    1  A    between atoms: C2_2  and  C4_4 
REMARK    2  A    between atoms: C7_7  and  O1_9 
REMARK    3  A    between atoms: C9_10  and  C10_11 
REMARK    4  A    between atoms: C11_12  and  C12_13 
REMARK    5  A    between atoms: C14_15  and  C15_16 
REMARK    6  A    between atoms: C24_26  and  C26_28 
REMARK    7  A    between atoms: C29_32  and  O4_34 
ROOT
HETATM    1  C15 UNL     1      -7.530  47.313 -26.872  1.00  0.00     0.149 C 
HETATM    2  C16 UNL     1      -9.023  47.627 -26.795  1.00  0.00     0.054 C 
HETATM    3  C17 UNL     1      -9.724  46.356 -27.317  1.00  0.00     0.050 C 
HETATM    4  C18 UNL     1      -8.735  45.320 -26.721  1.00  0.00     0.272 C 
HETATM    5  O2  UNL     1      -8.926  45.059 -25.333  1.00  0.00    -0.360 OA
HETATM    6  C19 UNL     1      -9.855  44.029 -25.063  1.00  0.00     0.171 C 
HETATM    7  C20 UNL     1     -11.247  44.593 -24.838  1.00  0.00     0.027 C 
HETATM    8  C21 UNL     1     -11.440  46.032 -25.310  1.00  0.00     0.012 C 
HETATM    9  C22 UNL     1     -11.220  46.299 -26.816  1.00  0.00     0.032 C 
HETATM   10  C23 UNL     1     -12.139  45.411 -27.683  1.00  0.00    -0.066 C 
HETATM   11  C24 UNL     1     -13.482  45.564 -27.796  1.00  0.00    -0.021 C 
HETATM   12  C25 UNL     1     -14.376  44.687 -28.627  1.00  0.00     0.052 C 
HETATM   13  C27 UNL     1     -11.398  44.352 -28.463  1.00  0.00     0.038 C 
HETATM   14  C28 UNL     1     -10.348  44.953 -29.393  1.00  0.00     0.042 C 
HETATM   15  C29 UNL     1      -9.732  46.287 -28.904  1.00  0.00     0.067 C 
HETATM   16  C30 UNL     1     -10.469  47.473 -29.567  1.00  0.00     0.047 C 
HETATM   17  O5  UNL     1      -7.420  45.888 -26.824  1.00  0.00    -0.351 OA
ENDROOT
BRANCH   1  18
HETATM   18  C14 UNL     1      -6.734  47.967 -25.769  1.00  0.00     0.011 C 
HETATM   19  C12 UNL     1      -5.433  48.330 -25.769  1.00  0.00    -0.064 C 
HETATM   20  C13 UNL     1      -4.540  48.198 -26.977  1.00  0.00     0.048 C 
BRANCH  19  21
HETATM   21  C11 UNL     1      -4.867  48.912 -24.549  1.00  0.00     0.003 C 
HETATM   22  C10 UNL     1      -4.130  48.265 -23.630  1.00  0.00    -0.018 C 
BRANCH  22  23
HETATM   23  C9  UNL     1      -3.525  48.803 -22.338  1.00  0.00     0.050 C 
HETATM   24  C4  UNL     1      -1.969  48.801 -22.242  1.00  0.00     0.024 C 
HETATM   25  C5  UNL     1      -1.665  47.395 -21.698  1.00  0.00     0.013 C 
HETATM   26  C6  UNL     1      -2.823  47.022 -20.773  1.00  0.00     0.039 C 
HETATM   27  C7  UNL     1      -3.961  48.016 -21.063  1.00  0.00     0.062 C 
HETATM   28  C8  UNL     1      -5.321  47.320 -21.133  1.00  0.00     0.046 C 
BRANCH  24  29
HETATM   29  C2  UNL     1      -1.403  49.980 -21.444  1.00  0.00    -0.088 C 
HETATM   30  C1  UNL     1      -1.724  51.272 -21.629  1.00  0.00     0.014 C 
HETATM   31  C3  UNL     1      -0.436  49.600 -20.348  1.00  0.00     0.043 C 
ENDBRANCH  24  29
BRANCH  27  32
HETATM   32  O1  UNL     1      -4.050  48.948 -19.973  1.00  0.00    -0.390 OA
HETATM   33  H14 UNL     1      -4.215  48.444 -19.158  1.00  0.00     0.210 HD
ENDBRANCH  27  32
ENDBRANCH  22  23
ENDBRANCH  19  21
ENDBRANCH   1  18
BRANCH  15  34
HETATM   34  O4  UNL     1      -8.404  46.337 -29.438  1.00  0.00    -0.389 OA
HETATM   35  H44 UNL     1      -8.453  46.264 -30.407  1.00  0.00     0.210 HD
ENDBRANCH  15  34
BRANCH  11  36
HETATM   36  C26 UNL     1     -14.231  46.648 -27.087  1.00  0.00     0.265 C 
HETATM   37  O3  UNL     1     -14.953  46.459 -26.118  1.00  0.00    -0.302 OA
ENDBRANCH  11  36
TORSDOF 7
ENDMDL
