MODEL 1
REMARK minimizedAffinity -8.59838867
REMARK CNNscore 0.403835863
REMARK CNNaffinity 6.00320196
REMARK  9 active torsions:
REMARK  status: ('A' for Active; 'I' for Inactive)
REMARK    1  A    between atoms: C3_3  and  O1_4 
REMARK    2  A    between atoms: N1_14  and  O2_16 
REMARK    3  A    between atoms: O2_16  and  C13_17 
REMARK    4  A    between atoms: C13_17  and  C14_18 
REMARK       I    between atoms: C14_18  and  N2_20 
REMARK    5  A    between atoms: N2_20  and  C15_21 
REMARK    6  A    between atoms: C15_21  and  C16_22 
REMARK    7  A    between atoms: C15_21  and  C18_26 
REMARK    8  A    between atoms: C16_22  and  C17_23 
REMARK    9  A    between atoms: C17_23  and  O5_25 
ROOT
HETATM    1  C1  UNL     1      -4.285  45.800 -31.865  1.00  0.00     0.015 C 
HETATM    2  C2  UNL     1      -5.390  46.144 -32.195  1.00  0.00    -0.078 C 
HETATM    3  C3  UNL     1      -6.745  46.550 -32.591  1.00  0.00     0.128 C 
HETATM    4  C4  UNL     1      -7.096  47.940 -32.062  1.00  0.00     0.052 C 
HETATM    5  C5  UNL     1      -8.616  48.012 -32.142  1.00  0.00     0.010 C 
HETATM    6  C6  UNL     1      -9.143  46.560 -32.098  1.00  0.00     0.002 C 
HETATM    7  C7  UNL     1     -10.123  46.259 -30.950  1.00  0.00    -0.004 C 
HETATM    8  C8  UNL     1     -11.436  47.039 -31.076  1.00  0.00     0.010 C 
HETATM    9  C9  UNL     1     -12.438  46.546 -30.037  1.00  0.00     0.035 C 
HETATM   10  C10 UNL     1     -11.897  46.590 -28.625  1.00  0.00    -0.069 C 
HETATM   11  C11 UNL     1     -12.694  47.023 -27.634  1.00  0.00     0.030 C 
HETATM   12  C12 UNL     1     -12.296  46.937 -26.205  1.00  0.00     0.032 C 
HETATM   13  N1  UNL     1     -13.212  47.164 -25.305  1.00  0.00    -0.271 N 
ATOM     14  H1  UNL     1     -14.168  47.447 -25.521  1.00  0.00     0.194 HD
HETATM   15  C25 UNL     1     -10.883  46.498 -25.874  1.00  0.00     0.060 C 
HETATM   16  C26 UNL     1      -9.939  46.670 -27.056  1.00  0.00     0.020 C 
HETATM   17  C27 UNL     1     -10.474  46.064 -28.385  1.00  0.00    -0.016 C 
HETATM   18  C28 UNL     1     -10.546  44.522 -28.275  1.00  0.00     0.020 C 
HETATM   19  C29 UNL     1      -9.513  46.520 -29.553  1.00  0.00     0.002 C 
HETATM   20  C30 UNL     1      -8.066  45.985 -29.460  1.00  0.00     0.007 C 
HETATM   21  C31 UNL     1      -7.681  45.057 -30.610  1.00  0.00     0.014 C 
HETATM   22  C32 UNL     1      -7.890  45.627 -32.052  1.00  0.00     0.003 C 
HETATM   23  C33 UNL     1      -8.097  44.403 -32.982  1.00  0.00     0.020 C 
ENDROOT
BRANCH   3  24
HETATM   24  O1  UNL     1      -6.765  46.617 -34.022  1.00  0.00    -0.377 OA
HETATM   25  H2  UNL     1      -7.664  46.847 -34.299  1.00  0.00     0.211 HD
ENDBRANCH   3  24
BRANCH  13  26
HETATM   26  O2  UNL     1     -12.724  46.970 -24.003  1.00  0.00    -0.271 OA
BRANCH  26  27
HETATM   27  C13 UNL     1     -13.734  46.355 -23.210  1.00  0.00     0.303 C 
BRANCH  27  28
HETATM   28  C14 UNL     1     -15.123  46.797 -23.643  1.00  0.00     0.244 C 
HETATM   29  O3  UNL     1     -15.380  47.965 -23.933  1.00  0.00    -0.271 OA
HETATM   30  N2  UNL     1     -16.071  45.789 -23.604  1.00  0.00    -0.354 N 
HETATM   31  H16 UNL     1     -15.769  44.894 -23.220  1.00  0.00     0.162 HD
BRANCH  30  32
HETATM   32  C15 UNL     1     -17.500  46.046 -23.832  1.00  0.00     0.098 C 
BRANCH  32  33
HETATM   33  C16 UNL     1     -18.006  45.069 -24.902  1.00  0.00     0.135 C 
BRANCH  33  34
HETATM   34  C17 UNL     1     -18.992  45.695 -25.841  1.00  0.00     0.141 C 
HETATM   35  O4  UNL     1     -20.006  46.298 -25.525  1.00  0.00    -0.650 OA
BRANCH  34  36
HETATM   36  O5  UNL     1     -18.653  45.550 -27.134  1.00  0.00    -0.776 OA
HETATM   37  H20 UNL     1     -19.365  46.010 -27.630  1.00  0.00     0.167 HD
ENDBRANCH  34  36
ENDBRANCH  33  34
ENDBRANCH  32  33
BRANCH  32  38
HETATM   38  C18 UNL     1     -18.251  46.034 -22.467  1.00  0.00     0.014 C 
HETATM   39  C19 UNL     1     -19.395  44.999 -22.423  1.00  0.00     0.033 C 
HETATM   40  C20 UNL     1     -19.572  44.382 -21.040  1.00  0.00     0.169 C 
HETATM   41  O6  UNL     1     -19.453  45.389 -20.041  1.00  0.00    -0.381 OA
HETATM   42  C21 UNL     1     -18.139  45.957 -19.921  1.00  0.00     0.054 C 
HETATM   43  C22 UNL     1     -18.347  47.416 -19.489  1.00  0.00     0.045 C 
HETATM   44  C23 UNL     1     -17.396  45.211 -18.807  1.00  0.00     0.045 C 
HETATM   45  C24 UNL     1     -17.338  45.882 -21.243  1.00  0.00     0.044 C 
ENDBRANCH  32  38
ENDBRANCH  30  32
ENDBRANCH  27  28
ENDBRANCH  26  27
ENDBRANCH  13  26
TORSDOF 9
ENDMDL
