MODEL 1
REMARK minimizedAffinity -8.9036541
REMARK CNNscore 0.472849309
REMARK CNNaffinity 7.1187191
REMARK  18 active torsions:
REMARK  status: ('A' for Active; 'I' for Inactive)
REMARK    1  A    between atoms: C19_20  and  O2_21 
REMARK    2  A    between atoms: C19_20  and  C20_22 
REMARK    3  A    between atoms: C20_22  and  C21_24 
REMARK    4  A    between atoms: C21_24  and  O4_25 
REMARK    5  A    between atoms: O4_25  and  C22_26 
REMARK    6  A    between atoms: C22_26  and  C23_28 
REMARK    7  A    between atoms: C23_28  and  C24_29 
REMARK    8  A    between atoms: C24_29  and  C25_30 
REMARK       I    between atoms: C25_30  and  N1_32 
REMARK    9  A    between atoms: N1_32  and  C26_33 
REMARK   10  A    between atoms: C26_33  and  C27_34 
REMARK   11  A    between atoms: C27_34  and  C28_35 
REMARK   12  A    between atoms: C28_35  and  C29_36 
REMARK   13  A    between atoms: C29_36  and  C30_37 
REMARK   14  A    between atoms: C30_37  and  C31_38 
REMARK       I    between atoms: C31_38  and  N2_40 
REMARK   15  A    between atoms: N2_40  and  C32_41 
REMARK   16  A    between atoms: C32_41  and  C33_42 
REMARK   17  A    between atoms: C36_45  and  C37_46 
REMARK   18  A    between atoms: C37_46  and  O9_48 
ROOT
HETATM    1  C22 UNL     1       2.355   7.213   9.552  1.00  0.00     0.259 C 
HETATM    2  O5  UNL     1       1.898   6.238   8.976  1.00  0.00    -0.265 OA
ENDROOT
BRANCH   1   3
HETATM    3  O4  UNL     1       1.612   8.240  10.044  1.00  0.00    -0.314 OA
BRANCH   3   4
HETATM    4  C21 UNL     1       1.430   8.267  11.452  1.00  0.00     0.260 C 
BRANCH   4   5
HETATM    5  C20 UNL     1       1.105   6.956  12.177  1.00  0.00     0.185 C 
HETATM    6  O3  UNL     1       1.859   6.577  13.084  1.00  0.00    -0.292 OA
BRANCH   5   7
HETATM    7  C19 UNL     1      -0.226   6.237  11.855  1.00  0.00     0.128 C 
HETATM    8  C14 UNL     1      -1.373   6.335  12.923  1.00  0.00    -0.002 C 
HETATM    9  C13 UNL     1      -2.199   7.637  12.944  1.00  0.00     0.013 C 
HETATM   10  C15 UNL     1      -0.838   6.058  14.362  1.00  0.00     0.019 C 
HETATM   11  C16 UNL     1      -2.299   5.190  12.406  1.00  0.00     0.002 C 
HETATM   12  C12 UNL     1      -3.499   7.495  13.769  1.00  0.00     0.007 C 
HETATM   13  C11 UNL     1      -4.366   6.317  13.261  1.00  0.00     0.002 C 
HETATM   14  C2  UNL     1      -5.757   6.146  13.958  1.00  0.00    -0.016 C 
HETATM   15  C10 UNL     1      -3.550   4.986  13.271  1.00  0.00    -0.004 C 
HETATM   16  C1  UNL     1      -5.610   5.648  15.415  1.00  0.00     0.020 C 
HETATM   17  C3  UNL     1      -6.542   7.487  13.968  1.00  0.00     0.022 C 
HETATM   18  C7  UNL     1      -6.552   5.123  13.141  1.00  0.00    -0.068 C 
HETATM   19  C4  UNL     1      -8.000   7.337  14.401  1.00  0.00     0.084 C 
HETATM   20  C5  UNL     1      -8.704   6.246  13.633  1.00  0.00     0.149 C 
HETATM   21  O1  UNL     1      -9.926   6.218  13.505  1.00  0.00    -0.293 OA
HETATM   22  C6  UNL     1      -7.891   5.174  13.012  1.00  0.00     0.053 C 
HETATM   23  C8  UNL     1      -5.778   4.107  12.328  1.00  0.00     0.035 C 
HETATM   24  C9  UNL     1      -4.402   3.761  12.889  1.00  0.00     0.010 C 
HETATM   25  C17 UNL     1      -1.326   4.032  12.227  1.00  0.00     0.009 C 
HETATM   26  C18 UNL     1      -0.039   4.701  11.704  1.00  0.00     0.047 C 
BRANCH   7  27
HETATM   27  O2  UNL     1      -0.688   6.740  10.589  1.00  0.00    -0.381 OA
HETATM   28  H27 UNL     1      -0.860   7.692  10.693  1.00  0.00     0.211 HD
ENDBRANCH   7  27
ENDBRANCH   5   7
ENDBRANCH   4   5
ENDBRANCH   3   4
ENDBRANCH   1   3
BRANCH   1  29
HETATM   29  C23 UNL     1       3.827   7.471   9.749  1.00  0.00     0.120 C 
BRANCH  29  30
HETATM   30  C24 UNL     1       4.484   6.397  10.605  1.00  0.00     0.112 C 
BRANCH  30  31
HETATM   31  C25 UNL     1       5.859   6.815  11.081  1.00  0.00     0.217 C 
HETATM   32  O6  UNL     1       6.901   6.364  10.622  1.00  0.00    -0.274 OA
HETATM   33  N1  UNL     1       5.810   7.757  12.086  1.00  0.00    -0.361 N 
HETATM   34  H34 UNL     1       4.912   8.083  12.424  1.00  0.00     0.162 HD
BRANCH  33  35
HETATM   35  C26 UNL     1       7.006   8.253  12.736  1.00  0.00     0.122 C 
BRANCH  35  36
HETATM   36  C27 UNL     1       7.427   7.417  13.946  1.00  0.00     0.020 C 
BRANCH  36  37
HETATM   37  C28 UNL     1       8.414   8.111  14.899  1.00  0.00     0.002 C 
BRANCH  37  38
HETATM   38  C29 UNL     1       9.873   8.087  14.429  1.00  0.00     0.009 C 
BRANCH  38  39
HETATM   39  C30 UNL     1      10.263   9.358  13.672  1.00  0.00     0.103 C 
BRANCH  39  40
HETATM   40  C31 UNL     1      11.402  10.130  14.320  1.00  0.00     0.217 C 
HETATM   41  O7  UNL     1      12.514  10.263  13.816  1.00  0.00    -0.274 OA
HETATM   42  N2  UNL     1      11.043  10.668  15.539  1.00  0.00    -0.357 N 
HETATM   43  H45 UNL     1      10.064  10.670  15.796  1.00  0.00     0.162 HD
BRANCH  42  44
HETATM   44  C32 UNL     1      11.944  11.508  16.294  1.00  0.00     0.161 C 
BRANCH  44  45
HETATM   45  C33 UNL     1      11.378  11.812  17.658  1.00  0.00    -0.040 A 
HETATM   46  C34 UNL     1      10.812  10.794  18.444  1.00  0.00     0.010 A 
HETATM   47  C35 UNL     1      10.275  11.088  19.699  1.00  0.00     0.019 A 
HETATM   48  C36 UNL     1      10.298  12.403  20.185  1.00  0.00     0.037 A 
HETATM   49  C38 UNL     1      10.857  13.424  19.404  1.00  0.00     0.019 A 
HETATM   50  C39 UNL     1      11.386  13.129  18.145  1.00  0.00     0.010 A 
BRANCH  48  51
HETATM   51  C37 UNL     1       9.715  12.665  21.523  1.00  0.00     0.176 C 
HETATM   52  O8  UNL     1       9.192  11.839  22.247  1.00  0.00    -0.646 OA
BRANCH  51  53
HETATM   53  O9  UNL     1       9.814  13.956  21.893  1.00  0.00    -0.773 OA
HETATM   54  H50 UNL     1       9.396  13.981  22.780  1.00  0.00     0.167 HD
ENDBRANCH  51  53
ENDBRANCH  48  51
ENDBRANCH  44  45
ENDBRANCH  42  44
ENDBRANCH  39  40
ENDBRANCH  38  39
ENDBRANCH  37  38
ENDBRANCH  36  37
ENDBRANCH  35  36
ENDBRANCH  33  35
ENDBRANCH  30  31
ENDBRANCH  29  30
ENDBRANCH   1  29
TORSDOF 18
ENDMDL
