MODEL 1
REMARK minimizedAffinity -9.29266357
REMARK CNNscore 0.741409779
REMARK CNNaffinity 6.75439978
REMARK  11 active torsions:
REMARK  status: ('A' for Active; 'I' for Inactive)
REMARK    1  A    between atoms: C19_21  and  O3_22 
REMARK    2  A    between atoms: C19_21  and  C20_23 
REMARK    3  A    between atoms: C20_23  and  C21_25 
REMARK    4  A    between atoms: C21_25  and  O5_26 
REMARK    5  A    between atoms: O5_26  and  C22_27 
REMARK    6  A    between atoms: C22_27  and  C23_29 
REMARK    7  A    between atoms: C23_29  and  C24_30 
REMARK    8  A    between atoms: C24_30  and  C25_31 
REMARK       I    between atoms: C25_31  and  N1_33 
REMARK    9  A    between atoms: N1_33  and  C26_34 
REMARK   10  A    between atoms: C26_34  and  C27_35 
REMARK   11  A    between atoms: C27_35  and  C28_36 
ROOT
HETATM    1  C20 UNL     1      -9.993  47.374 -27.737  1.00  0.00     0.185 C 
HETATM    2  O4  UNL     1      -9.809  46.472 -28.567  1.00  0.00    -0.292 OA
ENDROOT
BRANCH   1   3
HETATM    3  C19 UNL     1     -11.442  47.659 -27.250  1.00  0.00     0.128 C 
HETATM    4  C14 UNL     1     -12.165  46.500 -26.493  1.00  0.00     0.005 C 
HETATM    5  C13 UNL     1     -13.115  47.044 -25.396  1.00  0.00     0.091 C 
HETATM    6  C15 UNL     1     -11.152  45.549 -25.819  1.00  0.00     0.019 C 
HETATM    7  C16 UNL     1     -12.995  45.764 -27.593  1.00  0.00     0.002 C 
HETATM    8  C12 UNL     1     -13.928  45.929 -24.767  1.00  0.00     0.133 C 
HETATM    9  C11 UNL     1     -14.537  44.886 -25.707  1.00  0.00     0.072 C 
HETATM   10  O2  UNL     1     -14.011  45.847 -23.544  1.00  0.00    -0.297 OA
HETATM   11  C2  UNL     1     -15.973  44.322 -25.348  1.00  0.00    -0.009 C 
HETATM   12  C10 UNL     1     -14.448  45.415 -27.169  1.00  0.00     0.003 C 
HETATM   13  C1  UNL     1     -15.851  42.775 -25.233  1.00  0.00     0.021 C 
HETATM   14  C3  UNL     1     -16.612  44.763 -24.001  1.00  0.00     0.022 C 
HETATM   15  C7  UNL     1     -16.936  44.672 -26.491  1.00  0.00    -0.067 C 
HETATM   16  C4  UNL     1     -17.191  46.168 -24.023  1.00  0.00     0.084 C 
HETATM   17  C5  UNL     1     -18.215  46.278 -25.123  1.00  0.00     0.149 C 
HETATM   18  O1  UNL     1     -19.180  47.034 -25.058  1.00  0.00    -0.293 OA
HETATM   19  C6  UNL     1     -17.971  45.522 -26.373  1.00  0.00     0.053 C 
HETATM   20  C8  UNL     1     -16.560  44.127 -27.847  1.00  0.00     0.035 C 
HETATM   21  C9  UNL     1     -15.081  44.401 -28.149  1.00  0.00     0.010 C 
HETATM   22  C17 UNL     1     -13.010  46.701 -28.822  1.00  0.00     0.009 C 
HETATM   23  C18 UNL     1     -12.406  48.021 -28.372  1.00  0.00     0.047 C 
BRANCH   3  24
HETATM   24  O3  UNL     1     -11.336  48.811 -26.398  1.00  0.00    -0.381 OA
HETATM   25  H25 UNL     1     -10.413  48.831 -26.059  1.00  0.00     0.211 HD
ENDBRANCH   3  24
ENDBRANCH   1   3
BRANCH   1  26
HETATM   26  C21 UNL     1      -8.835  48.200 -27.185  1.00  0.00     0.260 C 
BRANCH  26  27
HETATM   27  O5  UNL     1      -7.627  47.441 -27.092  1.00  0.00    -0.314 OA
BRANCH  27  28
HETATM   28  C22 UNL     1      -6.677  47.763 -28.010  1.00  0.00     0.259 C 
HETATM   29  O6  UNL     1      -6.885  47.917 -29.206  1.00  0.00    -0.265 OA
BRANCH  28  30
HETATM   30  C23 UNL     1      -5.344  47.977 -27.352  1.00  0.00     0.120 C 
BRANCH  30  31
HETATM   31  C24 UNL     1      -4.395  48.646 -28.333  1.00  0.00     0.112 C 
BRANCH  31  32
HETATM   32  C25 UNL     1      -3.393  49.530 -27.626  1.00  0.00     0.218 C 
HETATM   33  O7  UNL     1      -2.661  49.139 -26.726  1.00  0.00    -0.274 OA
HETATM   34  N1  UNL     1      -3.398  50.826 -28.094  1.00  0.00    -0.361 N 
HETATM   35  H32 UNL     1      -4.012  51.084 -28.854  1.00  0.00     0.162 HD
BRANCH  34  36
HETATM   36  C26 UNL     1      -2.491  51.830 -27.565  1.00  0.00     0.127 C 
BRANCH  36  37
HETATM   37  C27 UNL     1      -2.682  52.066 -26.064  1.00  0.00     0.060 C 
BRANCH  37  38
HETATM   38  C28 UNL     1      -1.409  52.467 -25.390  1.00  0.00    -0.029 A 
HETATM   39  C29 UNL     1      -0.291  53.013 -25.991  1.00  0.00     0.096 A 
HETATM   40  N2  UNL     1       0.652  53.232 -25.024  1.00  0.00    -0.365 N 
HETATM   41  C30 UNL     1       0.179  52.836 -23.796  1.00  0.00     0.042 A 
HETATM   42  H38 UNL     1       1.568  53.628 -25.181  1.00  0.00     0.165 HD
HETATM   43  C31 UNL     1       0.792  52.869 -22.538  1.00  0.00     0.030 A 
HETATM   44  C35 UNL     1      -1.116  52.354 -23.992  1.00  0.00    -0.002 A 
HETATM   45  C32 UNL     1       0.057  52.395 -21.447  1.00  0.00     0.002 A 
HETATM   46  C33 UNL     1      -1.238  51.909 -21.611  1.00  0.00     0.001 A 
HETATM   47  C34 UNL     1      -1.837  51.883 -22.876  1.00  0.00     0.014 A 
ENDBRANCH  37  38
ENDBRANCH  36  37
ENDBRANCH  34  36
ENDBRANCH  31  32
ENDBRANCH  30  31
ENDBRANCH  28  30
ENDBRANCH  27  28
ENDBRANCH  26  27
ENDBRANCH   1  26
TORSDOF 11
ENDMDL
