MODEL 1
REMARK minimizedAffinity -7.73565149
REMARK CNNscore 0.366197616
REMARK CNNaffinity 6.12828112
REMARK  6 active torsions:
REMARK  status: ('A' for Active; 'I' for Inactive)
REMARK    1  A    between atoms: C2_2  and  C3_3 
REMARK    2  A    between atoms: C6_6  and  O1_7 
REMARK    3  A    between atoms: C7_8  and  C8_9 
REMARK    4  A    between atoms: C8_9  and  C9_10 
REMARK    5  A    between atoms: C17_20  and  O4_21 
REMARK    6  A    between atoms: C26_33  and  O6_34 
ROOT
HETATM    1  C3  UNL     1      -1.929   9.966  13.958  1.00  0.00     0.008 C 
HETATM    2  C4  UNL     1      -0.965  11.056  14.407  1.00  0.00    -0.023 C 
HETATM    3  C5  UNL     1       0.330  10.887  14.726  1.00  0.00     0.003 C 
HETATM    4  C6  UNL     1       1.256  11.974  15.201  1.00  0.00     0.170 C 
HETATM    5  C7  UNL     1       2.431  11.396  16.028  1.00  0.00     0.164 C 
HETATM    6  O2  UNL     1       3.289  10.617  15.141  1.00  0.00    -0.312 OA
HETATM    7  C12 UNL     1       3.641   9.362  15.558  1.00  0.00     0.276 C 
HETATM    8  O3  UNL     1       3.197   8.817  16.565  1.00  0.00    -0.264 OA
HETATM    9  C13 UNL     1       4.812   8.793  14.693  1.00  0.00     0.095 C 
HETATM   10  C14 UNL     1       5.101   7.347  15.139  1.00  0.00     0.036 C 
HETATM   11  C15 UNL     1       5.959   9.686  15.178  1.00  0.00     0.002 C 
HETATM   12  C16 UNL     1       7.076  10.067  14.551  1.00  0.00     0.053 C 
HETATM   13  C17 UNL     1       7.446   9.507  13.267  1.00  0.00     0.140 C 
HETATM   14  N1  UNL     1       6.810   9.011  12.286  1.00  0.00    -0.333 N 
ATOM     15  H1  UNL     1       7.352   8.612  11.519  1.00  0.00     0.168 HD
HETATM   16  C18 UNL     1       5.439   8.975  12.190  1.00  0.00     0.097 C 
HETATM   17  C19 UNL     1       4.532   8.802  13.175  1.00  0.00     0.045 C 
HETATM   18  C20 UNL     1       3.115   8.459  12.783  1.00  0.00     0.194 C 
HETATM   19  O5  UNL     1       2.261   8.273  13.641  1.00  0.00    -0.287 OA
HETATM   20  C21 UNL     1       2.750   8.237  11.368  1.00  0.00     0.046 A 
HETATM   21  C22 UNL     1       3.695   8.493  10.387  1.00  0.00     0.032 A 
HETATM   22  C23 UNL     1       3.427   8.238   9.029  1.00  0.00     0.026 A 
HETATM   23  C24 UNL     1       2.206   7.684   8.633  1.00  0.00    -0.027 A 
HETATM   24  C25 UNL     1       1.942   7.372   7.186  1.00  0.00     0.051 C 
HETATM   25  C26 UNL     1       1.255   7.410   9.617  1.00  0.00     0.086 A 
HETATM   26  C27 UNL     1       1.500   7.731  10.963  1.00  0.00     0.059 A 
HETATM   27  C28 UNL     1       0.348   7.569  11.869  1.00  0.00     0.163 C 
HETATM   28  O7  UNL     1      -0.043   6.426  12.103  1.00  0.00    -0.292 OA
HETATM   29  C29 UNL     1      -0.409   8.833  12.230  1.00  0.00     0.084 C 
HETATM   30  C30 UNL     1      -1.273   8.650  13.480  1.00  0.00     0.016 C 
HETATM   31  C31 UNL     1       4.995   9.050  10.751  1.00  0.00     0.210 C 
HETATM   32  O8  UNL     1       5.691   9.563   9.883  1.00  0.00    -0.285 OA
ENDROOT
BRANCH   5  33
HETATM   33  C8  UNL     1       3.333  12.478  16.659  1.00  0.00     0.039 C 
BRANCH  33  34
HETATM   34  C9  UNL     1       3.701  12.274  18.141  1.00  0.00    -0.020 C 
HETATM   35  C10 UNL     1       2.665  11.370  18.815  1.00  0.00     0.009 C 
HETATM   36  C11 UNL     1       3.810  13.597  18.903  1.00  0.00     0.009 C 
ENDBRANCH  33  34
ENDBRANCH   5  33
BRANCH   4  37
HETATM   37  O1  UNL     1       1.750  12.688  14.069  1.00  0.00    -0.389 OA
HETATM   38  H10 UNL     1       1.139  12.529  13.332  1.00  0.00     0.210 HD
ENDBRANCH   4  37
BRANCH   1  39
HETATM   39  C2  UNL     1      -2.929   9.725  15.106  1.00  0.00     0.004 C 
HETATM   40  C1  UNL     1      -4.261   9.142  14.662  1.00  0.00     0.006 C 
ENDBRANCH   1  39
BRANCH  13  41
HETATM   41  O4  UNL     1       8.784   9.534  13.162  1.00  0.00    -0.346 OA
HETATM   42  H26 UNL     1       9.007   9.162  12.288  1.00  0.00     0.219 HD
ENDBRANCH  13  41
BRANCH  25  43
HETATM   43  O6  UNL     1       0.073   6.833   9.223  1.00  0.00    -0.359 OA
HETATM   44  H31 UNL     1      -0.282   6.304   9.975  1.00  0.00     0.217 HD
ENDBRANCH  25  43
TORSDOF 6
ENDMDL
