MODEL 1
REMARK minimizedAffinity -8.68872833
REMARK  7 active torsions:
REMARK  status: ('A' for Active; 'I' for Inactive)
REMARK    1  A    between atoms: N1_2  and  C2_3 
REMARK    2  A    between atoms: C2_3  and  C3_4 
REMARK    3  A    between atoms: C5_6  and  O1_7 
REMARK    4  A    between atoms: C23_26  and  N2_27 
REMARK    5  A    between atoms: C23_26  and  C24_28 
REMARK    6  A    between atoms: C24_28  and  C25_29 
REMARK    7  A    between atoms: C25_29  and  O3_30 
ROOT
HETATM    1  C3  UNL     1      -0.606  52.010 -23.156  1.00  0.00    -0.021 A 
HETATM    2  C4  UNL     1      -0.126  52.647 -21.986  1.00  0.00     0.045 A 
HETATM    3  C5  UNL     1      -0.105  51.988 -20.771  1.00  0.00     0.066 A 
HETATM    4  C6  UNL     1      -0.536  50.681 -20.681  1.00  0.00     0.045 A 
HETATM    5  C7  UNL     1      -1.013  49.987 -21.816  1.00  0.00    -0.037 A 
HETATM    6  C8  UNL     1      -1.082  50.664 -23.086  1.00  0.00    -0.042 A 
HETATM    7  C9  UNL     1      -1.604  49.966 -24.354  1.00  0.00     0.044 C 
HETATM    8  C10 UNL     1      -3.132  49.984 -24.702  1.00  0.00    -0.010 C 
HETATM    9  C11 UNL     1      -3.757  51.338 -25.062  1.00  0.00     0.005 C 
HETATM   10  C12 UNL     1      -4.461  52.005 -23.881  1.00  0.00     0.001 C 
HETATM   11  C13 UNL     1      -5.586  51.145 -23.276  1.00  0.00     0.007 C 
HETATM   12  C14 UNL     1      -5.389  49.622 -23.444  1.00  0.00     0.022 C 
HETATM   13  C15 UNL     1      -3.904  49.325 -23.576  1.00  0.00     0.012 C 
HETATM   14  C16 UNL     1      -6.070  48.738 -22.319  1.00  0.00     0.082 C 
HETATM   15  C17 UNL     1      -7.580  49.115 -22.244  1.00  0.00     0.040 C 
HETATM   16  C18 UNL     1      -8.343  48.160 -21.328  1.00  0.00     0.013 C 
HETATM   17  C19 UNL     1      -7.353  47.129 -20.754  1.00  0.00     0.059 C 
HETATM   18  C20 UNL     1      -6.689  46.406 -21.982  1.00  0.00     0.061 C 
HETATM   19  C21 UNL     1      -7.741  45.737 -22.896  1.00  0.00     0.046 C 
HETATM   20  C22 UNL     1      -5.678  45.306 -21.626  1.00  0.00     0.046 C 
HETATM   21  O2  UNL     1      -5.996  47.371 -22.801  1.00  0.00    -0.368 OA
HETATM   22  C23 UNL     1      -6.289  47.887 -19.866  1.00  0.00     0.180 C 
HETATM   23  C26 UNL     1      -5.452  48.805 -20.847  1.00  0.00     0.139 C 
HETATM   24  C27 UNL     1      -3.988  48.523 -20.784  1.00  0.00    -0.096 C 
HETATM   25  C28 UNL     1      -2.798  48.447 -20.958  1.00  0.00    -0.101 C 
HETATM   26  C29 UNL     1      -1.434  48.540 -21.531  1.00  0.00     0.133 C 
ENDROOT
BRANCH  22  27
HETATM   27  N2  UNL     1      -5.558  46.846 -19.104  1.00  0.00     0.090 N 
HETATM   28  H33 UNL     1      -5.329  47.208 -18.167  1.00  0.00     0.313 HD
HETATM   29  H34 UNL     1      -4.645  46.672 -19.519  1.00  0.00     0.313 HD
ENDBRANCH  22  27
BRANCH  22  30
HETATM   30  C24 UNL     1      -6.971  48.796 -18.775  1.00  0.00     0.069 C 
BRANCH  30  31
HETATM   31  C25 UNL     1      -7.787  48.070 -17.694  1.00  0.00     0.166 C 
BRANCH  31  32
HETATM   32  O3  UNL     1      -8.881  48.865 -17.257  1.00  0.00    -0.401 OA
HETATM   33  H39 UNL     1      -9.343  48.356 -16.567  1.00  0.00     0.209 HD
ENDBRANCH  31  32
ENDBRANCH  30  31
ENDBRANCH  22  30
BRANCH   3  34
HETATM   34  O1  UNL     1       0.349  52.592 -19.636  1.00  0.00    -0.361 OA
HETATM   35  H8  UNL     1       0.578  53.512 -19.843  1.00  0.00     0.217 HD
ENDBRANCH   3  34
BRANCH   1  36
HETATM   36  C2  UNL     1      -0.528  52.848 -24.424  1.00  0.00     0.308 C 
BRANCH  36  37
HETATM   37  N1  UNL     1       0.859  53.074 -24.841  1.00  0.00     0.083 N 
HETATM   38  C1  UNL     1       1.315  52.026 -25.742  1.00  0.00     0.307 C 
HETATM   39  H4  UNL     1       1.462  53.109 -24.022  1.00  0.00     0.315 HD
ENDBRANCH  36  37
ENDBRANCH   1  36
TORSDOF 7
ENDMDL
