MODEL 1
REMARK minimizedAffinity -9.32846069
REMARK CNNscore 0.582102776
REMARK CNNaffinity 7.22739649
REMARK  11 active torsions:
REMARK  status: ('A' for Active; 'I' for Inactive)
REMARK    1  A    between atoms: O1_2  and  C2_3 
REMARK    2  A    between atoms: C4_5  and  O2_6 
REMARK    3  A    between atoms: O2_6  and  C5_7 
REMARK    4  A    between atoms: C8_10  and  C9_11 
REMARK    5  A    between atoms: N1_12  and  C10_14 
REMARK    6  A    between atoms: C10_14  and  C11_15 
REMARK    7  A    between atoms: C11_15  and  O3_16 
REMARK    8  A    between atoms: C17_22  and  C18_23 
REMARK    9  A    between atoms: C24_31  and  O6_32 
REMARK   10  A    between atoms: C28_36  and  O7_37 
REMARK   11  A    between atoms: C32_42  and  O9_43 
ROOT
HETATM    1  C5  UNL     1      -4.200   7.894  14.505  1.00  0.00     0.127 C 
HETATM    2  C6  UNL     1      -3.994   8.320  13.058  1.00  0.00     0.033 C 
HETATM    3  C7  UNL     1      -2.558   8.749  12.754  1.00  0.00     0.021 C 
HETATM    4  C8  UNL     1      -1.463   8.166  13.708  1.00  0.00     0.026 C 
HETATM    5  C12 UNL     1      -0.078   8.167  12.927  1.00  0.00     0.009 C 
HETATM    6  C13 UNL     1       1.016   9.089  13.497  1.00  0.00     0.007 C 
HETATM    7  C14 UNL     1       2.223   9.156  12.562  1.00  0.00     0.013 C 
HETATM    8  C15 UNL     1       2.864   7.774  12.302  1.00  0.00    -0.005 C 
HETATM    9  C16 UNL     1       3.601   7.313  13.575  1.00  0.00     0.019 C 
HETATM   10  C17 UNL     1       3.831   7.797  11.071  1.00  0.00     0.028 C 
HETATM   11  C22 UNL     1       2.892   7.721   9.852  1.00  0.00     0.013 C 
HETATM   12  C23 UNL     1       1.589   7.078  10.342  1.00  0.00     0.040 C 
HETATM   13  C24 UNL     1       1.795   6.743  11.831  1.00  0.00     0.070 C 
HETATM   14  C25 UNL     1       0.500   6.745  12.693  1.00  0.00     0.026 C 
HETATM   15  C26 UNL     1      -0.605   5.841  12.123  1.00  0.00     0.011 C 
HETATM   16  C27 UNL     1      -1.838   5.722  13.029  1.00  0.00     0.039 C 
HETATM   17  C28 UNL     1      -1.898   6.742  14.188  1.00  0.00     0.073 C 
HETATM   18  C29 UNL     1      -3.305   6.698  14.847  1.00  0.00     0.071 C 
ENDROOT
BRANCH   1  19
HETATM   19  O2  UNL     1      -5.587   7.588  14.666  1.00  0.00    -0.356 OA
BRANCH  19  20
HETATM   20  C4  UNL     1      -6.151   6.839  13.590  1.00  0.00     0.263 C 
HETATM   21  C3  UNL     1      -5.436   5.496  13.531  1.00  0.00     0.095 C 
HETATM   22  C2  UNL     1      -6.336   4.446  12.913  1.00  0.00     0.156 C 
HETATM   23  C32 UNL     1      -7.610   4.273  13.768  1.00  0.00     0.175 C 
HETATM   24  C30 UNL     1      -8.055   5.599  14.432  1.00  0.00     0.151 C 
HETATM   25  O8  UNL     1      -7.566   6.739  13.727  1.00  0.00    -0.354 OA
HETATM   26  C31 UNL     1      -7.711   5.667  15.918  1.00  0.00     0.042 C 
BRANCH  22  27
HETATM   27  O1  UNL     1      -5.568   3.231  12.837  1.00  0.00    -0.388 OA
HETATM   28  C1  UNL     1      -4.702   3.181  11.710  1.00  0.00     0.202 C 
ENDBRANCH  22  27
BRANCH  23  29
HETATM   29  O9  UNL     1      -8.649   3.799  12.885  1.00  0.00    -0.390 OA
HETATM   30  H49 UNL     1      -9.455   3.677  13.417  1.00  0.00     0.210 HD
ENDBRANCH  23  29
ENDBRANCH  19  20
ENDBRANCH   1  19
BRANCH  17  31
HETATM   31  O7  UNL     1      -0.976   6.234  15.170  1.00  0.00    -0.389 OA
HETATM   32  H41 UNL     1      -0.908   6.918  15.873  1.00  0.00     0.210 HD
ENDBRANCH  17  31
BRANCH   4  33
HETATM   33  C9  UNL     1      -1.369   9.133  14.905  1.00  0.00     0.068 C 
HETATM   34  N1  UNL     1      -0.998   8.736  16.072  1.00  0.00    -0.399 N 
ATOM     35  H1  UNL     1      -0.771   7.762  16.272  1.00  0.00     0.158 HD
BRANCH  34  36
HETATM   36  C10 UNL     1      -0.926   9.791  17.092  1.00  0.00     0.144 C 
BRANCH  36  37
HETATM   37  C11 UNL     1       0.451  10.451  17.061  1.00  0.00     0.183 C 
BRANCH  37  38
HETATM   38  O3  UNL     1       1.449   9.536  17.488  1.00  0.00    -0.399 OA
HETATM   39  H18 UNL     1       1.531   8.854  16.796  1.00  0.00     0.209 HD
ENDBRANCH  37  38
ENDBRANCH  36  37
ENDBRANCH  34  36
ENDBRANCH   4  33
BRANCH  13  40
HETATM   40  O6  UNL     1       2.394   5.441  11.895  1.00  0.00    -0.389 OA
HETATM   41  H35 UNL     1       1.783   4.793  11.509  1.00  0.00     0.210 HD
ENDBRANCH  13  40
BRANCH  10  42
HETATM   42  C18 UNL     1       4.853   8.902  11.025  1.00  0.00    -0.045 A 
HETATM   43  C19 UNL     1       6.097   8.881  10.546  1.00  0.00     0.087 A 
HETATM   44  C20 UNL     1       6.679  10.196  10.788  1.00  0.00     0.283 A 
HETATM   45  O4  UNL     1       7.803  10.525  10.459  1.00  0.00    -0.260 OA
HETATM   46  O5  UNL     1       5.772  10.973  11.436  1.00  0.00    -0.314 OA
HETATM   47  C21 UNL     1       4.570  10.228  11.625  1.00  0.00     0.213 A 
ENDBRANCH  10  42
TORSDOF 11
ENDMDL
