MODEL 1
REMARK minimizedAffinity -10.0793161
REMARK  6 active torsions:
REMARK  status: ('A' for Active; 'I' for Inactive)
REMARK    1  A    between atoms: C2_2  and  C30_33 
REMARK    2  A    between atoms: C3_3  and  C4_4 
REMARK    3  A    between atoms: C4_4  and  C5_5 
REMARK    4  A    between atoms: C5_5  and  C6_6 
REMARK    5  A    between atoms: C6_6  and  C8_8 
REMARK    6  A    between atoms: C30_33  and  O5_35 
ROOT
HETATM    1  C8  UNL     1      -3.963  50.299 -24.756  1.00  0.00    -0.001 C 
HETATM    2  C9  UNL     1      -5.443  50.088 -24.337  1.00  0.00     0.007 C 
HETATM    3  C10 UNL     1      -5.472  50.060 -22.797  1.00  0.00     0.015 C 
HETATM    4  C11 UNL     1      -4.108  50.631 -22.358  1.00  0.00    -0.004 C 
HETATM    5  C12 UNL     1      -4.230  52.186 -22.405  1.00  0.00     0.021 C 
HETATM    6  C13 UNL     1      -3.542  50.326 -20.979  1.00  0.00     0.007 C 
HETATM    7  C14 UNL     1      -2.210  50.330 -20.719  1.00  0.00     0.007 C 
HETATM    8  C15 UNL     1      -1.266  50.559 -21.893  1.00  0.00     0.157 C 
HETATM    9  O1  UNL     1      -0.057  50.690 -21.708  1.00  0.00    -0.293 OA
HETATM   10  C16 UNL     1      -1.798  50.632 -23.321  1.00  0.00     0.094 C 
HETATM   11  C17 UNL     1      -3.175  49.986 -23.449  1.00  0.00    -0.022 C 
HETATM   12  C18 UNL     1      -3.006  48.447 -23.275  1.00  0.00     0.017 C 
HETATM   13  C19 UNL     1      -1.583  50.098 -19.319  1.00  0.00    -0.007 C 
HETATM   14  C20 UNL     1      -0.949  48.685 -19.352  1.00  0.00     0.021 C 
HETATM   15  C21 UNL     1      -0.469  51.146 -18.994  1.00  0.00     0.022 C 
HETATM   16  C22 UNL     1      -0.284  51.499 -17.519  1.00  0.00     0.080 C 
HETATM   17  C23 UNL     1      -0.736  50.384 -16.610  1.00  0.00     0.135 C 
HETATM   18  O2  UNL     1       0.021  49.908 -15.766  1.00  0.00    -0.297 OA
HETATM   19  C24 UNL     1      -2.199  49.949 -16.744  1.00  0.00     0.018 C 
HETATM   20  C25 UNL     1      -2.347  48.477 -16.310  1.00  0.00     0.023 C 
HETATM   21  C26 UNL     1      -3.007  50.807 -15.745  1.00  0.00     0.023 C 
HETATM   22  C27 UNL     1      -2.683  50.240 -18.205  1.00  0.00     0.021 C 
HETATM   23  C28 UNL     1      -3.952  49.481 -18.585  1.00  0.00     0.090 C 
HETATM   24  C29 UNL     1      -4.501  50.046 -19.868  1.00  0.00     0.157 C 
HETATM   25  O3  UNL     1      -5.706  50.240 -19.999  1.00  0.00    -0.293 OA
ENDROOT
BRANCH   1  26
HETATM   26  C6  UNL     1      -3.608  49.683 -26.142  1.00  0.00    -0.014 C 
HETATM   27  C7  UNL     1      -4.279  48.352 -26.503  1.00  0.00     0.010 C 
BRANCH  26  28
HETATM   28  C5  UNL     1      -2.077  49.591 -26.346  1.00  0.00     0.008 C 
BRANCH  28  29
HETATM   29  C4  UNL     1      -1.400  50.893 -26.805  1.00  0.00     0.028 C 
BRANCH  29  30
HETATM   30  C3  UNL     1       0.078  50.906 -26.519  1.00  0.00    -0.013 C 
HETATM   31  C2  UNL     1       1.062  51.464 -27.253  1.00  0.00     0.008 C 
HETATM   32  C1  UNL     1       0.890  52.208 -28.545  1.00  0.00     0.055 C 
BRANCH  31  33
HETATM   33  C30 UNL     1       2.480  51.382 -26.805  1.00  0.00     0.171 C 
HETATM   34  O4  UNL     1       2.895  50.660 -25.914  1.00  0.00    -0.646 OA
BRANCH  33  35
HETATM   35  O5  UNL     1       3.319  52.177 -27.489  1.00  0.00    -0.773 OA
HETATM   36  H42 UNL     1       4.190  51.996 -27.079  1.00  0.00     0.167 HD
ENDBRANCH  33  35
ENDBRANCH  31  33
ENDBRANCH  29  30
ENDBRANCH  28  29
ENDBRANCH  26  28
ENDBRANCH   1  26
TORSDOF 6
ENDMDL
