MODEL 1
REMARK minimizedAffinity -7.71674824
REMARK CNNscore 0.73170191
REMARK CNNaffinity 7.13604212
REMARK  11 active torsions:
REMARK  status: ('A' for Active; 'I' for Inactive)
REMARK    1  A    between atoms: C19_21  and  O3_22 
REMARK    2  A    between atoms: C19_21  and  C20_23 
REMARK    3  A    between atoms: C20_23  and  C21_25 
REMARK    4  A    between atoms: C21_25  and  O5_26 
REMARK    5  A    between atoms: O5_26  and  C22_27 
REMARK    6  A    between atoms: C22_27  and  C23_29 
REMARK    7  A    between atoms: C23_29  and  C24_30 
REMARK    8  A    between atoms: C24_30  and  C25_31 
REMARK       I    between atoms: C25_31  and  N1_33 
REMARK    9  A    between atoms: N1_33  and  C26_34 
REMARK   10  A    between atoms: C26_34  and  C27_35 
REMARK   11  A    between atoms: C27_35  and  O9_37 
ROOT
HETATM    1  C1  UNL     1       0.853  51.238 -24.705  1.00  0.00     0.021 C 
HETATM    2  C2  UNL     1      -0.179  52.089 -23.931  1.00  0.00    -0.009 C 
HETATM    3  C3  UNL     1      -0.155  53.558 -24.458  1.00  0.00     0.022 C 
HETATM    4  C4  UNL     1       1.077  54.348 -24.039  1.00  0.00     0.084 C 
HETATM    5  C5  UNL     1       1.219  54.336 -22.541  1.00  0.00     0.149 C 
HETATM    6  O1  UNL     1       1.707  55.272 -21.914  1.00  0.00    -0.293 OA
HETATM    7  C6  UNL     1       0.821  53.106 -21.819  1.00  0.00     0.053 C 
HETATM    8  C7  UNL     1       0.228  52.073 -22.444  1.00  0.00    -0.067 C 
HETATM    9  C8  UNL     1      -0.045  50.803 -21.675  1.00  0.00     0.035 C 
HETATM   10  C9  UNL     1      -1.489  50.346 -21.833  1.00  0.00     0.010 C 
HETATM   11  C10 UNL     1      -1.861  50.185 -23.313  1.00  0.00     0.003 C 
HETATM   12  C11 UNL     1      -1.643  51.529 -24.066  1.00  0.00     0.072 C 
HETATM   13  C12 UNL     1      -2.185  51.418 -25.506  1.00  0.00     0.133 C 
HETATM   14  O2  UNL     1      -1.567  51.798 -26.497  1.00  0.00    -0.297 OA
HETATM   15  C13 UNL     1      -3.608  50.890 -25.662  1.00  0.00     0.091 C 
HETATM   16  C14 UNL     1      -3.746  49.539 -24.951  1.00  0.00     0.005 C 
HETATM   17  C15 UNL     1      -2.859  48.499 -25.692  1.00  0.00     0.019 C 
HETATM   18  C16 UNL     1      -3.325  49.748 -23.474  1.00  0.00     0.002 C 
HETATM   19  C17 UNL     1      -3.765  48.459 -22.787  1.00  0.00     0.009 C 
HETATM   20  C18 UNL     1      -5.036  48.025 -23.539  1.00  0.00     0.047 C 
HETATM   21  C19 UNL     1      -5.196  48.996 -24.744  1.00  0.00     0.128 C 
ENDROOT
BRANCH  21  22
HETATM   22  O3  UNL     1      -6.076  50.027 -24.280  1.00  0.00    -0.381 OA
HETATM   23  H25 UNL     1      -6.081  50.776 -24.895  1.00  0.00     0.211 HD
ENDBRANCH  21  22
BRANCH  21  24
HETATM   24  C20 UNL     1      -5.797  48.248 -25.962  1.00  0.00     0.185 C 
HETATM   25  O4  UNL     1      -5.191  48.140 -27.031  1.00  0.00    -0.292 OA
BRANCH  24  26
HETATM   26  C21 UNL     1      -7.193  47.648 -25.782  1.00  0.00     0.260 C 
BRANCH  26  27
HETATM   27  O5  UNL     1      -8.093  47.990 -26.833  1.00  0.00    -0.314 OA
BRANCH  27  28
HETATM   28  C22 UNL     1      -8.140  47.071 -27.838  1.00  0.00     0.259 C 
HETATM   29  O6  UNL     1      -8.376  45.882 -27.677  1.00  0.00    -0.265 OA
BRANCH  28  30
HETATM   30  C23 UNL     1      -7.824  47.730 -29.154  1.00  0.00     0.120 C 
BRANCH  30  31
HETATM   31  C24 UNL     1      -8.919  48.713 -29.551  1.00  0.00     0.112 C 
BRANCH  31  32
HETATM   32  C25 UNL     1     -10.122  47.996 -30.120  1.00  0.00     0.218 C 
HETATM   33  O7  UNL     1     -11.208  47.943 -29.557  1.00  0.00    -0.274 OA
HETATM   34  N1  UNL     1      -9.877  47.415 -31.345  1.00  0.00    -0.351 N 
HETATM   35  H32 UNL     1      -9.109  47.790 -31.889  1.00  0.00     0.163 HD
BRANCH  34  36
HETATM   36  C26 UNL     1     -10.966  46.801 -32.092  1.00  0.00     0.232 C 
BRANCH  36  37
HETATM   37  C27 UNL     1     -10.974  45.280 -32.015  1.00  0.00     0.158 C 
HETATM   38  O8  UNL     1     -10.288  44.603 -31.263  1.00  0.00    -0.649 OA
BRANCH  37  39
HETATM   39  O9  UNL     1     -11.767  44.678 -32.929  1.00  0.00    -0.775 OA
HETATM   40  H35 UNL     1     -11.656  43.723 -32.738  1.00  0.00     0.167 HD
ENDBRANCH  37  39
ENDBRANCH  36  37
ENDBRANCH  34  36
ENDBRANCH  31  32
ENDBRANCH  30  31
ENDBRANCH  28  30
ENDBRANCH  27  28
ENDBRANCH  26  27
ENDBRANCH  24  26
ENDBRANCH  21  24
TORSDOF 11
ENDMDL
