MODEL 1
REMARK minimizedAffinity -10.1635141
REMARK  7 active torsions:
REMARK  status: ('A' for Active; 'I' for Inactive)
REMARK    1  A    between atoms: C2_2  and  C30_32 
REMARK    2  A    between atoms: C3_3  and  C4_4 
REMARK    3  A    between atoms: C4_4  and  O1_5 
REMARK    4  A    between atoms: C4_4  and  C5_6 
REMARK    5  A    between atoms: C5_6  and  C6_7 
REMARK    6  A    between atoms: C6_7  and  C8_9 
REMARK    7  A    between atoms: C30_32  and  O4_34 
ROOT
HETATM    1  C8  UNL     1      -3.921  50.104 -24.400  1.00  0.00    -0.002 C 
HETATM    2  C9  UNL     1      -5.186  49.443 -23.809  1.00  0.00     0.006 C 
HETATM    3  C10 UNL     1      -5.014  49.444 -22.275  1.00  0.00     0.011 C 
HETATM    4  C11 UNL     1      -3.831  50.396 -21.995  1.00  0.00    -0.032 C 
HETATM    5  C12 UNL     1      -4.412  51.844 -21.961  1.00  0.00     0.016 C 
HETATM    6  C13 UNL     1      -3.058  50.112 -20.677  1.00  0.00     0.004 C 
HETATM    7  C14 UNL     1      -3.807  50.530 -19.402  1.00  0.00     0.007 C 
HETATM    8  C15 UNL     1      -3.013  50.109 -18.167  1.00  0.00     0.007 C 
HETATM    9  C16 UNL     1      -1.731  50.944 -18.040  1.00  0.00     0.010 C 
HETATM   10  C17 UNL     1      -0.800  50.536 -16.851  1.00  0.00     0.018 C 
HETATM   11  C18 UNL     1      -1.359  51.084 -15.525  1.00  0.00     0.023 C 
HETATM   12  C19 UNL     1      -0.616  49.016 -16.703  1.00  0.00     0.023 C 
HETATM   13  C20 UNL     1       0.585  51.175 -17.049  1.00  0.00     0.135 C 
HETATM   14  O2  UNL     1       1.587  50.767 -16.462  1.00  0.00    -0.297 OA
HETATM   15  C21 UNL     1       0.659  52.410 -17.912  1.00  0.00     0.080 C 
HETATM   16  C22 UNL     1       0.088  52.167 -19.305  1.00  0.00     0.018 C 
HETATM   17  C23 UNL     1      -0.941  51.044 -19.346  1.00  0.00    -0.026 A 
HETATM   18  C24 UNL     1      -0.553  49.793 -20.091  1.00  0.00     0.021 A 
HETATM   19  C25 UNL     1      -1.619  50.694 -20.700  1.00  0.00    -0.027 A 
HETATM   20  C26 UNL     1      -1.197  51.513 -21.929  1.00  0.00     0.011 C 
HETATM   21  C27 UNL     1      -1.812  51.150 -23.292  1.00  0.00     0.011 C 
HETATM   22  C28 UNL     1      -2.900  50.078 -23.223  1.00  0.00    -0.032 C 
HETATM   23  C29 UNL     1      -2.202  48.696 -23.129  1.00  0.00     0.016 C 
ENDROOT
BRANCH   1  24
HETATM   24  C6  UNL     1      -3.520  49.744 -25.858  1.00  0.00    -0.011 C 
HETATM   25  C7  UNL     1      -4.283  48.477 -26.298  1.00  0.00     0.010 C 
BRANCH  24  26
HETATM   26  C5  UNL     1      -2.043  49.659 -26.316  1.00  0.00     0.040 C 
BRANCH  26  27
HETATM   27  C4  UNL     1      -1.369  50.875 -26.962  1.00  0.00     0.142 C 
BRANCH  27  28
HETATM   28  C3  UNL     1       0.093  50.903 -26.606  1.00  0.00     0.018 C 
HETATM   29  C2  UNL     1       1.114  51.458 -27.295  1.00  0.00     0.010 C 
HETATM   30  C1  UNL     1       1.011  52.182 -28.606  1.00  0.00     0.055 C 
BRANCH  29  31
HETATM   31  C30 UNL     1       2.506  51.386 -26.770  1.00  0.00     0.171 C 
HETATM   32  O3  UNL     1       2.876  50.664 -25.860  1.00  0.00    -0.646 OA
BRANCH  31  33
HETATM   33  O4  UNL     1       3.370  52.199 -27.397  1.00  0.00    -0.773 OA
HETATM   34  H46 UNL     1       4.223  52.027 -26.946  1.00  0.00     0.167 HD
ENDBRANCH  31  33
ENDBRANCH  29  31
ENDBRANCH  27  28
BRANCH  27  35
HETATM   35  O1  UNL     1      -1.933  52.078 -26.457  1.00  0.00    -0.392 OA
HETATM   36  H6  UNL     1      -1.376  52.813 -26.762  1.00  0.00     0.210 HD
ENDBRANCH  27  35
ENDBRANCH  26  27
ENDBRANCH  24  26
ENDBRANCH   1  24
TORSDOF 7
ENDMDL
