MODEL 1
REMARK minimizedAffinity -11.93929
REMARK  5 active torsions:
REMARK  status: ('A' for Active; 'I' for Inactive)
REMARK    1  A    between atoms: N1_2  and  C2_3 
REMARK    2  A    between atoms: C4_5  and  N4_34 
REMARK    3  A    between atoms: C5_7  and  N2_12 
REMARK    4  A    between atoms: C7_9  and  O2_10 
REMARK    5  A    between atoms: C27_35  and  C28_36 
ROOT
HETATM    1  C2  UNL     1      -5.340  49.695 -21.796  1.00  0.00     0.257 C 
HETATM    2  C3  UNL     1      -3.814  49.822 -21.709  1.00  0.00     0.092 C 
HETATM    3  C4  UNL     1      -3.110  49.225 -22.933  1.00  0.00     0.234 C 
HETATM    4  O1  UNL     1      -3.963  48.509 -23.819  1.00  0.00    -0.333 OA
HETATM    5  C5  UNL     1      -5.183  49.158 -24.256  1.00  0.00     0.168 C 
HETATM    6  C6  UNL     1      -6.106  47.923 -24.385  1.00  0.00     0.074 C 
HETATM    7  C7  UNL     1      -5.784  50.151 -23.204  1.00  0.00     0.209 C 
ENDROOT
BRANCH   1   8
HETATM    8  N1  UNL     1      -6.036  50.502 -20.773  1.00  0.00     0.086 N 
HETATM    9  C1  UNL     1      -6.917  49.726 -19.914  1.00  0.00     0.307 C 
HETATM   10  H4  UNL     1      -5.335  50.986 -20.204  1.00  0.00     0.316 HD
ENDBRANCH   1   8
BRANCH   7  11
HETATM   11  O2  UNL     1      -5.282  51.498 -23.366  1.00  0.00    -0.384 OA
HETATM   12  C8  UNL     1      -3.872  51.546 -23.559  1.00  0.00     0.202 C 
ENDBRANCH   7  11
BRANCH   3  13
HETATM   13  N4  UNL     1      -2.245  50.137 -23.675  1.00  0.00    -0.316 N 
HETATM   14  C26 UNL     1      -2.273  50.299 -25.053  1.00  0.00     0.048 A 
HETATM   15  C21 UNL     1      -1.412  51.365 -25.366  1.00  0.00     0.004 A 
HETATM   16  C25 UNL     1      -2.991  49.609 -26.045  1.00  0.00     0.030 A 
HETATM   17  C20 UNL     1      -0.855  51.841 -24.140  1.00  0.00     0.022 A 
HETATM   18  C22 UNL     1      -1.276  51.734 -26.722  1.00  0.00     0.014 A 
HETATM   19  C19 UNL     1       0.026  52.833 -23.694  1.00  0.00     0.062 A 
HETATM   20  C27 UNL     1      -1.380  51.041 -23.138  1.00  0.00     0.077 A 
HETATM   21  C16 UNL     1       0.393  53.019 -22.339  1.00  0.00     0.062 A 
HETATM   22  C18 UNL     1       0.744  53.841 -24.474  1.00  0.00     0.260 A 
HETATM   23  C15 UNL     1      -0.071  52.226 -21.280  1.00  0.00     0.022 A 
HETATM   24  C17 UNL     1       1.337  54.138 -22.307  1.00  0.00     0.260 A 
HETATM   25  C14 UNL     1       0.126  52.082 -19.876  1.00  0.00     0.004 A 
HETATM   26  C28 UNL     1      -0.969  51.238 -21.642  1.00  0.00     0.078 A 
HETATM   27  C9  UNL     1      -0.633  50.976 -19.444  1.00  0.00     0.049 A 
HETATM   28  C13 UNL     1       0.927  52.766 -18.933  1.00  0.00     0.014 A 
HETATM   29  N2  UNL     1      -1.356  50.515 -20.542  1.00  0.00    -0.308 N 
HETATM   30  C10 UNL     1      -0.546  50.530 -18.110  1.00  0.00     0.030 A 
HETATM   31  C11 UNL     1       0.259  51.226 -17.204  1.00  0.00     0.002 A 
HETATM   32  C12 UNL     1       0.980  52.339 -17.606  1.00  0.00     0.001 A 
HETATM   33  O3  UNL     1       1.891  54.611 -21.336  1.00  0.00    -0.267 OA
HETATM   34  N3  UNL     1       1.484  54.560 -23.591  1.00  0.00    -0.289 N 
HETATM   35  H20 UNL     1       2.082  55.325 -23.859  1.00  0.00     0.172 HD
HETATM   36  O4  UNL     1       0.700  54.016 -25.675  1.00  0.00    -0.267 OA
HETATM   37  C23 UNL     1      -1.986  51.047 -27.713  1.00  0.00     0.001 A 
HETATM   38  C24 UNL     1      -2.831  49.999 -27.376  1.00  0.00     0.002 A 
ENDBRANCH   3  13
TORSDOF 5
ENDMDL
