MODEL 1
REMARK minimizedAffinity -9.12374496
REMARK  7 active torsions:
REMARK  status: ('A' for Active; 'I' for Inactive)
REMARK    1  A    between atoms: C2_2  and  C3_3 
REMARK    2  A    between atoms: C2_2  and  C9_10 
REMARK    3  A    between atoms: C3_3  and  C4_4 
REMARK    4  A    between atoms: C5_5  and  C6_6 
REMARK    5  A    between atoms: C6_6  and  O1_9 
REMARK    6  A    between atoms: C17_18  and  C18_19 
REMARK    7  A    between atoms: C18_19  and  O2_22 
ROOT
HETATM    1  C9  UNL     1      -5.615   6.449  14.487  1.00  0.00    -0.002 C 
HETATM    2  C10 UNL     1      -6.066   7.530  13.451  1.00  0.00     0.006 C 
HETATM    3  C11 UNL     1      -4.801   8.283  12.984  1.00  0.00     0.011 C 
HETATM    4  C12 UNL     1      -3.713   7.846  13.982  1.00  0.00    -0.032 C 
HETATM    5  C13 UNL     1      -3.940   8.730  15.256  1.00  0.00     0.016 C 
HETATM    6  C14 UNL     1      -2.250   7.954  13.468  1.00  0.00     0.003 C 
HETATM    7  C15 UNL     1      -1.852   9.342  12.937  1.00  0.00     0.009 C 
HETATM    8  C16 UNL     1      -0.349   9.600  12.909  1.00  0.00     0.042 C 
HETATM    9  C17 UNL     1       0.564   8.373  12.647  1.00  0.00     0.095 C 
HETATM   10  O3  UNL     1       1.925   8.781  12.944  1.00  0.00    -0.377 OA
HETATM   11  C21 UNL     1       2.275   8.794  14.318  1.00  0.00     0.169 C 
HETATM   12  C22 UNL     1       2.340   7.385  14.865  1.00  0.00     0.027 C 
HETATM   13  C23 UNL     1       1.334   6.444  14.218  1.00  0.00     0.010 C 
HETATM   14  C24 UNL     1       0.133   7.118  13.518  1.00  0.00     0.032 C 
HETATM   15  C25 UNL     1      -1.177   7.296  14.412  1.00  0.00    -0.033 C 
HETATM   16  C26 UNL     1      -0.895   8.105  15.698  1.00  0.00     0.016 C 
HETATM   17  C27 UNL     1      -1.669   5.877  14.890  1.00  0.00     0.011 C 
HETATM   18  C28 UNL     1      -3.164   5.743  15.266  1.00  0.00     0.011 C 
HETATM   19  C29 UNL     1      -4.089   6.323  14.179  1.00  0.00    -0.032 C 
HETATM   20  C30 UNL     1      -3.922   5.434  12.902  1.00  0.00     0.016 C 
ENDROOT
BRANCH   1  21
HETATM   21  C2  UNL     1      -6.526   5.188  14.447  1.00  0.00    -0.010 C 
HETATM   22  C1  UNL     1      -7.399   5.049  15.699  1.00  0.00     0.010 C 
BRANCH  21  23
HETATM   23  C3  UNL     1      -7.417   5.137  13.174  1.00  0.00     0.031 C 
BRANCH  23  24
HETATM   24  C4  UNL     1      -6.964   4.161  12.121  1.00  0.00    -0.027 C 
HETATM   25  C5  UNL     1      -5.967   3.278  12.309  1.00  0.00     0.006 C 
BRANCH  25  26
HETATM   26  C6  UNL     1      -5.415   2.281  11.322  1.00  0.00     0.068 C 
HETATM   27  C7  UNL     1      -6.239   0.998  11.170  1.00  0.00     0.050 C 
HETATM   28  C8  UNL     1      -3.966   1.942  11.681  1.00  0.00     0.050 C 
BRANCH  26  29
HETATM   29  O1  UNL     1      -5.411   2.955  10.059  1.00  0.00    -0.387 OA
HETATM   30  H15 UNL     1      -5.122   2.319   9.386  1.00  0.00     0.211 HD
ENDBRANCH  26  29
ENDBRANCH  25  26
ENDBRANCH  23  24
ENDBRANCH  21  23
ENDBRANCH   1  21
BRANCH   9  31
HETATM   31  C18 UNL     1       0.594   8.011  11.083  1.00  0.00     0.082 C 
HETATM   32  C19 UNL     1      -0.062   6.646  10.790  1.00  0.00     0.049 C 
HETATM   33  C20 UNL     1       2.026   7.958  10.510  1.00  0.00     0.049 C 
BRANCH  31  34
HETATM   34  O2  UNL     1      -0.123   8.993  10.323  1.00  0.00    -0.388 OA
HETATM   35  H35 UNL     1      -0.067   8.745   9.385  1.00  0.00     0.210 HD
ENDBRANCH  31  34
ENDBRANCH   9  31
TORSDOF 7
ENDMDL
