MODEL 1
REMARK minimizedAffinity -7.52231646
REMARK CNNscore 0.692732573
REMARK CNNaffinity 6.94697714
REMARK  7 active torsions:
REMARK  status: ('A' for Active; 'I' for Inactive)
REMARK    1  A    between atoms: O1_2  and  C2_3 
REMARK    2  A    between atoms: C2_3  and  C3_5 
REMARK    3  A    between atoms: C5_7  and  C6_8 
REMARK    4  A    between atoms: C6_8  and  C7_9 
REMARK    5  A    between atoms: C7_9  and  C8_10 
REMARK    6  A    between atoms: C8_10  and  C10_12 
REMARK    7  A    between atoms: C17_19  and  O3_20 
ROOT
HETATM    1  C10 UNL     1      -1.652  10.494  16.186  1.00  0.00    -0.002 C 
HETATM    2  C11 UNL     1      -0.363  11.322  16.303  1.00  0.00     0.007 C 
HETATM    3  C12 UNL     1       0.439  10.949  15.073  1.00  0.00     0.015 C 
HETATM    4  C13 UNL     1       0.316   9.411  14.991  1.00  0.00    -0.005 C 
HETATM    5  C14 UNL     1       1.249   8.766  16.060  1.00  0.00     0.021 C 
HETATM    6  C15 UNL     1       0.724   8.908  13.585  1.00  0.00     0.002 C 
HETATM    7  C16 UNL     1      -0.094   8.272  12.708  1.00  0.00    -0.032 C 
HETATM    8  C17 UNL     1      -1.573   8.139  13.043  1.00  0.00     0.149 C 
HETATM    9  C18 UNL     1      -2.064   9.152  14.078  1.00  0.00     0.047 C 
HETATM   10  C19 UNL     1      -1.218   9.185  15.380  1.00  0.00    -0.026 C 
HETATM   11  C20 UNL     1      -1.431   7.861  16.149  1.00  0.00     0.016 C 
HETATM   12  C21 UNL     1       0.362   7.695  11.320  1.00  0.00    -0.012 C 
HETATM   13  C22 UNL     1      -0.231   6.272  11.169  1.00  0.00     0.021 C 
HETATM   14  C23 UNL     1      -0.198   8.613  10.200  1.00  0.00     0.021 C 
HETATM   15  C24 UNL     1       0.266   8.235   8.801  1.00  0.00     0.080 C 
HETATM   16  C25 UNL     1       1.773   8.189   8.718  1.00  0.00     0.135 C 
HETATM   17  O4  UNL     1       2.356   8.781   7.809  1.00  0.00    -0.297 OA
HETATM   18  C26 UNL     1       2.511   7.319   9.745  1.00  0.00     0.018 C 
HETATM   19  C27 UNL     1       2.363   5.838   9.333  1.00  0.00     0.023 C 
HETATM   20  C28 UNL     1       4.028   7.626   9.654  1.00  0.00     0.023 C 
HETATM   21  C29 UNL     1       1.935   7.625  11.194  1.00  0.00     0.020 C 
HETATM   22  C30 UNL     1       2.539   8.924  11.740  1.00  0.00     0.090 C 
HETATM   23  C31 UNL     1       2.127   9.216  13.153  1.00  0.00     0.157 C 
HETATM   24  O5  UNL     1       2.926   9.782  13.897  1.00  0.00    -0.293 OA
ENDROOT
BRANCH   1  25
HETATM   25  C8  UNL     1      -2.404  10.366  17.544  1.00  0.00    -0.014 C 
HETATM   26  C9  UNL     1      -1.489  10.702  18.740  1.00  0.00     0.010 C 
BRANCH  25  27
HETATM   27  C7  UNL     1      -3.693  11.219  17.649  1.00  0.00     0.008 C 
BRANCH  27  28
HETATM   28  C6  UNL     1      -3.564  12.517  18.455  1.00  0.00     0.028 C 
BRANCH  28  29
HETATM   29  C5  UNL     1      -4.610  12.577  19.536  1.00  0.00    -0.014 C 
HETATM   30  C3  UNL     1      -4.869  13.609  20.367  1.00  0.00     0.009 C 
HETATM   31  C4  UNL     1      -4.127  14.915  20.395  1.00  0.00     0.054 C 
BRANCH  30  32
HETATM   32  C2  UNL     1      -5.972  13.532  21.380  1.00  0.00     0.288 C 
HETATM   33  O2  UNL     1      -5.777  13.626  22.585  1.00  0.00    -0.260 OA
BRANCH  32  34
HETATM   34  O1  UNL     1      -7.181  13.333  20.796  1.00  0.00    -0.323 OA
HETATM   35  C1  UNL     1      -7.857  14.538  20.436  1.00  0.00     0.213 C 
ENDBRANCH  32  34
ENDBRANCH  30  32
ENDBRANCH  28  29
ENDBRANCH  27  28
ENDBRANCH  25  27
ENDBRANCH   1  25
BRANCH   8  36
HETATM   36  O3  UNL     1      -1.831   6.813  13.481  1.00  0.00    -0.391 OA
HETATM   37  H25 UNL     1      -2.782   6.747  13.672  1.00  0.00     0.210 HD
ENDBRANCH   8  36
TORSDOF 7
ENDMDL
