MODEL 1
REMARK minimizedAffinity -7.7085247
REMARK CNNscore 0.638539493
REMARK CNNaffinity 5.90618944
REMARK  11 active torsions:
REMARK  status: ('A' for Active; 'I' for Inactive)
REMARK    1  A    between atoms: C12_13  and  O2_14 
REMARK    2  A    between atoms: C19_21  and  O3_22 
REMARK    3  A    between atoms: C19_21  and  C20_23 
REMARK    4  A    between atoms: C20_23  and  C21_25 
REMARK    5  A    between atoms: C21_25  and  O5_26 
REMARK    6  A    between atoms: O5_26  and  C22_27 
REMARK    7  A    between atoms: C22_27  and  C23_29 
REMARK    8  A    between atoms: C23_29  and  C24_30 
REMARK    9  A    between atoms: C24_30  and  C25_31 
REMARK       I    between atoms: C25_31  and  N1_33 
REMARK   10  A    between atoms: N1_33  and  C26_34 
REMARK   11  A    between atoms: C26_34  and  C27_35 
ROOT
HETATM    1  C1  UNL     1     -15.955  43.873 -24.624  1.00  0.00     0.025 C 
HETATM    2  C2  UNL     1     -16.396  45.199 -25.285  1.00  0.00     0.004 A 
HETATM    3  C3  UNL     1     -17.001  46.050 -24.174  1.00  0.00    -0.009 A 
HETATM    4  C4  UNL     1     -18.276  46.457 -24.118  1.00  0.00     0.052 A 
HETATM    5  C5  UNL     1     -19.234  46.098 -25.181  1.00  0.00     0.172 A 
HETATM    6  O1  UNL     1     -20.400  46.469 -25.139  1.00  0.00    -0.289 OA
HETATM    7  C6  UNL     1     -18.726  45.281 -26.301  1.00  0.00     0.058 A 
HETATM    8  C7  UNL     1     -17.446  44.873 -26.359  1.00  0.00    -0.064 A 
HETATM    9  C8  UNL     1     -16.947  44.097 -27.550  1.00  0.00     0.036 C 
HETATM   10  C9  UNL     1     -15.810  44.854 -28.229  1.00  0.00     0.010 C 
HETATM   11  C10 UNL     1     -14.678  45.214 -27.249  1.00  0.00    -0.002 C 
HETATM   12  C11 UNL     1     -15.230  45.984 -26.001  1.00  0.00     0.035 C 
HETATM   13  C12 UNL     1     -14.084  46.488 -25.076  1.00  0.00     0.124 C 
HETATM   14  C13 UNL     1     -12.957  47.226 -25.834  1.00  0.00     0.045 C 
HETATM   15  C14 UNL     1     -12.412  46.441 -27.046  1.00  0.00     0.001 C 
HETATM   16  C15 UNL     1     -11.622  45.188 -26.582  1.00  0.00     0.019 C 
HETATM   17  C16 UNL     1     -13.626  46.094 -27.941  1.00  0.00     0.002 C 
HETATM   18  C17 UNL     1     -12.991  45.589 -29.229  1.00  0.00     0.009 C 
HETATM   19  C18 UNL     1     -11.723  46.448 -29.390  1.00  0.00     0.047 C 
HETATM   20  C19 UNL     1     -11.554  47.257 -28.068  1.00  0.00     0.128 C 
ENDROOT
BRANCH  20  21
HETATM   21  O3  UNL     1     -12.156  48.537 -28.293  1.00  0.00    -0.381 OA
HETATM   22  H25 UNL     1     -11.614  48.983 -28.977  1.00  0.00     0.211 HD
ENDBRANCH  20  21
BRANCH  20  23
HETATM   23  C20 UNL     1     -10.060  47.430 -27.683  1.00  0.00     0.185 C 
HETATM   24  O4  UNL     1      -9.165  47.405 -28.534  1.00  0.00    -0.292 OA
BRANCH  23  25
HETATM   25  C21 UNL     1      -9.682  47.563 -26.201  1.00  0.00     0.260 C 
BRANCH  25  26
HETATM   26  O5  UNL     1      -8.643  48.430 -25.769  1.00  0.00    -0.314 OA
BRANCH  26  27
HETATM   27  C22 UNL     1      -8.068  48.094 -24.582  1.00  0.00     0.259 C 
HETATM   28  O6  UNL     1      -8.593  47.388 -23.734  1.00  0.00    -0.265 OA
BRANCH  27  29
HETATM   29  C23 UNL     1      -6.685  48.695 -24.492  1.00  0.00     0.120 C 
BRANCH  29  30
HETATM   30  C24 UNL     1      -5.764  48.113 -25.559  1.00  0.00     0.112 C 
BRANCH  30  31
HETATM   31  C25 UNL     1      -4.315  48.479 -25.300  1.00  0.00     0.218 C 
HETATM   32  O7  UNL     1      -3.791  48.368 -24.196  1.00  0.00    -0.274 OA
HETATM   33  N1  UNL     1      -3.669  48.970 -26.412  1.00  0.00    -0.357 N 
HETATM   34  H32 UNL     1      -4.133  48.893 -27.309  1.00  0.00     0.162 HD
BRANCH  33  35
HETATM   35  C26 UNL     1      -2.229  49.104 -26.444  1.00  0.00     0.161 C 
BRANCH  35  36
HETATM   36  C27 UNL     1      -1.844  50.552 -26.288  1.00  0.00    -0.038 A 
HETATM   37  C28 UNL     1      -1.670  51.378 -27.402  1.00  0.00     0.025 A 
HETATM   38  C29 UNL     1      -1.267  52.690 -27.197  1.00  0.00     0.088 A 
HETATM   39  N2  UNL     1      -1.021  53.222 -25.982  1.00  0.00    -0.375 N 
HETATM   40  C30 UNL     1      -1.195  52.408 -24.917  1.00  0.00     0.088 A 
ATOM     41  H2  UNL     1      -0.718  54.190 -25.873  1.00  0.00     0.164 HD
HETATM   42  C31 UNL     1      -1.603  51.088 -25.018  1.00  0.00     0.025 A 
ENDBRANCH  35  36
ENDBRANCH  33  35
ENDBRANCH  30  31
ENDBRANCH  29  30
ENDBRANCH  27  29
ENDBRANCH  26  27
ENDBRANCH  25  26
ENDBRANCH  23  25
ENDBRANCH  20  23
BRANCH  13  43
HETATM   43  O2  UNL     1     -13.520  45.418 -24.330  1.00  0.00    -0.395 OA
HETATM   44  H14 UNL     1     -12.880  45.795 -23.700  1.00  0.00     0.210 HD
ENDBRANCH  13  43
TORSDOF 11
ENDMDL
