MODEL 1
REMARK minimizedAffinity -6.77058029
REMARK CNNscore 0.750443518
REMARK CNNaffinity 6.39588308
REMARK  6 active torsions:
REMARK  status: ('A' for Active; 'I' for Inactive)
REMARK    1  A    between atoms: O1_2  and  C2_3 
REMARK    2  A    between atoms: C2_3  and  C3_5 
REMARK    3  A    between atoms: C9_11  and  O3_12 
REMARK    4  A    between atoms: C11_14  and  C12_15 
REMARK    5  A    between atoms: C12_15  and  O4_17 
REMARK    6  A    between atoms: C30_36  and  O7_37 
ROOT
HETATM    1  C3  UNL     1      -0.883  52.728  -9.219  1.00  0.00     0.087 C 
HETATM    2  C4  UNL     1      -1.149  53.440  -7.844  1.00  0.00     0.024 C 
HETATM    3  C5  UNL     1       0.126  53.979  -7.177  1.00  0.00     0.011 C 
HETATM    4  C6  UNL     1       0.969  55.009  -7.995  1.00  0.00    -0.033 C 
HETATM    5  C7  UNL     1       0.237  56.368  -7.880  1.00  0.00     0.016 C 
HETATM    6  C8  UNL     1       1.058  54.567  -9.519  1.00  0.00     0.032 C 
HETATM    7  C9  UNL     1       2.406  53.894  -9.832  1.00  0.00     0.124 C 
HETATM    8  C10 UNL     1       3.533  54.904  -9.637  1.00  0.00     0.046 C 
HETATM    9  C11 UNL     1       3.673  55.491  -8.193  1.00  0.00     0.014 C 
HETATM   10  C14 UNL     1       3.795  57.040  -8.352  1.00  0.00     0.191 C 
HETATM   11  O5  UNL     1       4.455  57.711  -7.259  1.00  0.00    -0.321 OA
HETATM   12  C15 UNL     1       3.930  57.815  -6.026  1.00  0.00     0.258 C 
HETATM   13  O6  UNL     1       4.569  58.297  -5.096  1.00  0.00    -0.265 OA
HETATM   14  C16 UNL     1       2.533  57.306  -5.842  1.00  0.00     0.111 C 
HETATM   15  C17 UNL     1       2.445  55.785  -5.892  1.00  0.00     0.016 C 
HETATM   16  C18 UNL     1       2.434  55.101  -7.291  1.00  0.00     0.008 C 
HETATM   17  C19 UNL     1      -0.242  53.848 -10.158  1.00  0.00    -0.017 C 
HETATM   18  C20 UNL     1      -1.244  55.038 -10.457  1.00  0.00     0.017 C 
HETATM   19  C21 UNL     1       0.015  53.247 -11.573  1.00  0.00     0.012 C 
HETATM   20  C22 UNL     1      -1.233  52.663 -12.255  1.00  0.00     0.013 C 
HETATM   21  C23 UNL     1      -2.097  51.695 -11.399  1.00  0.00    -0.008 C 
HETATM   22  C24 UNL     1      -3.500  51.647 -12.091  1.00  0.00     0.018 C 
HETATM   23  C25 UNL     1      -1.504  50.263 -11.563  1.00  0.00     0.039 C 
HETATM   24  C26 UNL     1      -1.886  49.272 -10.510  1.00  0.00    -0.023 C 
HETATM   25  C27 UNL     1      -2.505  49.588  -9.365  1.00  0.00    -0.085 C 
HETATM   26  C28 UNL     1      -2.846  48.552  -8.331  1.00  0.00     0.043 C 
HETATM   27  C29 UNL     1      -2.902  50.999  -9.031  1.00  0.00     0.073 C 
HETATM   28  C30 UNL     1      -2.235  52.141  -9.870  1.00  0.00     0.086 C 
ENDROOT
BRANCH   1  29
HETATM   29  C2  UNL     1      -0.003  51.500  -8.832  1.00  0.00     0.271 C 
HETATM   30  O2  UNL     1       0.930  51.089  -9.522  1.00  0.00    -0.264 OA
BRANCH  29  31
HETATM   31  O1  UNL     1      -0.301  50.963  -7.624  1.00  0.00    -0.326 OA
HETATM   32  C1  UNL     1      -0.973  51.859  -6.732  1.00  0.00     0.213 C 
ENDBRANCH  29  31
ENDBRANCH   1  29
BRANCH  28  33
HETATM   33  O7  UNL     1      -3.200  53.228  -9.794  1.00  0.00    -0.387 OA
HETATM   34  H46 UNL     1      -4.073  52.906 -10.068  1.00  0.00     0.210 HD
ENDBRANCH  28  33
BRANCH   7  35
HETATM   35  O3  UNL     1       2.635  52.761  -9.021  1.00  0.00    -0.395 OA
HETATM   36  H13 UNL     1       3.390  52.281  -9.407  1.00  0.00     0.210 HD
ENDBRANCH   7  35
BRANCH   9  37
HETATM   37  C12 UNL     1       5.039  54.980  -7.565  1.00  0.00     0.125 C 
HETATM   38  C13 UNL     1       6.332  55.533  -8.164  1.00  0.00     0.040 C 
BRANCH  37  39
HETATM   39  O4  UNL     1       5.043  55.303  -6.166  1.00  0.00    -0.395 OA
HETATM   40  H20 UNL     1       5.928  55.113  -5.804  1.00  0.00     0.210 HD
ENDBRANCH  37  39
ENDBRANCH   9  37
TORSDOF 6
ENDMDL
