MODEL 1
REMARK minimizedAffinity -7.46514606
REMARK CNNscore 0.834940434
REMARK CNNaffinity 7.070539
REMARK  11 active torsions:
REMARK  status: ('A' for Active; 'I' for Inactive)
REMARK    1  A    between atoms: N1_2  and  C2_3 
REMARK    2  A    between atoms: C2_3  and  C3_4 
REMARK    3  A    between atoms: C3_4  and  C4_5 
REMARK    4  A    between atoms: C7_8  and  C8_9 
REMARK    5  A    between atoms: C8_9  and  O1_10 
REMARK    6  A    between atoms: C9_12  and  C10_13 
REMARK    7  A    between atoms: C10_13  and  O3_14 
REMARK    8  A    between atoms: C10_13  and  C11_15 
REMARK    9  A    between atoms: C11_15  and  O4_17 
REMARK   10  A    between atoms: C11_15  and  C13_18 
REMARK   11  A    between atoms: C20_26  and  C21_27 
ROOT
HETATM    1  C13 UNL     1     -13.001  44.963 -26.476  1.00  0.00     0.034 C 
HETATM    2  C14 UNL     1     -13.038  46.322 -25.687  1.00  0.00     0.012 C 
HETATM    3  C15 UNL     1     -14.498  46.621 -25.333  1.00  0.00     0.044 C 
HETATM    4  C16 UNL     1     -15.190  45.256 -25.441  1.00  0.00     0.093 C 
HETATM    5  O5  UNL     1     -14.788  44.325 -24.408  1.00  0.00    -0.363 OA
HETATM    6  C17 UNL     1     -14.576  44.756 -23.073  1.00  0.00     0.263 C 
HETATM    7  C18 UNL     1     -15.689  44.368 -22.202  1.00  0.00    -0.080 C 
HETATM    8  C19 UNL     1     -16.556  44.050 -21.430  1.00  0.00    -0.093 C 
HETATM    9  C20 UNL     1     -17.620  43.655 -20.472  1.00  0.00     0.121 C 
HETATM   10  C27 UNL     1     -18.570  42.577 -21.055  1.00  0.00     0.190 C 
HETATM   11  O6  UNL     1     -19.597  43.065 -21.930  1.00  0.00    -0.384 OA
HETATM   12  C28 UNL     1     -19.180  43.333 -23.266  1.00  0.00     0.122 C 
HETATM   13  C29 UNL     1     -19.206  42.060 -24.115  1.00  0.00     0.033 C 
HETATM   14  C30 UNL     1     -19.361  42.334 -25.619  1.00  0.00     0.013 C 
HETATM   15  C31 UNL     1     -18.845  43.736 -26.066  1.00  0.00    -0.026 C 
HETATM   16  C32 UNL     1     -19.228  43.915 -27.559  1.00  0.00     0.016 C 
HETATM   17  C33 UNL     1     -19.641  44.819 -25.266  1.00  0.00     0.071 C 
HETATM   18  C34 UNL     1     -20.093  44.396 -23.861  1.00  0.00     0.045 C 
HETATM   19  C35 UNL     1     -18.954  46.169 -25.210  1.00  0.00     0.154 C 
HETATM   20  O7  UNL     1     -19.583  47.222 -25.075  1.00  0.00    -0.293 OA
HETATM   21  C36 UNL     1     -17.485  46.245 -25.258  1.00  0.00     0.057 C 
HETATM   22  C37 UNL     1     -16.710  45.185 -25.520  1.00  0.00    -0.036 C 
HETATM   23  C38 UNL     1     -17.269  43.809 -25.863  1.00  0.00     0.026 C 
HETATM   24  C39 UNL     1     -16.487  43.117 -27.024  1.00  0.00     0.011 C 
HETATM   25  C40 UNL     1     -14.960  43.264 -26.952  1.00  0.00     0.014 C 
HETATM   26  C41 UNL     1     -14.534  44.734 -26.788  1.00  0.00    -0.002 C 
HETATM   27  C42 UNL     1     -15.000  45.534 -28.034  1.00  0.00     0.019 C 
ENDROOT
BRANCH   1  28
HETATM   28  C11 UNL     1     -11.864  44.979 -27.558  1.00  0.00     0.087 C 
HETATM   29  C12 UNL     1     -11.857  46.350 -28.277  1.00  0.00     0.049 C 
BRANCH  28  30
HETATM   30  C10 UNL     1     -10.388  44.658 -27.139  1.00  0.00     0.181 C 
BRANCH  30  31
HETATM   31  C9  UNL     1      -9.750  43.364 -27.692  1.00  0.00     0.158 C 
HETATM   32  C4  UNL     1      -9.505  43.250 -29.219  1.00  0.00     0.025 C 
HETATM   33  C5  UNL     1     -10.641  42.349 -29.684  1.00  0.00     0.019 C 
HETATM   34  C6  UNL     1     -10.392  41.647 -31.013  1.00  0.00     0.013 C 
HETATM   35  C7  UNL     1     -10.721  41.382 -28.500  1.00  0.00     0.149 C 
HETATM   36  O2  UNL     1     -10.548  42.215 -27.335  1.00  0.00    -0.375 OA
BRANCH  32  37
HETATM   37  C3  UNL     1      -9.164  44.506 -30.047  1.00  0.00     0.037 C 
BRANCH  37  38
HETATM   38  C2  UNL     1      -7.691  44.880 -30.279  1.00  0.00     0.269 C 
BRANCH  38  39
HETATM   39  N1  UNL     1      -6.824  43.766 -30.670  1.00  0.00     0.079 N 
HETATM   40  C1  UNL     1      -6.065  44.072 -31.889  1.00  0.00     0.306 C 
HETATM   41  H4  UNL     1      -6.127  43.640 -29.929  1.00  0.00     0.315 HD
ENDBRANCH  38  39
ENDBRANCH  37  38
ENDBRANCH  32  37
BRANCH  35  42
HETATM   42  C8  UNL     1     -12.035  40.604 -28.418  1.00  0.00     0.196 C 
BRANCH  42  43
HETATM   43  O1  UNL     1     -13.098  41.371 -28.986  1.00  0.00    -0.398 OA
HETATM   44  H17 UNL     1     -13.656  40.754 -29.491  1.00  0.00     0.209 HD
ENDBRANCH  42  43
ENDBRANCH  35  42
ENDBRANCH  30  31
BRANCH  30  45
HETATM   45  O3  UNL     1      -9.576  45.816 -27.371  1.00  0.00    -0.390 OA
HETATM   46  H20 UNL     1      -8.836  45.748 -26.728  1.00  0.00     0.210 HD
ENDBRANCH  30  45
ENDBRANCH  28  30
BRANCH  28  47
HETATM   47  O4  UNL     1     -12.199  44.024 -28.591  1.00  0.00    -0.387 OA
HETATM   48  H24 UNL     1     -11.797  43.184 -28.299  1.00  0.00     0.210 HD
ENDBRANCH  28  47
ENDBRANCH   1  28
BRANCH   9  49
HETATM   49  C21 UNL     1     -18.357  44.838 -19.862  1.00  0.00    -0.040 A 
HETATM   50  C22 UNL     1     -19.294  44.624 -18.835  1.00  0.00     0.008 A 
HETATM   51  C23 UNL     1     -19.989  45.695 -18.272  1.00  0.00     0.001 A 
HETATM   52  C24 UNL     1     -19.772  46.995 -18.730  1.00  0.00     0.000 A 
HETATM   53  C25 UNL     1     -18.851  47.220 -19.753  1.00  0.00     0.001 A 
HETATM   54  C26 UNL     1     -18.151  46.153 -20.312  1.00  0.00     0.008 A 
ENDBRANCH   9  49
TORSDOF 11
ENDMDL
