MODEL 1
REMARK minimizedAffinity -9.06810665
REMARK CNNscore 0.738929272
REMARK CNNaffinity 7.43481684
REMARK  14 active torsions:
REMARK  status: ('A' for Active; 'I' for Inactive)
REMARK    1  A    between atoms: C19_20  and  O2_21 
REMARK    2  A    between atoms: C19_20  and  C20_22 
REMARK    3  A    between atoms: C20_22  and  C21_24 
REMARK    4  A    between atoms: C21_24  and  O4_25 
REMARK    5  A    between atoms: O4_25  and  C22_26 
REMARK    6  A    between atoms: C22_26  and  C23_28 
REMARK    7  A    between atoms: C23_28  and  C24_29 
REMARK    8  A    between atoms: C24_29  and  C25_30 
REMARK       I    between atoms: C25_30  and  N1_32 
REMARK    9  A    between atoms: N1_32  and  C26_33 
REMARK   10  A    between atoms: C26_33  and  C27_34 
REMARK   11  A    between atoms: C27_34  and  C28_35 
REMARK   12  A    between atoms: C27_34  and  C30_39 
REMARK   13  A    between atoms: C28_35  and  C29_36 
REMARK   14  A    between atoms: C29_36  and  O8_38 
ROOT
HETATM    1  C20 UNL     1      -1.985  50.732 -18.248  1.00  0.00     0.185 C 
HETATM    2  O3  UNL     1      -2.750  51.670 -18.006  1.00  0.00    -0.292 OA
ENDROOT
BRANCH   1   3
HETATM    3  C19 UNL     1      -2.030  49.990 -19.601  1.00  0.00     0.128 C 
HETATM    4  C14 UNL     1      -3.397  49.328 -19.999  1.00  0.00    -0.002 C 
HETATM    5  C13 UNL     1      -4.445  50.304 -20.575  1.00  0.00     0.013 C 
HETATM    6  C15 UNL     1      -4.042  48.630 -18.769  1.00  0.00     0.019 C 
HETATM    7  C16 UNL     1      -3.012  48.196 -21.015  1.00  0.00     0.002 C 
HETATM    8  C12 UNL     1      -4.281  50.758 -22.030  1.00  0.00     0.007 C 
HETATM    9  C11 UNL     1      -3.415  49.853 -22.929  1.00  0.00     0.002 C 
HETATM   10  C2  UNL     1      -3.684  49.969 -24.486  1.00  0.00    -0.016 C 
HETATM   11  C10 UNL     1      -3.507  48.383 -22.467  1.00  0.00    -0.004 C 
HETATM   12  C1  UNL     1      -4.257  51.352 -24.875  1.00  0.00     0.020 C 
HETATM   13  C3  UNL     1      -2.325  49.772 -25.221  1.00  0.00     0.022 C 
HETATM   14  C7  UNL     1      -4.639  48.868 -24.952  1.00  0.00    -0.068 C 
HETATM   15  C4  UNL     1      -2.458  49.677 -26.738  1.00  0.00     0.084 C 
HETATM   16  C5  UNL     1      -3.523  48.688 -27.150  1.00  0.00     0.149 C 
HETATM   17  O1  UNL     1      -3.573  48.227 -28.289  1.00  0.00    -0.293 OA
HETATM   18  C6  UNL     1      -4.557  48.292 -26.165  1.00  0.00     0.053 C 
HETATM   19  C8  UNL     1      -5.636  48.383 -23.930  1.00  0.00     0.035 C 
HETATM   20  C9  UNL     1      -4.931  47.821 -22.685  1.00  0.00     0.010 C 
HETATM   21  C17 UNL     1      -1.476  48.091 -20.961  1.00  0.00     0.009 C 
HETATM   22  C18 UNL     1      -1.046  48.823 -19.701  1.00  0.00     0.047 C 
BRANCH   3  23
HETATM   23  O2  UNL     1      -1.616  50.976 -20.558  1.00  0.00    -0.381 OA
HETATM   24  H27 UNL     1      -2.254  51.712 -20.497  1.00  0.00     0.211 HD
ENDBRANCH   3  23
ENDBRANCH   1   3
BRANCH   1  25
HETATM   25  C21 UNL     1      -0.804  50.428 -17.314  1.00  0.00     0.260 C 
BRANCH  25  26
HETATM   26  O4  UNL     1       0.472  50.774 -17.845  1.00  0.00    -0.314 OA
BRANCH  26  27
HETATM   27  C22 UNL     1       0.764  52.102 -17.760  1.00  0.00     0.259 C 
HETATM   28  O5  UNL     1       0.686  52.884 -18.698  1.00  0.00    -0.265 OA
BRANCH  27  29
HETATM   29  C23 UNL     1       1.097  52.516 -16.349  1.00  0.00     0.120 C 
BRANCH  29  30
HETATM   30  C24 UNL     1       2.434  51.977 -15.851  1.00  0.00     0.112 C 
BRANCH  30  31
HETATM   31  C25 UNL     1       2.294  51.317 -14.496  1.00  0.00     0.218 C 
HETATM   32  O6  UNL     1       2.215  50.102 -14.339  1.00  0.00    -0.274 OA
HETATM   33  N1  UNL     1       2.275  52.222 -13.455  1.00  0.00    -0.360 N 
HETATM   34  H34 UNL     1       2.583  53.170 -13.633  1.00  0.00     0.162 HD
BRANCH  33  35
HETATM   35  C26 UNL     1       2.256  51.777 -12.069  1.00  0.00     0.132 C 
BRANCH  35  36
HETATM   36  C27 UNL     1       1.647  52.830 -11.113  1.00  0.00     0.046 C 
BRANCH  36  37
HETATM   37  C28 UNL     1       0.444  53.538 -11.751  1.00  0.00     0.120 C 
BRANCH  37  38
HETATM   38  C29 UNL     1      -0.798  53.336 -10.937  1.00  0.00     0.140 C 
HETATM   39  O7  UNL     1      -0.840  53.189  -9.728  1.00  0.00    -0.650 OA
BRANCH  38  40
HETATM   40  O8  UNL     1      -1.918  53.350 -11.678  1.00  0.00    -0.776 OA
HETATM   41  H40 UNL     1      -2.645  53.258 -11.026  1.00  0.00     0.167 HD
ENDBRANCH  38  40
ENDBRANCH  37  38
ENDBRANCH  36  37
BRANCH  36  42
HETATM   42  C30 UNL     1       2.682  53.862 -10.673  1.00  0.00    -0.052 A 
HETATM   43  C31 UNL     1       3.953  53.484 -10.211  1.00  0.00     0.007 A 
HETATM   44  C32 UNL     1       4.882  54.449  -9.818  1.00  0.00     0.001 A 
HETATM   45  C33 UNL     1       4.553  55.801  -9.881  1.00  0.00     0.000 A 
HETATM   46  C34 UNL     1       3.298  56.190 -10.343  1.00  0.00     0.001 A 
HETATM   47  C35 UNL     1       2.367  55.227 -10.735  1.00  0.00     0.007 A 
ENDBRANCH  36  42
ENDBRANCH  35  36
ENDBRANCH  33  35
ENDBRANCH  30  31
ENDBRANCH  29  30
ENDBRANCH  27  29
ENDBRANCH  26  27
ENDBRANCH  25  26
ENDBRANCH   1  25
TORSDOF 14
ENDMDL
