MODEL 1
REMARK minimizedAffinity -8.98463249
REMARK  9 active torsions:
REMARK  status: ('A' for Active; 'I' for Inactive)
REMARK    1  A    between atoms: C2_2  and  C3_3 
REMARK    2  A    between atoms: C2_2  and  C9_11 
REMARK    3  A    between atoms: C3_3  and  C4_4 
REMARK    4  A    between atoms: C4_4  and  C5_5 
REMARK    5  A    between atoms: C5_5  and  O1_6 
REMARK    6  A    between atoms: C5_5  and  C6_7 
REMARK    7  A    between atoms: C6_7  and  O2_10 
REMARK    8  A    between atoms: C17_19  and  C18_20 
REMARK    9  A    between atoms: C18_20  and  O3_23 
ROOT
HETATM    1  C9  UNL     1      -5.710   6.311  14.449  1.00  0.00    -0.002 C 
HETATM    2  C10 UNL     1      -6.197   7.412  13.452  1.00  0.00     0.006 C 
HETATM    3  C11 UNL     1      -4.937   8.130  12.918  1.00  0.00     0.011 C 
HETATM    4  C12 UNL     1      -3.813   7.691  13.876  1.00  0.00    -0.032 C 
HETATM    5  C13 UNL     1      -3.985   8.583  15.153  1.00  0.00     0.016 C 
HETATM    6  C14 UNL     1      -2.369   7.785  13.301  1.00  0.00     0.003 C 
HETATM    7  C15 UNL     1      -1.967   9.175  12.789  1.00  0.00     0.009 C 
HETATM    8  C16 UNL     1      -0.473   9.360  12.529  1.00  0.00     0.042 C 
HETATM    9  C17 UNL     1       0.396   8.090  12.315  1.00  0.00     0.095 C 
HETATM   10  O4  UNL     1       1.777   8.501  12.568  1.00  0.00    -0.377 OA
HETATM   11  C21 UNL     1       2.172   8.517  13.930  1.00  0.00     0.169 C 
HETATM   12  C22 UNL     1       2.245   7.109  14.477  1.00  0.00     0.027 C 
HETATM   13  C23 UNL     1       1.199   6.179  13.880  1.00  0.00     0.010 C 
HETATM   14  C24 UNL     1      -0.018   6.869  13.224  1.00  0.00     0.032 C 
HETATM   15  C25 UNL     1      -1.267   7.103  14.188  1.00  0.00    -0.033 C 
HETATM   16  C26 UNL     1      -0.885   7.938  15.430  1.00  0.00     0.016 C 
HETATM   17  C27 UNL     1      -1.762   5.706  14.726  1.00  0.00     0.011 C 
HETATM   18  C28 UNL     1      -3.243   5.596  15.157  1.00  0.00     0.011 C 
HETATM   19  C29 UNL     1      -4.197   6.168  14.093  1.00  0.00    -0.032 C 
HETATM   20  C30 UNL     1      -4.056   5.276  12.823  1.00  0.00     0.016 C 
ENDROOT
BRANCH   1  21
HETATM   21  C2  UNL     1      -6.698   5.107  14.565  1.00  0.00    -0.014 C 
HETATM   22  C1  UNL     1      -7.495   4.983  15.870  1.00  0.00     0.010 C 
BRANCH  21  23
HETATM   23  C3  UNL     1      -7.636   5.024  13.342  1.00  0.00     0.007 C 
BRANCH  23  24
HETATM   24  C4  UNL     1      -7.152   4.188  12.141  1.00  0.00     0.035 C 
BRANCH  24  25
HETATM   25  C5  UNL     1      -6.755   2.739  12.483  1.00  0.00     0.151 C 
BRANCH  25  26
HETATM   26  O1  UNL     1      -7.944   1.977  12.694  1.00  0.00    -0.393 OA
HETATM   27  H10 UNL     1      -7.699   1.147  13.135  1.00  0.00     0.210 HD
ENDBRANCH  25  26
BRANCH  25  28
HETATM   28  C6  UNL     1      -5.864   2.078  11.385  1.00  0.00     0.076 C 
HETATM   29  C7  UNL     1      -5.689   3.013  10.180  1.00  0.00     0.048 C 
HETATM   30  C8  UNL     1      -4.481   1.682  11.914  1.00  0.00     0.048 C 
BRANCH  28  31
HETATM   31  O2  UNL     1      -6.493   0.881  10.905  1.00  0.00    -0.388 OA
HETATM   32  H17 UNL     1      -7.337   1.127  10.490  1.00  0.00     0.210 HD
ENDBRANCH  28  31
ENDBRANCH  25  28
ENDBRANCH  24  25
ENDBRANCH  23  24
ENDBRANCH  21  23
ENDBRANCH   1  21
BRANCH   9  33
HETATM   33  C18 UNL     1       0.461   7.704  10.762  1.00  0.00     0.082 C 
HETATM   34  C19 UNL     1       1.865   7.525  10.181  1.00  0.00     0.049 C 
HETATM   35  C20 UNL     1      -0.319   8.679   9.862  1.00  0.00     0.049 C 
BRANCH  33  36
HETATM   36  O3  UNL     1      -0.204   6.430  10.597  1.00  0.00    -0.388 OA
HETATM   37  H37 UNL     1      -1.009   6.504  11.151  1.00  0.00     0.210 HD
ENDBRANCH  33  36
ENDBRANCH   9  33
TORSDOF 9
ENDMDL
