MODEL 1
REMARK minimizedAffinity -9.36331558
REMARK  7 active torsions:
REMARK  status: ('A' for Active; 'I' for Inactive)
REMARK    1  A    between atoms: C2_2  and  O2_4 
REMARK    2  A    between atoms: O2_4  and  C3_5 
REMARK    3  A    between atoms: C3_5  and  C4_6 
REMARK    4  A    between atoms: C3_5  and  C9_12 
REMARK    5  A    between atoms: C5_7  and  C6_8 
REMARK    6  A    between atoms: C6_8  and  O3_11 
REMARK    7  A    between atoms: C9_12  and  C11_14 
ROOT
HETATM    1  C11 UNL     1      -1.372  50.915 -22.876  1.00  0.00     0.001 C 
HETATM    2  C12 UNL     1      -0.778  52.354 -22.943  1.00  0.00     0.007 C 
HETATM    3  C13 UNL     1      -0.169  52.684 -21.568  1.00  0.00     0.015 C 
HETATM    4  C14 UNL     1      -0.074  51.331 -20.849  1.00  0.00    -0.013 C 
HETATM    5  C15 UNL     1       1.235  50.641 -21.346  1.00  0.00     0.021 C 
HETATM    6  C16 UNL     1       0.024  51.308 -19.325  1.00  0.00    -0.068 C 
HETATM    7  C17 UNL     1      -0.446  50.239 -18.630  1.00  0.00    -0.068 C 
HETATM    8  C18 UNL     1      -1.172  49.085 -19.341  1.00  0.00     0.036 C 
HETATM    9  C19 UNL     1      -1.365  49.195 -20.868  1.00  0.00     0.015 C 
HETATM   10  C20 UNL     1      -1.416  50.657 -21.330  1.00  0.00    -0.029 C 
HETATM   11  C21 UNL     1      -2.688  51.337 -20.727  1.00  0.00     0.016 C 
HETATM   12  C22 UNL     1      -0.307  50.128 -17.085  1.00  0.00    -0.015 C 
HETATM   13  C23 UNL     1      -1.711  50.387 -16.486  1.00  0.00     0.020 C 
HETATM   14  C24 UNL     1       0.162  48.697 -16.685  1.00  0.00     0.021 C 
HETATM   15  C25 UNL     1       0.870  48.579 -15.339  1.00  0.00     0.080 C 
HETATM   16  C26 UNL     1       0.629  49.757 -14.427  1.00  0.00     0.135 C 
HETATM   17  O4  UNL     1       0.269  49.580 -13.264  1.00  0.00    -0.297 OA
HETATM   18  C27 UNL     1       0.945  51.147 -14.988  1.00  0.00     0.018 C 
HETATM   19  C28 UNL     1       0.075  52.199 -14.269  1.00  0.00     0.023 C 
HETATM   20  C29 UNL     1       2.417  51.446 -14.629  1.00  0.00     0.023 C 
HETATM   21  C30 UNL     1       0.777  51.133 -16.547  1.00  0.00     0.013 C 
HETATM   22  C31 UNL     1       0.580  52.526 -17.155  1.00  0.00     0.011 C 
HETATM   23  C32 UNL     1       0.714  52.480 -18.674  1.00  0.00     0.036 C 
ENDROOT
BRANCH   1  24
HETATM   24  C9  UNL     1      -2.679  50.752 -23.723  1.00  0.00     0.020 C 
HETATM   25  C10 UNL     1      -3.326  49.372 -23.505  1.00  0.00     0.013 C 
BRANCH  24  26
HETATM   26  C3  UNL     1      -2.491  50.932 -25.269  1.00  0.00     0.158 C 
BRANCH  26  27
HETATM   27  O2  UNL     1      -2.418  49.640 -25.906  1.00  0.00    -0.312 OA
BRANCH  27  28
HETATM   28  C2  UNL     1      -3.159  49.469 -27.034  1.00  0.00     0.255 C 
HETATM   29  C1  UNL     1      -4.167  48.380 -26.824  1.00  0.00     0.126 C 
HETATM   30  O1  UNL     1      -3.062  50.120 -28.064  1.00  0.00    -0.266 OA
ENDBRANCH  27  28
ENDBRANCH  26  27
BRANCH  26  31
HETATM   31  C4  UNL     1      -1.249  51.681 -25.683  1.00  0.00     0.005 C 
HETATM   32  C5  UNL     1      -0.186  51.102 -26.271  1.00  0.00     0.008 C 
BRANCH  32  33
HETATM   33  C6  UNL     1       1.098  51.765 -26.712  1.00  0.00     0.068 C 
HETATM   34  C7  UNL     1       1.131  51.868 -28.239  1.00  0.00     0.050 C 
HETATM   35  C8  UNL     1       2.390  51.111 -26.209  1.00  0.00     0.050 C 
BRANCH  33  36
HETATM   36  O3  UNL     1       1.056  53.099 -26.199  1.00  0.00    -0.387 OA
HETATM   37  H13 UNL     1       0.968  53.025 -25.232  1.00  0.00     0.211 HD
ENDBRANCH  33  36
ENDBRANCH  32  33
ENDBRANCH  26  31
ENDBRANCH  24  26
ENDBRANCH   1  24
TORSDOF 7
ENDMDL
