MODEL 1
REMARK minimizedAffinity -6.55787373
REMARK CNNscore 0.788827598
REMARK CNNaffinity 6.4245429
REMARK  8 active torsions:
REMARK  status: ('A' for Active; 'I' for Inactive)
REMARK    1  A    between atoms: C2_2  and  C3_3 
REMARK    2  A    between atoms: C2_2  and  C5_6 
REMARK    3  A    between atoms: C3_3  and  C4_4 
REMARK    4  A    between atoms: C5_6  and  C6_7 
REMARK    5  A    between atoms: C6_7  and  C7_9 
REMARK    6  A    between atoms: C7_9  and  C8_10 
REMARK    7  A    between atoms: C8_10  and  C10_12 
REMARK    8  A    between atoms: C12_14  and  O3_15 
ROOT
HETATM    1  C10 UNL     1     -15.630  -3.184  12.617  1.00  0.00     0.002 C 
HETATM    2  C11 UNL     1     -14.344  -2.887  13.411  1.00  0.00     0.038 C 
HETATM    3  C12 UNL     1     -14.680  -3.126  14.876  1.00  0.00     0.132 C 
HETATM    4  C13 UNL     1     -16.207  -2.826  15.011  1.00  0.00     0.021 C 
HETATM    5  C14 UNL     1     -16.774  -3.447  16.305  1.00  0.00     0.024 C 
HETATM    6  C15 UNL     1     -16.527  -1.311  14.979  1.00  0.00     0.010 C 
HETATM    7  C16 UNL     1     -17.357  -0.674  14.114  1.00  0.00     0.007 C 
HETATM    8  C17 UNL     1     -18.147  -1.534  13.166  1.00  0.00     0.157 C 
HETATM    9  O4  UNL     1     -18.851  -1.042  12.288  1.00  0.00    -0.293 OA
HETATM   10  C18 UNL     1     -18.115  -3.030  13.335  1.00  0.00     0.094 C 
HETATM   11  C19 UNL     1     -16.723  -3.560  13.698  1.00  0.00    -0.019 C 
HETATM   12  C20 UNL     1     -16.878  -5.088  13.881  1.00  0.00     0.017 C 
HETATM   13  C21 UNL     1     -17.547   0.868  14.002  1.00  0.00    -0.007 C 
HETATM   14  C22 UNL     1     -16.822   1.295  12.698  1.00  0.00     0.021 C 
HETATM   15  C23 UNL     1     -19.049   1.281  13.904  1.00  0.00     0.022 C 
HETATM   16  C24 UNL     1     -19.396   2.670  14.443  1.00  0.00     0.080 C 
HETATM   17  C25 UNL     1     -18.212   3.607  14.432  1.00  0.00     0.135 C 
HETATM   18  O5  UNL     1     -18.278   4.704  13.879  1.00  0.00    -0.297 OA
HETATM   19  C26 UNL     1     -16.974   3.155  15.216  1.00  0.00     0.018 C 
HETATM   20  C27 UNL     1     -15.703   3.779  14.611  1.00  0.00     0.023 C 
HETATM   21  C28 UNL     1     -17.128   3.720  16.645  1.00  0.00     0.023 C 
HETATM   22  C29 UNL     1     -16.959   1.592  15.266  1.00  0.00     0.021 C 
HETATM   23  C30 UNL     1     -15.606   0.994  15.638  1.00  0.00     0.090 C 
HETATM   24  C31 UNL     1     -15.878  -0.434  16.016  1.00  0.00     0.157 C 
HETATM   25  O6  UNL     1     -15.667  -0.822  17.162  1.00  0.00    -0.293 OA
ENDROOT
BRANCH   1  26
HETATM   26  C8  UNL     1     -15.351  -4.060  11.363  1.00  0.00    -0.007 C 
HETATM   27  C9  UNL     1     -14.009  -4.794  11.447  1.00  0.00     0.011 C 
BRANCH  26  28
HETATM   28  C7  UNL     1     -15.505  -3.357  10.001  1.00  0.00     0.083 C 
BRANCH  28  29
HETATM   29  C6  UNL     1     -14.183  -3.304   9.256  1.00  0.00     0.127 C 
HETATM   30  O2  UNL     1     -13.352  -2.436   9.527  1.00  0.00    -0.298 OA
BRANCH  29  31
HETATM   31  C5  UNL     1     -13.933  -4.385   8.212  1.00  0.00     0.082 C 
BRANCH  31  32
HETATM   32  C2  UNL     1     -14.979  -4.545   7.091  1.00  0.00    -0.005 C 
HETATM   33  C1  UNL     1     -15.678  -5.906   7.076  1.00  0.00     0.011 C 
BRANCH  32  34
HETATM   34  C3  UNL     1     -14.470  -4.134   5.702  1.00  0.00     0.074 C 
BRANCH  34  35
HETATM   35  C4  UNL     1     -13.112  -4.678   5.344  1.00  0.00     0.231 C 
HETATM   36  O1  UNL     1     -12.326  -4.058   4.635  1.00  0.00    -0.307 OA
ENDBRANCH  34  35
ENDBRANCH  32  34
ENDBRANCH  31  32
ENDBRANCH  29  31
ENDBRANCH  28  29
ENDBRANCH  26  28
ENDBRANCH   1  26
BRANCH   3  37
HETATM   37  O3  UNL     1     -13.834  -2.349  15.697  1.00  0.00    -0.394 OA
HETATM   38  H20 UNL     1     -12.924  -2.672  15.587  1.00  0.00     0.210 HD
ENDBRANCH   3  37
TORSDOF 8
ENDMDL
