MODEL 1
REMARK minimizedAffinity -9.42382526
REMARK  6 active torsions:
REMARK  status: ('A' for Active; 'I' for Inactive)
REMARK    1  A    between atoms: C2_2  and  C30_32 
REMARK    2  A    between atoms: C3_3  and  C4_4 
REMARK    3  A    between atoms: C4_4  and  C5_6 
REMARK    4  A    between atoms: C5_6  and  C6_7 
REMARK    5  A    between atoms: C6_7  and  C8_9 
REMARK    6  A    between atoms: C30_32  and  O4_34 
ROOT
HETATM    1  C8  UNL     1      -2.891   7.639  14.097  1.00  0.00    -0.001 C 
HETATM    2  C9  UNL     1      -3.176   8.214  12.698  1.00  0.00     0.007 C 
HETATM    3  C10 UNL     1      -1.859   8.831  12.191  1.00  0.00     0.015 C 
HETATM    4  C11 UNL     1      -0.825   8.704  13.345  1.00  0.00    -0.013 C 
HETATM    5  C12 UNL     1      -0.965  10.006  14.192  1.00  0.00     0.021 C 
HETATM    6  C13 UNL     1       0.631   8.488  12.861  1.00  0.00    -0.070 C 
HETATM    7  C14 UNL     1       1.663   9.268  13.224  1.00  0.00    -0.022 C 
HETATM    8  C15 UNL     1       3.100   9.003  12.916  1.00  0.00     0.034 C 
HETATM    9  C16 UNL     1       3.450   7.611  12.313  1.00  0.00     0.013 C 
HETATM   10  C17 UNL     1       4.895   7.667  11.683  1.00  0.00     0.018 C 
HETATM   11  C18 UNL     1       5.494   6.279  11.382  1.00  0.00     0.023 C 
HETATM   12  C19 UNL     1       5.893   8.352  12.653  1.00  0.00     0.023 C 
HETATM   13  C20 UNL     1       4.830   8.470  10.374  1.00  0.00     0.135 C 
HETATM   14  O2  UNL     1       5.718   9.263  10.051  1.00  0.00    -0.297 OA
HETATM   15  C21 UNL     1       3.691   8.184   9.414  1.00  0.00     0.080 C 
HETATM   16  C22 UNL     1       2.330   8.087  10.103  1.00  0.00     0.017 C 
HETATM   17  C23 UNL     1       2.314   7.144  11.343  1.00  0.00    -0.031 C 
HETATM   18  C24 UNL     1       2.490   5.691  10.835  1.00  0.00     0.016 C 
HETATM   19  C25 UNL     1       0.896   7.227  12.053  1.00  0.00     0.024 C 
HETATM   20  C26 UNL     1       0.554   6.057  12.998  1.00  0.00     0.010 C 
HETATM   21  C27 UNL     1      -0.928   6.118  13.386  1.00  0.00     0.011 C 
HETATM   22  C28 UNL     1      -1.342   7.423  14.119  1.00  0.00    -0.029 C 
HETATM   23  C29 UNL     1      -0.822   7.347  15.570  1.00  0.00     0.016 C 
ENDROOT
BRANCH   1  24
HETATM   24  C6  UNL     1      -3.814   6.478  14.572  1.00  0.00    -0.007 C 
HETATM   25  C7  UNL     1      -5.267   6.796  14.163  1.00  0.00     0.011 C 
BRANCH  24  26
HETATM   26  C5  UNL     1      -3.459   5.071  14.049  1.00  0.00     0.087 C 
BRANCH  26  27
HETATM   27  C4  UNL     1      -4.231   4.681  12.796  1.00  0.00     0.150 C 
HETATM   28  O1  UNL     1      -3.791   4.842  11.662  1.00  0.00    -0.293 OA
BRANCH  27  29
HETATM   29  C3  UNL     1      -5.598   4.132  13.023  1.00  0.00     0.063 C 
HETATM   30  C2  UNL     1      -6.110   3.058  12.392  1.00  0.00     0.015 C 
HETATM   31  C1  UNL     1      -5.407   2.170  11.412  1.00  0.00     0.055 C 
BRANCH  30  32
HETATM   32  C30 UNL     1      -7.510   2.735  12.751  1.00  0.00     0.171 C 
HETATM   33  O3  UNL     1      -8.364   3.526  13.113  1.00  0.00    -0.646 OA
BRANCH  32  34
HETATM   34  O4  UNL     1      -7.784   1.427  12.630  1.00  0.00    -0.773 OA
HETATM   35  H44 UNL     1      -8.730   1.358  12.874  1.00  0.00     0.167 HD
ENDBRANCH  32  34
ENDBRANCH  30  32
ENDBRANCH  27  29
ENDBRANCH  26  27
ENDBRANCH  24  26
ENDBRANCH   1  24
TORSDOF 6
ENDMDL
