MODEL 1
REMARK minimizedAffinity -8.24500561
REMARK  7 active torsions:
REMARK  status: ('A' for Active; 'I' for Inactive)
REMARK    1  A    between atoms: N1_2  and  C2_3 
REMARK    2  A    between atoms: C2_3  and  C3_4 
REMARK    3  A    between atoms: C3_4  and  O1_5 
REMARK    4  A    between atoms: O1_5  and  C4_6 
REMARK    5  A    between atoms: C4_6  and  C5_8 
REMARK    6  A    between atoms: C19_23  and  C21_25 
REMARK    7  A    between atoms: C21_25  and  O5_27 
ROOT
HETATM    1  C5  UNL     1      -3.887  49.786 -28.060  1.00  0.00     0.085 C 
HETATM    2  C6  UNL     1      -3.049  49.648 -27.012  1.00  0.00    -0.070 C 
HETATM    3  C7  UNL     1      -2.683  48.353 -26.323  1.00  0.00     0.035 C 
HETATM    4  C8  UNL     1      -2.938  48.429 -24.814  1.00  0.00     0.010 C 
HETATM    5  C9  UNL     1      -2.255  49.649 -24.150  1.00  0.00     0.006 C 
HETATM    6  C10 UNL     1      -2.703  50.936 -24.888  1.00  0.00     0.068 C 
HETATM    7  C11 UNL     1      -2.162  52.197 -24.229  1.00  0.00     0.132 C 
HETATM    8  O3  UNL     1      -1.800  53.180 -24.879  1.00  0.00    -0.298 OA
HETATM    9  C12 UNL     1      -2.243  52.275 -22.723  1.00  0.00     0.085 C 
HETATM   10  C13 UNL     1      -1.683  51.002 -22.070  1.00  0.00     0.019 C 
HETATM   11  C14 UNL     1      -2.449  49.724 -22.579  1.00  0.00    -0.034 C 
HETATM   12  C15 UNL     1      -3.953  49.747 -22.217  1.00  0.00     0.016 C 
HETATM   13  C16 UNL     1      -1.804  48.464 -21.940  1.00  0.00     0.010 C 
HETATM   14  C17 UNL     1      -1.667  48.536 -20.426  1.00  0.00     0.002 C 
HETATM   15  C18 UNL     1      -0.882  49.765 -19.991  1.00  0.00     0.020 C 
HETATM   16  C19 UNL     1      -1.467  51.105 -20.515  1.00  0.00     0.049 C 
HETATM   17  C20 UNL     1      -0.412  52.191 -20.179  1.00  0.00     0.026 C 
HETATM   18  C23 UNL     1      -2.384  50.883 -26.405  1.00  0.00     0.022 C 
HETATM   19  C24 UNL     1      -0.886  50.893 -26.752  1.00  0.00     0.015 C 
ENDROOT
BRANCH   1  20
HETATM   20  C4  UNL     1      -4.630  48.717 -28.773  1.00  0.00     0.283 C 
HETATM   21  O2  UNL     1      -5.199  47.766 -28.270  1.00  0.00    -0.260 OA
BRANCH  20  22
HETATM   22  O1  UNL     1      -4.570  49.001 -30.100  1.00  0.00    -0.316 OA
BRANCH  22  23
HETATM   23  C3  UNL     1      -5.732  48.584 -30.837  1.00  0.00     0.209 C 
BRANCH  23  24
HETATM   24  C2  UNL     1      -5.281  47.794 -32.071  1.00  0.00     0.295 C 
BRANCH  24  25
HETATM   25  N1  UNL     1      -4.339  48.577 -32.881  1.00  0.00     0.081 N 
HETATM   26  C1  UNL     1      -3.600  47.723 -33.800  1.00  0.00     0.306 C 
HETATM   27  H4  UNL     1      -4.866  49.274 -33.410  1.00  0.00     0.315 HD
ENDBRANCH  24  25
ENDBRANCH  23  24
ENDBRANCH  22  23
ENDBRANCH  20  22
ENDBRANCH   1  20
BRANCH  16  28
HETATM   28  C21 UNL     1      -2.727  51.460 -19.704  1.00  0.00     0.267 C 
HETATM   29  O4  UNL     1      -3.874  51.407 -20.130  1.00  0.00    -0.264 OA
BRANCH  28  30
HETATM   30  O5  UNL     1      -2.414  51.822 -18.429  1.00  0.00    -0.326 OA
HETATM   31  C22 UNL     1      -2.831  50.889 -17.431  1.00  0.00     0.213 C 
ENDBRANCH  28  30
ENDBRANCH  16  28
TORSDOF 7
ENDMDL
