MODEL 1
REMARK minimizedAffinity -10.373662
REMARK  6 active torsions:
REMARK  status: ('A' for Active; 'I' for Inactive)
REMARK    1  A    between atoms: C2_2  and  C30_32 
REMARK    2  A    between atoms: C3_3  and  C4_4 
REMARK    3  A    between atoms: C4_4  and  C5_6 
REMARK    4  A    between atoms: C5_6  and  C6_7 
REMARK    5  A    between atoms: C6_7  and  C8_9 
REMARK    6  A    between atoms: C30_32  and  O4_34 
ROOT
HETATM    1  C8  UNL     1      -0.492  52.512 -21.943  1.00  0.00    -0.001 C 
HETATM    2  C9  UNL     1       0.898  53.220 -21.952  1.00  0.00     0.007 C 
HETATM    3  C10 UNL     1       1.463  53.156 -20.522  1.00  0.00     0.015 C 
HETATM    4  C11 UNL     1       0.255  52.770 -19.645  1.00  0.00    -0.013 C 
HETATM    5  C12 UNL     1      -0.528  54.097 -19.383  1.00  0.00     0.021 C 
HETATM    6  C13 UNL     1       0.496  52.148 -18.271  1.00  0.00    -0.070 C 
HETATM    7  C14 UNL     1       1.697  52.157 -17.672  1.00  0.00    -0.022 C 
HETATM    8  C15 UNL     1       1.952  51.678 -16.283  1.00  0.00     0.034 C 
HETATM    9  C16 UNL     1       0.679  51.511 -15.412  1.00  0.00     0.013 C 
HETATM   10  C17 UNL     1       0.996  50.852 -14.014  1.00  0.00     0.018 C 
HETATM   11  C18 UNL     1       0.162  51.534 -12.904  1.00  0.00     0.023 C 
HETATM   12  C19 UNL     1       2.469  50.971 -13.572  1.00  0.00     0.023 C 
HETATM   13  C20 UNL     1       0.675  49.353 -14.051  1.00  0.00     0.135 C 
HETATM   14  O2  UNL     1       0.412  48.717 -13.028  1.00  0.00    -0.297 OA
HETATM   15  C21 UNL     1       0.797  48.646 -15.380  1.00  0.00     0.080 C 
HETATM   16  C22 UNL     1       0.021  49.318 -16.513  1.00  0.00     0.017 C 
HETATM   17  C23 UNL     1      -0.445  50.774 -16.233  1.00  0.00    -0.031 C 
HETATM   18  C24 UNL     1      -1.780  50.710 -15.441  1.00  0.00     0.016 C 
HETATM   19  C25 UNL     1      -0.746  51.583 -17.574  1.00  0.00     0.024 C 
HETATM   20  C26 UNL     1      -1.682  50.807 -18.551  1.00  0.00     0.010 C 
HETATM   21  C27 UNL     1      -1.834  51.407 -19.961  1.00  0.00     0.011 C 
HETATM   22  C28 UNL     1      -0.468  51.738 -20.586  1.00  0.00    -0.029 C 
HETATM   23  C29 UNL     1       0.340  50.415 -20.760  1.00  0.00     0.016 C 
ENDROOT
BRANCH   1  24
HETATM   24  C6  UNL     1      -0.758  51.748 -23.275  1.00  0.00    -0.007 C 
HETATM   25  C7  UNL     1      -1.531  50.442 -23.055  1.00  0.00     0.011 C 
BRANCH  24  26
HETATM   26  C5  UNL     1      -1.553  52.643 -24.258  1.00  0.00     0.087 C 
BRANCH  26  27
HETATM   27  C4  UNL     1      -0.907  52.766 -25.632  1.00  0.00     0.150 C 
HETATM   28  O1  UNL     1      -1.516  53.164 -26.619  1.00  0.00    -0.293 OA
BRANCH  27  29
HETATM   29  C3  UNL     1       0.509  52.304 -25.723  1.00  0.00     0.063 C 
HETATM   30  C2  UNL     1       1.120  51.893 -26.850  1.00  0.00     0.015 C 
HETATM   31  C1  UNL     1       0.551  51.875 -28.235  1.00  0.00     0.055 C 
BRANCH  30  32
HETATM   32  C30 UNL     1       2.520  51.442 -26.668  1.00  0.00     0.171 C 
HETATM   33  O3  UNL     1       2.907  50.583 -25.895  1.00  0.00    -0.646 OA
BRANCH  32  34
HETATM   34  O4  UNL     1       3.376  52.082 -27.479  1.00  0.00    -0.773 OA
HETATM   35  H44 UNL     1       4.246  51.685 -27.266  1.00  0.00     0.167 HD
ENDBRANCH  32  34
ENDBRANCH  30  32
ENDBRANCH  27  29
ENDBRANCH  26  27
ENDBRANCH  24  26
ENDBRANCH   1  24
TORSDOF 6
ENDMDL
