MODEL 1
REMARK minimizedAffinity -8.17681122
REMARK CNNscore 0.549208701
REMARK CNNaffinity 7.03664064
REMARK  10 active torsions:
REMARK  status: ('A' for Active; 'I' for Inactive)
REMARK    1  A    between atoms: C2_2  and  O1_3 
REMARK    2  A    between atoms: O1_3  and  C3_4 
REMARK    3  A    between atoms: C14_15  and  O2_16 
REMARK    4  A    between atoms: C19_21  and  O3_22 
REMARK    5  A    between atoms: O3_22  and  C20_23 
REMARK    6  A    between atoms: C21_25  and  C22_26 
REMARK    7  A    between atoms: C22_26  and  O5_27 
REMARK    8  A    between atoms: C23_28  and  O6_29 
REMARK    9  A    between atoms: C24_30  and  O7_31 
REMARK   10  A    between atoms: C25_32  and  O8_33 
ROOT
HETATM    1  C3  UNL     1      -0.471  53.395 -26.015  1.00  0.00     0.260 C 
HETATM    2  C4  UNL     1      -1.023  52.540 -27.171  1.00  0.00     0.065 C 
HETATM    3  C5  UNL     1      -2.383  51.924 -26.820  1.00  0.00    -0.007 C 
HETATM    4  C6  UNL     1      -2.941  51.144 -28.008  1.00  0.00     0.010 C 
HETATM    5  C7  UNL     1      -2.187  51.038 -25.572  1.00  0.00     0.027 C 
HETATM    6  C8  UNL     1      -1.274  51.738 -24.524  1.00  0.00     0.130 C 
HETATM    7  C9  UNL     1      -1.933  51.522 -23.151  1.00  0.00     0.042 C 
HETATM    8  C10 UNL     1      -2.808  50.269 -23.346  1.00  0.00    -0.029 C 
HETATM    9  C11 UNL     1      -1.859  49.029 -23.321  1.00  0.00     0.016 C 
HETATM   10  C12 UNL     1      -3.939  50.099 -22.300  1.00  0.00     0.006 C 
HETATM   11  C13 UNL     1      -3.432  49.771 -20.894  1.00  0.00     0.038 C 
HETATM   12  C14 UNL     1      -4.575  49.554 -19.895  1.00  0.00     0.124 C 
HETATM   13  C15 UNL     1      -5.347  48.270 -20.270  1.00  0.00     0.034 C 
HETATM   14  C16 UNL     1      -6.521  47.812 -19.325  1.00  0.00    -0.015 C 
HETATM   15  C17 UNL     1      -6.128  47.818 -17.830  1.00  0.00     0.018 C 
HETATM   16  C18 UNL     1      -7.745  48.750 -19.442  1.00  0.00     0.018 C 
HETATM   17  C19 UNL     1      -6.876  46.321 -19.685  1.00  0.00     0.133 C 
HETATM   18  C26 UNL     1      -6.469  45.896 -21.105  1.00  0.00     0.034 C 
HETATM   19  C27 UNL     1      -6.607  47.014 -22.125  1.00  0.00     0.013 C 
HETATM   20  C28 UNL     1      -5.836  48.280 -21.737  1.00  0.00    -0.025 A 
HETATM   21  C29 UNL     1      -6.429  49.530 -22.350  1.00  0.00     0.021 A 
HETATM   22  C30 UNL     1      -5.038  49.119 -22.783  1.00  0.00    -0.027 A 
HETATM   23  C31 UNL     1      -4.895  48.513 -24.188  1.00  0.00     0.011 C 
HETATM   24  C32 UNL     1      -4.107  49.290 -25.257  1.00  0.00     0.011 C 
HETATM   25  C33 UNL     1      -3.435  50.569 -24.752  1.00  0.00    -0.030 C 
HETATM   26  C34 UNL     1      -4.511  51.693 -24.746  1.00  0.00     0.016 C 
HETATM   27  O9  UNL     1      -1.136  53.128 -24.780  1.00  0.00    -0.356 OA
ENDROOT
BRANCH  17  28
HETATM   28  O3  UNL     1      -8.281  46.090 -19.517  1.00  0.00    -0.352 OA
BRANCH  28  29
HETATM   29  C20 UNL     1      -8.617  44.705 -19.369  1.00  0.00     0.292 C 
HETATM   30  O4  UNL     1      -7.420  43.923 -19.377  1.00  0.00    -0.348 OA
HETATM   31  C21 UNL     1      -7.668  42.521 -19.206  1.00  0.00     0.179 C 
HETATM   32  C23 UNL     1      -8.445  42.005 -20.429  1.00  0.00     0.180 C 
HETATM   33  C24 UNL     1      -9.754  42.790 -20.552  1.00  0.00     0.183 C 
HETATM   34  C25 UNL     1      -9.529  44.303 -20.546  1.00  0.00     0.204 C 
BRANCH  31  35
HETATM   35  C22 UNL     1      -6.310  41.824 -19.038  1.00  0.00     0.198 C 
BRANCH  35  36
HETATM   36  O5  UNL     1      -5.751  41.469 -20.296  1.00  0.00    -0.398 OA
HETATM   37  H37 UNL     1      -4.854  41.135 -20.130  1.00  0.00     0.209 HD
ENDBRANCH  35  36
ENDBRANCH  31  35
BRANCH  32  38
HETATM   38  O6  UNL     1      -8.749  40.615 -20.350  1.00  0.00    -0.390 OA
HETATM   39  H39 UNL     1      -9.491  40.448 -20.962  1.00  0.00     0.210 HD
ENDBRANCH  32  38
BRANCH  33  40
HETATM   40  O7  UNL     1     -10.445  42.401 -21.756  1.00  0.00    -0.390 OA
HETATM   41  H41 UNL     1      -9.893  42.656 -22.519  1.00  0.00     0.210 HD
ENDBRANCH  33  40
BRANCH  34  42
HETATM   42  O8  UNL     1     -10.811  44.952 -20.476  1.00  0.00    -0.388 OA
HETATM   43  H43 UNL     1     -11.401  44.461 -21.078  1.00  0.00     0.210 HD
ENDBRANCH  34  42
ENDBRANCH  28  29
ENDBRANCH  17  28
BRANCH  12  44
HETATM   44  O2  UNL     1      -3.959  49.411 -18.615  1.00  0.00    -0.395 OA
HETATM   45  H24 UNL     1      -3.543  50.265 -18.394  1.00  0.00     0.210 HD
ENDBRANCH  12  44
BRANCH   1  46
HETATM   46  O1  UNL     1       0.935  53.161 -25.928  1.00  0.00    -0.362 OA
BRANCH  46  47
HETATM   47  C2  UNL     1       1.450  52.287 -26.929  1.00  0.00     0.166 C 
HETATM   48  C1  UNL     1       2.456  51.291 -26.384  1.00  0.00     0.033 C 
ENDBRANCH  46  47
ENDBRANCH   1  46
TORSDOF 10
ENDMDL
