MODEL 1
REMARK minimizedAffinity -8.92063999
REMARK  12 active torsions:
REMARK  status: ('A' for Active; 'I' for Inactive)
REMARK    1  A    between atoms: C2_2  and  O1_3 
REMARK    2  A    between atoms: C2_2  and  C3_4 
REMARK    3  A    between atoms: C4_5  and  C5_6 
REMARK    4  A    between atoms: C5_6  and  O2_7 
REMARK    5  A    between atoms: C8_10  and  O3_11 
REMARK    6  A    between atoms: O3_11  and  C9_12 
REMARK    7  A    between atoms: C10_14  and  C11_15 
REMARK    8  A    between atoms: C11_15  and  O5_16 
REMARK    9  A    between atoms: C12_17  and  O6_18 
REMARK   10  A    between atoms: C13_19  and  O7_20 
REMARK   11  A    between atoms: C14_21  and  O8_22 
REMARK   12  A    between atoms: C15_23  and  O9_24 
ROOT
HETATM    1  C5  UNL     1      -4.022  49.579 -24.515  1.00  0.00     0.088 C 
HETATM    2  C6  UNL     1      -2.636  49.494 -25.269  1.00  0.00     0.052 C 
HETATM    3  C7  UNL     1      -2.682  48.448 -26.403  1.00  0.00     0.016 C 
HETATM    4  C8  UNL     1      -2.125  50.879 -25.761  1.00  0.00     0.160 C 
HETATM    5  C15 UNL     1      -3.293  51.826 -26.047  1.00  0.00     0.148 C 
HETATM    6  C16 UNL     1      -4.084  52.138 -24.771  1.00  0.00     0.046 C 
HETATM    7  C17 UNL     1      -4.217  50.953 -23.764  1.00  0.00    -0.010 C 
HETATM    8  C18 UNL     1      -3.187  51.125 -22.619  1.00  0.00     0.018 C 
HETATM    9  C19 UNL     1      -5.613  51.070 -23.093  1.00  0.00     0.018 C 
ENDROOT
BRANCH   4  10
HETATM   10  O3  UNL     1      -1.300  50.808 -26.937  1.00  0.00    -0.350 OA
BRANCH  10  11
HETATM   11  C9  UNL     1       0.101  50.788 -26.652  1.00  0.00     0.292 C 
HETATM   12  O4  UNL     1       0.371  51.276 -25.341  1.00  0.00    -0.348 OA
HETATM   13  C10 UNL     1       0.511  52.694 -25.212  1.00  0.00     0.179 C 
HETATM   14  C12 UNL     1      -0.057  53.513 -26.383  1.00  0.00     0.180 C 
HETATM   15  C13 UNL     1       0.566  53.058 -27.712  1.00  0.00     0.183 C 
HETATM   16  C14 UNL     1       0.870  51.553 -27.748  1.00  0.00     0.204 C 
BRANCH  13  17
HETATM   17  C11 UNL     1      -0.144  53.090 -23.880  1.00  0.00     0.198 C 
BRANCH  17  18
HETATM   18  O5  UNL     1       0.360  52.329 -22.788  1.00  0.00    -0.398 OA
HETATM   19  H18 UNL     1      -0.000  51.429 -22.879  1.00  0.00     0.209 HD
ENDBRANCH  17  18
ENDBRANCH  13  17
BRANCH  14  20
HETATM   20  O6  UNL     1       0.209  54.914 -26.214  1.00  0.00    -0.390 OA
HETATM   21  H20 UNL     1      -0.171  55.171 -25.349  1.00  0.00     0.210 HD
ENDBRANCH  14  20
BRANCH  15  22
HETATM   22  O7  UNL     1      -0.339  53.398 -28.778  1.00  0.00    -0.390 OA
HETATM   23  H22 UNL     1       0.197  53.482 -29.583  1.00  0.00     0.210 HD
ENDBRANCH  15  22
BRANCH  16  24
HETATM   24  O8  UNL     1       2.289  51.372 -27.596  1.00  0.00    -0.388 OA
HETATM   25  H24 UNL     1       2.469  50.418 -27.601  1.00  0.00     0.210 HD
ENDBRANCH  16  24
ENDBRANCH  10  11
ENDBRANCH   4  10
BRANCH   5  26
HETATM   26  O9  UNL     1      -2.814  53.061 -26.584  1.00  0.00    -0.393 OA
HETATM   27  H26 UNL     1      -2.280  52.810 -27.364  1.00  0.00     0.210 HD
ENDBRANCH   5  26
BRANCH   1  28
HETATM   28  C4  UNL     1      -4.295  48.386 -23.608  1.00  0.00     0.010 C 
HETATM   29  C3  UNL     1      -4.141  48.295 -22.275  1.00  0.00     0.003 C 
BRANCH  29  30
HETATM   30  C2  UNL     1      -4.383  47.094 -21.404  1.00  0.00     0.136 C 
HETATM   31  C1  UNL     1      -3.156  46.270 -21.025  1.00  0.00     0.043 C 
BRANCH  30  32
HETATM   32  O1  UNL     1      -4.997  47.586 -20.215  1.00  0.00    -0.392 OA
HETATM   33  H5  UNL     1      -5.129  46.828 -19.620  1.00  0.00     0.210 HD
ENDBRANCH  30  32
ENDBRANCH  29  30
ENDBRANCH   1  28
BRANCH   1  34
HETATM   34  O2  UNL     1      -5.045  49.441 -25.524  1.00  0.00    -0.385 OA
HETATM   35  H8  UNL     1      -5.584  50.249 -25.577  1.00  0.00     0.211 HD
ENDBRANCH   1  34
TORSDOF 12
ENDMDL
