MODEL 1
REMARK minimizedAffinity -9.50959301
REMARK CNNscore 0.736931384
REMARK CNNaffinity 7.28054476
REMARK  5 active torsions:
REMARK  status: ('A' for Active; 'I' for Inactive)
REMARK    1  A    between atoms: C2_2  and  C4_4 
REMARK    2  A    between atoms: C7_7  and  C8_8 
REMARK    3  A    between atoms: C8_8  and  O2_10 
REMARK    4  A    between atoms: C11_13  and  C12_14 
REMARK    5  A    between atoms: C12_14  and  O4_16 
ROOT
HETATM    1  C4  UNL     1       1.787   8.007   9.549  1.00  0.00     0.019 C 
HETATM    2  C5  UNL     1       2.508   6.654   9.498  1.00  0.00     0.011 C 
HETATM    3  C6  UNL     1       3.324   6.551  10.790  1.00  0.00     0.021 C 
HETATM    4  C7  UNL     1       2.945   7.759  11.670  1.00  0.00     0.050 C 
HETATM    5  C9  UNL     1       2.776   7.359  13.145  1.00  0.00     0.022 C 
HETATM    6  C10 UNL     1       1.544   6.520  13.527  1.00  0.00     0.023 C 
HETATM    7  C11 UNL     1       0.276   6.602  12.595  1.00  0.00     0.057 C 
HETATM    8  C13 UNL     1       0.383   8.012  11.931  1.00  0.00     0.011 C 
HETATM    9  C14 UNL     1      -0.947   8.504  11.408  1.00  0.00     0.007 C 
HETATM   10  C15 UNL     1      -1.919   8.717  12.566  1.00  0.00     0.006 C 
HETATM   11  C16 UNL     1      -1.767   7.791  13.824  1.00  0.00     0.003 C 
HETATM   12  C17 UNL     1      -3.153   7.734  14.634  1.00  0.00    -0.035 C 
HETATM   13  C18 UNL     1      -2.887   7.178  16.057  1.00  0.00     0.016 C 
HETATM   14  C19 UNL     1      -3.745   9.166  14.825  1.00  0.00     0.017 C 
HETATM   15  C20 UNL     1      -5.137   9.188  15.448  1.00  0.00     0.080 C 
HETATM   16  C21 UNL     1      -6.101   8.298  14.698  1.00  0.00     0.135 C 
HETATM   17  O5  UNL     1      -7.234   8.710  14.435  1.00  0.00    -0.297 OA
HETATM   18  C22 UNL     1      -5.657   6.857  14.380  1.00  0.00     0.017 C 
HETATM   19  C23 UNL     1      -5.846   6.004  15.642  1.00  0.00     0.023 C 
HETATM   20  C24 UNL     1      -6.622   6.291  13.306  1.00  0.00     0.023 C 
HETATM   21  C25 UNL     1      -4.196   6.901  13.805  1.00  0.00     0.009 C 
HETATM   22  C26 UNL     1      -3.629   5.533  13.381  1.00  0.00     0.007 C 
HETATM   23  C27 UNL     1      -2.273   5.636  12.652  1.00  0.00     0.011 C 
HETATM   24  C28 UNL     1      -1.145   6.387  13.437  1.00  0.00    -0.022 C 
HETATM   25  C29 UNL     1      -0.817   5.471  14.655  1.00  0.00     0.017 C 
HETATM   26  C30 UNL     1       1.640   8.345  11.061  1.00  0.00     0.018 C 
ENDROOT
BRANCH   4  27
HETATM   27  C8  UNL     1       4.055   8.826  11.625  1.00  0.00     0.149 C 
HETATM   28  O1  UNL     1       5.095   8.768  10.980  1.00  0.00    -0.649 OA
BRANCH  27  29
HETATM   29  O2  UNL     1       3.831   9.901  12.409  1.00  0.00    -0.776 OA
HETATM   30  H11 UNL     1       4.623  10.461  12.266  1.00  0.00     0.167 HD
ENDBRANCH  27  29
ENDBRANCH   4  27
BRANCH   1  31
HETATM   31  C2  UNL     1       0.637   8.273   8.597  1.00  0.00    -0.088 C 
HETATM   32  C1  UNL     1      -0.524   8.864   8.931  1.00  0.00     0.014 C 
HETATM   33  C3  UNL     1       0.800   7.701   7.208  1.00  0.00     0.043 C 
ENDBRANCH   1  31
BRANCH   7  34
HETATM   34  C12 UNL     1       0.363   5.427  11.615  1.00  0.00     0.149 C 
HETATM   35  O3  UNL     1       1.239   5.228  10.789  1.00  0.00    -0.649 OA
BRANCH  34  36
HETATM   36  O4  UNL     1      -0.591   4.498  11.774  1.00  0.00    -0.776 OA
HETATM   37  H16 UNL     1      -0.347   3.799  11.133  1.00  0.00     0.167 HD
ENDBRANCH  34  36
ENDBRANCH   7  34
TORSDOF 5
ENDMDL
