MODEL 1
REMARK minimizedAffinity -8.5083189
REMARK  11 active torsions:
REMARK  status: ('A' for Active; 'I' for Inactive)
REMARK    1  A    between atoms: C2_2  and  O1_3 
REMARK    2  A    between atoms: C2_2  and  C3_4 
REMARK    3  A    between atoms: C4_5  and  C5_6 
REMARK    4  A    between atoms: C5_6  and  O2_7 
REMARK    5  A    between atoms: C9_11  and  O3_12 
REMARK    6  A    between atoms: O3_12  and  C10_13 
REMARK    7  A    between atoms: C11_15  and  C12_16 
REMARK    8  A    between atoms: C12_16  and  O5_17 
REMARK    9  A    between atoms: C13_18  and  O6_19 
REMARK   10  A    between atoms: C14_20  and  O7_21 
REMARK   11  A    between atoms: C15_22  and  O8_23 
ROOT
HETATM    1  C5  UNL     1      -0.367  51.914 -19.567  1.00  0.00     0.086 C 
HETATM    2  C6  UNL     1       0.758  52.479 -20.511  1.00  0.00     0.023 C 
HETATM    3  C7  UNL     1       1.350  53.821 -20.043  1.00  0.00     0.013 C 
HETATM    4  C8  UNL     1       0.223  52.659 -21.938  1.00  0.00     0.039 C 
HETATM    5  C9  UNL     1      -0.166  51.329 -22.586  1.00  0.00     0.126 C 
HETATM    6  C16 UNL     1      -0.466  50.239 -21.545  1.00  0.00     0.044 C 
HETATM    7  C17 UNL     1      -1.207  50.743 -20.276  1.00  0.00    -0.010 C 
HETATM    8  C18 UNL     1      -2.635  51.203 -20.664  1.00  0.00     0.018 C 
HETATM    9  C19 UNL     1      -1.408  49.498 -19.371  1.00  0.00     0.018 C 
ENDROOT
BRANCH   5  10
HETATM   10  O3  UNL     1      -1.318  51.475 -23.422  1.00  0.00    -0.353 OA
BRANCH  10  11
HETATM   11  C10 UNL     1      -1.149  52.381 -24.517  1.00  0.00     0.292 C 
HETATM   12  O4  UNL     1      -2.395  52.885 -24.986  1.00  0.00    -0.348 OA
HETATM   13  C11 UNL     1      -2.976  52.219 -26.117  1.00  0.00     0.179 C 
HETATM   14  C13 UNL     1      -2.039  52.293 -27.341  1.00  0.00     0.180 C 
HETATM   15  C14 UNL     1      -0.551  52.283 -26.964  1.00  0.00     0.183 C 
HETATM   16  C15 UNL     1      -0.306  51.663 -25.597  1.00  0.00     0.204 C 
BRANCH  13  17
HETATM   17  C12 UNL     1      -3.442  50.785 -25.800  1.00  0.00     0.198 C 
BRANCH  17  18
HETATM   18  O5  UNL     1      -4.621  50.831 -24.995  1.00  0.00    -0.398 OA
HETATM   19  H20 UNL     1      -4.464  50.274 -24.205  1.00  0.00     0.209 HD
ENDBRANCH  17  18
ENDBRANCH  13  17
BRANCH  14  20
HETATM   20  O6  UNL     1      -2.273  53.533 -28.044  1.00  0.00    -0.390 OA
HETATM   21  H22 UNL     1      -3.181  53.507 -28.392  1.00  0.00     0.210 HD
ENDBRANCH  14  20
BRANCH  15  22
HETATM   22  O7  UNL     1       0.187  51.538 -27.951  1.00  0.00    -0.390 OA
HETATM   23  H24 UNL     1       1.070  51.379 -27.561  1.00  0.00     0.210 HD
ENDBRANCH  15  22
BRANCH  16  24
HETATM   24  O8  UNL     1       1.110  51.712 -25.315  1.00  0.00    -0.388 OA
HETATM   25  H26 UNL     1       1.351  52.638 -25.131  1.00  0.00     0.210 HD
ENDBRANCH  16  24
ENDBRANCH  10  11
ENDBRANCH   5  10
BRANCH   1  26
HETATM   26  C4  UNL     1       0.137  51.516 -18.184  1.00  0.00     0.010 C 
HETATM   27  C3  UNL     1       0.894  52.224 -17.325  1.00  0.00     0.003 C 
BRANCH  27  28
HETATM   28  C2  UNL     1       1.373  51.771 -15.968  1.00  0.00     0.136 C 
HETATM   29  C1  UNL     1       0.766  50.424 -15.586  1.00  0.00     0.043 C 
BRANCH  28  30
HETATM   30  O1  UNL     1       1.047  52.724 -14.963  1.00  0.00    -0.392 OA
HETATM   31  H5  UNL     1       0.077  52.738 -14.885  1.00  0.00     0.210 HD
ENDBRANCH  28  30
ENDBRANCH  27  28
ENDBRANCH   1  26
BRANCH   1  32
HETATM   32  O2  UNL     1      -1.274  53.005 -19.304  1.00  0.00    -0.385 OA
HETATM   33  H8  UNL     1      -0.841  53.606 -18.674  1.00  0.00     0.211 HD
ENDBRANCH   1  32
TORSDOF 11
ENDMDL
