MODEL 1
REMARK minimizedAffinity -7.62427759
REMARK CNNscore 0.882687867
REMARK CNNaffinity 6.76497412
REMARK  12 active torsions:
REMARK  status: ('A' for Active; 'I' for Inactive)
REMARK    1  A    between atoms: C3_4  and  O2_5 
REMARK    2  A    between atoms: O2_5  and  C4_6 
REMARK    3  A    between atoms: C7_9  and  C8_10 
REMARK    4  A    between atoms: N1_11  and  C9_13 
REMARK    5  A    between atoms: C9_13  and  C10_14 
REMARK    6  A    between atoms: C10_14  and  C11_15 
REMARK    7  A    between atoms: C11_15  and  O3_16 
REMARK    8  A    between atoms: C17_22  and  C18_23 
REMARK    9  A    between atoms: C24_31  and  O6_32 
REMARK   10  A    between atoms: C28_36  and  O7_37 
REMARK   11  A    between atoms: C31_40  and  O8_41 
REMARK   12  A    between atoms: C32_42  and  O9_43 
ROOT
HETATM    1  C4  UNL     1      -4.810  44.425 -18.788  1.00  0.00     0.127 C 
HETATM    2  C5  UNL     1      -4.900  44.342 -20.316  1.00  0.00     0.033 C 
HETATM    3  C6  UNL     1      -4.150  45.485 -20.988  1.00  0.00     0.021 C 
HETATM    4  C7  UNL     1      -4.636  46.915 -20.570  1.00  0.00     0.026 C 
HETATM    5  C12 UNL     1      -3.355  47.821 -20.356  1.00  0.00     0.009 C 
HETATM    6  C13 UNL     1      -2.460  47.950 -21.608  1.00  0.00     0.007 C 
HETATM    7  C14 UNL     1      -1.184  48.732 -21.316  1.00  0.00     0.013 C 
HETATM    8  C15 UNL     1      -1.443  50.157 -20.746  1.00  0.00    -0.005 C 
HETATM    9  C16 UNL     1      -2.008  51.036 -21.879  1.00  0.00     0.019 C 
HETATM   10  C17 UNL     1      -0.088  50.692 -20.155  1.00  0.00     0.028 C 
HETATM   11  C22 UNL     1      -0.093  50.262 -18.669  1.00  0.00     0.013 C 
HETATM   12  C23 UNL     1      -1.433  49.573 -18.400  1.00  0.00     0.040 C 
HETATM   13  C24 UNL     1      -2.375  50.074 -19.506  1.00  0.00     0.070 C 
HETATM   14  C25 UNL     1      -3.652  49.208 -19.727  1.00  0.00     0.026 C 
HETATM   15  C26 UNL     1      -4.462  49.032 -18.430  1.00  0.00     0.011 C 
HETATM   16  C27 UNL     1      -5.739  48.241 -18.661  1.00  0.00     0.039 C 
HETATM   17  C28 UNL     1      -5.514  46.849 -19.269  1.00  0.00     0.073 C 
HETATM   18  C29 UNL     1      -4.893  45.869 -18.252  1.00  0.00     0.071 C 
ENDROOT
BRANCH   1  19
HETATM   19  O2  UNL     1      -5.845  43.661 -18.151  1.00  0.00    -0.356 OA
BRANCH  19  20
HETATM   20  C3  UNL     1      -5.873  42.288 -18.535  1.00  0.00     0.263 C 
HETATM   21  O1  UNL     1      -6.281  41.432 -17.465  1.00  0.00    -0.354 OA
HETATM   22  C2  UNL     1      -5.352  41.265 -16.381  1.00  0.00     0.151 C 
HETATM   23  C1  UNL     1      -5.286  42.476 -15.456  1.00  0.00     0.042 C 
HETATM   24  C32 UNL     1      -3.975  40.827 -16.896  1.00  0.00     0.175 C 
HETATM   25  C31 UNL     1      -3.475  41.769 -17.995  1.00  0.00     0.154 C 
HETATM   26  C30 UNL     1      -4.513  41.895 -19.101  1.00  0.00     0.095 C 
BRANCH  24  27
HETATM   27  O9  UNL     1      -4.065  39.501 -17.461  1.00  0.00    -0.390 OA
HETATM   28  H49 UNL     1      -4.983  39.386 -17.779  1.00  0.00     0.210 HD
ENDBRANCH  24  27
BRANCH  25  29
HETATM   29  O8  UNL     1      -2.265  41.250 -18.554  1.00  0.00    -0.393 OA
HETATM   30  H47 UNL     1      -2.389  40.279 -18.612  1.00  0.00     0.210 HD
ENDBRANCH  25  29
ENDBRANCH  19  20
ENDBRANCH   1  19
BRANCH  17  31
HETATM   31  O7  UNL     1      -6.830  46.352 -19.576  1.00  0.00    -0.389 OA
HETATM   32  H41 UNL     1      -7.268  46.120 -18.737  1.00  0.00     0.210 HD
ENDBRANCH  17  31
BRANCH   4  33
HETATM   33  C8  UNL     1      -5.563  47.402 -21.695  1.00  0.00     0.068 C 
HETATM   34  N1  UNL     1      -6.196  46.600 -22.476  1.00  0.00    -0.401 N 
ATOM     35  H1  UNL     1      -6.145  45.587 -22.375  1.00  0.00     0.158 HD
BRANCH  34  36
HETATM   36  C9  UNL     1      -6.997  47.247 -23.521  1.00  0.00     0.121 C 
BRANCH  36  37
HETATM   37  C10 UNL     1      -7.909  48.285 -22.872  1.00  0.00     0.045 C 
BRANCH  37  38
HETATM   38  C11 UNL     1      -7.977  49.570 -23.688  1.00  0.00     0.165 C 
BRANCH  38  39
HETATM   39  O3  UNL     1      -6.725  49.861 -24.292  1.00  0.00    -0.401 OA
HETATM   40  H18 UNL     1      -6.496  49.105 -24.861  1.00  0.00     0.209 HD
ENDBRANCH  38  39
ENDBRANCH  37  38
ENDBRANCH  36  37
ENDBRANCH  34  36
ENDBRANCH   4  33
BRANCH  13  41
HETATM   41  O6  UNL     1      -2.775  51.404 -19.149  1.00  0.00    -0.389 OA
HETATM   42  H35 UNL     1      -3.243  51.374 -18.297  1.00  0.00     0.210 HD
ENDBRANCH  13  41
BRANCH  10  43
HETATM   43  C18 UNL     1       0.260  52.150 -20.327  1.00  0.00    -0.045 A 
HETATM   44  C19 UNL     1       0.992  52.646 -21.326  1.00  0.00     0.087 A 
HETATM   45  C20 UNL     1       1.133  54.080 -21.093  1.00  0.00     0.283 A 
HETATM   46  O4  UNL     1       1.742  54.843 -21.820  1.00  0.00    -0.260 OA
HETATM   47  O5  UNL     1       0.492  54.409 -19.942  1.00  0.00    -0.314 OA
HETATM   48  C21 UNL     1      -0.123  53.239 -19.394  1.00  0.00     0.213 A 
ENDBRANCH  10  43
TORSDOF 12
ENDMDL
