MODEL 1
REMARK minimizedAffinity -9.58203125
REMARK  9 active torsions:
REMARK  status: ('A' for Active; 'I' for Inactive)
REMARK    1  A    between atoms: C11_11  and  C13_13 
REMARK    2  A    between atoms: C13_13  and  O2_15 
REMARK    3  A    between atoms: C15_17  and  C16_18 
REMARK    4  A    between atoms: C16_18  and  C17_19 
REMARK    5  A    between atoms: C17_19  and  C18_20 
REMARK    6  A    between atoms: C19_21  and  C20_22 
REMARK    7  A    between atoms: C20_22  and  O3_23 
REMARK    8  A    between atoms: O3_23  and  C21_24 
REMARK    9  A    between atoms: C21_24  and  C22_26 
ROOT
HETATM    1  C16 UNL     1      -3.013  48.806 -22.645  1.00  0.00     0.014 C 
ENDROOT
BRANCH   1   2
HETATM    2  C15 UNL     1      -2.276  49.714 -23.665  1.00  0.00     0.022 C 
HETATM    3  C2  UNL     1      -2.978  49.759 -25.013  1.00  0.00    -0.084 C 
HETATM    4  C1  UNL     1      -2.780  48.829 -25.965  1.00  0.00     0.014 C 
HETATM    5  C3  UNL     1      -3.810  50.970 -25.283  1.00  0.00     0.034 C 
HETATM    6  C4  UNL     1      -2.914  52.203 -25.305  1.00  0.00     0.011 C 
HETATM    7  C5  UNL     1      -1.821  52.268 -24.201  1.00  0.00     0.012 C 
HETATM    8  C6  UNL     1      -1.960  51.161 -23.082  1.00  0.00    -0.032 C 
HETATM    9  C11 UNL     1      -0.364  52.467 -24.762  1.00  0.00     0.049 C 
HETATM   10  C7  UNL     1      -3.081  51.655 -22.111  1.00  0.00     0.016 C 
HETATM   11  C8  UNL     1      -0.655  51.070 -22.230  1.00  0.00     0.010 C 
HETATM   12  C9  UNL     1       0.131  52.373 -22.220  1.00  0.00     0.002 C 
HETATM   13  C10 UNL     1       0.665  52.694 -23.613  1.00  0.00     0.020 C 
HETATM   14  C12 UNL     1       0.106  51.267 -25.611  1.00  0.00     0.026 C 
BRANCH   9  15
HETATM   15  C13 UNL     1      -0.320  53.721 -25.663  1.00  0.00     0.267 C 
HETATM   16  O1  UNL     1       0.206  54.785 -25.359  1.00  0.00    -0.264 OA
BRANCH  15  17
HETATM   17  O2  UNL     1      -0.961  53.498 -26.848  1.00  0.00    -0.326 OA
HETATM   18  C14 UNL     1      -0.183  53.819 -28.002  1.00  0.00     0.213 C 
ENDBRANCH  15  17
ENDBRANCH   9  15
ENDBRANCH   1   2
BRANCH   1  19
HETATM   19  C17 UNL     1      -2.197  47.600 -22.159  1.00  0.00     0.042 C 
BRANCH  19  20
HETATM   20  C18 UNL     1      -2.582  47.187 -20.774  1.00  0.00    -0.024 A 
HETATM   21  C19 UNL     1      -2.169  47.748 -19.575  1.00  0.00     0.083 A 
HETATM   22  O5  UNL     1      -2.745  47.093 -18.525  1.00  0.00    -0.324 OA
HETATM   23  C28 UNL     1      -3.519  46.108 -19.044  1.00  0.00     0.143 A 
HETATM   24  C29 UNL     1      -3.457  46.122 -20.416  1.00  0.00     0.034 A 
BRANCH  21  25
HETATM   25  C20 UNL     1      -1.272  48.880 -19.229  1.00  0.00     0.244 C 
BRANCH  25  26
HETATM   26  O3  UNL     1      -1.836  49.544 -18.090  1.00  0.00    -0.311 OA
BRANCH  26  27
HETATM   27  C21 UNL     1      -1.812  50.895 -18.122  1.00  0.00     0.293 C 
HETATM   28  O4  UNL     1      -2.732  51.629 -18.448  1.00  0.00    -0.259 OA
BRANCH  27  29
HETATM   29  C22 UNL     1      -0.478  51.398 -17.689  1.00  0.00     0.039 A 
HETATM   30  C23 UNL     1       0.051  50.920 -16.481  1.00  0.00     0.019 A 
HETATM   31  C24 UNL     1       1.300  51.359 -16.033  1.00  0.00     0.025 A 
HETATM   32  C25 UNL     1       2.024  52.278 -16.793  1.00  0.00     0.034 A 
HETATM   33 CL1  UNL     1       3.562  52.819 -16.243  1.00  0.00    -0.084 Cl
HETATM   34  C26 UNL     1       1.509  52.762 -17.995  1.00  0.00     0.025 A 
HETATM   35  C27 UNL     1       0.259  52.325 -18.444  1.00  0.00     0.019 A 
ENDBRANCH  27  29
ENDBRANCH  26  27
ENDBRANCH  25  26
ENDBRANCH  21  25
ENDBRANCH  19  20
ENDBRANCH   1  19
TORSDOF 9
ENDMDL
