MODEL 1
REMARK minimizedAffinity -9.72588158
REMARK  6 active torsions:
REMARK  status: ('A' for Active; 'I' for Inactive)
REMARK    1  A    between atoms: C2_2  and  C30_31 
REMARK    2  A    between atoms: C3_3  and  C4_4 
REMARK    3  A    between atoms: C4_4  and  C5_5 
REMARK    4  A    between atoms: C5_5  and  C6_6 
REMARK    5  A    between atoms: C6_6  and  C8_8 
REMARK    6  A    between atoms: C30_31  and  O3_33 
ROOT
HETATM    1  C8  UNL     1      -0.602  51.727 -21.085  1.00  0.00    -0.002 C 
HETATM    2  C9  UNL     1      -0.122  50.698 -20.027  1.00  0.00     0.007 C 
HETATM    3  C10 UNL     1      -1.303  49.729 -19.775  1.00  0.00     0.015 C 
HETATM    4  C11 UNL     1      -2.511  50.366 -20.496  1.00  0.00    -0.013 C 
HETATM    5  C12 UNL     1      -3.123  51.397 -19.496  1.00  0.00     0.021 C 
HETATM    6  C13 UNL     1      -3.667  49.468 -20.923  1.00  0.00    -0.070 C 
HETATM    7  C14 UNL     1      -4.032  48.379 -20.222  1.00  0.00    -0.022 C 
HETATM    8  C15 UNL     1      -5.215  47.514 -20.547  1.00  0.00     0.034 C 
HETATM    9  C16 UNL     1      -5.881  47.839 -21.904  1.00  0.00     0.013 C 
HETATM   10  C17 UNL     1      -7.177  47.003 -22.189  1.00  0.00     0.018 C 
HETATM   11  C18 UNL     1      -6.789  45.510 -22.357  1.00  0.00     0.023 C 
HETATM   12  C19 UNL     1      -8.265  47.060 -21.104  1.00  0.00     0.023 C 
HETATM   13  C20 UNL     1      -7.806  47.484 -23.506  1.00  0.00     0.135 C 
HETATM   14  O1  UNL     1      -8.248  46.707 -24.354  1.00  0.00    -0.297 OA
HETATM   15  C21 UNL     1      -7.954  48.975 -23.696  1.00  0.00     0.080 C 
HETATM   16  C22 UNL     1      -6.606  49.657 -23.527  1.00  0.00     0.017 C 
HETATM   17  C23 UNL     1      -5.948  49.395 -22.147  1.00  0.00    -0.031 C 
HETATM   18  C24 UNL     1      -6.735  50.157 -21.054  1.00  0.00     0.016 C 
HETATM   19  C25 UNL     1      -4.442  49.895 -22.178  1.00  0.00     0.024 C 
HETATM   20  C26 UNL     1      -4.248  51.388 -22.544  1.00  0.00     0.010 C 
HETATM   21  C27 UNL     1      -2.793  51.912 -22.495  1.00  0.00     0.011 C 
HETATM   22  C28 UNL     1      -1.810  50.989 -21.750  1.00  0.00    -0.029 C 
HETATM   23  C29 UNL     1      -1.264  49.926 -22.753  1.00  0.00     0.016 C 
ENDROOT
BRANCH   1  24
HETATM   24  C6  UNL     1       0.462  52.353 -22.037  1.00  0.00    -0.014 C 
HETATM   25  C7  UNL     1       1.200  53.588 -21.512  1.00  0.00     0.010 C 
BRANCH  24  26
HETATM   26  C5  UNL     1      -0.133  52.641 -23.442  1.00  0.00     0.008 C 
BRANCH  26  27
HETATM   27  C4  UNL     1       0.884  53.044 -24.512  1.00  0.00     0.028 C 
BRANCH  27  28
HETATM   28  C3  UNL     1       0.397  52.700 -25.894  1.00  0.00    -0.013 C 
HETATM   29  C2  UNL     1       1.041  51.981 -26.838  1.00  0.00     0.008 C 
HETATM   30  C1  UNL     1       0.411  51.650 -28.158  1.00  0.00     0.055 C 
BRANCH  29  31
HETATM   31  C30 UNL     1       2.431  51.508 -26.642  1.00  0.00     0.171 C 
HETATM   32  O2  UNL     1       2.809  50.620 -25.901  1.00  0.00    -0.646 OA
BRANCH  31  33
HETATM   33  O3  UNL     1       3.295  52.207 -27.398  1.00  0.00    -0.773 OA
HETATM   34  H46 UNL     1       4.160  51.791 -27.199  1.00  0.00     0.167 HD
ENDBRANCH  31  33
ENDBRANCH  29  31
ENDBRANCH  27  28
ENDBRANCH  26  27
ENDBRANCH  24  26
ENDBRANCH   1  24
TORSDOF 6
ENDMDL
