MODEL 1
REMARK minimizedAffinity -7.41170263
REMARK CNNscore 0.50415647
REMARK CNNaffinity 6.91186666
REMARK  5 active torsions:
REMARK  status: ('A' for Active; 'I' for Inactive)
REMARK    1  A    between atoms: C2_2  and  C4_4 
REMARK    2  A    between atoms: C7_7  and  C8_8 
REMARK    3  A    between atoms: C8_8  and  O2_10 
REMARK    4  A    between atoms: C22_25  and  C24_27 
REMARK    5  A    between atoms: C24_27  and  O4_28 
ROOT
HETATM    1  C4  UNL     1       5.222  55.368  -8.081  1.00  0.00     0.019 C 
HETATM    2  C5  UNL     1       6.189  55.218  -9.258  1.00  0.00     0.011 C 
HETATM    3  C6  UNL     1       6.686  53.779  -9.180  1.00  0.00     0.021 C 
HETATM    4  C7  UNL     1       5.643  52.968  -8.373  1.00  0.00     0.050 C 
HETATM    5  C9  UNL     1       5.062  51.803  -9.200  1.00  0.00     0.022 C 
HETATM    6  C10 UNL     1       4.175  52.262 -10.357  1.00  0.00     0.011 C 
HETATM    7  C11 UNL     1       2.958  53.147  -9.942  1.00  0.00    -0.032 C 
HETATM    8  C12 UNL     1       2.983  54.374 -10.896  1.00  0.00     0.016 C 
HETATM    9  C13 UNL     1       3.115  53.601  -8.448  1.00  0.00     0.000 C 
HETATM   10  C14 UNL     1       1.969  54.521  -8.006  1.00  0.00     0.006 C 
HETATM   11  C15 UNL     1       0.598  53.855  -8.182  1.00  0.00     0.006 C 
HETATM   12  C16 UNL     1       0.358  53.317  -9.614  1.00  0.00     0.003 C 
HETATM   13  C17 UNL     1      -1.133  52.824  -9.880  1.00  0.00    -0.035 C 
HETATM   14  C18 UNL     1      -1.577  51.723  -8.889  1.00  0.00     0.016 C 
HETATM   15  C19 UNL     1      -2.096  54.041  -9.650  1.00  0.00     0.017 C 
HETATM   16  C20 UNL     1      -3.346  54.077 -10.521  1.00  0.00     0.080 C 
HETATM   17  C21 UNL     1      -3.755  52.727 -11.048  1.00  0.00     0.137 C 
HETATM   18  O3  UNL     1      -4.931  52.365 -10.979  1.00  0.00    -0.297 OA
HETATM   19  C22 UNL     1      -2.705  51.917 -11.816  1.00  0.00     0.042 C 
HETATM   20  C23 UNL     1      -2.963  50.409 -11.610  1.00  0.00     0.026 C 
HETATM   21  C25 UNL     1      -1.265  52.382 -11.382  1.00  0.00     0.012 C 
HETATM   22  C26 UNL     1      -0.164  51.392 -11.805  1.00  0.00     0.007 C 
HETATM   23  C27 UNL     1       1.240  51.951 -11.566  1.00  0.00     0.011 C 
HETATM   24  C28 UNL     1       1.527  52.357 -10.088  1.00  0.00    -0.032 C 
HETATM   25  C29 UNL     1       1.571  51.046  -9.245  1.00  0.00     0.016 C 
HETATM   26  C30 UNL     1       4.537  53.985  -7.921  1.00  0.00     0.017 C 
ENDROOT
BRANCH   4  27
HETATM   27  C8  UNL     1       6.365  52.389  -7.148  1.00  0.00     0.149 C 
HETATM   28  O1  UNL     1       6.191  52.687  -5.976  1.00  0.00    -0.649 OA
BRANCH  27  29
HETATM   29  O2  UNL     1       7.312  51.483  -7.463  1.00  0.00    -0.776 OA
HETATM   30  H11 UNL     1       7.691  51.234  -6.596  1.00  0.00     0.167 HD
ENDBRANCH  27  29
ENDBRANCH   4  27
BRANCH   1  31
HETATM   31  C2  UNL     1       4.392  56.630  -8.002  1.00  0.00    -0.088 C 
HETATM   32  C1  UNL     1       3.711  57.171  -9.022  1.00  0.00     0.014 C 
HETATM   33  C3  UNL     1       4.444  57.342  -6.672  1.00  0.00     0.043 C 
ENDBRANCH   1  31
BRANCH  19  34
HETATM   34  C24 UNL     1      -2.936  52.268 -13.311  1.00  0.00     0.181 C 
BRANCH  34  35
HETATM   35  O4  UNL     1      -3.853  53.343 -13.485  1.00  0.00    -0.400 OA
HETATM   36  H37 UNL     1      -3.530  54.104 -12.957  1.00  0.00     0.209 HD
ENDBRANCH  34  35
ENDBRANCH  19  34
TORSDOF 5
ENDMDL
