MODEL 1
REMARK minimizedAffinity -5.77108049
REMARK CNNscore 0.501316428
REMARK CNNaffinity 6.40209532
REMARK  8 active torsions:
REMARK  status: ('A' for Active; 'I' for Inactive)
REMARK    1  A    between atoms: C12_14  and  C13_15 
REMARK    2  A    between atoms: C13_15  and  C15_17 
REMARK    3  A    between atoms: C15_17  and  C16_18 
REMARK    4  A    between atoms: C16_18  and  C17_20 
REMARK    5  A    between atoms: C26_29  and  C27_30 
REMARK    6  A    between atoms: C27_30  and  C28_31 
REMARK    7  A    between atoms: C28_31  and  C29_32 
REMARK    8  A    between atoms: C29_32  and  O5_34 
ROOT
HETATM    1  C1  UNL     1       6.901  55.146  -2.798  1.00  0.00     0.025 C 
HETATM    2  C2  UNL     1       7.100  55.435  -4.091  1.00  0.00     0.015 C 
HETATM    3  C3  UNL     1       8.432  55.830  -4.590  1.00  0.00     0.289 C 
HETATM    4  O1  UNL     1       9.354  56.271  -3.931  1.00  0.00    -0.260 OA
HETATM    5  O2  UNL     1       8.445  55.588  -5.925  1.00  0.00    -0.311 OA
HETATM    6  C4  UNL     1       7.223  54.929  -6.324  1.00  0.00     0.142 C 
HETATM    7  C5  UNL     1       6.947  55.303  -7.776  1.00  0.00     0.039 C 
HETATM    8  C6  UNL     1       5.540  55.789  -8.139  1.00  0.00     0.006 C 
HETATM    9  C7  UNL     1       4.880  56.663  -7.055  1.00  0.00    -0.027 A 
HETATM   10  C8  UNL     1       3.509  57.214  -7.474  1.00  0.00     0.011 C 
HETATM   11  C9  UNL     1       2.565  56.162  -8.088  1.00  0.00     0.011 C 
HETATM   12  C10 UNL     1       3.248  55.381  -9.226  1.00  0.00    -0.032 C 
HETATM   13  C11 UNL     1       3.533  56.375 -10.399  1.00  0.00     0.016 C 
HETATM   14  C12 UNL     1       2.495  54.144  -9.812  1.00  0.00    -0.002 C 
HETATM   15  C21 UNL     1       3.668  53.310 -10.424  1.00  0.00     0.006 C 
HETATM   16  C22 UNL     1       4.987  53.832  -9.815  1.00  0.00     0.011 C 
HETATM   17  C23 UNL     1       4.543  54.693  -8.624  1.00  0.00    -0.032 C 
HETATM   18  C24 UNL     1       4.254  53.698  -7.457  1.00  0.00     0.016 C 
HETATM   19  C25 UNL     1       5.761  57.650  -6.321  1.00  0.00     0.022 A 
HETATM   20  C26 UNL     1       5.243  56.438  -5.564  1.00  0.00    -0.021 A 
HETATM   21  C31 UNL     1       6.183  55.263  -5.257  1.00  0.00     0.063 C 
ENDROOT
BRANCH  14  22
HETATM   22  C13 UNL     1       1.330  54.339 -10.828  1.00  0.00    -0.007 C 
HETATM   23  C14 UNL     1       0.172  55.152 -10.236  1.00  0.00     0.011 C 
BRANCH  22  24
HETATM   24  C15 UNL     1       0.788  52.966 -11.295  1.00  0.00     0.087 C 
BRANCH  24  25
HETATM   25  C16 UNL     1       0.146  52.154 -10.178  1.00  0.00     0.149 C 
HETATM   26  O3  UNL     1       0.792  51.403  -9.454  1.00  0.00    -0.293 OA
BRANCH  25  27
HETATM   27  C17 UNL     1      -1.318  52.380  -9.970  1.00  0.00     0.052 C 
HETATM   28  C18 UNL     1      -2.313  51.844 -10.703  1.00  0.00    -0.084 C 
HETATM   29  C19 UNL     1      -2.125  50.957 -11.903  1.00  0.00     0.043 C 
HETATM   30  C20 UNL     1      -3.752  52.120 -10.352  1.00  0.00     0.043 C 
ENDBRANCH  25  27
ENDBRANCH  24  25
ENDBRANCH  22  24
ENDBRANCH  14  22
BRANCH  20  31
HETATM   31  C27 UNL     1       4.124  56.588  -4.516  1.00  0.00     0.021 C 
BRANCH  31  32
HETATM   32  C28 UNL     1       3.682  58.008  -4.168  1.00  0.00     0.112 C 
BRANCH  32  33
HETATM   33  C29 UNL     1       2.481  58.068  -3.261  1.00  0.00     0.258 C 
HETATM   34  O4  UNL     1       2.544  57.967  -2.042  1.00  0.00    -0.265 OA
BRANCH  33  35
HETATM   35  O5  UNL     1       1.342  58.294  -3.971  1.00  0.00    -0.326 OA
HETATM   36  C30 UNL     1       0.450  57.178  -3.996  1.00  0.00     0.213 C 
ENDBRANCH  33  35
ENDBRANCH  32  33
ENDBRANCH  31  32
ENDBRANCH  20  31
TORSDOF 8
ENDMDL
