MODEL 1
REMARK minimizedAffinity -9.84366035
REMARK  8 active torsions:
REMARK  status: ('A' for Active; 'I' for Inactive)
REMARK    1  A    between atoms: C4_4  and  C5_5 
REMARK    2  A    between atoms: C5_5  and  C6_6 
REMARK    3  A    between atoms: C6_6  and  C7_7 
REMARK    4  A    between atoms: C7_7  and  C9_9 
REMARK    5  A    between atoms: C15_15  and  O1_16 
REMARK    6  A    between atoms: C18_19  and  C20_21 
REMARK    7  A    between atoms: C20_21  and  O3_23 
REMARK    8  A    between atoms: C21_24  and  O4_25 
ROOT
HETATM    1  C9  UNL     1      -1.508  49.193 -18.199  1.00  0.00    -0.002 C 
HETATM    2  C10 UNL     1      -2.781  48.350 -18.466  1.00  0.00     0.006 C 
HETATM    3  C11 UNL     1      -3.100  48.438 -19.968  1.00  0.00     0.011 C 
HETATM    4  C12 UNL     1      -1.868  49.104 -20.610  1.00  0.00    -0.030 C 
HETATM    5  C13 UNL     1      -0.847  47.958 -20.888  1.00  0.00     0.016 C 
HETATM    6  C14 UNL     1      -2.156  49.898 -21.922  1.00  0.00     0.032 C 
HETATM    7  C15 UNL     1      -2.473  49.038 -23.163  1.00  0.00     0.124 C 
HETATM    8  C16 UNL     1      -2.815  49.936 -24.354  1.00  0.00     0.039 C 
HETATM    9  C17 UNL     1      -1.575  50.705 -24.831  1.00  0.00     0.018 C 
HETATM   10  C18 UNL     1      -1.826  51.689 -26.029  1.00  0.00     0.072 C 
HETATM   11  C19 UNL     1      -3.142  52.487 -25.915  1.00  0.00     0.030 C 
HETATM   12  C21 UNL     1      -0.622  52.679 -26.210  1.00  0.00     0.137 C 
HETATM   13  C22 UNL     1       0.677  52.109 -25.636  1.00  0.00     0.034 C 
HETATM   14  C23 UNL     1       0.575  51.857 -24.130  1.00  0.00     0.013 C 
HETATM   15  C24 UNL     1      -0.816  51.392 -23.697  1.00  0.00    -0.026 A 
HETATM   16  C25 UNL     1      -1.546  52.285 -22.724  1.00  0.00     0.021 A 
HETATM   17  C26 UNL     1      -1.046  50.940 -22.228  1.00  0.00    -0.025 A 
HETATM   18  C27 UNL     1       0.176  50.941 -21.312  1.00  0.00     0.011 C 
HETATM   19  C28 UNL     1      -0.066  50.687 -19.816  1.00  0.00     0.011 C 
HETATM   20  C29 UNL     1      -1.445  50.106 -19.471  1.00  0.00    -0.032 C 
HETATM   21  C30 UNL     1      -2.434  51.298 -19.288  1.00  0.00     0.016 C 
ENDROOT
BRANCH   1  22
HETATM   22  C7  UNL     1      -1.482  49.826 -16.772  1.00  0.00    -0.014 C 
HETATM   23  C8  UNL     1      -2.888  50.224 -16.297  1.00  0.00     0.010 C 
BRANCH  22  24
HETATM   24  C6  UNL     1      -0.600  51.107 -16.707  1.00  0.00     0.008 C 
BRANCH  24  25
HETATM   25  C5  UNL     1       0.528  51.065 -15.669  1.00  0.00     0.028 C 
BRANCH  25  26
HETATM   26  C4  UNL     1       1.744  51.803 -16.166  1.00  0.00    -0.025 C 
HETATM   27  C2  UNL     1       2.954  51.878 -15.578  1.00  0.00    -0.091 C 
HETATM   28  C1  UNL     1       4.064  52.682 -16.199  1.00  0.00     0.042 C 
HETATM   29  C3  UNL     1       3.335  51.187 -14.297  1.00  0.00     0.042 C 
ENDBRANCH  25  26
ENDBRANCH  24  25
ENDBRANCH  22  24
ENDBRANCH   1  22
BRANCH   7  30
HETATM   30  O1  UNL     1      -3.601  48.202 -22.906  1.00  0.00    -0.395 OA
HETATM   31  H26 UNL     1      -3.738  47.649 -23.692  1.00  0.00     0.210 HD
ENDBRANCH   7  30
BRANCH  10  32
HETATM   32  C20 UNL     1      -1.865  50.832 -27.299  1.00  0.00     0.151 C 
HETATM   33  O2  UNL     1      -2.541  49.829 -27.475  1.00  0.00    -0.649 OA
BRANCH  32  34
HETATM   34  O3  UNL     1      -1.100  51.290 -28.307  1.00  0.00    -0.776 OA
HETATM   35  H33 UNL     1      -1.236  50.639 -29.028  1.00  0.00     0.167 HD
ENDBRANCH  32  34
ENDBRANCH  10  32
BRANCH  12  36
HETATM   36  O4  UNL     1      -0.842  53.946 -25.579  1.00  0.00    -0.394 OA
HETATM   37  H35 UNL     1      -1.432  54.470 -26.146  1.00  0.00     0.210 HD
ENDBRANCH  12  36
TORSDOF 8
ENDMDL
