MODEL 1
REMARK minimizedAffinity -8.89279366
REMARK CNNscore 0.666752875
REMARK CNNaffinity 7.36477089
REMARK  14 active torsions:
REMARK  status: ('A' for Active; 'I' for Inactive)
REMARK    1  A    between atoms: O1_2  and  C2_3 
REMARK    2  A    between atoms: C2_3  and  C3_5 
REMARK    3  A    between atoms: C3_5  and  C4_6 
REMARK    4  A    between atoms: C3_5  and  N2_16 
REMARK    5  A    between atoms: C4_6  and  C5_7 
REMARK       I    between atoms: N2_16  and  C13_17 
REMARK    6  A    between atoms: C13_17  and  C14_19 
REMARK    7  A    between atoms: C14_19  and  C15_20 
REMARK    8  A    between atoms: C15_20  and  C16_21 
REMARK    9  A    between atoms: C16_21  and  O5_23 
REMARK   10  A    between atoms: O5_23  and  C17_24 
REMARK   11  A    between atoms: C17_24  and  C18_25 
REMARK   12  A    between atoms: C18_25  and  C19_27 
REMARK   13  A    between atoms: C19_27  and  O7_28 
REMARK   14  A    between atoms: C34_44  and  O9_45 
ROOT
HETATM    1  C17 UNL     1      -5.988   5.826  14.943  1.00  0.00     0.260 C 
ENDROOT
BRANCH   1   2
HETATM    2  O5  UNL     1      -7.380   5.916  14.654  1.00  0.00    -0.314 OA
BRANCH   2   3
HETATM    3  C16 UNL     1      -7.761   5.436  13.437  1.00  0.00     0.259 C 
HETATM    4  O4  UNL     1      -7.116   4.656  12.751  1.00  0.00    -0.265 OA
BRANCH   3   5
HETATM    5  C15 UNL     1      -9.122   5.955  13.060  1.00  0.00     0.120 C 
BRANCH   5   6
HETATM    6  C14 UNL     1      -9.671   6.910  14.108  1.00  0.00     0.112 C 
BRANCH   6   7
HETATM    7  C13 UNL     1     -11.150   7.158  13.905  1.00  0.00     0.218 C 
HETATM    8  N2  UNL     1     -11.836   7.326  15.083  1.00  0.00    -0.347 N 
HETATM    9  H13 UNL     1     -11.369   7.187  15.971  1.00  0.00     0.163 HD
HETATM   10  O3  UNL     1     -11.685   7.200  12.805  1.00  0.00    -0.274 OA
BRANCH   8  11
HETATM   11  C3  UNL     1     -13.300   7.518  15.123  1.00  0.00     0.188 C 
BRANCH  11  12
HETATM   12  C2  UNL     1     -13.665   8.922  14.594  1.00  0.00     0.281 C 
HETATM   13  O2  UNL     1     -13.306   9.983  15.080  1.00  0.00    -0.263 OA
BRANCH  12  14
HETATM   14  O1  UNL     1     -14.470   8.832  13.487  1.00  0.00    -0.325 OA
HETATM   15  C1  UNL     1     -14.057   9.666  12.402  1.00  0.00     0.213 C 
ENDBRANCH  12  14
ENDBRANCH  11  12
BRANCH  11  16
HETATM   16  C4  UNL     1     -14.005   6.436  14.291  1.00  0.00     0.076 C 
BRANCH  16  17
HETATM   17  C5  UNL     1     -15.180   5.816  14.985  1.00  0.00    -0.028 A 
HETATM   18  C6  UNL     1     -16.178   6.483  15.669  1.00  0.00     0.096 A 
HETATM   19  N1  UNL     1     -17.056   5.557  16.161  1.00  0.00    -0.365 N 
HETATM   20  C7  UNL     1     -16.661   4.289  15.806  1.00  0.00     0.042 A 
HETATM   21  H8  UNL     1     -17.875   5.767  16.713  1.00  0.00     0.165 HD
HETATM   22  C8  UNL     1     -17.251   3.050  16.085  1.00  0.00     0.030 A 
HETATM   23  C12 UNL     1     -15.485   4.418  15.066  1.00  0.00    -0.002 A 
HETATM   24  C9  UNL     1     -16.619   1.908  15.586  1.00  0.00     0.002 A 
HETATM   25  C10 UNL     1     -15.446   2.002  14.843  1.00  0.00     0.001 A 
HETATM   26  C11 UNL     1     -14.867   3.248  14.578  1.00  0.00     0.014 A 
ENDBRANCH  16  17
ENDBRANCH  11  16
ENDBRANCH   8  11
ENDBRANCH   6   7
ENDBRANCH   5   6
ENDBRANCH   3   5
ENDBRANCH   2   3
ENDBRANCH   1   2
BRANCH   1  27
HETATM   27  C18 UNL     1      -5.247   7.165  14.959  1.00  0.00     0.185 C 
HETATM   28  O6  UNL     1      -5.894   8.212  14.850  1.00  0.00    -0.292 OA
BRANCH  27  29
HETATM   29  C19 UNL     1      -3.702   7.179  15.174  1.00  0.00     0.128 C 
HETATM   30  C20 UNL     1      -3.201   5.740  15.388  1.00  0.00     0.047 C 
HETATM   31  C21 UNL     1      -3.004   5.175  13.994  1.00  0.00     0.009 C 
HETATM   32  C22 UNL     1      -2.606   6.363  13.099  1.00  0.00     0.002 C 
HETATM   33  C23 UNL     1      -1.161   6.186  12.559  1.00  0.00    -0.002 C 
HETATM   34  C36 UNL     1      -2.839   7.656  13.947  1.00  0.00     0.001 C 
HETATM   35  C24 UNL     1      -1.123   5.147  11.440  1.00  0.00     0.010 C 
HETATM   36  C33 UNL     1      -0.569   7.533  12.083  1.00  0.00     0.031 C 
HETATM   37  C25 UNL     1       0.313   4.803  11.067  1.00  0.00     0.035 C 
HETATM   38  C26 UNL     1       1.270   5.970  11.088  1.00  0.00    -0.068 C 
HETATM   39  C27 UNL     1       2.589   5.697  11.028  1.00  0.00     0.053 C 
HETATM   40  C31 UNL     1       0.703   7.395  11.117  1.00  0.00    -0.014 C 
HETATM   41  C28 UNL     1       3.612   6.756  10.890  1.00  0.00     0.149 C 
HETATM   42  O8  UNL     1       4.800   6.447  10.859  1.00  0.00    -0.293 OA
HETATM   43  C29 UNL     1       3.140   8.174  10.705  1.00  0.00     0.084 C 
HETATM   44  C30 UNL     1       1.844   8.398  11.476  1.00  0.00     0.022 C 
HETATM   45  C32 UNL     1       0.236   7.722   9.671  1.00  0.00     0.020 C 
HETATM   46  C34 UNL     1      -0.407   8.436  13.330  1.00  0.00     0.124 C 
HETATM   47  C35 UNL     1      -1.479   8.242  14.421  1.00  0.00     0.045 C 
HETATM   48  C37 UNL     1      -3.570   8.723  13.111  1.00  0.00     0.019 C 
BRANCH  29  49
HETATM   49  O7  UNL     1      -3.384   7.917  16.350  1.00  0.00    -0.381 OA
HETATM   50  H20 UNL     1      -3.624   7.364  17.118  1.00  0.00     0.211 HD
ENDBRANCH  29  49
BRANCH  46  51
HETATM   51  O9  UNL     1      -0.354   9.805  12.935  1.00  0.00    -0.395 OA
HETATM   52  H41 UNL     1      -1.260  10.139  12.831  1.00  0.00     0.210 HD
ENDBRANCH  46  51
ENDBRANCH  27  29
ENDBRANCH   1  27
TORSDOF 14
ENDMDL
