MODEL 1
REMARK minimizedAffinity -6.69822311
REMARK CNNscore 0.554137051
REMARK CNNaffinity 6.49387407
REMARK  13 active torsions:
REMARK  status: ('A' for Active; 'I' for Inactive)
REMARK    1  A    between atoms: C2_2  and  C3_3 
REMARK    2  A    between atoms: C2_2  and  C14_14 
REMARK    3  A    between atoms: C4_4  and  C5_5 
REMARK    4  A    between atoms: C6_6  and  C8_8 
REMARK    5  A    between atoms: C8_8  and  C9_9 
REMARK    6  A    between atoms: C9_9  and  C10_10 
REMARK    7  A    between atoms: C18_18  and  C19_19 
REMARK    8  A    between atoms: C19_19  and  C20_20 
REMARK    9  A    between atoms: C20_20  and  C21_21 
REMARK   10  A    between atoms: C21_21  and  O1_22 
REMARK   11  A    between atoms: C23_24  and  C25_26 
REMARK   12  A    between atoms: C28_30  and  O3_32 
REMARK   13  A    between atoms: C30_33  and  O4_34 
ROOT
HETATM    1  C14 UNL     1      -8.995  47.160 -24.635  1.00  0.00     0.047 C 
HETATM    2  C15 UNL     1      -9.988  46.084 -24.174  1.00  0.00     0.013 C 
HETATM    3  C16 UNL     1     -11.139  46.274 -25.155  1.00  0.00     0.017 C 
HETATM    4  C17 UNL     1     -10.488  46.566 -26.550  1.00  0.00     0.024 C 
HETATM    5  C18 UNL     1     -10.638  45.346 -27.561  1.00  0.00     0.029 C 
HETATM    6  C22 UNL     1     -10.070  45.714 -28.963  1.00  0.00    -0.066 C 
HETATM    7  C23 UNL     1      -9.067  45.151 -29.691  1.00  0.00    -0.021 C 
HETATM    8  C24 UNL     1      -8.758  45.506 -31.128  1.00  0.00     0.052 C 
HETATM    9  C26 UNL     1     -10.827  46.911 -29.529  1.00  0.00     0.038 C 
HETATM   10  C27 UNL     1     -10.678  48.115 -28.608  1.00  0.00     0.042 C 
HETATM   11  C28 UNL     1     -11.194  47.844 -27.182  1.00  0.00     0.065 C 
HETATM   12  C29 UNL     1     -12.739  47.762 -27.209  1.00  0.00     0.047 C 
HETATM   13  C30 UNL     1      -8.993  46.911 -26.168  1.00  0.00     0.138 C 
ENDROOT
BRANCH   5  14
HETATM   14  C19 UNL     1     -10.350  43.936 -26.969  1.00  0.00     0.012 C 
BRANCH  14  15
HETATM   15  C20 UNL     1      -8.898  43.755 -26.489  1.00  0.00     0.027 C 
BRANCH  15  16
HETATM   16  C21 UNL     1      -8.759  42.627 -25.470  1.00  0.00     0.164 C 
BRANCH  16  17
HETATM   17  O1  UNL     1      -7.956  43.011 -24.363  1.00  0.00    -0.401 OA
HETATM   18  H32 UNL     1      -8.409  43.746 -23.918  1.00  0.00     0.209 HD
ENDBRANCH  16  17
ENDBRANCH  15  16
ENDBRANCH  14  15
ENDBRANCH   5  14
BRANCH  11  19
HETATM   19  O3  UNL     1     -10.880  49.005 -26.392  1.00  0.00    -0.389 OA
HETATM   20  H44 UNL     1     -11.279  49.780 -26.827  1.00  0.00     0.210 HD
ENDBRANCH  11  19
BRANCH  13  21
HETATM   21  O4  UNL     1      -8.103  45.847 -26.497  1.00  0.00    -0.394 OA
HETATM   22  H46 UNL     1      -7.242  46.055 -26.091  1.00  0.00     0.210 HD
ENDBRANCH  13  21
BRANCH   1  23
HETATM   23  C2  UNL     1      -7.629  47.194 -23.951  1.00  0.00    -0.061 C 
HETATM   24  C1  UNL     1      -7.231  46.261 -23.067  1.00  0.00     0.019 C 
BRANCH  23  25
HETATM   25  C3  UNL     1      -6.705  48.288 -24.249  1.00  0.00     0.007 C 
HETATM   26  C4  UNL     1      -5.542  48.211 -24.916  1.00  0.00     0.001 C 
BRANCH  26  27
HETATM   27  C5  UNL     1      -4.674  49.360 -25.094  1.00  0.00     0.002 C 
HETATM   28  C6  UNL     1      -3.680  49.484 -25.994  1.00  0.00    -0.084 C 
HETATM   29  C7  UNL     1      -3.325  48.457 -27.038  1.00  0.00     0.043 C 
BRANCH  28  30
HETATM   30  C8  UNL     1      -2.824  50.740 -26.010  1.00  0.00     0.037 C 
BRANCH  30  31
HETATM   31  C9  UNL     1      -1.453  50.528 -25.362  1.00  0.00     0.031 C 
BRANCH  31  32
HETATM   32  C10 UNL     1      -0.330  50.740 -26.342  1.00  0.00    -0.024 C 
HETATM   33  C11 UNL     1       0.717  51.577 -26.208  1.00  0.00    -0.091 C 
HETATM   34  C12 UNL     1       0.981  52.432 -24.998  1.00  0.00     0.042 C 
HETATM   35  C13 UNL     1       1.744  51.709 -27.296  1.00  0.00     0.042 C 
ENDBRANCH  31  32
ENDBRANCH  30  31
ENDBRANCH  28  30
ENDBRANCH  26  27
ENDBRANCH  23  25
ENDBRANCH   1  23
BRANCH   7  36
HETATM   36  C25 UNL     1      -8.120  44.122 -29.168  1.00  0.00     0.265 C 
HETATM   37  O2  UNL     1      -6.918  44.122 -29.424  1.00  0.00    -0.302 OA
ENDBRANCH   7  36
TORSDOF 13
ENDMDL
