MODEL 1
REMARK minimizedAffinity -7.50188208
REMARK CNNscore 0.730562747
REMARK CNNaffinity 6.99285173
REMARK  13 active torsions:
REMARK  status: ('A' for Active; 'I' for Inactive)
REMARK    1  A    between atoms: O1_2  and  C2_3 
REMARK    2  A    between atoms: C2_3  and  C3_4 
REMARK    3  A    between atoms: C3_4  and  C4_5 
REMARK    4  A    between atoms: C4_5  and  O2_6 
REMARK    5  A    between atoms: O2_6  and  C5_7 
REMARK    6  A    between atoms: C20_23  and  C21_24 
REMARK    7  A    between atoms: C21_24  and  O4_26 
REMARK    8  A    between atoms: C21_24  and  C23_27 
REMARK    9  A    between atoms: C23_27  and  O5_28 
REMARK   10  A    between atoms: C23_27  and  C24_29 
REMARK   11  A    between atoms: C25_31  and  C26_32 
REMARK   12  A    between atoms: C26_32  and  O7_33 
REMARK   13  A    between atoms: C35_42  and  O8_43 
ROOT
HETATM    1  C5  UNL     1      -2.220  13.930  17.884  1.00  0.00     0.122 C 
HETATM    2  C6  UNL     1      -1.009  14.239  17.001  1.00  0.00     0.033 C 
HETATM    3  C7  UNL     1      -0.770  13.154  15.948  1.00  0.00     0.013 C 
HETATM    4  C8  UNL     1      -0.615  11.718  16.534  1.00  0.00    -0.026 C 
HETATM    5  C9  UNL     1       0.653  11.696  17.429  1.00  0.00     0.016 C 
HETATM    6  C10 UNL     1      -1.869  11.423  17.414  1.00  0.00     0.071 C 
HETATM    7  C11 UNL     1      -2.133  12.511  18.467  1.00  0.00     0.045 C 
HETATM    8  C12 UNL     1      -3.129  11.197  16.574  1.00  0.00     0.161 C 
HETATM    9  O3  UNL     1      -4.225  11.682  16.847  1.00  0.00    -0.292 OA
HETATM   10  C13 UNL     1      -3.014  10.259  15.432  1.00  0.00    -0.006 C 
HETATM   11  C14 UNL     1      -1.783   9.973  14.976  1.00  0.00    -0.030 C 
HETATM   12  C15 UNL     1      -0.484  10.691  15.327  1.00  0.00     0.027 C 
HETATM   13  C16 UNL     1       0.739   9.722  15.364  1.00  0.00     0.011 C 
HETATM   14  C17 UNL     1       0.802   8.704  14.193  1.00  0.00     0.014 C 
HETATM   15  C18 UNL     1      -0.506   7.897  14.118  1.00  0.00    -0.002 C 
HETATM   16  C19 UNL     1      -0.641   7.083  15.435  1.00  0.00     0.019 C 
HETATM   17  C20 UNL     1      -0.772   7.018  12.833  1.00  0.00     0.034 C 
HETATM   18  C31 UNL     1      -2.349   6.976  12.726  1.00  0.00     0.016 C 
HETATM   19  C32 UNL     1      -2.846   7.988  13.774  1.00  0.00     0.026 C 
HETATM   20  C33 UNL     1      -4.110   8.802  13.580  1.00  0.00     0.013 C 
HETATM   21  C34 UNL     1      -4.296   9.689  14.844  1.00  0.00     0.043 C 
HETATM   22  C35 UNL     1      -1.650   8.924  13.926  1.00  0.00     0.094 C 
ENDROOT
BRANCH  17  23
HETATM   23  C21 UNL     1       0.007   5.678  12.572  1.00  0.00     0.087 C 
HETATM   24  C22 UNL     1      -0.879   4.425  12.553  1.00  0.00     0.049 C 
BRANCH  23  25
HETATM   25  O4  UNL     1       0.927   5.511  13.670  1.00  0.00    -0.387 OA
HETATM   26  H33 UNL     1       1.395   6.355  13.797  1.00  0.00     0.210 HD
ENDBRANCH  23  25
BRANCH  23  27
HETATM   27  C23 UNL     1       0.841   5.812  11.232  1.00  0.00     0.181 C 
BRANCH  27  28
HETATM   28  O5  UNL     1       1.525   4.587  10.940  1.00  0.00    -0.390 OA
HETATM   29  H35 UNL     1       2.315   4.604  11.517  1.00  0.00     0.210 HD
ENDBRANCH  27  28
BRANCH  27  30
HETATM   30  C24 UNL     1       1.863   6.984  11.181  1.00  0.00     0.158 C 
HETATM   31  O6  UNL     1       3.197   6.438  11.000  1.00  0.00    -0.375 OA
HETATM   32  C25 UNL     1       3.824   7.008   9.831  1.00  0.00     0.149 C 
HETATM   33  C27 UNL     1       2.675   7.571   8.996  1.00  0.00     0.019 C 
HETATM   34  C28 UNL     1       3.070   8.641   7.986  1.00  0.00     0.013 C 
HETATM   35  C29 UNL     1       1.677   8.021  10.053  1.00  0.00     0.019 C 
HETATM   36  C30 UNL     1       0.259   8.216   9.527  1.00  0.00     0.013 C 
BRANCH  32  37
HETATM   37  C26 UNL     1       4.925   7.983  10.286  1.00  0.00     0.196 C 
BRANCH  37  38
HETATM   38  O7  UNL     1       5.285   7.788  11.651  1.00  0.00    -0.398 OA
HETATM   39  H40 UNL     1       5.689   6.899  11.689  1.00  0.00     0.209 HD
ENDBRANCH  37  38
ENDBRANCH  32  37
ENDBRANCH  27  30
ENDBRANCH  23  27
ENDBRANCH  17  23
BRANCH  22  40
HETATM   40  O8  UNL     1      -1.452   9.648  12.693  1.00  0.00    -0.384 OA
HETATM   41  H56 UNL     1      -1.964  10.477  12.741  1.00  0.00     0.211 HD
ENDBRANCH  22  40
BRANCH   1  42
HETATM   42  O2  UNL     1      -2.269  14.816  19.007  1.00  0.00    -0.386 OA
BRANCH  42  43
HETATM   43  C4  UNL     1      -1.160  15.701  19.142  1.00  0.00     0.170 C 
BRANCH  43  44
HETATM   44  C3  UNL     1      -0.975  16.135  20.594  1.00  0.00     0.052 C 
BRANCH  44  45
HETATM   45  C2  UNL     1      -2.263  16.610  21.265  1.00  0.00     0.169 C 
BRANCH  45  46
HETATM   46  O1  UNL     1      -2.703  15.702  22.277  1.00  0.00    -0.396 OA
HETATM   47  C1  UNL     1      -4.104  15.761  22.516  1.00  0.00     0.201 C 
ENDBRANCH  45  46
ENDBRANCH  44  45
ENDBRANCH  43  44
ENDBRANCH  42  43
ENDBRANCH   1  42
TORSDOF 13
ENDMDL
