MODEL 1
REMARK minimizedAffinity -6.90150642
REMARK CNNscore 0.531028926
REMARK CNNaffinity 6.73872566
REMARK  12 active torsions:
REMARK  status: ('A' for Active; 'I' for Inactive)
REMARK    1  A    between atoms: C2_2  and  C34_40 
REMARK    2  A    between atoms: C3_3  and  C4_4 
REMARK    3  A    between atoms: C4_4  and  O1_5 
REMARK    4  A    between atoms: C4_4  and  C5_6 
REMARK    5  A    between atoms: C5_6  and  C6_7 
REMARK    6  A    between atoms: C6_7  and  C8_9 
REMARK    7  A    between atoms: C10_11  and  O2_12 
REMARK    8  A    between atoms: C11_13  and  C12_14 
REMARK    9  A    between atoms: C12_14  and  C13_15 
REMARK   10  A    between atoms: C13_15  and  O3_16 
REMARK   11  A    between atoms: C33_38  and  O6_39 
REMARK   12  A    between atoms: C34_40  and  O8_42 
ROOT
HETATM    1  C8  UNL     1      -2.431  15.798   4.461  1.00  0.00     0.002 C 
HETATM    2  C9  UNL     1      -3.233  15.945   3.127  1.00  0.00     0.038 C 
HETATM    3  C10 UNL     1      -2.235  15.691   1.978  1.00  0.00     0.132 C 
HETATM    4  C11 UNL     1      -0.998  15.041   2.656  1.00  0.00     0.022 C 
HETATM    5  C14 UNL     1       0.364  15.117   1.942  1.00  0.00    -0.029 C 
HETATM    6  C15 UNL     1       1.523  15.180   2.654  1.00  0.00     0.003 C 
HETATM    7  C16 UNL     1       1.435  15.107   4.176  1.00  0.00     0.157 C 
HETATM    8  O4  UNL     1       2.418  14.811   4.854  1.00  0.00    -0.293 OA
HETATM    9  C17 UNL     1       0.133  15.425   4.890  1.00  0.00     0.094 C 
HETATM   10  C18 UNL     1      -0.948  15.970   3.956  1.00  0.00    -0.015 C 
HETATM   11  C19 UNL     1      -0.728  17.542   3.764  1.00  0.00     0.011 C 
HETATM   12  C20 UNL     1       0.371  18.107   2.857  1.00  0.00     0.001 C 
HETATM   13  C21 UNL     1       1.744  18.247   3.517  1.00  0.00     0.000 C 
HETATM   14  C22 UNL     1       2.889  18.030   2.528  1.00  0.00     0.001 C 
HETATM   15  C23 UNL     1       3.606  16.668   2.630  1.00  0.00     0.015 C 
HETATM   16  C24 UNL     1       2.935  15.373   2.030  1.00  0.00    -0.004 C 
HETATM   17  C25 UNL     1       3.828  14.128   2.332  1.00  0.00     0.022 C 
HETATM   18  C26 UNL     1       5.284  14.290   1.892  1.00  0.00     0.080 C 
HETATM   19  C27 UNL     1       5.434  15.129   0.647  1.00  0.00     0.135 C 
HETATM   20  O5  UNL     1       6.505  15.680   0.399  1.00  0.00    -0.297 OA
HETATM   21  C28 UNL     1       4.244  15.171  -0.313  1.00  0.00     0.018 C 
HETATM   22  C29 UNL     1       4.475  16.262  -1.381  1.00  0.00     0.023 C 
HETATM   23  C30 UNL     1       4.283  13.808  -1.040  1.00  0.00     0.023 C 
HETATM   24  C31 UNL     1       2.887  15.501   0.444  1.00  0.00     0.017 C 
HETATM   25  C32 UNL     1       1.726  14.686  -0.140  1.00  0.00     0.043 C 
HETATM   26  C33 UNL     1       0.379  15.096   0.428  1.00  0.00     0.149 C 
ENDROOT
BRANCH   1  27
HETATM   27  C6  UNL     1      -2.999  16.675   5.624  1.00  0.00    -0.011 C 
HETATM   28  C7  UNL     1      -2.899  15.952   6.973  1.00  0.00     0.010 C 
BRANCH  27  29
HETATM   29  C5  UNL     1      -4.469  17.086   5.286  1.00  0.00     0.040 C 
BRANCH  29  30
HETATM   30  C4  UNL     1      -4.909  18.480   5.773  1.00  0.00     0.142 C 
BRANCH  30  31
HETATM   31  C3  UNL     1      -5.372  18.485   7.205  1.00  0.00     0.018 C 
HETATM   32  C2  UNL     1      -6.595  18.191   7.693  1.00  0.00     0.010 C 
HETATM   33  C1  UNL     1      -7.785  17.749   6.889  1.00  0.00     0.055 C 
BRANCH  32  34
HETATM   34  C34 UNL     1      -6.878  18.302   9.149  1.00  0.00     0.171 C 
HETATM   35  O7  UNL     1      -7.971  18.190   9.668  1.00  0.00    -0.646 OA
BRANCH  34  36
HETATM   36  O8  UNL     1      -5.785  18.551   9.892  1.00  0.00    -0.773 OA
HETATM   37  H50 UNL     1      -6.139  18.606  10.803  1.00  0.00     0.167 HD
ENDBRANCH  34  36
ENDBRANCH  32  34
ENDBRANCH  30  31
BRANCH  30  38
HETATM   38  O1  UNL     1      -3.823  19.388   5.636  1.00  0.00    -0.392 OA
HETATM   39  H6  UNL     1      -4.048  20.201   6.120  1.00  0.00     0.210 HD
ENDBRANCH  30  38
ENDBRANCH  29  30
ENDBRANCH  27  29
ENDBRANCH   1  27
BRANCH   3  40
HETATM   40  O2  UNL     1      -2.811  14.920   0.932  1.00  0.00    -0.394 OA
HETATM   41  H17 UNL     1      -3.692  15.299   0.734  1.00  0.00     0.210 HD
ENDBRANCH   3  40
BRANCH   4  42
HETATM   42  C12 UNL     1      -1.167  13.467   2.933  1.00  0.00     0.043 C 
BRANCH  42  43
HETATM   43  C13 UNL     1      -0.036  12.452   2.718  1.00  0.00     0.165 C 
BRANCH  43  44
HETATM   44  O3  UNL     1      -0.505  11.170   2.340  1.00  0.00    -0.401 OA
HETATM   45  H22 UNL     1      -1.306  10.986   2.867  1.00  0.00     0.209 HD
ENDBRANCH  43  44
ENDBRANCH  42  43
ENDBRANCH   4  42
BRANCH  26  46
HETATM   46  O6  UNL     1      -0.526  14.136  -0.096  1.00  0.00    -0.391 OA
HETATM   47  H49 UNL     1      -1.432  14.450   0.092  1.00  0.00     0.210 HD
ENDBRANCH  26  46
TORSDOF 12
ENDMDL
