MODEL 1
REMARK minimizedAffinity -6.80230141
REMARK CNNscore 0.655561686
REMARK CNNaffinity 6.50931358
REMARK  7 active torsions:
REMARK  status: ('A' for Active; 'I' for Inactive)
REMARK    1  A    between atoms: C7_7  and  O1_8 
REMARK    2  A    between atoms: C19_21  and  O3_22 
REMARK    3  A    between atoms: C20_23  and  C22_25 
REMARK    4  A    between atoms: C22_25  and  O4_26 
REMARK    5  A    between atoms: C22_25  and  C23_27 
REMARK    6  A    between atoms: C23_27  and  O5_28 
REMARK    7  A    between atoms: C32_37  and  O6_38 
ROOT
HETATM    1  C1  UNL     1     -11.949  -5.272  14.553  1.00  0.00     0.015 C 
HETATM    2  C2  UNL     1     -13.417  -5.657  14.865  1.00  0.00    -0.043 C 
HETATM    3  C3  UNL     1     -13.380  -6.517  16.190  1.00  0.00     0.010 C 
HETATM    4  C4  UNL     1     -14.682  -7.193  16.709  1.00  0.00     0.012 C 
HETATM    5  C5  UNL     1     -15.872  -6.758  15.978  1.00  0.00     0.082 C 
HETATM    6  C6  UNL     1     -16.540  -6.215  15.140  1.00  0.00    -0.151 C 
HETATM    7  C7  UNL     1     -17.016  -5.372  14.033  1.00  0.00     0.196 C 
HETATM    8  C8  UNL     1     -15.834  -4.729  13.164  1.00  0.00     0.037 C 
HETATM    9  C9  UNL     1     -14.952  -3.692  13.962  1.00  0.00     0.031 C 
HETATM   10  C10 UNL     1     -14.181  -4.334  15.136  1.00  0.00     0.019 C 
HETATM   11  C11 UNL     1     -15.662  -2.360  14.353  1.00  0.00    -0.062 C 
HETATM   12  C12 UNL     1     -15.547  -1.817  15.584  1.00  0.00     0.054 C 
HETATM   13  C13 UNL     1     -16.068  -0.472  15.951  1.00  0.00     0.155 C 
HETATM   14  O2  UNL     1     -16.011  -0.129  17.130  1.00  0.00    -0.293 OA
HETATM   15  C14 UNL     1     -16.585   0.422  14.817  1.00  0.00     0.077 C 
HETATM   16  C15 UNL     1     -17.214   1.811  15.267  1.00  0.00    -0.028 C 
HETATM   17  C16 UNL     1     -18.252   1.621  16.423  1.00  0.00     0.016 C 
HETATM   18  C17 UNL     1     -16.041   2.692  15.831  1.00  0.00     0.013 C 
HETATM   19  C18 UNL     1     -15.311   3.486  14.760  1.00  0.00     0.033 C 
HETATM   20  C19 UNL     1     -16.212   4.522  14.090  1.00  0.00     0.129 C 
HETATM   21  C20 UNL     1     -17.724   4.144  14.010  1.00  0.00     0.014 C 
HETATM   22  C21 UNL     1     -18.531   4.722  15.213  1.00  0.00     0.021 C 
HETATM   23  C24 UNL     1     -17.914   2.548  14.031  1.00  0.00     0.008 C 
HETATM   24  C25 UNL     1     -17.574   1.845  12.701  1.00  0.00     0.007 C 
HETATM   25  C26 UNL     1     -18.036   0.391  12.711  1.00  0.00     0.011 C 
HETATM   26  C27 UNL     1     -17.417  -0.471  13.838  1.00  0.00    -0.021 C 
HETATM   27  C28 UNL     1     -18.621  -1.100  14.602  1.00  0.00     0.017 C 
HETATM   28  C29 UNL     1     -16.433  -1.625  13.235  1.00  0.00    -0.010 C 
HETATM   29  C30 UNL     1     -15.346  -0.996  12.305  1.00  0.00     0.021 C 
HETATM   30  C31 UNL     1     -17.250  -2.634  12.391  1.00  0.00     0.047 C 
HETATM   31  C32 UNL     1     -16.502  -3.907  11.989  1.00  0.00     0.132 C 
HETATM   32  C33 UNL     1     -14.834  -5.872  12.579  1.00  0.00    -0.026 C 
HETATM   33  C34 UNL     1     -15.557  -7.031  11.834  1.00  0.00     0.010 C 
HETATM   34  C35 UNL     1     -14.479  -7.733  11.006  1.00  0.00     0.001 C 
HETATM   35  C36 UNL     1     -13.435  -6.668  10.692  1.00  0.00     0.001 C 
HETATM   36  C37 UNL     1     -13.886  -5.402  11.432  1.00  0.00     0.010 C 
HETATM   37  C38 UNL     1     -13.940  -6.531  13.692  1.00  0.00     0.019 C 
ENDROOT
BRANCH  21  38
HETATM   38  C22 UNL     1     -18.365   4.792  12.713  1.00  0.00     0.152 C 
BRANCH  38  39
HETATM   39  O4  UNL     1     -17.600   5.925  12.264  1.00  0.00    -0.393 OA
HETATM   40  H28 UNL     1     -18.098   6.716  12.564  1.00  0.00     0.210 HD
ENDBRANCH  38  39
BRANCH  38  41
HETATM   41  C23 UNL     1     -19.814   5.305  12.818  1.00  0.00     0.196 C 
BRANCH  41  42
HETATM   42  O5  UNL     1     -20.701   4.301  12.321  1.00  0.00    -0.398 OA
HETATM   43  H31 UNL     1     -21.001   4.596  11.430  1.00  0.00     0.209 HD
ENDBRANCH  41  42
ENDBRANCH  38  41
ENDBRANCH  21  38
BRANCH  20  44
HETATM   44  O3  UNL     1     -16.043   5.791  14.743  1.00  0.00    -0.395 OA
HETATM   45  H23 UNL     1     -15.954   5.623  15.698  1.00  0.00     0.210 HD
ENDBRANCH  20  44
BRANCH  31  46
HETATM   46  O6  UNL     1     -17.410  -4.717  11.237  1.00  0.00    -0.395 OA
HETATM   47  H46 UNL     1     -17.758  -4.175  10.507  1.00  0.00     0.210 HD
ENDBRANCH  31  46
BRANCH   7  48
HETATM   48  O1  UNL     1     -17.864  -4.380  14.608  1.00  0.00    -0.383 OA
HETATM   49  H9  UNL     1     -18.088  -4.662  15.508  1.00  0.00     0.211 HD
ENDBRANCH   7  48
TORSDOF 7
ENDMDL
