MODEL 1
REMARK minimizedAffinity -8.87757301
REMARK CNNscore 0.652177095
REMARK CNNaffinity 7.20188379
REMARK  11 active torsions:
REMARK  status: ('A' for Active; 'I' for Inactive)
REMARK    1  A    between atoms: C2_2  and  O2_4 
REMARK    2  A    between atoms: O2_4  and  C3_5 
REMARK    3  A    between atoms: C4_6  and  O3_7 
REMARK    4  A    between atoms: O3_7  and  C5_8 
REMARK    5  A    between atoms: C15_18  and  C16_19 
REMARK    6  A    between atoms: C20_23  and  C21_24 
REMARK    7  A    between atoms: C21_24  and  O4_27 
REMARK    8  A    between atoms: C24_29  and  O6_30 
REMARK    9  A    between atoms: C30_36  and  O7_37 
REMARK   10  A    between atoms: C36_44  and  O9_45 
REMARK   11  A    between atoms: C37_46  and  O10_47 
ROOT
HETATM    1  C5  UNL     1      -1.907  51.067 -12.684  1.00  0.00     0.133 C 
HETATM    2  C6  UNL     1      -0.493  50.628 -12.282  1.00  0.00     0.034 C 
HETATM    3  C7  UNL     1       0.045  51.264 -11.012  1.00  0.00     0.013 C 
HETATM    4  C8  UNL     1      -0.242  52.754 -10.956  1.00  0.00    -0.025 A 
HETATM    5  C9  UNL     1       0.808  53.642 -11.582  1.00  0.00     0.021 A 
HETATM    6  C10 UNL     1       0.652  53.678 -10.072  1.00  0.00    -0.027 A 
HETATM    7  C11 UNL     1       1.787  52.989  -9.280  1.00  0.00     0.011 C 
HETATM    8  C12 UNL     1       2.467  53.718  -8.116  1.00  0.00     0.011 C 
HETATM    9  C13 UNL     1       2.169  55.210  -8.052  1.00  0.00    -0.028 C 
HETATM   10  C14 UNL     1       2.942  55.894  -9.203  1.00  0.00     0.016 C 
HETATM   11  C15 UNL     1       2.514  55.915  -6.694  1.00  0.00     0.057 C 
HETATM   12  C24 UNL     1       1.487  57.091  -6.614  1.00  0.00     0.126 C 
HETATM   13  C25 UNL     1       0.446  56.842  -7.723  1.00  0.00     0.042 C 
HETATM   14  C26 UNL     1       0.605  55.368  -8.121  1.00  0.00    -0.029 C 
HETATM   15  C27 UNL     1      -0.165  54.517  -7.069  1.00  0.00     0.016 C 
HETATM   16  C28 UNL     1       0.106  55.029  -9.549  1.00  0.00     0.006 C 
HETATM   17  C29 UNL     1      -1.408  55.236  -9.760  1.00  0.00     0.038 C 
HETATM   18  C30 UNL     1      -2.243  53.972  -9.987  1.00  0.00     0.124 C 
HETATM   19  C31 UNL     1      -1.715  53.142 -11.176  1.00  0.00     0.034 C 
HETATM   20  C32 UNL     1      -2.641  51.945 -11.618  1.00  0.00    -0.015 C 
HETATM   21  C33 UNL     1      -3.124  51.041 -10.456  1.00  0.00     0.018 C 
HETATM   22  C34 UNL     1      -3.934  52.527 -12.265  1.00  0.00     0.018 C 
ENDROOT
BRANCH   1  23
HETATM   23  O3  UNL     1      -1.833  51.814 -13.911  1.00  0.00    -0.352 OA
BRANCH  23  24
HETATM   24  C4  UNL     1      -1.851  51.002 -15.091  1.00  0.00     0.292 C 
HETATM   25  C3  UNL     1      -0.518  50.221 -15.139  1.00  0.00     0.218 C 
HETATM   26  C37 UNL     1      -0.553  49.155 -16.256  1.00  0.00     0.183 C 
HETATM   27  C36 UNL     1      -1.871  48.375 -16.290  1.00  0.00     0.173 C 
HETATM   28  C35 UNL     1      -3.058  49.326 -16.234  1.00  0.00     0.205 C 
HETATM   29  O8  UNL     1      -2.981  50.141 -15.071  1.00  0.00    -0.356 OA
BRANCH  25  30
HETATM   30  O2  UNL     1       0.518  51.215 -15.435  1.00  0.00    -0.309 OA
BRANCH  30  31
HETATM   31  C2  UNL     1       0.758  51.519 -16.733  1.00  0.00     0.255 C 
HETATM   32  C1  UNL     1       1.801  52.586 -16.823  1.00  0.00     0.126 C 
HETATM   33  O1  UNL     1       0.191  51.009 -17.690  1.00  0.00    -0.266 OA
ENDBRANCH  30  31
ENDBRANCH  25  30
BRANCH  26  34
HETATM   34  O10 UNL     1       0.513  48.188 -16.147  1.00  0.00    -0.390 OA
HETATM   35  H60 UNL     1       1.242  48.587 -15.631  1.00  0.00     0.210 HD
ENDBRANCH  26  34
BRANCH  27  36
HETATM   36  O9  UNL     1      -1.939  47.620 -17.504  1.00  0.00    -0.391 OA
HETATM   37  H58 UNL     1      -1.354  46.841 -17.374  1.00  0.00     0.210 HD
ENDBRANCH  27  36
ENDBRANCH  23  24
ENDBRANCH   1  23
BRANCH  18  38
HETATM   38  O7  UNL     1      -2.314  53.214  -8.787  1.00  0.00    -0.395 OA
HETATM   39  H47 UNL     1      -2.909  53.697  -8.195  1.00  0.00     0.210 HD
ENDBRANCH  18  38
BRANCH  11  40
HETATM   40  C16 UNL     1       3.982  56.210  -6.259  1.00  0.00     0.065 C 
HETATM   41  C17 UNL     1       4.241  56.538  -4.775  1.00  0.00     0.046 C 
HETATM   42  C18 UNL     1       4.635  57.280  -7.146  1.00  0.00     0.041 C 
HETATM   43  C19 UNL     1       6.100  56.911  -7.118  1.00  0.00     0.038 C 
HETATM   44  C20 UNL     1       6.085  55.383  -7.025  1.00  0.00     0.156 C 
HETATM   45  O5  UNL     1       4.753  55.013  -6.583  1.00  0.00    -0.372 OA
BRANCH  44  46
HETATM   46  C21 UNL     1       6.418  54.632  -8.343  1.00  0.00     0.076 C 
HETATM   47  C22 UNL     1       6.137  53.126  -8.245  1.00  0.00     0.048 C 
HETATM   48  C23 UNL     1       5.628  55.216  -9.524  1.00  0.00     0.048 C 
BRANCH  46  49
HETATM   49  O4  UNL     1       7.811  54.788  -8.646  1.00  0.00    -0.388 OA
HETATM   50  H35 UNL     1       7.959  55.754  -8.734  1.00  0.00     0.210 HD
ENDBRANCH  46  49
ENDBRANCH  44  46
ENDBRANCH  11  40
BRANCH  12  51
HETATM   51  O6  UNL     1       2.037  58.383  -6.796  1.00  0.00    -0.395 OA
HETATM   52  H37 UNL     1       1.376  59.045  -6.521  1.00  0.00     0.210 HD
ENDBRANCH  12  51
TORSDOF 11
ENDMDL
