MODEL 1
REMARK minimizedAffinity -7.66451597
REMARK CNNscore 0.627688229
REMARK CNNaffinity 7.42741537
REMARK  12 active torsions:
REMARK  status: ('A' for Active; 'I' for Inactive)
REMARK    1  A    between atoms: O1_2  and  C2_3 
REMARK    2  A    between atoms: C2_3  and  C5_6 
REMARK    3  A    between atoms: C6_7  and  C7_8 
REMARK    4  A    between atoms: C7_8  and  C8_9 
REMARK    5  A    between atoms: C8_9  and  C10_11 
REMARK    6  A    between atoms: C28_30  and  O3_31 
REMARK    7  A    between atoms: O3_31  and  C29_32 
REMARK    8  A    between atoms: C30_34  and  C31_35 
REMARK    9  A    between atoms: C31_35  and  O5_36 
REMARK   10  A    between atoms: C32_37  and  O6_38 
REMARK   11  A    between atoms: C33_39  and  O7_40 
REMARK   12  A    between atoms: C34_41  and  O8_42 
ROOT
HETATM    1  C10 UNL     1       6.620  55.903  -6.311  1.00  0.00    -0.002 C 
HETATM    2  C11 UNL     1       6.630  54.515  -5.590  1.00  0.00     0.006 C 
HETATM    3  C12 UNL     1       5.199  53.945  -5.657  1.00  0.00     0.011 C 
HETATM    4  C13 UNL     1       4.478  54.824  -6.698  1.00  0.00    -0.029 C 
HETATM    5  C14 UNL     1       4.898  54.251  -8.084  1.00  0.00     0.016 C 
HETATM    6  C15 UNL     1       2.928  54.876  -6.556  1.00  0.00     0.028 C 
HETATM    7  C16 UNL     1       2.223  53.557  -6.787  1.00  0.00    -0.021 C 
HETATM    8  C17 UNL     1       1.064  53.490  -7.463  1.00  0.00     0.008 C 
HETATM    9  C18 UNL     1       0.419  54.729  -8.080  1.00  0.00     0.092 C 
HETATM   10  O2  UNL     1      -0.103  55.476  -6.963  1.00  0.00    -0.374 OA
HETATM   11  C19 UNL     1       0.917  56.422  -6.565  1.00  0.00     0.179 C 
HETATM   12  C20 UNL     1       2.238  56.067  -7.338  1.00  0.00    -0.004 C 
HETATM   13  C21 UNL     1       3.095  57.352  -7.488  1.00  0.00     0.014 C 
HETATM   14  C22 UNL     1       4.625  57.207  -7.459  1.00  0.00     0.011 C 
HETATM   15  C23 UNL     1       5.095  56.238  -6.364  1.00  0.00    -0.032 C 
HETATM   16  C24 UNL     1       4.660  56.810  -4.976  1.00  0.00     0.016 C 
HETATM   17  C25 UNL     1       1.516  55.653  -8.642  1.00  0.00     0.036 C 
HETATM   18  C26 UNL     1       2.220  55.037  -9.841  1.00  0.00     0.011 C 
HETATM   19  C27 UNL     1       1.201  54.687 -10.932  1.00  0.00     0.033 C 
HETATM   20  C28 UNL     1       0.045  53.808 -10.408  1.00  0.00     0.136 C 
HETATM   21  C35 UNL     1      -0.670  54.428  -9.164  1.00  0.00     0.014 C 
HETATM   22  C36 UNL     1      -1.449  55.715  -9.550  1.00  0.00     0.021 C 
HETATM   23  C37 UNL     1      -1.754  53.450  -8.644  1.00  0.00     0.021 C 
ENDROOT
BRANCH  20  24
HETATM   24  O3  UNL     1      -0.925  53.589 -11.440  1.00  0.00    -0.352 OA
BRANCH  24  25
HETATM   25  C29 UNL     1      -0.601  52.515 -12.324  1.00  0.00     0.292 C 
HETATM   26  O4  UNL     1      -1.667  52.324 -13.260  1.00  0.00    -0.348 OA
HETATM   27  C30 UNL     1      -2.935  51.963 -12.678  1.00  0.00     0.179 C 
HETATM   28  C32 UNL     1      -2.821  51.145 -11.378  1.00  0.00     0.180 C 
HETATM   29  C33 UNL     1      -1.533  50.326 -11.420  1.00  0.00     0.183 C 
HETATM   30  C34 UNL     1      -0.314  51.247 -11.484  1.00  0.00     0.204 C 
BRANCH  27  31
HETATM   31  C31 UNL     1      -3.811  53.209 -12.496  1.00  0.00     0.198 C 
BRANCH  31  32
HETATM   32  O5  UNL     1      -4.300  53.642 -13.769  1.00  0.00    -0.398 OA
HETATM   33  H48 UNL     1      -3.528  53.604 -14.369  1.00  0.00     0.209 HD
ENDBRANCH  31  32
ENDBRANCH  27  31
BRANCH  28  34
HETATM   34  O6  UNL     1      -3.938  50.256 -11.207  1.00  0.00    -0.390 OA
HETATM   35  H50 UNL     1      -4.068  49.761 -12.036  1.00  0.00     0.210 HD
ENDBRANCH  28  34
BRANCH  29  36
HETATM   36  O7  UNL     1      -1.427  49.484 -10.259  1.00  0.00    -0.390 OA
HETATM   37  H52 UNL     1      -2.329  49.144 -10.096  1.00  0.00     0.210 HD
ENDBRANCH  29  36
BRANCH  30  38
HETATM   38  O8  UNL     1       0.782  50.492 -12.038  1.00  0.00    -0.388 OA
HETATM   39  H54 UNL     1       0.882  49.716 -11.454  1.00  0.00     0.210 HD
ENDBRANCH  30  38
ENDBRANCH  24  25
ENDBRANCH  20  24
BRANCH   1  40
HETATM   40  C8  UNL     1       7.624  56.897  -5.643  1.00  0.00    -0.010 C 
HETATM   41  C9  UNL     1       8.206  56.348  -4.333  1.00  0.00     0.010 C 
BRANCH  40  42
HETATM   42  C7  UNL     1       6.923  58.257  -5.354  1.00  0.00     0.031 C 
BRANCH  42  43
HETATM   43  C6  UNL     1       7.753  59.390  -4.799  1.00  0.00    -0.027 C 
HETATM   44  C5  UNL     1       8.860  59.923  -5.347  1.00  0.00     0.006 C 
BRANCH  44  45
HETATM   45  C2  UNL     1       9.700  61.071  -4.815  1.00  0.00     0.070 C 
HETATM   46  C3  UNL     1       9.188  61.725  -3.520  1.00  0.00     0.050 C 
HETATM   47  C4  UNL     1       9.756  62.149  -5.908  1.00  0.00     0.050 C 
BRANCH  45  48
HETATM   48  O1  UNL     1      11.056  60.611  -4.676  1.00  0.00    -0.382 OA
HETATM   49  C1  UNL     1      11.228  59.202  -4.570  1.00  0.00     0.202 C 
ENDBRANCH  45  48
ENDBRANCH  44  45
ENDBRANCH  42  43
ENDBRANCH  40  42
ENDBRANCH   1  40
TORSDOF 12
ENDMDL
