MODEL 1
REMARK minimizedAffinity -7.03026295
REMARK CNNscore 0.520316899
REMARK CNNaffinity 6.2615819
REMARK  21 active torsions:
REMARK  status: ('A' for Active; 'I' for Inactive)
REMARK    1  A    between atoms: C2_2  and  C18_25 
REMARK    2  A    between atoms: C3_3  and  C4_4 
REMARK    3  A    between atoms: C4_4  and  O2_6 
REMARK    4  A    between atoms: O2_6  and  C5_7 
REMARK    5  A    between atoms: C5_7  and  C6_8 
REMARK    6  A    between atoms: C6_8  and  C7_9 
REMARK    7  A    between atoms: C7_9  and  C8_10 
REMARK    8  A    between atoms: C8_10  and  C9_11 
REMARK    9  A    between atoms: C9_11  and  C10_12 
REMARK   10  A    between atoms: C10_12  and  C11_13 
REMARK   11  A    between atoms: C11_13  and  C12_14 
REMARK       I    between atoms: C12_14  and  N1_16 
REMARK   12  A    between atoms: N1_16  and  C13_17 
REMARK   13  A    between atoms: C17_23  and  O4_24 
REMARK   14  A    between atoms: C18_25  and  C19_26 
REMARK   15  A    between atoms: C21_29  and  C22_30 
REMARK   16  A    between atoms: C22_30  and  C23_31 
REMARK   17  A    between atoms: C24_32  and  C25_33 
REMARK   18  A    between atoms: C25_33  and  C27_35 
REMARK   19  A    between atoms: C27_35  and  O6_37 
REMARK   20  A    between atoms: C29_38  and  O7_39 
REMARK   21  A    between atoms: C30_40  and  O8_41 
ROOT
HETATM    1  C1  UNL     1      -3.381  49.765 -28.016  1.00  0.00     0.043 C 
HETATM    2  C2  UNL     1      -4.065  48.830 -27.056  1.00  0.00    -0.075 C 
HETATM    3  C3  UNL     1      -4.992  47.914 -27.412  1.00  0.00     0.084 C 
ENDROOT
BRANCH   3   4
HETATM    4  C4  UNL     1      -5.553  47.738 -28.773  1.00  0.00     0.283 C 
HETATM    5  O1  UNL     1      -4.965  47.914 -29.825  1.00  0.00    -0.260 OA
BRANCH   4   6
HETATM    6  O2  UNL     1      -6.853  47.367 -28.633  1.00  0.00    -0.318 OA
BRANCH   6   7
HETATM    7  C5  UNL     1      -7.400  47.561 -27.320  1.00  0.00     0.179 C 
BRANCH   7   8
HETATM    8  C6  UNL     1      -8.914  47.750 -27.392  1.00  0.00     0.027 C 
BRANCH   8   9
HETATM    9  C7  UNL     1      -9.578  46.871 -28.454  1.00  0.00     0.002 C 
BRANCH   9  10
HETATM   10  C8  UNL     1     -10.964  47.381 -28.860  1.00  0.00     0.000 C 
BRANCH  10  11
HETATM   11  C9  UNL     1     -11.785  47.919 -27.685  1.00  0.00     0.000 C 
BRANCH  11  12
HETATM   12  C10 UNL     1     -13.056  47.132 -27.347  1.00  0.00     0.009 C 
BRANCH  12  13
HETATM   13  C11 UNL     1     -13.184  46.783 -25.865  1.00  0.00     0.103 C 
BRANCH  13  14
HETATM   14  C12 UNL     1     -14.622  46.832 -25.378  1.00  0.00     0.218 C 
HETATM   15  O3  UNL     1     -15.056  47.680 -24.610  1.00  0.00    -0.274 OA
HETATM   16  N1  UNL     1     -15.387  45.801 -25.879  1.00  0.00    -0.349 N 
HETATM   17  H19 UNL     1     -15.043  45.340 -26.714  1.00  0.00     0.163 HD
BRANCH  16  18
HETATM   18  C13 UNL     1     -16.835  45.762 -25.665  1.00  0.00     0.159 C 
HETATM   19  C14 UNL     1     -17.239  46.301 -24.295  1.00  0.00     0.035 C 
HETATM   20  C15 UNL     1     -17.117  45.213 -23.239  1.00  0.00     0.022 C 
HETATM   21  C16 UNL     1     -18.021  44.043 -23.605  1.00  0.00     0.121 C 
HETATM   22  N2  UNL     1     -17.770  43.519 -24.949  1.00  0.00    -0.373 N 
HETATM   23  C17 UNL     1     -17.265  44.314 -25.818  1.00  0.00     0.134 C 
ATOM     24  H2  UNL     1     -17.990  42.552 -25.186  1.00  0.00     0.161 HD
BRANCH  23  25
HETATM   25  O4  UNL     1     -17.010  43.788 -27.026  1.00  0.00    -0.348 OA
HETATM   26  H27 UNL     1     -17.330  42.869 -26.999  1.00  0.00     0.219 HD
ENDBRANCH  23  25
ENDBRANCH  16  18
ENDBRANCH  13  14
ENDBRANCH  12  13
ENDBRANCH  11  12
ENDBRANCH  10  11
ENDBRANCH   9  10
ENDBRANCH   8   9
ENDBRANCH   7   8
ENDBRANCH   6   7
ENDBRANCH   4   6
ENDBRANCH   3   4
BRANCH   2  27
HETATM   27  C18 UNL     1      -3.646  48.958 -25.599  1.00  0.00     0.068 C 
BRANCH  27  28
HETATM   28  C19 UNL     1      -4.099  50.285 -24.957  1.00  0.00     0.156 C 
HETATM   29  O5  UNL     1      -2.929  50.930 -24.409  1.00  0.00    -0.382 OA
HETATM   30  C20 UNL     1      -3.269  51.992 -23.521  1.00  0.00     0.175 C 
HETATM   31  C21 UNL     1      -3.814  51.414 -22.207  1.00  0.00     0.044 C 
HETATM   32  C29 UNL     1      -4.530  50.071 -22.468  1.00  0.00     0.155 C 
HETATM   33  C30 UNL     1      -5.162  50.032 -23.865  1.00  0.00     0.176 C 
BRANCH  31  34
HETATM   34  C22 UNL     1      -2.656  51.239 -21.197  1.00  0.00     0.036 C 
BRANCH  34  35
HETATM   35  C23 UNL     1      -1.298  51.439 -21.813  1.00  0.00    -0.030 C 
HETATM   36  C24 UNL     1      -0.451  52.411 -21.436  1.00  0.00    -0.024 C 
BRANCH  36  37
HETATM   37  C25 UNL     1       0.905  52.740 -22.037  1.00  0.00     0.032 C 
HETATM   38  C26 UNL     1       0.828  53.358 -23.439  1.00  0.00     0.017 C 
BRANCH  37  39
HETATM   39  C27 UNL     1       1.706  53.629 -21.048  1.00  0.00     0.121 C 
HETATM   40  C28 UNL     1       0.976  53.914 -19.741  1.00  0.00     0.040 C 
BRANCH  39  41
HETATM   41  O6  UNL     1       2.011  54.895 -21.653  1.00  0.00    -0.395 OA
HETATM   42  H46 UNL     1       1.167  55.337 -21.851  1.00  0.00     0.210 HD
ENDBRANCH  39  41
ENDBRANCH  37  39
ENDBRANCH  36  37
ENDBRANCH  34  35
ENDBRANCH  31  34
BRANCH  32  43
HETATM   43  O7  UNL     1      -5.588  49.909 -21.509  1.00  0.00    -0.392 OA
HETATM   44  H48 UNL     1      -5.575  48.973 -21.232  1.00  0.00     0.210 HD
ENDBRANCH  32  43
BRANCH  33  45
HETATM   45  O8  UNL     1      -6.174  51.058 -23.925  1.00  0.00    -0.390 OA
HETATM   46  H50 UNL     1      -6.650  50.988 -23.074  1.00  0.00     0.210 HD
ENDBRANCH  33  45
ENDBRANCH  27  28
ENDBRANCH   2  27
TORSDOF 21
ENDMDL
