MODEL 1
REMARK minimizedAffinity -10.9462328
REMARK CNNscore 0.895771682
REMARK CNNaffinity 8.18557358
REMARK  12 active torsions:
REMARK  status: ('A' for Active; 'I' for Inactive)
REMARK    1  A    between atoms: C2_2  and  C4_4 
REMARK    2  A    between atoms: C4_4  and  C6_6 
REMARK    3  A    between atoms: C7_8  and  C8_9 
REMARK    4  A    between atoms: C8_9  and  O2_11 
REMARK    5  A    between atoms: C8_9  and  C10_12 
REMARK    6  A    between atoms: C13_15  and  O3_16 
REMARK    7  A    between atoms: C24_28  and  O5_29 
REMARK    8  A    between atoms: C25_30  and  O6_31 
REMARK    9  A    between atoms: C29_35  and  C30_36 
REMARK   10  A    between atoms: C30_36  and  C31_37 
REMARK   11  A    between atoms: C31_37  and  C32_38 
REMARK   12  A    between atoms: C36_42  and  O7_43 
ROOT
HETATM    1  C10 UNL     1      -7.038   7.248  15.480  1.00  0.00     0.034 C 
HETATM    2  C11 UNL     1      -6.761   5.938  16.290  1.00  0.00     0.012 C 
HETATM    3  C12 UNL     1      -5.368   5.426  15.878  1.00  0.00     0.044 C 
HETATM    4  C13 UNL     1      -4.774   6.599  15.100  1.00  0.00     0.090 C 
HETATM    5  C14 UNL     1      -3.545   6.468  14.242  1.00  0.00    -0.037 C 
HETATM    6  C15 UNL     1      -2.984   5.287  13.954  1.00  0.00     0.057 C 
HETATM    7  C16 UNL     1      -1.910   5.169  12.954  1.00  0.00     0.155 C 
HETATM    8  O4  UNL     1      -1.456   4.051  12.711  1.00  0.00    -0.293 OA
HETATM    9  C17 UNL     1      -1.441   6.412  12.215  1.00  0.00     0.075 C 
HETATM   10  C18 UNL     1       0.065   6.307  11.863  1.00  0.00     0.029 C 
HETATM   11  C19 UNL     1       0.571   7.581  11.134  1.00  0.00     0.008 C 
HETATM   12  C20 UNL     1      -0.545   8.537  10.742  1.00  0.00     0.001 C 
HETATM   13  C21 UNL     1      -1.494   8.888  11.899  1.00  0.00     0.011 C 
HETATM   14  C22 UNL     1      -1.661   7.749  12.965  1.00  0.00    -0.019 C 
HETATM   15  C23 UNL     1      -0.513   7.960  14.044  1.00  0.00     0.045 C 
HETATM   16  C24 UNL     1       0.303   6.711  14.390  1.00  0.00     0.148 C 
HETATM   17  C25 UNL     1       0.888   6.009  13.143  1.00  0.00     0.151 C 
HETATM   18  C26 UNL     1      -3.065   7.812  13.694  1.00  0.00     0.027 C 
HETATM   19  C27 UNL     1      -4.229   8.491  12.933  1.00  0.00     0.011 C 
HETATM   20  C28 UNL     1      -5.597   8.492  13.659  1.00  0.00     0.014 C 
HETATM   21  C29 UNL     1      -6.004   7.134  14.276  1.00  0.00     0.002 C 
ENDROOT
BRANCH   1  22
HETATM   22  C8  UNL     1      -8.564   7.502  15.247  1.00  0.00     0.087 C 
HETATM   23  C9  UNL     1      -9.010   7.047  13.848  1.00  0.00     0.049 C 
BRANCH  22  24
HETATM   24  C7  UNL     1      -8.865   8.995  15.360  1.00  0.00     0.185 A 
HETATM   25  C6  UNL     1     -10.237   9.609  15.098  1.00  0.00     0.158 A 
HETATM   26  O1  UNL     1      -9.743   9.380  16.425  1.00  0.00    -0.372 OA
BRANCH  25  27
HETATM   27  C4  UNL     1     -10.383  11.072  14.735  1.00  0.00     0.017 C 
HETATM   28  C5  UNL     1      -9.966  11.932  15.937  1.00  0.00     0.013 C 
BRANCH  27  29
HETATM   29  C2  UNL     1     -11.838  11.394  14.283  1.00  0.00    -0.016 C 
HETATM   30  C1  UNL     1     -12.669  12.014  15.415  1.00  0.00     0.010 C 
HETATM   31  C3  UNL     1     -12.569  10.152  13.758  1.00  0.00     0.010 C 
ENDBRANCH  27  29
ENDBRANCH  25  27
ENDBRANCH  22  24
BRANCH  22  32
HETATM   32  O2  UNL     1      -9.333   6.774  16.208  1.00  0.00    -0.387 OA
HETATM   33  H17 UNL     1     -10.271   6.887  15.986  1.00  0.00     0.210 HD
ENDBRANCH  22  32
ENDBRANCH   1  22
BRANCH  21  34
HETATM   34  C30 UNL     1      -6.600   6.146  13.193  1.00  0.00     0.018 C 
BRANCH  34  35
HETATM   35  C31 UNL     1      -7.079   4.719  13.514  1.00  0.00     0.039 C 
BRANCH  35  36
HETATM   36  C32 UNL     1      -6.558   3.550  12.702  1.00  0.00    -0.056 A 
HETATM   37  C33 UNL     1      -7.237   2.331  12.569  1.00  0.00     0.007 A 
HETATM   38  C34 UNL     1      -6.682   1.281  11.828  1.00  0.00     0.003 A 
HETATM   39  C35 UNL     1      -5.436   1.426  11.220  1.00  0.00     0.036 A 
HETATM   40  C36 UNL     1      -4.744   2.620  11.372  1.00  0.00     0.066 A 
HETATM   41  C37 UNL     1      -5.286   3.666  12.113  1.00  0.00     0.043 A 
BRANCH  40  42
HETATM   42  O7  UNL     1      -3.520   2.811  10.804  1.00  0.00    -0.361 OA
HETATM   43  H51 UNL     1      -3.267   1.997  10.339  1.00  0.00     0.217 HD
ENDBRANCH  40  42
ENDBRANCH  35  36
ENDBRANCH  34  35
ENDBRANCH  21  34
BRANCH   4  44
HETATM   44  O3  UNL     1      -4.403   7.560  16.114  1.00  0.00    -0.384 OA
HETATM   45  H23 UNL     1      -3.685   7.163  16.640  1.00  0.00     0.211 HD
ENDBRANCH   4  44
BRANCH  16  46
HETATM   46  O5  UNL     1       1.350   7.067  15.296  1.00  0.00    -0.393 OA
HETATM   47  H36 UNL     1       2.162   7.085  14.743  1.00  0.00     0.210 HD
ENDBRANCH  16  46
BRANCH  17  48
HETATM   48  O6  UNL     1       2.266   6.384  12.990  1.00  0.00    -0.393 OA
HETATM   49  H38 UNL     1       2.622   5.847  12.258  1.00  0.00     0.210 HD
ENDBRANCH  17  48
TORSDOF 12
ENDMDL
