MODEL 1
REMARK minimizedAffinity -8.76409435
REMARK  5 active torsions:
REMARK  status: ('A' for Active; 'I' for Inactive)
REMARK    1  A    between atoms: C2_2  and  C4_4 
REMARK    2  A    between atoms: C7_7  and  C8_8 
REMARK    3  A    between atoms: C8_8  and  O2_10 
REMARK    4  A    between atoms: C11_13  and  C12_14 
REMARK    5  A    between atoms: C12_14  and  O4_16 
ROOT
HETATM    1  C4  UNL     1      -0.701  10.991  15.809  1.00  0.00     0.019 C 
HETATM    2  C5  UNL     1       0.347  11.202  14.714  1.00  0.00     0.011 C 
HETATM    3  C6  UNL     1       1.274  10.010  14.909  1.00  0.00     0.021 C 
HETATM    4  C7  UNL     1       0.329   8.808  15.154  1.00  0.00     0.050 C 
HETATM    5  C9  UNL     1       0.029   8.116  13.815  1.00  0.00     0.022 C 
HETATM    6  C10 UNL     1      -1.199   7.209  13.843  1.00  0.00     0.023 C 
HETATM    7  C11 UNL     1      -2.499   7.903  14.315  1.00  0.00     0.057 C 
HETATM    8  C13 UNL     1      -2.257   8.670  15.660  1.00  0.00     0.011 C 
HETATM    9  C14 UNL     1      -3.529   9.390  16.130  1.00  0.00     0.007 C 
HETATM   10  C15 UNL     1      -4.748   8.465  16.252  1.00  0.00     0.006 C 
HETATM   11  C16 UNL     1      -5.003   7.616  14.984  1.00  0.00     0.003 C 
HETATM   12  C17 UNL     1      -6.371   6.799  14.979  1.00  0.00    -0.035 C 
HETATM   13  C18 UNL     1      -6.466   5.824  16.174  1.00  0.00     0.016 C 
HETATM   14  C19 UNL     1      -7.552   7.812  15.094  1.00  0.00     0.017 C 
HETATM   15  C20 UNL     1      -8.928   7.207  14.847  1.00  0.00     0.080 C 
HETATM   16  C21 UNL     1      -8.992   6.473  13.532  1.00  0.00     0.135 C 
HETATM   17  O5  UNL     1      -9.967   6.631  12.794  1.00  0.00    -0.297 OA
HETATM   18  C22 UNL     1      -7.877   5.460  13.221  1.00  0.00     0.017 C 
HETATM   19  C23 UNL     1      -8.191   4.151  13.961  1.00  0.00     0.023 C 
HETATM   20  C24 UNL     1      -7.942   5.150  11.703  1.00  0.00     0.023 C 
HETATM   21  C25 UNL     1      -6.491   6.103  13.570  1.00  0.00     0.009 C 
HETATM   22  C26 UNL     1      -5.288   5.176  13.304  1.00  0.00     0.007 C 
HETATM   23  C27 UNL     1      -3.963   5.944  13.299  1.00  0.00     0.011 C 
HETATM   24  C28 UNL     1      -3.703   6.815  14.565  1.00  0.00    -0.022 C 
HETATM   25  C29 UNL     1      -3.303   5.790  15.679  1.00  0.00     0.017 C 
HETATM   26  C30 UNL     1      -0.914   9.439  15.878  1.00  0.00     0.018 C 
ENDROOT
BRANCH   4  27
HETATM   27  C8  UNL     1       1.001   7.776  16.061  1.00  0.00     0.149 C 
HETATM   28  O1  UNL     1       2.106   7.869  16.570  1.00  0.00    -0.649 OA
BRANCH  27  29
HETATM   29  O2  UNL     1       0.221   6.716  16.347  1.00  0.00    -0.776 OA
HETATM   30  H11 UNL     1       0.769   6.174  16.953  1.00  0.00     0.167 HD
ENDBRANCH  27  29
ENDBRANCH   4  27
BRANCH   1  31
HETATM   31  C2  UNL     1      -1.819  12.010  15.903  1.00  0.00    -0.088 C 
HETATM   32  C1  UNL     1      -2.183  12.504  17.102  1.00  0.00     0.014 C 
HETATM   33  C3  UNL     1      -2.445  12.570  14.657  1.00  0.00     0.043 C 
ENDBRANCH   1  31
BRANCH   7  34
HETATM   34  C12 UNL     1      -2.901   8.886  13.183  1.00  0.00     0.149 C 
HETATM   35  O3  UNL     1      -3.985   9.018  12.641  1.00  0.00    -0.649 OA
BRANCH  34  36
HETATM   36  O4  UNL     1      -1.892   9.642  12.729  1.00  0.00    -0.776 OA
HETATM   37  H16 UNL     1      -2.309  10.163  12.011  1.00  0.00     0.167 HD
ENDBRANCH  34  36
ENDBRANCH   7  34
TORSDOF 5
ENDMDL
