MODEL 1
REMARK minimizedAffinity -9.13251591
REMARK CNNscore 0.670611084
REMARK CNNaffinity 7.11554956
REMARK  12 active torsions:
REMARK  status: ('A' for Active; 'I' for Inactive)
REMARK    1  A    between atoms: C2_2  and  C3_3 
REMARK    2  A    between atoms: C2_2  and  C9_10 
REMARK    3  A    between atoms: C3_3  and  C4_4 
REMARK    4  A    between atoms: C5_5  and  C6_6 
REMARK    5  A    between atoms: C6_6  and  O1_9 
REMARK    6  A    between atoms: C27_29  and  O3_30 
REMARK    7  A    between atoms: O3_30  and  C28_31 
REMARK    8  A    between atoms: C29_33  and  C30_34 
REMARK    9  A    between atoms: C30_34  and  O5_35 
REMARK   10  A    between atoms: C31_36  and  O6_37 
REMARK   11  A    between atoms: C32_38  and  O7_39 
REMARK   12  A    between atoms: C33_40  and  O8_41 
ROOT
HETATM    1  C9  UNL     1      -2.295  12.785  17.772  1.00  0.00    -0.002 C 
HETATM    2  C10 UNL     1      -1.259  12.292  18.820  1.00  0.00     0.006 C 
HETATM    3  C11 UNL     1      -0.962  10.808  18.491  1.00  0.00     0.011 C 
HETATM    4  C12 UNL     1      -1.576  10.581  17.092  1.00  0.00    -0.029 C 
HETATM    5  C13 UNL     1      -0.512  11.120  16.079  1.00  0.00     0.016 C 
HETATM    6  C14 UNL     1      -1.972   9.113  16.745  1.00  0.00     0.028 C 
HETATM    7  C15 UNL     1      -0.784   8.169  16.718  1.00  0.00    -0.021 C 
HETATM    8  C16 UNL     1      -0.561   7.331  15.691  1.00  0.00     0.008 C 
HETATM    9  C17 UNL     1      -1.497   7.283  14.489  1.00  0.00     0.092 C 
HETATM   10  O2  UNL     1      -2.684   6.643  15.009  1.00  0.00    -0.374 OA
HETATM   11  C18 UNL     1      -3.606   7.657  15.430  1.00  0.00     0.179 C 
HETATM   12  C19 UNL     1      -2.857   9.013  15.420  1.00  0.00    -0.004 C 
HETATM   13  C20 UNL     1      -3.903  10.153  15.275  1.00  0.00     0.014 C 
HETATM   14  C21 UNL     1      -3.514  11.546  15.803  1.00  0.00     0.011 C 
HETATM   15  C22 UNL     1      -2.875  11.458  17.198  1.00  0.00    -0.032 C 
HETATM   16  C23 UNL     1      -3.946  10.887  18.176  1.00  0.00     0.016 C 
HETATM   17  C24 UNL     1      -1.928   8.752  14.207  1.00  0.00     0.036 C 
HETATM   18  C25 UNL     1      -2.534   8.925  12.816  1.00  0.00     0.011 C 
HETATM   19  C26 UNL     1      -1.537   8.530  11.724  1.00  0.00     0.033 C 
HETATM   20  C27 UNL     1      -0.449   7.538  12.174  1.00  0.00     0.136 C 
HETATM   21  C34 UNL     1      -0.995   6.504  13.205  1.00  0.00     0.014 C 
HETATM   22  C35 UNL     1      -2.130   5.657  12.562  1.00  0.00     0.021 C 
HETATM   23  C36 UNL     1       0.120   5.477  13.527  1.00  0.00     0.021 C 
ENDROOT
BRANCH  20  24
HETATM   24  O3  UNL     1       0.080   6.839  11.035  1.00  0.00    -0.352 OA
BRANCH  24  25
HETATM   25  C28 UNL     1       1.500   6.976  10.858  1.00  0.00     0.292 C 
HETATM   26  O4  UNL     1       1.792   8.163  10.130  1.00  0.00    -0.348 OA
HETATM   27  C29 UNL     1       3.084   8.212   9.488  1.00  0.00     0.179 C 
HETATM   28  C31 UNL     1       4.080   7.129   9.935  1.00  0.00     0.180 C 
HETATM   29  C32 UNL     1       3.474   5.719   9.927  1.00  0.00     0.183 C 
HETATM   30  C33 UNL     1       1.949   5.733  10.074  1.00  0.00     0.204 C 
BRANCH  27  31
HETATM   31  C30 UNL     1       2.847   8.195   7.971  1.00  0.00     0.198 C 
BRANCH  31  32
HETATM   32  O5  UNL     1       1.443   8.243   7.707  1.00  0.00    -0.398 OA
HETATM   33  H46 UNL     1       1.037   7.607   8.328  1.00  0.00     0.209 HD
ENDBRANCH  31  32
ENDBRANCH  27  31
BRANCH  28  34
HETATM   34  O6  UNL     1       4.488   7.439  11.280  1.00  0.00    -0.390 OA
HETATM   35  H48 UNL     1       5.298   6.926  11.461  1.00  0.00     0.210 HD
ENDBRANCH  28  34
BRANCH  29  36
HETATM   36  O7  UNL     1       3.827   5.046   8.710  1.00  0.00    -0.390 OA
HETATM   37  H50 UNL     1       3.410   4.163   8.765  1.00  0.00     0.210 HD
ENDBRANCH  29  36
BRANCH  30  38
HETATM   38  O8  UNL     1       1.530   4.513  10.709  1.00  0.00    -0.388 OA
HETATM   39  H52 UNL     1       0.588   4.664  10.931  1.00  0.00     0.210 HD
ENDBRANCH  30  38
ENDBRANCH  24  25
ENDBRANCH  20  24
BRANCH   1  40
HETATM   40  C2  UNL     1      -3.284  13.899  18.236  1.00  0.00    -0.010 C 
HETATM   41  C1  UNL     1      -2.767  14.496  19.560  1.00  0.00     0.010 C 
BRANCH  40  42
HETATM   42  C3  UNL     1      -4.756  13.459  18.431  1.00  0.00     0.031 C 
BRANCH  42  43
HETATM   43  C4  UNL     1      -5.375  13.592  19.805  1.00  0.00    -0.027 C 
HETATM   44  C5  UNL     1      -6.680  13.632  20.134  1.00  0.00     0.006 C 
BRANCH  44  45
HETATM   45  C6  UNL     1      -7.265  13.722  21.526  1.00  0.00     0.068 C 
HETATM   46  C7  UNL     1      -8.576  12.935  21.604  1.00  0.00     0.050 C 
HETATM   47  C8  UNL     1      -6.261  13.192  22.549  1.00  0.00     0.050 C 
BRANCH  45  48
HETATM   48  O1  UNL     1      -7.546  15.078  21.869  1.00  0.00    -0.387 OA
HETATM   49  H15 UNL     1      -8.227  15.392  21.249  1.00  0.00     0.211 HD
ENDBRANCH  45  48
ENDBRANCH  44  45
ENDBRANCH  42  43
ENDBRANCH  40  42
ENDBRANCH   1  40
TORSDOF 12
ENDMDL
