MODEL 1
REMARK minimizedAffinity -10.1684933
REMARK  7 active torsions:
REMARK  status: ('A' for Active; 'I' for Inactive)
REMARK    1  A    between atoms: C2_2  and  C30_32 
REMARK    2  A    between atoms: C3_3  and  C4_4 
REMARK    3  A    between atoms: C4_4  and  O1_5 
REMARK    4  A    between atoms: C4_4  and  C5_6 
REMARK    5  A    between atoms: C5_6  and  C6_7 
REMARK    6  A    between atoms: C6_7  and  C8_9 
REMARK    7  A    between atoms: C30_32  and  O4_34 
ROOT
HETATM    1  C8  UNL     1      -0.298  50.650 -21.098  1.00  0.00    -0.002 C 
HETATM    2  C9  UNL     1      -0.481  50.143 -19.648  1.00  0.00     0.006 C 
HETATM    3  C10 UNL     1      -1.785  49.318 -19.626  1.00  0.00     0.011 C 
HETATM    4  C11 UNL     1      -2.126  49.060 -21.110  1.00  0.00    -0.032 C 
HETATM    5  C12 UNL     1      -1.278  47.827 -21.556  1.00  0.00     0.016 C 
HETATM    6  C13 UNL     1      -3.629  48.800 -21.398  1.00  0.00     0.004 C 
HETATM    7  C14 UNL     1      -4.121  47.410 -20.961  1.00  0.00     0.007 C 
HETATM    8  C15 UNL     1      -5.628  47.308 -21.171  1.00  0.00     0.007 C 
HETATM    9  C16 UNL     1      -5.972  47.293 -22.668  1.00  0.00     0.010 C 
HETATM   10  C17 UNL     1      -7.501  47.263 -22.992  1.00  0.00     0.018 C 
HETATM   11  C18 UNL     1      -7.987  45.804 -23.066  1.00  0.00     0.023 C 
HETATM   12  C19 UNL     1      -8.360  48.002 -21.949  1.00  0.00     0.023 C 
HETATM   13  C20 UNL     1      -7.776  47.896 -24.368  1.00  0.00     0.135 C 
HETATM   14  O2  UNL     1      -8.868  48.397 -24.646  1.00  0.00    -0.297 OA
HETATM   15  C21 UNL     1      -6.719  47.783 -25.445  1.00  0.00     0.080 C 
HETATM   16  C22 UNL     1      -5.303  48.059 -24.956  1.00  0.00     0.018 C 
HETATM   17  C23 UNL     1      -5.250  48.375 -23.473  1.00  0.00    -0.026 A 
HETATM   18  C24 UNL     1      -5.336  49.822 -23.075  1.00  0.00     0.021 A 
HETATM   19  C25 UNL     1      -4.009  49.094 -22.875  1.00  0.00    -0.027 A 
HETATM   20  C26 UNL     1      -2.865  49.451 -23.834  1.00  0.00     0.011 C 
HETATM   21  C27 UNL     1      -1.686  50.270 -23.275  1.00  0.00     0.011 C 
HETATM   22  C28 UNL     1      -1.697  50.432 -21.752  1.00  0.00    -0.032 C 
HETATM   23  C29 UNL     1      -2.650  51.606 -21.406  1.00  0.00     0.016 C 
ENDROOT
BRANCH   1  24
HETATM   24  C6  UNL     1       0.534  51.947 -21.314  1.00  0.00    -0.011 C 
HETATM   25  C7  UNL     1       0.398  52.849 -20.072  1.00  0.00     0.010 C 
BRANCH  24  26
HETATM   26  C5  UNL     1       0.420  52.798 -22.606  1.00  0.00     0.040 C 
BRANCH  26  27
HETATM   27  C4  UNL     1      -0.134  52.175 -23.893  1.00  0.00     0.142 C 
BRANCH  27  28
HETATM   28  C3  UNL     1       0.926  52.148 -24.964  1.00  0.00     0.018 C 
HETATM   29  C2  UNL     1       0.890  51.522 -26.159  1.00  0.00     0.010 C 
HETATM   30  C1  UNL     1      -0.234  50.672 -26.676  1.00  0.00     0.055 C 
BRANCH  29  31
HETATM   31  C30 UNL     1       2.029  51.644 -27.109  1.00  0.00     0.171 C 
HETATM   32  O3  UNL     1       1.964  52.115 -28.232  1.00  0.00    -0.646 OA
BRANCH  31  33
HETATM   33  O4  UNL     1       3.197  51.199 -26.621  1.00  0.00    -0.773 OA
HETATM   34  H46 UNL     1       3.829  51.348 -27.356  1.00  0.00     0.167 HD
ENDBRANCH  31  33
ENDBRANCH  29  31
ENDBRANCH  27  28
BRANCH  27  35
HETATM   35  O1  UNL     1      -1.214  52.950 -24.399  1.00  0.00    -0.392 OA
HETATM   36  H6  UNL     1      -1.375  52.665 -25.313  1.00  0.00     0.210 HD
ENDBRANCH  27  35
ENDBRANCH  26  27
ENDBRANCH  24  26
ENDBRANCH   1  24
TORSDOF 7
ENDMDL
