MODEL 1
REMARK minimizedAffinity -7.5479846
REMARK CNNscore 0.391460419
REMARK CNNaffinity 6.44134712
REMARK  10 active torsions:
REMARK  status: ('A' for Active; 'I' for Inactive)
REMARK    1  A    between atoms: C12_14  and  C13_15 
REMARK    2  A    between atoms: C13_15  and  C15_17 
REMARK    3  A    between atoms: C15_17  and  C16_18 
REMARK    4  A    between atoms: C16_18  and  C17_19 
REMARK    5  A    between atoms: C18_20  and  C20_22 
REMARK    6  A    between atoms: C20_22  and  O3_23 
REMARK    7  A    between atoms: C26_29  and  C27_30 
REMARK    8  A    between atoms: C27_30  and  C28_31 
REMARK    9  A    between atoms: C28_31  and  C29_32 
REMARK   10  A    between atoms: C29_32  and  O5_34 
ROOT
HETATM    1  C1  UNL     1       0.301  50.266 -17.213  1.00  0.00     0.025 C 
HETATM    2  C2  UNL     1      -0.920  50.683 -17.570  1.00  0.00     0.015 C 
HETATM    3  C3  UNL     1      -1.926  51.070 -16.557  1.00  0.00     0.289 C 
HETATM    4  O1  UNL     1      -1.743  51.179 -15.359  1.00  0.00    -0.260 OA
HETATM    5  O2  UNL     1      -3.099  51.304 -17.202  1.00  0.00    -0.311 OA
HETATM    6  C4  UNL     1      -3.009  50.898 -18.581  1.00  0.00     0.142 C 
HETATM    7  C5  UNL     1      -3.775  49.592 -18.738  1.00  0.00     0.039 C 
HETATM    8  C6  UNL     1      -3.630  48.895 -20.098  1.00  0.00     0.006 C 
HETATM    9  C7  UNL     1      -2.175  48.869 -20.622  1.00  0.00    -0.027 A 
HETATM   10  C8  UNL     1      -2.011  48.246 -22.022  1.00  0.00     0.011 C 
HETATM   11  C9  UNL     1      -3.088  48.623 -23.052  1.00  0.00     0.011 C 
HETATM   12  C10 UNL     1      -4.501  48.438 -22.479  1.00  0.00    -0.032 C 
HETATM   13  C11 UNL     1      -4.730  46.927 -22.162  1.00  0.00     0.016 C 
HETATM   14  C12 UNL     1      -5.700  48.941 -23.352  1.00  0.00    -0.002 C 
HETATM   15  C21 UNL     1      -6.789  49.245 -22.275  1.00  0.00     0.006 C 
HETATM   16  C22 UNL     1      -6.099  49.282 -20.899  1.00  0.00     0.011 C 
HETATM   17  C23 UNL     1      -4.603  49.390 -21.216  1.00  0.00    -0.032 C 
HETATM   18  C24 UNL     1      -4.318  50.891 -21.542  1.00  0.00     0.016 C 
HETATM   19  C25 UNL     1      -1.114  48.390 -19.662  1.00  0.00     0.022 A 
HETATM   20  C26 UNL     1      -1.126  49.864 -20.031  1.00  0.00    -0.021 A 
HETATM   21  C31 UNL     1      -1.528  50.851 -18.924  1.00  0.00     0.063 C 
ENDROOT
BRANCH  14  22
HETATM   22  C13 UNL     1      -6.260  48.057 -24.511  1.00  0.00    -0.014 C 
HETATM   23  C14 UNL     1      -5.481  48.255 -25.817  1.00  0.00     0.010 C 
BRANCH  22  24
HETATM   24  C15 UNL     1      -7.767  48.366 -24.741  1.00  0.00     0.008 C 
BRANCH  24  25
HETATM   25  C16 UNL     1      -8.485  47.339 -25.624  1.00  0.00     0.028 C 
BRANCH  25  26
HETATM   26  C17 UNL     1      -9.887  47.787 -25.941  1.00  0.00    -0.022 C 
HETATM   27  C18 UNL     1     -10.976  47.014 -26.131  1.00  0.00    -0.064 C 
HETATM   28  C19 UNL     1     -10.993  45.514 -25.997  1.00  0.00     0.045 C 
BRANCH  27  29
HETATM   29  C20 UNL     1     -12.307  47.629 -26.473  1.00  0.00     0.197 C 
BRANCH  29  30
HETATM   30  O3  UNL     1     -12.084  48.888 -27.089  1.00  0.00    -0.397 OA
HETATM   31  H29 UNL     1     -12.960  49.262 -27.281  1.00  0.00     0.209 HD
ENDBRANCH  29  30
ENDBRANCH  27  29
ENDBRANCH  25  26
ENDBRANCH  24  25
ENDBRANCH  22  24
ENDBRANCH  14  22
BRANCH  20  32
HETATM   32  C27 UNL     1      -0.071  50.449 -20.986  1.00  0.00     0.021 C 
BRANCH  32  33
HETATM   33  C28 UNL     1       0.320  51.903 -20.723  1.00  0.00     0.112 C 
BRANCH  33  34
HETATM   34  C29 UNL     1       0.478  52.669 -22.014  1.00  0.00     0.258 C 
HETATM   35  O4  UNL     1       1.052  53.742 -22.135  1.00  0.00    -0.265 OA
BRANCH  34  36
HETATM   36  O5  UNL     1      -0.141  51.992 -23.024  1.00  0.00    -0.326 OA
HETATM   37  C30 UNL     1       0.374  52.286 -24.322  1.00  0.00     0.213 C 
ENDBRANCH  34  36
ENDBRANCH  33  34
ENDBRANCH  32  33
ENDBRANCH  20  32
TORSDOF 10
ENDMDL
