MODEL 1
REMARK minimizedAffinity -8.26177406
REMARK CNNscore 0.540379703
REMARK CNNaffinity 7.4968667
REMARK  12 active torsions:
REMARK  status: ('A' for Active; 'I' for Inactive)
REMARK    1  A    between atoms: O1_2  and  C2_3 
REMARK    2  A    between atoms: C2_3  and  C5_6 
REMARK    3  A    between atoms: C6_7  and  C7_8 
REMARK    4  A    between atoms: C7_8  and  C8_9 
REMARK    5  A    between atoms: C8_9  and  C10_11 
REMARK    6  A    between atoms: C28_30  and  O3_31 
REMARK    7  A    between atoms: O3_31  and  C29_32 
REMARK    8  A    between atoms: C30_34  and  C31_35 
REMARK    9  A    between atoms: C31_35  and  O5_36 
REMARK   10  A    between atoms: C32_37  and  O6_38 
REMARK   11  A    between atoms: C33_39  and  O7_40 
REMARK   12  A    between atoms: C34_41  and  O8_42 
ROOT
HETATM    1  C10 UNL     1      -2.280  49.449 -23.275  1.00  0.00    -0.002 C 
HETATM    2  C11 UNL     1      -1.153  50.336 -22.654  1.00  0.00     0.006 C 
HETATM    3  C12 UNL     1      -1.240  50.206 -21.121  1.00  0.00     0.011 C 
HETATM    4  C13 UNL     1      -2.155  48.989 -20.885  1.00  0.00    -0.029 C 
HETATM    5  C14 UNL     1      -1.244  47.727 -21.055  1.00  0.00     0.016 C 
HETATM    6  C15 UNL     1      -2.885  48.967 -19.504  1.00  0.00     0.028 C 
HETATM    7  C16 UNL     1      -1.929  48.869 -18.324  1.00  0.00    -0.021 C 
HETATM    8  C17 UNL     1      -2.112  47.973 -17.334  1.00  0.00     0.008 C 
HETATM    9  C18 UNL     1      -3.305  47.022 -17.345  1.00  0.00     0.092 C 
HETATM   10  O2  UNL     1      -4.427  47.894 -17.072  1.00  0.00    -0.374 OA
HETATM   11  C19 UNL     1      -5.029  48.264 -18.317  1.00  0.00     0.179 C 
HETATM   12  C20 UNL     1      -4.045  47.871 -19.444  1.00  0.00    -0.004 C 
HETATM   13  C21 UNL     1      -4.847  47.728 -20.765  1.00  0.00     0.014 C 
HETATM   14  C22 UNL     1      -4.088  47.925 -22.084  1.00  0.00     0.011 C 
HETATM   15  C23 UNL     1      -3.207  49.186 -22.043  1.00  0.00    -0.032 C 
HETATM   16  C24 UNL     1      -4.135  50.432 -21.845  1.00  0.00     0.016 C 
HETATM   17  C25 UNL     1      -3.472  46.571 -18.826  1.00  0.00     0.036 C 
HETATM   18  C26 UNL     1      -4.295  45.296 -18.971  1.00  0.00     0.011 C 
HETATM   19  C27 UNL     1      -3.668  44.131 -18.196  1.00  0.00     0.033 C 
HETATM   20  C28 UNL     1      -2.775  44.561 -17.021  1.00  0.00     0.136 C 
HETATM   21  C35 UNL     1      -3.311  45.833 -16.309  1.00  0.00     0.014 C 
HETATM   22  C36 UNL     1      -4.733  45.573 -15.734  1.00  0.00     0.021 C 
HETATM   23  C37 UNL     1      -2.428  46.117 -15.070  1.00  0.00     0.021 C 
ENDROOT
BRANCH  20  24
HETATM   24  O3  UNL     1      -2.701  43.486 -16.085  1.00  0.00    -0.352 OA
BRANCH  24  25
HETATM   25  C29 UNL     1      -1.379  43.044 -15.771  1.00  0.00     0.292 C 
HETATM   26  O4  UNL     1      -0.734  42.677 -16.988  1.00  0.00    -0.348 OA
HETATM   27  C30 UNL     1       0.629  42.253 -16.804  1.00  0.00     0.179 C 
HETATM   28  C32 UNL     1       0.791  41.270 -15.624  1.00  0.00     0.180 C 
HETATM   29  C33 UNL     1      -0.570  40.688 -15.235  1.00  0.00     0.183 C 
HETATM   30  C34 UNL     1      -1.530  41.823 -14.829  1.00  0.00     0.204 C 
BRANCH  27  31
HETATM   31  C31 UNL     1       1.057  41.605 -18.125  1.00  0.00     0.198 C 
BRANCH  31  32
HETATM   32  O5  UNL     1       0.014  40.812 -18.670  1.00  0.00    -0.398 OA
HETATM   33  H48 UNL     1       0.353  40.416 -19.492  1.00  0.00     0.209 HD
ENDBRANCH  31  32
ENDBRANCH  27  31
BRANCH  28  34
HETATM   34  O6  UNL     1       1.302  41.974 -14.467  1.00  0.00    -0.390 OA
HETATM   35  H50 UNL     1       1.594  41.257 -13.869  1.00  0.00     0.210 HD
ENDBRANCH  28  34
BRANCH  29  36
HETATM   36  O7  UNL     1      -0.384  39.771 -14.136  1.00  0.00    -0.390 OA
HETATM   37  H52 UNL     1      -1.003  40.053 -13.433  1.00  0.00     0.210 HD
ENDBRANCH  29  36
BRANCH  30  38
HETATM   38  O8  UNL     1      -1.257  42.208 -13.457  1.00  0.00    -0.388 OA
HETATM   39  H54 UNL     1      -0.299  42.417 -13.430  1.00  0.00     0.210 HD
ENDBRANCH  30  38
ENDBRANCH  24  25
ENDBRANCH  20  24
BRANCH   1  40
HETATM   40  C8  UNL     1      -2.884  50.102 -24.556  1.00  0.00    -0.010 C 
HETATM   41  C9  UNL     1      -4.395  49.856 -24.686  1.00  0.00     0.010 C 
BRANCH  40  42
HETATM   42  C7  UNL     1      -2.183  49.584 -25.843  1.00  0.00     0.031 C 
BRANCH  42  43
HETATM   43  C6  UNL     1      -1.241  50.520 -26.572  1.00  0.00    -0.027 C 
HETATM   44  C5  UNL     1      -0.562  51.552 -26.045  1.00  0.00     0.006 C 
BRANCH  44  45
HETATM   45  C2  UNL     1       0.417  52.482 -26.739  1.00  0.00     0.070 C 
HETATM   46  C3  UNL     1      -0.050  53.938 -26.914  1.00  0.00     0.050 C 
HETATM   47  C4  UNL     1       0.700  51.888 -28.133  1.00  0.00     0.050 C 
BRANCH  45  48
HETATM   48  O1  UNL     1       1.676  52.414 -26.046  1.00  0.00    -0.382 OA
HETATM   49  C1  UNL     1       2.551  51.367 -26.448  1.00  0.00     0.202 C 
ENDBRANCH  45  48
ENDBRANCH  44  45
ENDBRANCH  42  43
ENDBRANCH  40  42
ENDBRANCH   1  40
TORSDOF 12
ENDMDL
