MODEL 1
REMARK minimizedAffinity -8.07390785
REMARK  7 active torsions:
REMARK  status: ('A' for Active; 'I' for Inactive)
REMARK    1  A    between atoms: N1_2  and  C2_3 
REMARK    2  A    between atoms: C2_3  and  C3_4 
REMARK    3  A    between atoms: C3_4  and  O1_5 
REMARK    4  A    between atoms: O1_5  and  C4_6 
REMARK    5  A    between atoms: C4_6  and  C5_8 
REMARK    6  A    between atoms: C19_23  and  C21_25 
REMARK    7  A    between atoms: C21_25  and  O5_27 
ROOT
HETATM    1  C5  UNL     1      -3.917   7.514  12.974  1.00  0.00     0.085 C 
HETATM    2  C6  UNL     1      -2.570   7.545  13.027  1.00  0.00    -0.070 C 
HETATM    3  C7  UNL     1      -1.839   8.857  12.857  1.00  0.00     0.035 C 
HETATM    4  C8  UNL     1      -0.897   8.767  11.657  1.00  0.00     0.010 C 
HETATM    5  C9  UNL     1       0.084   7.571  11.736  1.00  0.00     0.006 C 
HETATM    6  C10 UNL     1      -0.677   6.252  12.015  1.00  0.00     0.068 C 
HETATM    7  C11 UNL     1       0.312   5.109  12.212  1.00  0.00     0.132 C 
HETATM    8  O3  UNL     1      -0.002   4.056  12.769  1.00  0.00    -0.298 OA
HETATM    9  C12 UNL     1       1.711   5.303  11.670  1.00  0.00     0.085 C 
HETATM   10  C13 UNL     1       1.614   5.989  10.296  1.00  0.00     0.019 C 
HETATM   11  C14 UNL     1       1.078   7.470  10.489  1.00  0.00    -0.034 C 
HETATM   12  C15 UNL     1       0.368   7.912   9.185  1.00  0.00     0.016 C 
HETATM   13  C16 UNL     1       2.248   8.453  10.778  1.00  0.00     0.010 C 
HETATM   14  C17 UNL     1       3.425   8.328   9.825  1.00  0.00     0.002 C 
HETATM   15  C18 UNL     1       3.974   6.909   9.826  1.00  0.00     0.020 C 
HETATM   16  C19 UNL     1       2.926   5.848   9.427  1.00  0.00     0.049 C 
HETATM   17  C20 UNL     1       3.600   4.462   9.567  1.00  0.00     0.026 C 
HETATM   18  C23 UNL     1      -1.646   6.350  13.223  1.00  0.00     0.022 C 
HETATM   19  C24 UNL     1      -0.947   6.454  14.591  1.00  0.00     0.015 C 
ENDROOT
BRANCH   1  20
HETATM   20  C4  UNL     1      -4.815   6.341  13.037  1.00  0.00     0.283 C 
HETATM   21  O2  UNL     1      -5.990   6.433  13.354  1.00  0.00    -0.260 OA
BRANCH  20  22
HETATM   22  O1  UNL     1      -4.188   5.230  12.590  1.00  0.00    -0.316 OA
BRANCH  22  23
HETATM   23  C3  UNL     1      -5.003   4.050  12.494  1.00  0.00     0.209 C 
BRANCH  23  24
HETATM   24  C2  UNL     1      -4.433   3.046  11.479  1.00  0.00     0.295 C 
BRANCH  24  25
HETATM   25  N1  UNL     1      -5.434   2.394  10.616  1.00  0.00     0.081 N 
HETATM   26  C1  UNL     1      -5.972   1.172  11.199  1.00  0.00     0.306 C 
HETATM   27  H4  UNL     1      -4.987   2.162   9.730  1.00  0.00     0.315 HD
ENDBRANCH  24  25
ENDBRANCH  23  24
ENDBRANCH  22  23
ENDBRANCH  20  22
ENDBRANCH   1  20
BRANCH  16  28
HETATM   28  C21 UNL     1       2.626   5.952   7.917  1.00  0.00     0.267 C 
HETATM   29  O4  UNL     1       2.765   5.041   7.110  1.00  0.00    -0.264 OA
BRANCH  28  30
HETATM   30  O5  UNL     1       2.140   7.186   7.597  1.00  0.00    -0.326 OA
HETATM   31  C22 UNL     1       1.768   7.333   6.226  1.00  0.00     0.213 C 
ENDBRANCH  28  30
ENDBRANCH  16  28
TORSDOF 7
ENDMDL
