MODEL 1
REMARK minimizedAffinity -7.72157621
REMARK CNNscore 0.707078457
REMARK CNNaffinity 5.84277391
REMARK  12 active torsions:
REMARK  status: ('A' for Active; 'I' for Inactive)
REMARK    1  A    between atoms: C2_2  and  C3_3 
REMARK    2  A    between atoms: C2_2  and  C9_11 
REMARK    3  A    between atoms: C4_4  and  C5_5 
REMARK    4  A    between atoms: C5_5  and  C6_6 
REMARK    5  A    between atoms: C6_6  and  O1_8 
REMARK    6  A    between atoms: C6_6  and  C8_9 
REMARK    7  A    between atoms: C8_9  and  O2_10 
REMARK    8  A    between atoms: C10_12  and  O3_13 
REMARK    9  A    between atoms: C11_14  and  O4_15 
REMARK   10  A    between atoms: C22_26  and  O5_27 
REMARK   11  A    between atoms: C25_30  and  O6_31 
REMARK   12  A    between atoms: C27_33  and  O7_34 
ROOT
HETATM    1  C9  UNL     1       0.829  52.151 -13.152  1.00  0.00     0.033 C 
HETATM    2  C10 UNL     1      -0.706  52.062 -12.857  1.00  0.00     0.152 C 
HETATM    3  C11 UNL     1      -0.938  52.769 -11.496  1.00  0.00     0.155 C 
HETATM    4  C12 UNL     1       0.397  53.444 -11.203  1.00  0.00     0.060 C 
HETATM    5  C13 UNL     1       1.444  52.414 -11.735  1.00  0.00    -0.028 C 
HETATM    6  C14 UNL     1       1.541  51.088 -10.942  1.00  0.00     0.016 C 
HETATM    7  C15 UNL     1       2.814  53.120 -11.720  1.00  0.00     0.011 C 
HETATM    8  C16 UNL     1       3.164  53.697 -10.336  1.00  0.00     0.009 C 
HETATM    9  C17 UNL     1       2.077  54.661  -9.799  1.00  0.00     0.029 C 
HETATM   10  C18 UNL     1       2.483  55.408  -8.469  1.00  0.00    -0.031 C 
HETATM   11  C19 UNL     1       2.890  54.406  -7.359  1.00  0.00     0.016 C 
HETATM   12  C20 UNL     1       3.738  56.315  -8.740  1.00  0.00     0.012 C 
HETATM   13  C21 UNL     1       3.657  57.741  -8.174  1.00  0.00     0.032 C 
HETATM   14  C22 UNL     1       2.983  57.825  -6.810  1.00  0.00     0.118 C 
HETATM   15  C23 UNL     1       1.610  57.141  -6.771  1.00  0.00     0.039 C 
HETATM   16  C24 UNL     1       1.300  56.338  -8.050  1.00  0.00     0.025 C 
HETATM   17  C25 UNL     1      -0.073  55.643  -7.985  1.00  0.00     0.126 C 
HETATM   18  C26 UNL     1      -0.410  54.988  -9.329  1.00  0.00     0.071 C 
HETATM   19  C27 UNL     1       0.666  53.976  -9.775  1.00  0.00     0.071 C 
ENDROOT
BRANCH   1  20
HETATM   20  C2  UNL     1       1.378  50.997 -14.036  1.00  0.00     0.011 C 
HETATM   21  C1  UNL     1       2.803  51.242 -14.547  1.00  0.00     0.015 C 
BRANCH  20  22
HETATM   22  C3  UNL     1       0.418  50.714 -15.184  1.00  0.00    -0.026 C 
HETATM   23  C4  UNL     1       0.732  50.563 -16.482  1.00  0.00    -0.027 C 
BRANCH  23  24
HETATM   24  C5  UNL     1      -0.282  50.280 -17.564  1.00  0.00     0.066 C 
BRANCH  24  25
HETATM   25  C6  UNL     1      -0.384  51.381 -18.649  1.00  0.00     0.078 C 
HETATM   26  C7  UNL     1      -1.799  51.948 -18.784  1.00  0.00     0.048 C 
BRANCH  25  27
HETATM   27  O1  UNL     1       0.022  50.835 -19.921  1.00  0.00    -0.388 OA
HETATM   28  H12 UNL     1      -0.663  50.198 -20.190  1.00  0.00     0.210 HD
ENDBRANCH  25  27
BRANCH  25  29
HETATM   29  C8  UNL     1       0.601  52.528 -18.337  1.00  0.00     0.201 C 
BRANCH  29  30
HETATM   30  O2  UNL     1       0.148  53.746 -18.927  1.00  0.00    -0.398 OA
HETATM   31  H15 UNL     1      -0.806  53.783 -18.713  1.00  0.00     0.209 HD
ENDBRANCH  29  30
ENDBRANCH  25  29
ENDBRANCH  24  25
ENDBRANCH  23  24
ENDBRANCH  20  22
ENDBRANCH   1  20
BRANCH   2  32
HETATM   32  O3  UNL     1      -1.166  50.713 -12.780  1.00  0.00    -0.393 OA
HETATM   33  H18 UNL     1      -2.109  50.734 -12.546  1.00  0.00     0.210 HD
ENDBRANCH   2  32
BRANCH   3  34
HETATM   34  O4  UNL     1      -1.980  53.736 -11.618  1.00  0.00    -0.392 OA
HETATM   35  H20 UNL     1      -2.814  53.249 -11.728  1.00  0.00     0.210 HD
ENDBRANCH   3  34
BRANCH  19  36
HETATM   36  O7  UNL     1       0.637  52.870  -8.876  1.00  0.00    -0.389 OA
HETATM   37  H46 UNL     1       0.338  53.206  -8.004  1.00  0.00     0.210 HD
ENDBRANCH  19  36
BRANCH  17  38
HETATM   38  O6  UNL     1      -0.132  54.643  -6.973  1.00  0.00    -0.395 OA
HETATM   39  H43 UNL     1      -0.024  55.083  -6.110  1.00  0.00     0.210 HD
ENDBRANCH  17  38
BRANCH  14  40
HETATM   40  O5  UNL     1       3.820  57.235  -5.819  1.00  0.00    -0.396 OA
HETATM   41  H38 UNL     1       4.691  57.665  -5.869  1.00  0.00     0.210 HD
ENDBRANCH  14  40
TORSDOF 12
ENDMDL
