MODEL 1
REMARK minimizedAffinity -8.47106934
REMARK CNNscore 0.71795994
REMARK CNNaffinity 7.51466179
REMARK  12 active torsions:
REMARK  status: ('A' for Active; 'I' for Inactive)
REMARK    1  A    between atoms: C2_2  and  O2_4 
REMARK    2  A    between atoms: O2_4  and  C3_5 
REMARK    3  A    between atoms: C4_6  and  O3_7 
REMARK    4  A    between atoms: O3_7  and  C5_8 
REMARK    5  A    between atoms: C16_19  and  O4_20 
REMARK    6  A    between atoms: C19_23  and  C20_24 
REMARK    7  A    between atoms: C24_28  and  C25_29 
REMARK    8  A    between atoms: C25_29  and  O5_32 
REMARK    9  A    between atoms: C35_42  and  C36_43 
REMARK   10  A    between atoms: C36_43  and  O8_44 
REMARK   11  A    between atoms: C37_45  and  O9_46 
REMARK   12  A    between atoms: C38_47  and  O10_48 
ROOT
HETATM    1  C5  UNL     1       0.493  50.652 -14.556  1.00  0.00     0.133 C 
HETATM    2  C6  UNL     1       0.239  52.137 -14.263  1.00  0.00     0.034 C 
HETATM    3  C7  UNL     1      -0.428  52.392 -12.918  1.00  0.00     0.012 C 
HETATM    4  C8  UNL     1       0.445  51.940 -11.700  1.00  0.00    -0.033 C 
HETATM    5  C9  UNL     1      -0.544  51.550 -10.559  1.00  0.00     0.016 C 
HETATM    6  C10 UNL     1       1.286  50.647 -12.102  1.00  0.00     0.004 C 
HETATM    7  C11 UNL     1       2.790  50.879 -12.398  1.00  0.00     0.007 C 
HETATM    8  C12 UNL     1       3.496  52.097 -11.830  1.00  0.00     0.011 C 
HETATM    9  C13 UNL     1       2.778  52.825 -10.685  1.00  0.00    -0.030 C 
HETATM   10  C14 UNL     1       2.725  51.871  -9.460  1.00  0.00     0.016 C 
HETATM   11  C15 UNL     1       1.339  53.189 -11.214  1.00  0.00     0.032 C 
HETATM   12  C16 UNL     1       0.612  54.200 -10.257  1.00  0.00     0.124 C 
HETATM   13  C17 UNL     1       1.455  55.424  -9.855  1.00  0.00     0.038 C 
HETATM   14  C18 UNL     1       2.778  54.973  -9.257  1.00  0.00     0.004 C 
HETATM   15  C19 UNL     1       3.765  56.045  -8.720  1.00  0.00     0.025 C 
HETATM   16  C28 UNL     1       5.155  55.376  -8.938  1.00  0.00     0.009 C 
HETATM   17  C29 UNL     1       4.902  54.004  -9.576  1.00  0.00     0.011 C 
HETATM   18  C30 UNL     1       3.568  54.170 -10.321  1.00  0.00    -0.032 C 
HETATM   19  C31 UNL     1       3.871  55.034 -11.593  1.00  0.00     0.016 C 
HETATM   20  C32 UNL     1       0.638  49.777 -13.269  1.00  0.00    -0.017 C 
HETATM   21  C33 UNL     1      -0.710  49.145 -12.837  1.00  0.00     0.018 C 
HETATM   22  C34 UNL     1       1.530  48.541 -13.591  1.00  0.00     0.018 C 
ENDROOT
BRANCH   1  23
HETATM   23  O3  UNL     1      -0.574  50.152 -15.378  1.00  0.00    -0.352 OA
BRANCH  23  24
HETATM   24  C4  UNL     1      -1.076  51.110 -16.308  1.00  0.00     0.293 C 
HETATM   25  C3  UNL     1      -0.457  50.886 -17.705  1.00  0.00     0.218 C 
HETATM   26  C38 UNL     1      -1.201  49.828 -18.540  1.00  0.00     0.183 C 
HETATM   27  C37 UNL     1      -2.720  50.001 -18.432  1.00  0.00     0.180 C 
HETATM   28  C35 UNL     1      -3.170  50.068 -16.966  1.00  0.00     0.179 C 
HETATM   29  O7  UNL     1      -2.505  51.159 -16.302  1.00  0.00    -0.348 OA
BRANCH  25  30
HETATM   30  O2  UNL     1      -0.509  52.163 -18.396  1.00  0.00    -0.309 OA
BRANCH  30  31
HETATM   31  C2  UNL     1       0.697  52.759 -18.606  1.00  0.00     0.255 C 
HETATM   32  C1  UNL     1       0.699  53.474 -19.921  1.00  0.00     0.126 C 
HETATM   33  O1  UNL     1       1.652  52.707 -17.843  1.00  0.00    -0.266 OA
ENDBRANCH  30  31
ENDBRANCH  25  30
BRANCH  26  34
HETATM   34  O10 UNL     1      -0.837  48.495 -18.163  1.00  0.00    -0.390 OA
HETATM   35  H64 UNL     1       0.113  48.388 -18.362  1.00  0.00     0.210 HD
ENDBRANCH  26  34
BRANCH  27  36
HETATM   36  O9  UNL     1      -3.108  51.213 -19.101  1.00  0.00    -0.390 OA
HETATM   37  H62 UNL     1      -2.989  51.940 -18.461  1.00  0.00     0.210 HD
ENDBRANCH  27  36
BRANCH  28  38
HETATM   38  C36 UNL     1      -3.085  48.735 -16.205  1.00  0.00     0.198 C 
BRANCH  38  39
HETATM   39  O8  UNL     1      -3.423  48.887 -14.830  1.00  0.00    -0.398 OA
HETATM   40  H60 UNL     1      -4.389  48.753 -14.773  1.00  0.00     0.209 HD
ENDBRANCH  38  39
ENDBRANCH  28  38
ENDBRANCH  23  24
ENDBRANCH   1  23
BRANCH  12  41
HETATM   41  O4  UNL     1      -0.579  54.696 -10.863  1.00  0.00    -0.395 OA
HETATM   42  H24 UNL     1      -1.011  55.290 -10.228  1.00  0.00     0.210 HD
ENDBRANCH  12  41
BRANCH  15  43
HETATM   43  C20 UNL     1       3.544  56.482  -7.239  1.00  0.00     0.062 C 
HETATM   44  C21 UNL     1       4.698  57.356  -6.723  1.00  0.00     0.046 C 
HETATM   45  C22 UNL     1       3.328  55.295  -6.298  1.00  0.00     0.041 C 
HETATM   46  C23 UNL     1       2.470  55.874  -5.195  1.00  0.00     0.038 C 
HETATM   47  C24 UNL     1       1.671  56.977  -5.885  1.00  0.00     0.156 C 
HETATM   48  O6  UNL     1       2.338  57.262  -7.136  1.00  0.00    -0.372 OA
BRANCH  47  49
HETATM   49  C25 UNL     1       0.169  56.647  -6.124  1.00  0.00     0.076 C 
HETATM   50  C26 UNL     1      -0.087  55.138  -6.033  1.00  0.00     0.048 C 
HETATM   51  C27 UNL     1      -0.291  57.170  -7.490  1.00  0.00     0.048 C 
BRANCH  49  52
HETATM   52  O5  UNL     1      -0.637  57.292  -5.128  1.00  0.00    -0.388 OA
HETATM   53  H43 UNL     1      -1.548  56.966  -5.225  1.00  0.00     0.210 HD
ENDBRANCH  49  52
ENDBRANCH  47  49
ENDBRANCH  15  43
TORSDOF 12
ENDMDL
