MODEL 1
REMARK minimizedAffinity -8.32291698
REMARK  10 active torsions:
REMARK  status: ('A' for Active; 'I' for Inactive)
REMARK    1  A    between atoms: N1_2  and  C2_3 
REMARK    2  A    between atoms: C2_3  and  C3_4 
REMARK    3  A    between atoms: C3_4  and  O1_5 
REMARK    4  A    between atoms: O1_5  and  C4_6 
REMARK    5  A    between atoms: C4_6  and  C5_8 
REMARK    6  A    between atoms: C17_21  and  O4_22 
REMARK    7  A    between atoms: O4_22  and  C18_23 
REMARK    8  A    between atoms: C18_23  and  C19_25 
REMARK    9  A    between atoms: C19_25  and  C20_26 
REMARK   10  A    between atoms: C20_26  and  O6_29 
ROOT
HETATM    1  C5  UNL     1      -3.485  50.946 -25.890  1.00  0.00     0.085 C 
HETATM    2  C6  UNL     1      -2.930  51.205 -24.687  1.00  0.00    -0.070 C 
HETATM    3  C7  UNL     1      -1.476  51.558 -24.458  1.00  0.00     0.035 C 
HETATM    4  C8  UNL     1      -0.851  50.790 -23.285  1.00  0.00     0.010 C 
HETATM    5  C9  UNL     1      -1.696  50.891 -21.996  1.00  0.00     0.006 C 
HETATM    6  C10 UNL     1      -3.120  50.344 -22.324  1.00  0.00     0.068 C 
HETATM    7  C11 UNL     1      -4.027  50.157 -21.107  1.00  0.00     0.132 C 
HETATM    8  O3  UNL     1      -5.253  50.247 -21.195  1.00  0.00    -0.298 OA
HETATM    9  C12 UNL     1      -3.401  49.699 -19.805  1.00  0.00     0.085 C 
HETATM   10  C13 UNL     1      -2.102  50.472 -19.559  1.00  0.00     0.011 C 
HETATM   11  C14 UNL     1      -1.501  50.408 -18.111  1.00  0.00    -0.016 C 
HETATM   12  C15 UNL     1      -2.588  50.752 -17.058  1.00  0.00     0.018 C 
HETATM   13  C16 UNL     1      -0.991  49.000 -17.734  1.00  0.00     0.018 C 
HETATM   14  C17 UNL     1      -0.380  51.506 -17.985  1.00  0.00     0.140 C 
HETATM   15  C23 UNL     1       0.195  51.968 -19.335  1.00  0.00     0.034 C 
HETATM   16  C24 UNL     1       0.311  50.821 -20.329  1.00  0.00     0.012 C 
HETATM   17  C25 UNL     1      -1.067  50.205 -20.721  1.00  0.00    -0.035 C 
HETATM   18  C26 UNL     1      -0.817  48.707 -21.028  1.00  0.00     0.016 C 
HETATM   19  C27 UNL     1      -3.804  51.174 -23.437  1.00  0.00     0.022 C 
HETATM   20  C28 UNL     1      -4.155  52.612 -23.026  1.00  0.00     0.015 C 
ENDROOT
BRANCH   1  21
HETATM   21  C4  UNL     1      -2.850  51.018 -27.223  1.00  0.00     0.283 C 
HETATM   22  O2  UNL     1      -3.070  50.189 -28.095  1.00  0.00    -0.260 OA
BRANCH  21  23
HETATM   23  O1  UNL     1      -2.148  52.163 -27.356  1.00  0.00    -0.316 OA
BRANCH  23  24
HETATM   24  C3  UNL     1      -0.803  51.983 -27.817  1.00  0.00     0.209 C 
BRANCH  24  25
HETATM   25  C2  UNL     1      -0.119  53.353 -27.970  1.00  0.00     0.295 C 
BRANCH  25  26
HETATM   26  N1  UNL     1      -0.533  54.366 -26.988  1.00  0.00     0.081 N 
HETATM   27  C1  UNL     1       0.241  54.312 -25.755  1.00  0.00     0.306 C 
HETATM   28  H4  UNL     1      -1.525  54.250 -26.769  1.00  0.00     0.315 HD
ENDBRANCH  25  26
ENDBRANCH  24  25
ENDBRANCH  23  24
ENDBRANCH  21  23
ENDBRANCH   1  21
BRANCH  14  29
HETATM   29  O4  UNL     1       0.697  50.999 -17.169  1.00  0.00    -0.315 OA
BRANCH  29  30
HETATM   30  C18 UNL     1       1.117  51.788 -16.140  1.00  0.00     0.262 C 
HETATM   31  O5  UNL     1       1.027  53.005 -16.101  1.00  0.00    -0.265 OA
BRANCH  30  32
HETATM   32  C19 UNL     1       1.716  50.940 -15.047  1.00  0.00     0.148 C 
BRANCH  32  33
HETATM   33  C20 UNL     1       3.079  51.446 -14.566  1.00  0.00     0.059 C 
HETATM   34  C21 UNL     1       3.843  52.020 -15.765  1.00  0.00     0.045 C 
HETATM   35  C22 UNL     1       3.929  50.359 -13.898  1.00  0.00     0.045 C 
BRANCH  33  36
HETATM   36  O6  UNL     1       2.882  52.532 -13.653  1.00  0.00    -0.390 OA
HETATM   37  H34 UNL     1       2.911  52.180 -12.739  1.00  0.00     0.210 HD
ENDBRANCH  33  36
ENDBRANCH  32  33
ENDBRANCH  30  32
ENDBRANCH  29  30
ENDBRANCH  14  29
TORSDOF 10
ENDMDL
