MODEL 1
REMARK minimizedAffinity -6.38688707
REMARK CNNscore 0.508321762
REMARK CNNaffinity 6.46964788
REMARK  5 active torsions:
REMARK  status: ('A' for Active; 'I' for Inactive)
REMARK    1  A    between atoms: C2_2  and  C25_28 
REMARK    2  A    between atoms: C3_3  and  C4_4 
REMARK    3  A    between atoms: C4_4  and  C6_6 
REMARK    4  A    between atoms: C20_20  and  O1_21 
REMARK    5  A    between atoms: C25_28  and  C27_30 
ROOT
HETATM    1  C6  UNL     1     -13.681 -12.102  29.276  1.00  0.00     0.001 C 
HETATM    2  C7  UNL     1     -13.130 -12.148  30.733  1.00  0.00     0.006 C 
HETATM    3  C8  UNL     1     -13.254 -10.728  31.310  1.00  0.00     0.009 C 
HETATM    4  C9  UNL     1     -13.986  -9.954  30.218  1.00  0.00     0.036 C 
HETATM    5  C10 UNL     1     -13.503 -10.592  28.891  1.00  0.00    -0.033 C 
HETATM    6  C11 UNL     1     -12.034 -10.282  28.529  1.00  0.00     0.016 C 
HETATM    7  C12 UNL     1     -14.441 -10.074  27.782  1.00  0.00     0.010 C 
HETATM    8  C13 UNL     1     -14.466  -8.537  27.705  1.00  0.00     0.010 C 
HETATM    9  C14 UNL     1     -14.828  -7.873  29.048  1.00  0.00     0.039 C 
HETATM   10  C15 UNL     1     -14.015  -8.424  30.271  1.00  0.00     0.123 C 
HETATM   11  C16 UNL     1     -12.706  -7.709  30.476  1.00  0.00     0.014 C 
HETATM   12  C17 UNL     1     -12.846  -6.386  30.654  1.00  0.00     0.014 C 
HETATM   13  C18 UNL     1     -14.271  -5.889  30.489  1.00  0.00     0.124 C 
HETATM   14  C19 UNL     1     -14.400  -4.392  30.801  1.00  0.00     0.078 C 
HETATM   15  C20 UNL     1     -15.734  -3.779  30.357  1.00  0.00     0.121 C 
HETATM   16  C21 UNL     1     -16.770  -4.797  29.890  1.00  0.00     0.033 C 
HETATM   17  C22 UNL     1     -16.232  -5.722  28.795  1.00  0.00     0.015 C 
HETATM   18  C23 UNL     1     -14.799  -6.286  29.060  1.00  0.00     0.001 C 
HETATM   19  C24 UNL     1     -13.868  -5.702  27.963  1.00  0.00     0.019 C 
HETATM   20  O2  UNL     1     -15.087  -6.604  31.458  1.00  0.00    -0.223 OA
HETATM   21  O3  UNL     1     -14.784  -8.063  31.454  1.00  0.00    -0.224 OA
ENDROOT
BRANCH   1  22
HETATM   22  C4  UNL     1     -13.061 -13.205  28.377  1.00  0.00     0.009 C 
HETATM   23  C5  UNL     1     -13.201 -14.623  28.943  1.00  0.00     0.014 C 
BRANCH  22  24
HETATM   24  C3  UNL     1     -11.610 -13.009  27.951  1.00  0.00    -0.019 C 
HETATM   25  C2  UNL     1     -10.942 -13.364  26.831  1.00  0.00    -0.083 C 
HETATM   26  C1  UNL     1     -11.584 -14.056  25.657  1.00  0.00     0.043 C 
BRANCH  25  27
HETATM   27  C25 UNL     1      -9.440 -13.070  26.656  1.00  0.00     0.013 C 
HETATM   28  C26 UNL     1      -9.118 -12.574  25.230  1.00  0.00     0.015 C 
BRANCH  27  29
HETATM   29  C27 UNL     1      -8.538 -14.279  27.067  1.00  0.00    -0.015 C 
HETATM   30  C28 UNL     1      -9.277 -15.283  27.961  1.00  0.00     0.010 C 
HETATM   31  C29 UNL     1      -7.973 -15.031  25.855  1.00  0.00     0.010 C 
ENDBRANCH  27  29
ENDBRANCH  25  27
ENDBRANCH  22  24
ENDBRANCH   1  22
BRANCH  15  32
HETATM   32  O1  UNL     1     -15.462  -2.854  29.298  1.00  0.00    -0.395 OA
HETATM   33  H28 UNL     1     -16.315  -2.536  28.949  1.00  0.00     0.210 HD
ENDBRANCH  15  32
TORSDOF 5
ENDMDL
