MODEL 1
REMARK minimizedAffinity -7.35324955
REMARK CNNscore 0.58016336
REMARK CNNaffinity 6.88164759
REMARK  10 active torsions:
REMARK  status: ('A' for Active; 'I' for Inactive)
REMARK    1  A    between atoms: C3_3  and  O1_4 
REMARK    2  A    between atoms: N1_14  and  O2_16 
REMARK    3  A    between atoms: O2_16  and  C13_17 
REMARK    4  A    between atoms: C13_17  and  C14_18 
REMARK       I    between atoms: C14_18  and  N2_20 
REMARK    5  A    between atoms: N2_20  and  C15_21 
REMARK    6  A    between atoms: C15_21  and  C16_22 
REMARK       I    between atoms: C16_22  and  N3_24 
REMARK    7  A    between atoms: N3_24  and  C17_25 
REMARK    8  A    between atoms: C17_25  and  C18_26 
REMARK    9  A    between atoms: C17_25  and  C19_29 
REMARK   10  A    between atoms: C18_26  and  O6_28 
ROOT
HETATM    1  C1  UNL     1      -4.089  52.085 -10.317  1.00  0.00     0.015 C 
HETATM    2  C2  UNL     1      -2.921  52.187 -10.577  1.00  0.00    -0.078 C 
HETATM    3  C3  UNL     1      -1.487  52.288 -10.891  1.00  0.00     0.128 C 
HETATM    4  C4  UNL     1      -1.225  52.260 -12.400  1.00  0.00     0.052 C 
HETATM    5  C5  UNL     1       0.234  52.693 -12.486  1.00  0.00     0.010 C 
HETATM    6  C6  UNL     1       0.327  53.857 -11.491  1.00  0.00     0.002 C 
HETATM    7  C7  UNL     1       1.739  54.207 -10.969  1.00  0.00    -0.004 C 
HETATM    8  C8  UNL     1       2.655  53.029 -10.596  1.00  0.00     0.010 C 
HETATM    9  C9  UNL     1       4.033  53.502 -10.130  1.00  0.00     0.035 C 
HETATM   10  C10 UNL     1       3.992  54.589  -9.078  1.00  0.00    -0.069 C 
HETATM   11  C11 UNL     1       4.804  54.514  -8.007  1.00  0.00     0.030 C 
HETATM   12  C12 UNL     1       4.919  55.635  -7.028  1.00  0.00     0.032 C 
HETATM   13  N1  UNL     1       5.617  55.622  -5.933  1.00  0.00    -0.271 N 
ATOM     14  H1  UNL     1       5.702  56.417  -5.300  1.00  0.00     0.194 HD
HETATM   15  C22 UNL     1       4.216  56.932  -7.377  1.00  0.00     0.060 C 
HETATM   16  C23 UNL     1       2.890  56.647  -8.066  1.00  0.00     0.020 C 
HETATM   17  C24 UNL     1       3.040  55.756  -9.335  1.00  0.00    -0.016 C 
HETATM   18  C25 UNL     1       3.643  56.642 -10.458  1.00  0.00     0.020 C 
HETATM   19  C26 UNL     1       1.631  55.209  -9.790  1.00  0.00     0.002 C 
HETATM   20  C27 UNL     1       0.793  54.610  -8.627  1.00  0.00     0.007 C 
HETATM   21  C28 UNL     1      -0.194  53.500  -9.000  1.00  0.00     0.014 C 
HETATM   22  C29 UNL     1      -0.785  53.612 -10.415  1.00  0.00     0.003 C 
HETATM   23  C30 UNL     1      -1.760  54.821 -10.447  1.00  0.00     0.020 C 
ENDROOT
BRANCH   3  24
HETATM   24  O1  UNL     1      -0.834  51.143 -10.333  1.00  0.00    -0.377 OA
HETATM   25  H2  UNL     1      -1.352  50.364 -10.596  1.00  0.00     0.211 HD
ENDBRANCH   3  24
BRANCH  13  26
HETATM   26  O2  UNL     1       6.240  54.380  -5.727  1.00  0.00    -0.271 OA
BRANCH  26  27
HETATM   27  C13 UNL     1       7.262  54.542  -4.756  1.00  0.00     0.303 C 
BRANCH  27  28
HETATM   28  C14 UNL     1       8.435  55.339  -5.321  1.00  0.00     0.244 C 
HETATM   29  O3  UNL     1       8.389  55.989  -6.361  1.00  0.00    -0.271 OA
HETATM   30  N2  UNL     1       9.584  55.249  -4.554  1.00  0.00    -0.350 N 
HETATM   31  H16 UNL     1       9.482  54.973  -3.584  1.00  0.00     0.163 HD
BRANCH  30  32
HETATM   32  C15 UNL     1      10.738  56.082  -4.874  1.00  0.00     0.225 C 
BRANCH  32  33
HETATM   33  C16 UNL     1      12.059  55.368  -4.580  1.00  0.00     0.236 C 
HETATM   34  O4  UNL     1      13.045  55.954  -4.146  1.00  0.00    -0.272 OA
HETATM   35  N3  UNL     1      12.069  54.034  -4.920  1.00  0.00    -0.345 N 
HETATM   36  H19 UNL     1      11.341  53.709  -5.554  1.00  0.00     0.163 HD
BRANCH  35  37
HETATM   37  C17 UNL     1      13.281  53.209  -4.847  1.00  0.00     0.185 C 
BRANCH  37  38
HETATM   38  C18 UNL     1      14.101  53.394  -6.135  1.00  0.00     0.163 C 
HETATM   39  O5  UNL     1      14.040  52.721  -7.149  1.00  0.00    -0.648 OA
BRANCH  38  40
HETATM   40  O6  UNL     1      14.963  54.439  -6.076  1.00  0.00    -0.775 OA
HETATM   41  H21 UNL     1      15.413  54.409  -6.950  1.00  0.00     0.167 HD
ENDBRANCH  38  40
ENDBRANCH  37  38
BRANCH  37  42
HETATM   42  C19 UNL     1      12.917  51.734  -4.565  1.00  0.00     0.010 C 
HETATM   43  C20 UNL     1      11.446  51.434  -4.869  1.00  0.00     0.012 C 
HETATM   44  C21 UNL     1      13.265  51.295  -3.140  1.00  0.00     0.012 C 
ENDBRANCH  37  42
ENDBRANCH  35  37
ENDBRANCH  32  33
ENDBRANCH  30  32
ENDBRANCH  27  28
ENDBRANCH  26  27
ENDBRANCH  13  26
TORSDOF 10
ENDMDL
