MODEL 1
REMARK minimizedAffinity -10.0945311
REMARK  12 active torsions:
REMARK  status: ('A' for Active; 'I' for Inactive)
REMARK    1  A    between atoms: C2_2  and  C3_3 
REMARK    2  A    between atoms: C2_2  and  C26_31 
REMARK    3  A    between atoms: C3_3  and  C4_4 
REMARK    4  A    between atoms: C4_4  and  C5_5 
REMARK    5  A    between atoms: C5_5  and  C7_7 
REMARK    6  A    between atoms: C8_8  and  O1_9 
REMARK    7  A    between atoms: C9_10  and  O2_11 
REMARK    8  A    between atoms: C20_22  and  O3_23 
REMARK    9  A    between atoms: C23_26  and  O4_27 
REMARK   10  A    between atoms: C25_29  and  O5_30 
REMARK   11  A    between atoms: C26_31  and  C28_33 
REMARK   12  A    between atoms: C28_33  and  O6_34 
ROOT
HETATM    1  C7  UNL     1      -2.166   7.438  12.749  1.00  0.00     0.029 C 
HETATM    2  C8  UNL     1      -2.068   5.891  12.527  1.00  0.00     0.152 C 
HETATM    3  C9  UNL     1      -3.299   5.254  13.218  1.00  0.00     0.155 C 
HETATM    4  C10 UNL     1      -4.194   6.447  13.535  1.00  0.00     0.060 C 
HETATM    5  C11 UNL     1      -3.157   7.553  13.960  1.00  0.00    -0.029 C 
HETATM    6  C12 UNL     1      -2.399   7.290  15.287  1.00  0.00     0.016 C 
HETATM    7  C13 UNL     1      -3.914   8.894  14.083  1.00  0.00     0.011 C 
HETATM    8  C14 UNL     1      -5.170   8.806  14.979  1.00  0.00     0.009 C 
HETATM    9  C15 UNL     1      -6.116   7.689  14.500  1.00  0.00     0.029 C 
HETATM   10  C16 UNL     1      -7.536   7.640  15.156  1.00  0.00    -0.031 C 
HETATM   11  C17 UNL     1      -7.500   7.048  16.586  1.00  0.00     0.016 C 
HETATM   12  C18 UNL     1      -8.190   9.050  15.246  1.00  0.00     0.012 C 
HETATM   13  C19 UNL     1      -9.673   9.015  15.640  1.00  0.00     0.032 C 
HETATM   14  C20 UNL     1     -10.502   8.051  14.792  1.00  0.00     0.118 C 
HETATM   15  C21 UNL     1      -9.859   6.668  14.644  1.00  0.00     0.039 C 
HETATM   16  C22 UNL     1      -8.408   6.803  14.165  1.00  0.00     0.025 C 
HETATM   17  C23 UNL     1      -7.731   5.520  13.620  1.00  0.00     0.126 C 
HETATM   18  C24 UNL     1      -6.377   5.140  14.217  1.00  0.00     0.071 C 
HETATM   19  C25 UNL     1      -5.394   6.297  14.505  1.00  0.00     0.071 C 
ENDROOT
BRANCH   1  20
HETATM   20  C5  UNL     1      -0.781   8.158  12.786  1.00  0.00    -0.011 C 
HETATM   21  C6  UNL     1      -0.745   9.300  13.809  1.00  0.00     0.010 C 
BRANCH  20  22
HETATM   22  C4  UNL     1      -0.428   8.713  11.376  1.00  0.00     0.009 C 
BRANCH  22  23
HETATM   23  C3  UNL     1       0.764   7.997  10.715  1.00  0.00     0.034 C 
BRANCH  23  24
HETATM   24  C2  UNL     1       0.782   7.931   9.188  1.00  0.00    -0.083 C 
HETATM   25  C1  UNL     1      -0.238   8.354   8.419  1.00  0.00     0.015 C 
BRANCH  24  26
HETATM   26  C26 UNL     1       2.068   7.314   8.606  1.00  0.00     0.033 C 
HETATM   27  C27 UNL     1       1.951   6.833   7.152  1.00  0.00     0.017 C 
BRANCH  26  28
HETATM   28  C28 UNL     1       3.276   8.261   8.756  1.00  0.00     0.172 C 
BRANCH  28  29
HETATM   29  O6  UNL     1       3.363   9.192   7.681  1.00  0.00    -0.400 OA
HETATM   30  H48 UNL     1       2.505   9.652   7.637  1.00  0.00     0.209 HD
ENDBRANCH  28  29
ENDBRANCH  26  28
ENDBRANCH  24  26
ENDBRANCH  23  24
ENDBRANCH  22  23
ENDBRANCH  20  22
ENDBRANCH   1  20
BRANCH   2  31
HETATM   31  O1  UNL     1      -0.879   5.340  13.089  1.00  0.00    -0.393 OA
HETATM   32  H13 UNL     1      -0.771   4.443  12.732  1.00  0.00     0.210 HD
ENDBRANCH   2  31
BRANCH   3  33
HETATM   33  O2  UNL     1      -3.939   4.348  12.327  1.00  0.00    -0.392 OA
HETATM   34  H15 UNL     1      -3.339   3.595  12.187  1.00  0.00     0.210 HD
ENDBRANCH   3  33
BRANCH  19  35
HETATM   35  O5  UNL     1      -4.881   6.036  15.818  1.00  0.00    -0.389 OA
HETATM   36  H41 UNL     1      -4.486   5.148  15.825  1.00  0.00     0.210 HD
ENDBRANCH  19  35
BRANCH  17  37
HETATM   37  O4  UNL     1      -8.605   4.395  13.700  1.00  0.00    -0.395 OA
HETATM   38  H38 UNL     1      -8.722   4.174  14.641  1.00  0.00     0.210 HD
ENDBRANCH  17  37
BRANCH  14  39
HETATM   39  O3  UNL     1     -11.790   7.919  15.383  1.00  0.00    -0.396 OA
HETATM   40  H33 UNL     1     -12.306   7.310  14.826  1.00  0.00     0.210 HD
ENDBRANCH  14  39
TORSDOF 12
ENDMDL
