MODEL 1
REMARK minimizedAffinity -7.91364956
REMARK CNNscore 0.852429748
REMARK CNNaffinity 6.7534256
REMARK  8 active torsions:
REMARK  status: ('A' for Active; 'I' for Inactive)
REMARK    1  A    between atoms: C2_2  and  C4_4 
REMARK    2  A    between atoms: C4_4  and  O1_6 
REMARK    3  A    between atoms: C4_4  and  C6_7 
REMARK    4  A    between atoms: C7_9  and  C8_10 
REMARK    5  A    between atoms: C8_10  and  O3_12 
REMARK    6  A    between atoms: C8_10  and  C10_13 
REMARK    7  A    between atoms: C22_25  and  O4_26 
REMARK    8  A    between atoms: C27_31  and  O5_32 
ROOT
HETATM    1  C10 UNL     1       0.474  52.475 -10.861  1.00  0.00     0.034 C 
HETATM    2  C11 UNL     1       1.765  52.992 -11.618  1.00  0.00     0.016 C 
HETATM    3  C12 UNL     1       2.157  54.293 -10.897  1.00  0.00     0.026 C 
HETATM    4  C13 UNL     1       3.611  54.715 -10.784  1.00  0.00     0.013 C 
HETATM    5  C14 UNL     1       3.679  56.019  -9.946  1.00  0.00     0.043 C 
HETATM    6  C15 UNL     1       2.707  56.101  -8.772  1.00  0.00    -0.006 C 
HETATM    7  C16 UNL     1       1.710  55.218  -8.563  1.00  0.00    -0.030 C 
HETATM    8  C17 UNL     1       0.830  55.151  -7.328  1.00  0.00     0.027 C 
HETATM    9  C18 UNL     1      -0.545  54.435  -7.540  1.00  0.00     0.011 C 
HETATM   10  C19 UNL     1      -0.536  53.237  -8.518  1.00  0.00     0.014 C 
HETATM   11  C20 UNL     1       0.124  53.633  -9.854  1.00  0.00    -0.002 C 
HETATM   12  C21 UNL     1      -0.724  54.751 -10.511  1.00  0.00     0.019 C 
HETATM   13  C22 UNL     1       1.562  54.081  -9.510  1.00  0.00     0.094 C 
HETATM   14  C23 UNL     1       0.707  56.544  -6.613  1.00  0.00    -0.026 C 
HETATM   15  C24 UNL     1      -0.212  57.516  -7.400  1.00  0.00     0.016 C 
HETATM   16  C25 UNL     1       0.097  56.324  -5.191  1.00  0.00     0.013 C 
HETATM   17  C26 UNL     1       0.680  57.266  -4.144  1.00  0.00     0.032 C 
HETATM   18  C27 UNL     1       2.189  57.048  -3.982  1.00  0.00     0.119 C 
HETATM   19  C28 UNL     1       2.904  56.716  -5.297  1.00  0.00     0.045 C 
HETATM   20  C29 UNL     1       2.105  57.231  -6.500  1.00  0.00     0.071 C 
HETATM   21  C30 UNL     1       2.956  57.164  -7.762  1.00  0.00     0.161 C 
HETATM   22  O6  UNL     1       3.875  57.964  -7.938  1.00  0.00    -0.292 OA
ENDROOT
BRANCH   1  23
HETATM   23  C8  UNL     1      -0.612  51.815 -11.764  1.00  0.00     0.087 C 
HETATM   24  C9  UNL     1      -1.698  51.019 -11.029  1.00  0.00     0.049 C 
BRANCH  23  25
HETATM   25  C7  UNL     1       0.048  51.039 -12.886  1.00  0.00     0.188 A 
HETATM   26  C6  UNL     1      -0.026  51.468 -14.336  1.00  0.00     0.188 A 
HETATM   27  O2  UNL     1      -0.824  50.384 -13.821  1.00  0.00    -0.369 OA
BRANCH  26  28
HETATM   28  C4  UNL     1       1.033  51.063 -15.341  1.00  0.00     0.086 C 
HETATM   29  C5  UNL     1       0.458  49.998 -16.286  1.00  0.00     0.049 C 
BRANCH  28  30
HETATM   30  C2  UNL     1       1.601  52.315 -16.076  1.00  0.00     0.014 C 
HETATM   31  C1  UNL     1       1.130  52.447 -17.530  1.00  0.00     0.012 C 
HETATM   32  C3  UNL     1       3.135  52.387 -16.038  1.00  0.00     0.012 C 
ENDBRANCH  28  30
BRANCH  28  33
HETATM   33  O1  UNL     1       2.124  50.448 -14.638  1.00  0.00    -0.387 OA
HETATM   34  H11 UNL     1       1.731  49.773 -14.053  1.00  0.00     0.210 HD
ENDBRANCH  28  33
ENDBRANCH  26  28
ENDBRANCH  23  25
BRANCH  23  35
HETATM   35  O3  UNL     1      -1.332  52.895 -12.395  1.00  0.00    -0.387 OA
HETATM   36  H17 UNL     1      -0.686  53.469 -12.841  1.00  0.00     0.210 HD
ENDBRANCH  23  35
ENDBRANCH   1  23
BRANCH  13  37
HETATM   37  O4  UNL     1       2.252  52.988  -8.865  1.00  0.00    -0.384 OA
HETATM   38  H34 UNL     1       3.091  53.326  -8.504  1.00  0.00     0.211 HD
ENDBRANCH  13  37
BRANCH  18  39
HETATM   39  O5  UNL     1       2.757  58.217  -3.395  1.00  0.00    -0.396 OA
HETATM   40  H43 UNL     1       2.728  58.934  -4.052  1.00  0.00     0.210 HD
ENDBRANCH  18  39
TORSDOF 8
ENDMDL
