MODEL 1
REMARK minimizedAffinity -8.8749342
REMARK CNNscore 0.622531593
REMARK CNNaffinity 7.48541784
REMARK  11 active torsions:
REMARK  status: ('A' for Active; 'I' for Inactive)
REMARK    1  A    between atoms: C2_2  and  O2_4 
REMARK    2  A    between atoms: O2_4  and  C3_5 
REMARK    3  A    between atoms: C4_6  and  O3_7 
REMARK    4  A    between atoms: O3_7  and  C5_8 
REMARK    5  A    between atoms: C15_18  and  C16_19 
REMARK    6  A    between atoms: C20_23  and  C21_24 
REMARK    7  A    between atoms: C21_24  and  O4_27 
REMARK    8  A    between atoms: C24_29  and  O6_30 
REMARK    9  A    between atoms: C30_36  and  O7_37 
REMARK   10  A    between atoms: C36_44  and  O9_45 
REMARK   11  A    between atoms: C37_46  and  O10_47 
ROOT
HETATM    1  C5  UNL     1      -4.796   4.668  13.473  1.00  0.00     0.133 C 
HETATM    2  C6  UNL     1      -4.869   5.368  14.836  1.00  0.00     0.034 C 
HETATM    3  C7  UNL     1      -6.264   5.777  15.279  1.00  0.00     0.013 C 
HETATM    4  C8  UNL     1      -7.056   6.411  14.149  1.00  0.00    -0.025 A 
HETATM    5  C9  UNL     1      -6.903   7.906  14.007  1.00  0.00     0.021 A 
HETATM    6  C10 UNL     1      -8.241   7.370  14.483  1.00  0.00    -0.027 A 
HETATM    7  C11 UNL     1      -8.542   7.599  15.982  1.00  0.00     0.011 C 
HETATM    8  C12 UNL     1      -9.884   8.201  16.414  1.00  0.00     0.011 C 
HETATM    9  C13 UNL     1     -10.686   8.825  15.279  1.00  0.00    -0.028 C 
HETATM   10  C14 UNL     1      -9.987  10.145  14.881  1.00  0.00     0.016 C 
HETATM   11  C15 UNL     1     -12.198   9.102  15.587  1.00  0.00     0.057 C 
HETATM   12  C24 UNL     1     -12.890   8.984  14.190  1.00  0.00     0.126 C 
HETATM   13  C25 UNL     1     -11.848   8.372  13.234  1.00  0.00     0.042 C 
HETATM   14  C26 UNL     1     -10.770   7.750  14.134  1.00  0.00    -0.029 C 
HETATM   15  C27 UNL     1     -11.301   6.363  14.603  1.00  0.00     0.016 C 
HETATM   16  C28 UNL     1      -9.383   7.590  13.462  1.00  0.00     0.006 C 
HETATM   17  C29 UNL     1      -9.366   6.623  12.259  1.00  0.00     0.038 C 
HETATM   18  C30 UNL     1      -8.584   5.319  12.445  1.00  0.00     0.124 C 
HETATM   19  C31 UNL     1      -7.119   5.582  12.853  1.00  0.00     0.034 C 
HETATM   20  C32 UNL     1      -6.186   4.311  12.851  1.00  0.00    -0.015 C 
HETATM   21  C33 UNL     1      -6.774   3.080  13.585  1.00  0.00     0.018 C 
HETATM   22  C34 UNL     1      -5.965   3.858  11.377  1.00  0.00     0.018 C 
ENDROOT
BRANCH   1  23
HETATM   23  O3  UNL     1      -4.092   5.516  12.548  1.00  0.00    -0.352 OA
BRANCH  23  24
HETATM   24  C4  UNL     1      -2.711   5.715  12.874  1.00  0.00     0.292 C 
HETATM   25  C3  UNL     1      -1.873   4.881  11.877  1.00  0.00     0.218 C 
HETATM   26  C37 UNL     1      -0.373   5.219  12.017  1.00  0.00     0.183 C 
HETATM   27  C36 UNL     1      -0.110   6.723  12.129  1.00  0.00     0.173 C 
HETATM   28  C35 UNL     1      -1.037   7.353  13.159  1.00  0.00     0.205 C 
HETATM   29  O8  UNL     1      -2.395   7.099  12.821  1.00  0.00    -0.356 OA
BRANCH  25  30
HETATM   30  O2  UNL     1      -2.102   3.479  12.238  1.00  0.00    -0.309 OA
BRANCH  30  31
HETATM   31  C2  UNL     1      -2.238   2.577  11.237  1.00  0.00     0.255 C 
HETATM   32  C1  UNL     1      -3.168   1.484  11.656  1.00  0.00     0.126 C 
HETATM   33  O1  UNL     1      -1.668   2.638  10.155  1.00  0.00    -0.266 OA
ENDBRANCH  30  31
ENDBRANCH  25  30
BRANCH  26  34
HETATM   34  O10 UNL     1       0.420   4.728  10.915  1.00  0.00    -0.390 OA
HETATM   35  H60 UNL     1      -0.059   3.986  10.494  1.00  0.00     0.210 HD
ENDBRANCH  26  34
BRANCH  27  36
HETATM   36  O9  UNL     1       1.247   6.936  12.533  1.00  0.00    -0.391 OA
HETATM   37  H58 UNL     1       1.796   6.787  11.733  1.00  0.00     0.210 HD
ENDBRANCH  27  36
ENDBRANCH  23  24
ENDBRANCH   1  23
BRANCH  18  38
HETATM   38  O7  UNL     1      -9.259   4.474  13.368  1.00  0.00    -0.395 OA
HETATM   39  H47 UNL     1     -10.036   4.132  12.904  1.00  0.00     0.210 HD
ENDBRANCH  18  38
BRANCH  11  40
HETATM   40  C16 UNL     1     -12.659  10.261  16.523  1.00  0.00     0.065 C 
HETATM   41  C17 UNL     1     -13.832  11.143  16.052  1.00  0.00     0.046 C 
HETATM   42  C18 UNL     1     -11.481  11.151  16.949  1.00  0.00     0.041 C 
HETATM   43  C19 UNL     1     -11.902  11.658  18.310  1.00  0.00     0.038 C 
HETATM   44  C20 UNL     1     -12.702  10.492  18.897  1.00  0.00     0.156 C 
HETATM   45  O5  UNL     1     -13.059   9.637  17.781  1.00  0.00    -0.372 OA
BRANCH  44  46
HETATM   46  C21 UNL     1     -11.962   9.653  19.974  1.00  0.00     0.076 C 
HETATM   47  C22 UNL     1     -11.016  10.504  20.832  1.00  0.00     0.048 C 
HETATM   48  C23 UNL     1     -12.961   8.930  20.890  1.00  0.00     0.048 C 
BRANCH  46  49
HETATM   49  O4  UNL     1     -11.167   8.644  19.335  1.00  0.00    -0.388 OA
HETATM   50  H35 UNL     1     -11.796   8.095  18.818  1.00  0.00     0.210 HD
ENDBRANCH  46  49
ENDBRANCH  44  46
ENDBRANCH  11  40
BRANCH  12  51
HETATM   51  O6  UNL     1     -13.343  10.206  13.638  1.00  0.00    -0.395 OA
HETATM   52  H37 UNL     1     -13.936  10.010  12.889  1.00  0.00     0.210 HD
ENDBRANCH  12  51
TORSDOF 11
ENDMDL
