MODEL 1
REMARK minimizedAffinity -9.35678101
REMARK  4 active torsions:
REMARK  status: ('A' for Active; 'I' for Inactive)
REMARK    1  A    between atoms: C2_2  and  C3_3 
REMARK    2  A    between atoms: C2_2  and  C9_9 
REMARK    3  A    between atoms: C3_3  and  C4_4 
REMARK    4  A    between atoms: C4_4  and  C5_5 
ROOT
HETATM    1  C9  UNL     1      -1.175  48.875 -18.173  1.00  0.00     0.018 C 
HETATM    2  C10 UNL     1      -2.301  47.835 -18.401  1.00  0.00     0.010 C 
HETATM    3  C11 UNL     1      -2.923  48.154 -19.780  1.00  0.00     0.011 C 
HETATM    4  C12 UNL     1      -1.836  48.954 -20.535  1.00  0.00    -0.032 C 
HETATM    5  C13 UNL     1      -0.767  47.909 -21.000  1.00  0.00     0.016 C 
HETATM    6  C14 UNL     1      -1.329  49.839 -19.365  1.00  0.00     0.002 C 
HETATM    7  C15 UNL     1      -0.124  50.681 -19.753  1.00  0.00     0.006 C 
HETATM    8  C16 UNL     1      -0.469  51.581 -20.952  1.00  0.00     0.006 C 
HETATM    9  C17 UNL     1      -1.060  50.796 -22.158  1.00  0.00     0.003 C 
HETATM   10  C18 UNL     1      -1.198  51.642 -23.496  1.00  0.00    -0.035 C 
HETATM   11  C19 UNL     1      -2.063  52.908 -23.311  1.00  0.00     0.016 C 
HETATM   12  C20 UNL     1       0.234  52.141 -23.907  1.00  0.00     0.017 C 
HETATM   13  C21 UNL     1       0.504  52.229 -25.405  1.00  0.00     0.080 C 
HETATM   14  C22 UNL     1      -0.756  52.441 -26.205  1.00  0.00     0.135 C 
HETATM   15  O1  UNL     1      -0.845  53.380 -26.996  1.00  0.00    -0.297 OA
HETATM   16  C23 UNL     1      -1.857  51.386 -26.049  1.00  0.00     0.017 C 
HETATM   17  C24 UNL     1      -1.622  50.340 -27.160  1.00  0.00     0.023 C 
HETATM   18  C25 UNL     1      -3.227  52.040 -26.317  1.00  0.00     0.023 C 
HETATM   19  C26 UNL     1      -1.731  50.701 -24.640  1.00  0.00     0.009 C 
HETATM   20  C27 UNL     1      -2.993  49.921 -24.226  1.00  0.00     0.007 C 
HETATM   21  C28 UNL     1      -2.761  49.080 -22.968  1.00  0.00     0.011 C 
HETATM   22  C29 UNL     1      -2.304  49.906 -21.739  1.00  0.00    -0.032 C 
HETATM   23  C30 UNL     1      -3.517  50.777 -21.299  1.00  0.00     0.016 C 
ENDROOT
BRANCH   1  24
HETATM   24  C2  UNL     1      -1.168  49.532 -16.792  1.00  0.00    -0.084 C 
HETATM   25  C1  UNL     1      -2.343  49.764 -16.176  1.00  0.00     0.014 C 
BRANCH  24  26
HETATM   26  C3  UNL     1       0.185  49.903 -16.192  1.00  0.00     0.037 C 
BRANCH  26  27
HETATM   27  C4  UNL     1       0.400  51.330 -15.644  1.00  0.00     0.031 C 
BRANCH  27  28
HETATM   28  C5  UNL     1       1.678  51.972 -16.124  1.00  0.00    -0.024 C 
HETATM   29  C6  UNL     1       2.884  51.946 -15.524  1.00  0.00    -0.091 C 
HETATM   30  C7  UNL     1       4.067  52.636 -16.154  1.00  0.00     0.042 C 
HETATM   31  C8  UNL     1       3.190  51.274 -14.214  1.00  0.00     0.042 C 
ENDBRANCH  27  28
ENDBRANCH  26  27
ENDBRANCH  24  26
ENDBRANCH   1  24
TORSDOF 4
ENDMDL
