MODEL 1
REMARK minimizedAffinity -10.0304279
REMARK  7 active torsions:
REMARK  status: ('A' for Active; 'I' for Inactive)
REMARK    1  A    between atoms: C2_2  and  C30_32 
REMARK    2  A    between atoms: C3_3  and  C4_4 
REMARK    3  A    between atoms: C4_4  and  O1_5 
REMARK    4  A    between atoms: C4_4  and  C5_6 
REMARK    5  A    between atoms: C5_6  and  C6_7 
REMARK    6  A    between atoms: C6_7  and  C8_9 
REMARK    7  A    between atoms: C30_32  and  O3_33 
ROOT
HETATM    1  C8  UNL     1       0.899   6.588  12.298  1.00  0.00    -0.002 C 
HETATM    2  C9  UNL     1       0.966   5.075  11.940  1.00  0.00     0.007 C 
HETATM    3  C10 UNL     1      -0.445   4.495  12.168  1.00  0.00     0.015 C 
HETATM    4  C11 UNL     1      -1.170   5.554  13.023  1.00  0.00    -0.013 C 
HETATM    5  C12 UNL     1      -0.710   5.310  14.500  1.00  0.00     0.021 C 
HETATM    6  C13 UNL     1      -2.696   5.538  13.060  1.00  0.00    -0.070 C 
HETATM    7  C14 UNL     1      -3.403   4.398  12.965  1.00  0.00    -0.022 C 
HETATM    8  C15 UNL     1      -4.886   4.303  13.156  1.00  0.00     0.034 C 
HETATM    9  C16 UNL     1      -5.624   5.661  13.238  1.00  0.00     0.013 C 
HETATM   10  C17 UNL     1      -7.138   5.527  13.638  1.00  0.00     0.018 C 
HETATM   11  C18 UNL     1      -7.429   4.330  14.573  1.00  0.00     0.023 C 
HETATM   12  C19 UNL     1      -7.964   5.304  12.345  1.00  0.00     0.023 C 
HETATM   13  C20 UNL     1      -7.752   6.764  14.312  1.00  0.00     0.135 C 
HETATM   14  O2  UNL     1      -8.928   6.749  14.710  1.00  0.00    -0.297 OA
HETATM   15  C21 UNL     1      -6.950   8.027  14.524  1.00  0.00     0.080 C 
HETATM   16  C22 UNL     1      -5.565   8.059  13.914  1.00  0.00     0.017 C 
HETATM   17  C23 UNL     1      -4.792   6.727  14.024  1.00  0.00    -0.031 C 
HETATM   18  C24 UNL     1      -4.597   6.347  15.508  1.00  0.00     0.016 C 
HETATM   19  C25 UNL     1      -3.395   6.881  13.285  1.00  0.00     0.024 C 
HETATM   20  C26 UNL     1      -2.459   7.957  13.891  1.00  0.00     0.010 C 
HETATM   21  C27 UNL     1      -1.053   8.074  13.255  1.00  0.00     0.011 C 
HETATM   22  C28 UNL     1      -0.638   6.880  12.369  1.00  0.00    -0.029 C 
HETATM   23  C29 UNL     1      -1.173   7.116  10.927  1.00  0.00     0.016 C 
ENDROOT
BRANCH   1  24
HETATM   24  C6  UNL     1       1.901   7.485  11.502  1.00  0.00    -0.011 C 
HETATM   25  C7  UNL     1       2.071   8.932  11.982  1.00  0.00     0.010 C 
BRANCH  24  26
HETATM   26  C5  UNL     1       3.281   6.795  11.352  1.00  0.00     0.040 C 
BRANCH  26  27
HETATM   27  C4  UNL     1       3.330   5.678  10.299  1.00  0.00     0.141 C 
BRANCH  27  28
HETATM   28  C3  UNL     1       2.576   6.044   9.046  1.00  0.00     0.009 C 
HETATM   29  C2  UNL     1       2.656   7.166   8.297  1.00  0.00    -0.062 C 
HETATM   30  C1  UNL     1       1.822   7.291   7.047  1.00  0.00     0.045 C 
BRANCH  29  31
HETATM   31  C30 UNL     1       3.537   8.352   8.610  1.00  0.00     0.198 C 
BRANCH  31  32
HETATM   32  O3  UNL     1       3.354   9.355   7.616  1.00  0.00    -0.397 OA
HETATM   33  H48 UNL     1       3.858   9.075   6.833  1.00  0.00     0.209 HD
ENDBRANCH  31  32
ENDBRANCH  29  31
ENDBRANCH  27  28
BRANCH  27  34
HETATM   34  O1  UNL     1       4.675   5.353   9.976  1.00  0.00    -0.392 OA
HETATM   35  H6  UNL     1       4.641   4.697   9.259  1.00  0.00     0.210 HD
ENDBRANCH  27  34
ENDBRANCH  26  27
ENDBRANCH  24  26
ENDBRANCH   1  24
TORSDOF 7
ENDMDL
