MODEL 1
REMARK minimizedAffinity -7.40762281
REMARK CNNscore 0.497063994
REMARK CNNaffinity 6.71509171
REMARK  15 active torsions:
REMARK  status: ('A' for Active; 'I' for Inactive)
REMARK    1  A    between atoms: C2_2  and  C3_3 
REMARK    2  A    between atoms: C2_2  and  C35_44 
REMARK    3  A    between atoms: C3_3  and  C4_4 
REMARK    4  A    between atoms: C4_4  and  C5_5 
REMARK    5  A    between atoms: C5_5  and  C7_7 
REMARK    6  A    between atoms: C9_9  and  O1_10 
REMARK    7  A    between atoms: C10_11  and  C11_12 
REMARK    8  A    between atoms: C11_12  and  O3_14 
REMARK    9  A    between atoms: C22_25  and  O4_26 
REMARK   10  A    between atoms: O4_26  and  C23_27 
REMARK   11  A    between atoms: C24_29  and  C25_30 
REMARK   12  A    between atoms: C25_30  and  O6_31 
REMARK   13  A    between atoms: C26_32  and  O7_33 
REMARK   14  A    between atoms: C28_35  and  O8_36 
REMARK   15  A    between atoms: C29_37  and  O9_38 
ROOT
HETATM    1  C7  UNL     1      -2.337  51.099 -22.630  1.00  0.00     0.001 C 
HETATM    2  C8  UNL     1      -3.491  52.095 -22.305  1.00  0.00     0.039 C 
HETATM    3  C9  UNL     1      -4.540  51.314 -21.468  1.00  0.00     0.142 C 
HETATM    4  C10 UNL     1      -3.815  49.992 -21.087  1.00  0.00     0.102 C 
HETATM    5  C12 UNL     1      -4.599  48.757 -20.625  1.00  0.00    -0.054 C 
HETATM    6  C13 UNL     1      -4.123  47.508 -20.873  1.00  0.00    -0.067 C 
HETATM    7  C14 UNL     1      -2.847  47.277 -21.695  1.00  0.00     0.036 C 
HETATM    8  C15 UNL     1      -2.061  48.522 -22.159  1.00  0.00     0.015 C 
HETATM    9  C16 UNL     1      -2.998  49.706 -22.413  1.00  0.00    -0.016 C 
HETATM   10  C17 UNL     1      -3.893  49.316 -23.628  1.00  0.00     0.017 C 
HETATM   11  C18 UNL     1      -4.876  46.238 -20.385  1.00  0.00    -0.013 C 
HETATM   12  C19 UNL     1      -5.665  45.754 -21.633  1.00  0.00     0.021 C 
HETATM   13  C20 UNL     1      -3.879  45.141 -19.888  1.00  0.00     0.017 C 
HETATM   14  C21 UNL     1      -4.361  44.260 -18.723  1.00  0.00     0.037 C 
HETATM   15  C22 UNL     1      -5.866  44.003 -18.727  1.00  0.00     0.153 C 
HETATM   16  C30 UNL     1      -6.604  45.330 -18.669  1.00  0.00    -0.055 C 
HETATM   17  C31 UNL     1      -7.802  45.396 -18.058  1.00  0.00     0.017 C 
HETATM   18  C32 UNL     1      -5.842  46.562 -19.191  1.00  0.00     0.029 C 
HETATM   19  C33 UNL     1      -6.706  47.782 -19.524  1.00  0.00     0.014 C 
HETATM   20  C34 UNL     1      -5.839  49.009 -19.805  1.00  0.00     0.036 C 
ENDROOT
BRANCH  15  21
HETATM   21  O4  UNL     1      -6.143  43.282 -19.926  1.00  0.00    -0.349 OA
BRANCH  21  22
HETATM   22  C23 UNL     1      -5.963  41.866 -19.851  1.00  0.00     0.292 C 
HETATM   23  O5  UNL     1      -6.596  41.331 -18.696  1.00  0.00    -0.348 OA
HETATM   24  C24 UNL     1      -6.482  39.901 -18.577  1.00  0.00     0.179 C 
HETATM   25  C26 UNL     1      -6.092  39.148 -19.871  1.00  0.00     0.183 C 
HETATM   26  C28 UNL     1      -6.870  39.778 -21.039  1.00  0.00     0.183 C 
HETATM   27  C29 UNL     1      -6.623  41.292 -21.126  1.00  0.00     0.204 C 
BRANCH  24  28
HETATM   28  C25 UNL     1      -5.499  39.599 -17.439  1.00  0.00     0.198 C 
BRANCH  28  29
HETATM   29  O6  UNL     1      -6.220  39.303 -16.239  1.00  0.00    -0.398 OA
HETATM   30  H36 UNL     1      -7.029  39.852 -16.269  1.00  0.00     0.209 HD
ENDBRANCH  28  29
ENDBRANCH  24  28
BRANCH  25  31
HETATM   31  O7  UNL     1      -6.385  37.759 -19.643  1.00  0.00    -0.385 OA
HETATM   32  C27 UNL     1      -7.763  37.463 -19.473  1.00  0.00     0.202 C 
ENDBRANCH  25  31
BRANCH  26  33
HETATM   33  O8  UNL     1      -6.480  39.205 -22.298  1.00  0.00    -0.390 OA
HETATM   34  H42 UNL     1      -7.121  39.549 -22.952  1.00  0.00     0.210 HD
ENDBRANCH  26  33
BRANCH  27  35
HETATM   35  O9  UNL     1      -7.893  41.928 -21.394  1.00  0.00    -0.388 OA
HETATM   36  H44 UNL     1      -7.820  42.818 -20.987  1.00  0.00     0.210 HD
ENDBRANCH  27  35
ENDBRANCH  21  22
ENDBRANCH  15  21
BRANCH   4  37
HETATM   37  C11 UNL     1      -2.897  50.267 -19.846  1.00  0.00     0.156 C 
HETATM   38  O2  UNL     1      -1.900  49.645 -19.501  1.00  0.00    -0.649 OA
BRANCH  37  39
HETATM   39  O3  UNL     1      -3.279  51.298 -19.063  1.00  0.00    -0.775 OA
HETATM   40  H16 UNL     1      -2.610  51.292 -18.344  1.00  0.00     0.167 HD
ENDBRANCH  37  39
ENDBRANCH   4  37
BRANCH   3  41
HETATM   41  O1  UNL     1      -5.689  51.125 -22.299  1.00  0.00    -0.394 OA
HETATM   42  H15 UNL     1      -6.480  51.153 -21.735  1.00  0.00     0.210 HD
ENDBRANCH   3  41
BRANCH   1  43
HETATM   43  C5  UNL     1      -1.521  51.478 -23.899  1.00  0.00    -0.013 C 
HETATM   44  C6  UNL     1      -2.252  52.542 -24.729  1.00  0.00     0.010 C 
BRANCH  43  45
HETATM   45  C4  UNL     1      -0.040  51.872 -23.695  1.00  0.00     0.009 C 
BRANCH  45  46
HETATM   46  C3  UNL     1       0.550  52.750 -24.817  1.00  0.00     0.034 C 
BRANCH  46  47
HETATM   47  C2  UNL     1       1.085  52.064 -26.071  1.00  0.00    -0.086 C 
HETATM   48  C1  UNL     1       2.217  51.336 -26.064  1.00  0.00     0.014 C 
BRANCH  47  49
HETATM   49  C35 UNL     1       0.239  52.288 -27.328  1.00  0.00     0.005 C 
HETATM   50  C36 UNL     1       0.856  51.785 -28.641  1.00  0.00     0.014 C 
HETATM   51  C37 UNL     1      -0.122  53.772 -27.476  1.00  0.00     0.014 C 
ENDBRANCH  47  49
ENDBRANCH  46  47
ENDBRANCH  45  46
ENDBRANCH  43  45
ENDBRANCH   1  43
TORSDOF 15
ENDMDL
