MODEL 1
REMARK minimizedAffinity -9.35433483
REMARK  11 active torsions:
REMARK  status: ('A' for Active; 'I' for Inactive)
REMARK    1  A    between atoms: C2_2  and  C3_3 
REMARK    2  A    between atoms: C2_2  and  C4_5 
REMARK    3  A    between atoms: C3_3  and  O1_4 
REMARK    4  A    between atoms: C13_14  and  C14_15 
REMARK    5  A    between atoms: C14_15  and  C16_17 
REMARK    6  A    between atoms: C16_17  and  C17_18 
REMARK    7  A    between atoms: C17_18  and  C18_20 
REMARK    8  A    between atoms: C27_29  and  C28_30 
REMARK    9  A    between atoms: C28_30  and  C29_31 
REMARK   10  A    between atoms: C29_31  and  C30_32 
REMARK   11  A    between atoms: C30_32  and  O4_34 
ROOT
HETATM    1  C4  UNL     1      -2.376  50.065 -25.107  1.00  0.00     0.025 C 
HETATM    2  C5  UNL     1      -3.466  49.225 -24.421  1.00  0.00     0.010 C 
HETATM    3  C6  UNL     1      -2.896  48.488 -23.214  1.00  0.00     0.007 C 
HETATM    4  C7  UNL     1      -2.558  49.483 -22.098  1.00  0.00     0.004 C 
HETATM    5  C8  UNL     1      -1.594  50.595 -22.588  1.00  0.00    -0.027 A 
HETATM    6  C9  UNL     1      -0.332  50.854 -21.748  1.00  0.00     0.011 C 
HETATM    7  C10 UNL     1      -0.404  50.608 -20.227  1.00  0.00     0.011 C 
HETATM    8  C11 UNL     1      -1.696  49.936 -19.757  1.00  0.00    -0.032 C 
HETATM    9  C12 UNL     1      -2.768  51.051 -19.600  1.00  0.00     0.016 C 
HETATM   10  C13 UNL     1      -1.573  49.121 -18.431  1.00  0.00    -0.002 C 
HETATM   11  C22 UNL     1      -2.720  48.085 -18.531  1.00  0.00     0.006 C 
HETATM   12  C23 UNL     1      -3.168  48.054 -20.006  1.00  0.00     0.011 C 
HETATM   13  C24 UNL     1      -2.076  48.815 -20.784  1.00  0.00    -0.032 C 
HETATM   14  C25 UNL     1      -0.942  47.786 -21.085  1.00  0.00     0.016 C 
HETATM   15  C26 UNL     1      -2.285  51.827 -23.145  1.00  0.00     0.022 A 
HETATM   16  C27 UNL     1      -1.554  50.931 -24.116  1.00  0.00    -0.024 A 
ENDROOT
BRANCH  10  17
HETATM   17  C14 UNL     1      -1.456  49.900 -17.089  1.00  0.00    -0.007 C 
HETATM   18  C15 UNL     1      -2.857  50.367 -16.647  1.00  0.00     0.011 C 
BRANCH  17  19
HETATM   19  C16 UNL     1      -0.524  51.130 -17.110  1.00  0.00     0.087 C 
BRANCH  19  20
HETATM   20  C17 UNL     1       0.720  50.931 -16.255  1.00  0.00     0.149 C 
HETATM   21  O2  UNL     1       0.782  50.051 -15.400  1.00  0.00    -0.293 OA
BRANCH  20  22
HETATM   22  C18 UNL     1       1.873  51.846 -16.536  1.00  0.00     0.052 C 
HETATM   23  C19 UNL     1       2.935  52.048 -15.733  1.00  0.00    -0.084 C 
HETATM   24  C20 UNL     1       3.162  51.343 -14.422  1.00  0.00     0.043 C 
HETATM   25  C21 UNL     1       4.010  53.030 -16.116  1.00  0.00     0.043 C 
ENDBRANCH  20  22
ENDBRANCH  19  20
ENDBRANCH  17  19
ENDBRANCH  10  17
BRANCH  16  26
HETATM   26  C28 UNL     1      -0.282  51.527 -24.738  1.00  0.00     0.021 C 
BRANCH  26  27
HETATM   27  C29 UNL     1      -0.200  53.048 -24.622  1.00  0.00     0.111 C 
BRANCH  27  28
HETATM   28  C30 UNL     1       0.406  53.660 -25.855  1.00  0.00     0.139 C 
HETATM   29  O3  UNL     1       0.086  54.698 -26.406  1.00  0.00    -0.650 OA
BRANCH  28  30
HETATM   30  O4  UNL     1       1.395  52.894 -26.358  1.00  0.00    -0.776 OA
HETATM   31  H46 UNL     1       1.694  53.382 -27.155  1.00  0.00     0.167 HD
ENDBRANCH  28  30
ENDBRANCH  27  28
ENDBRANCH  26  27
ENDBRANCH  16  26
BRANCH   1  32
HETATM   32  C2  UNL     1      -2.965  50.773 -26.335  1.00  0.00    -0.061 C 
HETATM   33  C1  UNL     1      -3.103  52.110 -26.427  1.00  0.00     0.017 C 
BRANCH  32  34
HETATM   34  C3  UNL     1      -3.389  49.834 -27.448  1.00  0.00     0.198 C 
BRANCH  34  35
HETATM   35  O1  UNL     1      -3.462  50.490 -28.705  1.00  0.00    -0.397 OA
HETATM   36  H5  UNL     1      -2.573  50.845 -28.880  1.00  0.00     0.209 HD
ENDBRANCH  34  35
ENDBRANCH  32  34
ENDBRANCH   1  32
TORSDOF 11
ENDMDL
