MODEL 1
REMARK minimizedAffinity -8.37110806
REMARK  11 active torsions:
REMARK  status: ('A' for Active; 'I' for Inactive)
REMARK    1  A    between atoms: C4_4  and  C5_5 
REMARK    2  A    between atoms: C5_5  and  O2_7 
REMARK    3  A    between atoms: O2_7  and  C6_8 
REMARK    4  A    between atoms: C6_8  and  C7_9 
REMARK    5  A    between atoms: C17_19  and  O3_21 
REMARK    6  A    between atoms: C19_22  and  C20_23 
REMARK    7  A    between atoms: C20_23  and  C21_24 
REMARK    8  A    between atoms: C21_24  and  C22_25 
REMARK    9  A    between atoms: C22_25  and  C24_27 
REMARK   10  A    between atoms: C24_27  and  C25_28 
REMARK   11  A    between atoms: C25_28  and  O4_29 
ROOT
HETATM    1  C7  UNL     1      -0.719   5.909  12.261  1.00  0.00    -0.018 C 
HETATM    2  C8  UNL     1       0.333   5.296  13.214  1.00  0.00     0.018 C 
HETATM    3  C9  UNL     1      -1.177   7.254  12.880  1.00  0.00     0.012 C 
HETATM    4  C10 UNL     1      -2.543   7.669  12.370  1.00  0.00     0.002 C 
HETATM    5  C11 UNL     1      -3.626   6.709  12.852  1.00  0.00     0.010 C 
HETATM    6  C12 UNL     1      -3.256   5.184  12.824  1.00  0.00    -0.033 C 
HETATM    7  C13 UNL     1      -2.983   4.732  14.284  1.00  0.00     0.016 C 
HETATM    8  C14 UNL     1      -1.961   4.969  11.958  1.00  0.00     0.004 C 
HETATM    9  C15 UNL     1      -1.576   3.477  11.861  1.00  0.00     0.009 C 
HETATM   10  C16 UNL     1      -2.762   2.518  11.745  1.00  0.00     0.038 C 
HETATM   11  C17 UNL     1      -4.037   3.184  11.231  1.00  0.00     0.059 C 
HETATM   12  C18 UNL     1      -5.097   2.106  10.956  1.00  0.00     0.046 C 
HETATM   13  C19 UNL     1      -4.499   4.362  12.179  1.00  0.00     0.028 C 
ENDROOT
BRANCH   1  14
HETATM   14  C6  UNL     1       0.002   6.182  10.898  1.00  0.00     0.188 C 
BRANCH  14  15
HETATM   15  O2  UNL     1       1.134   7.049  11.081  1.00  0.00    -0.317 OA
BRANCH  15  16
HETATM   16  C5  UNL     1       2.247   6.658  10.409  1.00  0.00     0.283 C 
HETATM   17  O1  UNL     1       3.339   6.432  10.897  1.00  0.00    -0.260 OA
BRANCH  16  18
HETATM   18  C4  UNL     1       1.873   6.531   8.978  1.00  0.00     0.084 C 
HETATM   19  C2  UNL     1       2.251   7.344   7.973  1.00  0.00    -0.082 C 
HETATM   20  C1  UNL     1       3.085   8.589   8.108  1.00  0.00     0.043 C 
HETATM   21  C3  UNL     1       1.834   7.037   6.558  1.00  0.00     0.043 C 
ENDBRANCH  16  18
ENDBRANCH  15  16
ENDBRANCH  14  15
ENDBRANCH   1  14
BRANCH  13  22
HETATM   22  C20 UNL     1      -5.590   3.907  13.200  1.00  0.00     0.009 C 
BRANCH  22  23
HETATM   23  C21 UNL     1      -7.057   3.936  12.735  1.00  0.00     0.005 C 
BRANCH  23  24
HETATM   24  C22 UNL     1      -7.967   5.035  13.341  1.00  0.00    -0.017 C 
HETATM   25  C23 UNL     1      -8.672   5.853  12.254  1.00  0.00     0.010 C 
BRANCH  24  26
HETATM   26  C24 UNL     1      -7.219   5.932  14.345  1.00  0.00     0.030 C 
BRANCH  26  27
HETATM   27  C25 UNL     1      -7.610   5.720  15.806  1.00  0.00     0.164 C 
BRANCH  27  28
HETATM   28  O4  UNL     1      -7.975   4.371  16.056  1.00  0.00    -0.401 OA
HETATM   29  H44 UNL     1      -7.247   3.805  15.747  1.00  0.00     0.209 HD
ENDBRANCH  27  28
ENDBRANCH  26  27
ENDBRANCH  24  26
ENDBRANCH  23  24
ENDBRANCH  22  23
ENDBRANCH  13  22
BRANCH  11  30
HETATM   30  O3  UNL     1      -3.753   3.764   9.943  1.00  0.00    -0.390 OA
HETATM   31  H30 UNL     1      -3.437   3.057   9.354  1.00  0.00     0.210 HD
ENDBRANCH  11  30
TORSDOF 11
ENDMDL
