MODEL 1
REMARK minimizedAffinity -9.46303082
REMARK CNNscore 0.610124707
REMARK CNNaffinity 6.54709959
REMARK  7 active torsions:
REMARK  status: ('A' for Active; 'I' for Inactive)
REMARK    1  A    between atoms: C2_2  and  C4_4 
REMARK    2  A    between atoms: C7_7  and  O1_9 
REMARK    3  A    between atoms: C9_10  and  C10_11 
REMARK    4  A    between atoms: C11_12  and  C12_13 
REMARK    5  A    between atoms: C14_15  and  C15_16 
REMARK    6  A    between atoms: C24_26  and  C26_28 
REMARK    7  A    between atoms: C29_32  and  O4_34 
ROOT
HETATM    1  C15 UNL     1      -5.292  47.684 -28.527  1.00  0.00     0.149 C 
HETATM    2  C16 UNL     1      -6.343  46.716 -29.069  1.00  0.00     0.054 C 
HETATM    3  C17 UNL     1      -6.875  47.350 -30.390  1.00  0.00     0.050 C 
HETATM    4  C18 UNL     1      -5.744  48.387 -30.654  1.00  0.00     0.272 C 
HETATM    5  O2  UNL     1      -4.567  47.858 -31.261  1.00  0.00    -0.360 OA
HETATM    6  C19 UNL     1      -4.620  47.796 -32.672  1.00  0.00     0.171 C 
HETATM    7  C20 UNL     1      -5.067  46.419 -33.130  1.00  0.00     0.027 C 
HETATM    8  C21 UNL     1      -5.812  45.607 -32.075  1.00  0.00     0.012 C 
HETATM    9  C22 UNL     1      -7.096  46.245 -31.495  1.00  0.00     0.032 C 
HETATM   10  C23 UNL     1      -8.094  46.637 -32.609  1.00  0.00    -0.066 C 
HETATM   11  C24 UNL     1      -8.776  45.747 -33.376  1.00  0.00    -0.021 C 
HETATM   12  C25 UNL     1      -9.707  46.110 -34.499  1.00  0.00     0.052 C 
HETATM   13  C27 UNL     1      -8.307  48.126 -32.755  1.00  0.00     0.038 C 
HETATM   14  C28 UNL     1      -8.726  48.805 -31.452  1.00  0.00     0.042 C 
HETATM   15  C29 UNL     1      -8.261  48.087 -30.163  1.00  0.00     0.067 C 
HETATM   16  C30 UNL     1      -9.396  47.153 -29.678  1.00  0.00     0.047 C 
HETATM   17  O5  UNL     1      -5.331  48.847 -29.358  1.00  0.00    -0.351 OA
ENDROOT
BRANCH   1  18
HETATM   18  C14 UNL     1      -5.175  48.111 -27.090  1.00  0.00     0.011 C 
HETATM   19  C12 UNL     1      -4.174  48.526 -26.284  1.00  0.00    -0.064 C 
HETATM   20  C13 UNL     1      -2.718  48.574 -26.650  1.00  0.00     0.048 C 
BRANCH  19  21
HETATM   21  C11 UNL     1      -4.526  48.929 -24.914  1.00  0.00     0.003 C 
HETATM   22  C10 UNL     1      -3.689  49.379 -23.966  1.00  0.00    -0.018 C 
BRANCH  22  23
HETATM   23  C9  UNL     1      -4.021  49.789 -22.542  1.00  0.00     0.050 C 
HETATM   24  C4  UNL     1      -2.906  49.735 -21.448  1.00  0.00     0.024 C 
HETATM   25  C5  UNL     1      -3.179  50.949 -20.523  1.00  0.00     0.013 C 
HETATM   26  C6  UNL     1      -4.532  51.500 -20.946  1.00  0.00     0.039 C 
HETATM   27  C7  UNL     1      -4.594  51.229 -22.450  1.00  0.00     0.062 C 
HETATM   28  C8  UNL     1      -3.813  52.277 -23.252  1.00  0.00     0.046 C 
BRANCH  24  29
HETATM   29  C2  UNL     1      -2.856  48.371 -20.760  1.00  0.00    -0.088 C 
HETATM   30  C1  UNL     1      -3.637  48.010 -19.726  1.00  0.00     0.014 C 
HETATM   31  C3  UNL     1      -1.862  47.390 -21.324  1.00  0.00     0.043 C 
ENDBRANCH  24  29
BRANCH  27  32
HETATM   32  O1  UNL     1      -5.957  51.252 -22.877  1.00  0.00    -0.390 OA
HETATM   33  H14 UNL     1      -6.287  52.159 -22.764  1.00  0.00     0.210 HD
ENDBRANCH  27  32
ENDBRANCH  22  23
ENDBRANCH  19  21
ENDBRANCH   1  18
BRANCH  15  34
HETATM   34  O4  UNL     1      -8.135  49.102 -29.163  1.00  0.00    -0.389 OA
HETATM   35  H44 UNL     1      -9.007  49.500 -28.997  1.00  0.00     0.210 HD
ENDBRANCH  15  34
BRANCH  11  36
HETATM   36  C26 UNL     1      -8.651  44.268 -33.189  1.00  0.00     0.265 C 
HETATM   37  O3  UNL     1      -8.016  43.536 -33.938  1.00  0.00    -0.302 OA
ENDBRANCH  11  36
TORSDOF 7
ENDMDL
