MODEL 1
REMARK minimizedAffinity -6.39533186
REMARK  6 active torsions:
REMARK  status: ('A' for Active; 'I' for Inactive)
REMARK    1  A    between atoms: N1_2  and  C3_4 
REMARK    2  A    between atoms: C3_4  and  C4_5 
REMARK    3  A    between atoms: C4_5  and  O1_6 
REMARK    4  A    between atoms: O1_6  and  C5_7 
REMARK    5  A    between atoms: C5_7  and  C6_8 
REMARK    6  A    between atoms: C5_7  and  C12_14 
ROOT
HETATM    1  C5  UNL     1      -0.970  51.647 -25.003  1.00  0.00     0.206 C 
ENDROOT
BRANCH   1   2
HETATM    2  O1  UNL     1      -1.893  52.688 -25.344  1.00  0.00    -0.373 OA
BRANCH   2   3
HETATM    3  C4  UNL     1      -3.146  52.213 -25.842  1.00  0.00     0.199 C 
BRANCH   3   4
HETATM    4  C3  UNL     1      -3.378  50.735 -25.470  1.00  0.00     0.297 C 
BRANCH   4   5
HETATM    5  N1  UNL     1      -3.101  49.723 -26.502  1.00  0.00     0.082 N 
HETATM    6  C1  UNL     1      -3.372  50.213 -27.851  1.00  0.00     0.309 C 
HETATM    7  C2  UNL     1      -3.791  48.459 -26.255  1.00  0.00     0.309 C 
ENDBRANCH   4   5
ENDBRANCH   3   4
ENDBRANCH   2   3
ENDBRANCH   1   2
BRANCH   1   8
HETATM    8  C6  UNL     1       0.139  51.662 -26.040  1.00  0.00    -0.024 A 
HETATM    9  C7  UNL     1      -0.167  51.831 -27.401  1.00  0.00     0.010 A 
HETATM   10  C8  UNL     1       0.847  51.842 -28.362  1.00  0.00     0.001 A 
HETATM   11  C9  UNL     1       2.177  51.691 -27.976  1.00  0.00     0.000 A 
HETATM   12  C10 UNL     1       2.497  51.534 -26.629  1.00  0.00     0.001 A 
HETATM   13  C11 UNL     1       1.485  51.523 -25.668  1.00  0.00     0.010 A 
ENDBRANCH   1   8
BRANCH   1  14
HETATM   14  C12 UNL     1      -0.492  51.921 -23.608  1.00  0.00     0.062 A 
HETATM   15  C13 UNL     1       0.270  52.953 -23.090  1.00  0.00     0.048 A 
HETATM   16  C14 UNL     1       0.383  52.680 -21.719  1.00  0.00     0.109 A 
HETATM   17  N2  UNL     1      -0.258  51.564 -21.373  1.00  0.00    -0.310 N 
HETATM   18  N3  UNL     1      -0.771  51.110 -22.533  1.00  0.00    -0.298 N 
ATOM     19  H2  UNL     1      -0.340  51.150 -20.445  1.00  0.00     0.186 HD
HETATM   20  C15 UNL     1      -1.513  49.870 -22.520  1.00  0.00     0.177 C 
ENDBRANCH   1  14
TORSDOF 6
ENDMDL
