MODEL 1
REMARK minimizedAffinity -11.1306925
REMARK  8 active torsions:
REMARK  status: ('A' for Active; 'I' for Inactive)
REMARK    1  A    between atoms: C12_12  and  O1_13 
REMARK    2  A    between atoms: C17_18  and  O2_19 
REMARK    3  A    between atoms: C18_20  and  C19_21 
REMARK    4  A    between atoms: C19_21  and  C21_23 
REMARK    5  A    between atoms: C21_23  and  C22_24 
REMARK    6  A    between atoms: C22_24  and  C23_25 
REMARK    7  A    between atoms: C24_26  and  C26_28 
REMARK    8  A    between atoms: C26_28  and  O3_29 
ROOT
HETATM    1  C1  UNL     1      -4.201   3.207  10.643  1.00  0.00     0.044 C 
HETATM    2  C2  UNL     1      -4.896   3.797  11.844  1.00  0.00    -0.074 C 
HETATM    3  C3  UNL     1      -4.417   4.764  12.670  1.00  0.00    -0.044 C 
HETATM    4  C4  UNL     1      -3.003   5.239  12.751  1.00  0.00    -0.048 C 
HETATM    5  C5  UNL     1      -2.692   6.408  13.380  1.00  0.00    -0.064 C 
HETATM    6  C6  UNL     1      -3.723   7.347  13.951  1.00  0.00     0.036 C 
HETATM    7  C7  UNL     1      -5.150   6.958  13.605  1.00  0.00     0.014 C 
HETATM    8  C8  UNL     1      -5.347   5.436  13.708  1.00  0.00     0.030 C 
HETATM    9  C9  UNL     1      -6.868   5.044  13.640  1.00  0.00    -0.014 C 
HETATM   10  C10 UNL     1      -7.644   5.843  12.565  1.00  0.00     0.018 C 
HETATM   11  C11 UNL     1      -7.546   5.334  14.998  1.00  0.00     0.018 C 
HETATM   12  C12 UNL     1      -6.936   3.526  13.363  1.00  0.00     0.130 C 
HETATM   13  C13 UNL     1      -6.269   3.183  12.031  1.00  0.00     0.067 C 
HETATM   14  C14 UNL     1      -1.234   6.782  13.662  1.00  0.00    -0.010 C 
HETATM   15  C15 UNL     1      -0.955   6.188  15.083  1.00  0.00     0.021 C 
HETATM   16  C16 UNL     1      -0.812   8.264  13.694  1.00  0.00     0.046 C 
HETATM   17  C17 UNL     1       0.726   8.237  13.509  1.00  0.00     0.124 C 
HETATM   18  C18 UNL     1       1.083   6.828  12.945  1.00  0.00     0.027 C 
HETATM   19  C27 UNL     1      -0.300   6.261  12.508  1.00  0.00    -0.026 C 
HETATM   20  C28 UNL     1      -0.716   6.818  11.113  1.00  0.00     0.016 C 
HETATM   21  C29 UNL     1      -0.420   4.736  12.487  1.00  0.00     0.015 C 
HETATM   22  C30 UNL     1      -1.886   4.313  12.242  1.00  0.00     0.040 C 
ENDROOT
BRANCH  18  23
HETATM   23  C19 UNL     1       2.353   6.655  12.053  1.00  0.00    -0.011 C 
HETATM   24  C20 UNL     1       2.825   8.054  11.604  1.00  0.00     0.010 C 
BRANCH  23  25
HETATM   25  C21 UNL     1       2.267   5.712  10.829  1.00  0.00     0.008 C 
BRANCH  25  26
HETATM   26  C22 UNL     1       3.302   5.955   9.718  1.00  0.00     0.028 C 
BRANCH  26  27
HETATM   27  C23 UNL     1       2.709   6.004   8.337  1.00  0.00    -0.022 C 
HETATM   28  C24 UNL     1       2.280   7.093   7.664  1.00  0.00    -0.064 C 
HETATM   29  C25 UNL     1       1.750   6.962   6.258  1.00  0.00     0.045 C 
BRANCH  28  30
HETATM   30  C26 UNL     1       2.282   8.496   8.206  1.00  0.00     0.197 C 
BRANCH  30  31
HETATM   31  O3  UNL     1       3.292   9.246   7.547  1.00  0.00    -0.397 OA
HETATM   32  H41 UNL     1       3.135   9.139   6.591  1.00  0.00     0.209 HD
ENDBRANCH  30  31
ENDBRANCH  28  30
ENDBRANCH  26  27
ENDBRANCH  25  26
ENDBRANCH  23  25
ENDBRANCH  18  23
BRANCH  17  33
HETATM   33  O2  UNL     1       1.119   9.304  12.669  1.00  0.00    -0.395 OA
HETATM   34  H25 UNL     1       0.856  10.135  13.103  1.00  0.00     0.210 HD
ENDBRANCH  17  33
BRANCH  12  35
HETATM   35  O1  UNL     1      -8.278   3.035  13.373  1.00  0.00    -0.394 OA
HETATM   36  H16 UNL     1      -8.726   3.341  12.567  1.00  0.00     0.210 HD
ENDBRANCH  12  35
TORSDOF 8
ENDMDL
