MODEL 1
REMARK minimizedAffinity -8.02558708
REMARK CNNscore 0.396377236
REMARK CNNaffinity 6.12883759
REMARK  6 active torsions:
REMARK  status: ('A' for Active; 'I' for Inactive)
REMARK    1  A    between atoms: C9_10  and  C10_11 
REMARK    2  A    between atoms: C11_13  and  O3_14 
REMARK    3  A    between atoms: C12_15  and  C13_16 
REMARK    4  A    between atoms: C14_18  and  O5_19 
REMARK    5  A    between atoms: C16_21  and  C17_22 
REMARK    6  A    between atoms: C17_22  and  C18_23 
ROOT
HETATM    1  C1  UNL     1      -4.481   8.464  12.887  1.00  0.00     0.043 C 
HETATM    2  C2  UNL     1      -3.212   8.491  13.711  1.00  0.00    -0.087 C 
HETATM    3  C3  UNL     1      -2.266   9.407  13.422  1.00  0.00    -0.024 C 
HETATM    4  C4  UNL     1      -0.944   9.721  14.062  1.00  0.00     0.030 C 
HETATM    5  C5  UNL     1      -0.120   8.611  14.716  1.00  0.00     0.042 C 
HETATM    6  C6  UNL     1       0.776   7.731  13.794  1.00  0.00     0.069 C 
HETATM    7  C7  UNL     1       1.446   6.679  14.701  1.00  0.00     0.047 C 
HETATM    8  O1  UNL     1       1.812   8.711  13.417  1.00  0.00    -0.338 OA
HETATM    9  C8  UNL     1       2.868   8.216  12.706  1.00  0.00     0.095 A 
HETATM   10  C9  UNL     1       4.134   8.778  12.931  1.00  0.00     0.070 A 
HETATM   11  C11 UNL     1       5.266   8.234  12.309  1.00  0.00     0.097 A 
HETATM   12  C12 UNL     1       5.125   7.126  11.472  1.00  0.00     0.069 A 
HETATM   13  C14 UNL     1       3.846   6.592  11.231  1.00  0.00     0.091 A 
HETATM   14  C15 UNL     1       2.695   7.166  11.803  1.00  0.00     0.015 A 
HETATM   15  C16 UNL     1       1.299   6.665  11.486  1.00  0.00     0.032 C 
HETATM   16  C21 UNL     1       0.171   7.216  12.456  1.00  0.00     0.034 C 
HETATM   17  C22 UNL     1      -1.073   6.348  12.310  1.00  0.00     0.006 A 
HETATM   18  C23 UNL     1      -2.193   5.829  13.195  1.00  0.00    -0.001 A 
HETATM   19  C24 UNL     1      -2.387   6.179  14.624  1.00  0.00     0.010 C 
HETATM   20  C25 UNL     1      -3.186   7.483  14.845  1.00  0.00     0.034 C 
HETATM   21  C26 UNL     1      -1.173   4.846  12.630  1.00  0.00    -0.039 A 
HETATM   22  C27 UNL     1      -0.272   4.104  13.580  1.00  0.00     0.015 C 
HETATM   23  C28 UNL     1      -1.605   3.971  11.468  1.00  0.00     0.015 C 
ENDROOT
BRANCH  15  24
HETATM   24  C17 UNL     1       0.930   6.775   9.967  1.00  0.00     0.014 C 
BRANCH  24  25
HETATM   25  C18 UNL     1       1.038   8.104   9.175  1.00  0.00    -0.022 C 
HETATM   26  C19 UNL     1      -0.310   8.697   8.763  1.00  0.00     0.009 C 
HETATM   27  C20 UNL     1       1.986   8.084   7.981  1.00  0.00     0.009 C 
ENDBRANCH  24  25
ENDBRANCH  15  24
BRANCH  13  28
HETATM   28  O5  UNL     1       3.674   5.483  10.441  1.00  0.00    -0.359 OA
HETATM   29  H15 UNL     1       4.552   5.203  10.092  1.00  0.00     0.217 HD
ENDBRANCH  13  28
BRANCH  10  30
HETATM   30  C10 UNL     1       4.264   9.926  13.851  1.00  0.00     0.275 C 
HETATM   31  O2  UNL     1       5.376  10.325  14.190  1.00  0.00    -0.301 OA
ENDBRANCH  10  30
BRANCH  12  32
HETATM   32  C13 UNL     1       6.323   6.528  10.846  1.00  0.00     0.275 C 
HETATM   33  O4  UNL     1       7.188   7.244  10.347  1.00  0.00    -0.301 OA
ENDBRANCH  12  32
BRANCH  11  34
HETATM   34  O3  UNL     1       6.523   8.748  12.514  1.00  0.00    -0.359 OA
HETATM   35  H13 UNL     1       6.457   9.509  13.137  1.00  0.00     0.217 HD
ENDBRANCH  11  34
TORSDOF 6
ENDMDL
