MODEL 1
REMARK minimizedAffinity -8.30132771
REMARK CNNscore 0.91002804
REMARK CNNaffinity 6.99579096
REMARK  12 active torsions:
REMARK  status: ('A' for Active; 'I' for Inactive)
REMARK    1  A    between atoms: C2_2  and  C3_3 
REMARK    2  A    between atoms: C2_2  and  C26_31 
REMARK    3  A    between atoms: C3_3  and  C4_4 
REMARK    4  A    between atoms: C4_4  and  C5_5 
REMARK    5  A    between atoms: C5_5  and  C7_7 
REMARK    6  A    between atoms: C8_8  and  O1_9 
REMARK    7  A    between atoms: C9_10  and  O2_11 
REMARK    8  A    between atoms: C11_13  and  O3_14 
REMARK    9  A    between atoms: C13_16  and  O4_17 
REMARK   10  A    between atoms: C16_20  and  O5_21 
REMARK   11  A    between atoms: C26_31  and  C28_33 
REMARK   12  A    between atoms: C28_33  and  O6_34 
ROOT
HETATM    1  C7  UNL     1      -1.039  12.035  17.623  1.00  0.00     0.029 C 
HETATM    2  C8  UNL     1      -0.024  11.968  16.472  1.00  0.00     0.152 C 
HETATM    3  C9  UNL     1       0.426  10.504  16.444  1.00  0.00     0.155 C 
HETATM    4  C10 UNL     1      -0.786   9.677  16.940  1.00  0.00     0.060 C 
HETATM    5  C11 UNL     1      -1.272   8.463  16.106  1.00  0.00     0.071 C 
HETATM    6  C12 UNL     1      -0.173   7.418  15.854  1.00  0.00     0.071 C 
HETATM    7  C13 UNL     1      -0.672   6.290  14.953  1.00  0.00     0.126 C 
HETATM    8  C14 UNL     1      -0.921   6.797  13.527  1.00  0.00     0.025 C 
HETATM    9  C15 UNL     1       0.427   6.851  12.768  1.00  0.00     0.039 C 
HETATM   10  C16 UNL     1       0.261   7.280  11.316  1.00  0.00     0.118 C 
HETATM   11  C17 UNL     1      -0.527   8.575  11.172  1.00  0.00     0.032 C 
HETATM   12  C18 UNL     1      -0.992   9.153  12.508  1.00  0.00     0.012 C 
HETATM   13  C19 UNL     1      -1.736   8.146  13.440  1.00  0.00    -0.031 C 
HETATM   14  C20 UNL     1      -3.090   7.808  12.737  1.00  0.00     0.016 C 
HETATM   15  C21 UNL     1      -2.132   8.809  14.850  1.00  0.00     0.029 C 
HETATM   16  C22 UNL     1      -2.412  10.325  14.749  1.00  0.00     0.009 C 
HETATM   17  C23 UNL     1      -2.851  10.966  16.066  1.00  0.00     0.011 C 
HETATM   18  C24 UNL     1      -1.902  10.736  17.286  1.00  0.00    -0.029 C 
HETATM   19  C25 UNL     1      -2.811  10.302  18.456  1.00  0.00     0.016 C 
ENDROOT
BRANCH   1  20
HETATM   20  C5  UNL     1      -0.474  12.076  19.101  1.00  0.00    -0.011 C 
HETATM   21  C6  UNL     1      -0.542  13.522  19.631  1.00  0.00     0.010 C 
BRANCH  20  22
HETATM   22  C4  UNL     1       0.954  11.522  19.315  1.00  0.00     0.009 C 
BRANCH  22  23
HETATM   23  C3  UNL     1       1.113  10.647  20.576  1.00  0.00     0.034 C 
BRANCH  23  24
HETATM   24  C2  UNL     1       2.296  10.969  21.484  1.00  0.00    -0.083 C 
HETATM   25  C1  UNL     1       2.637  12.226  21.826  1.00  0.00     0.015 C 
BRANCH  24  26
HETATM   26  C26 UNL     1       3.080   9.731  21.954  1.00  0.00     0.033 C 
HETATM   27  C27 UNL     1       4.441  10.040  22.594  1.00  0.00     0.017 C 
BRANCH  26  28
HETATM   28  C28 UNL     1       2.242   8.843  22.892  1.00  0.00     0.172 C 
BRANCH  28  29
HETATM   29  O6  UNL     1       1.796   7.655  22.247  1.00  0.00    -0.400 OA
HETATM   30  H48 UNL     1       2.593   7.193  21.931  1.00  0.00     0.209 HD
ENDBRANCH  28  29
ENDBRANCH  26  28
ENDBRANCH  24  26
ENDBRANCH  23  24
ENDBRANCH  22  23
ENDBRANCH  20  22
ENDBRANCH   1  20
BRANCH   2  31
HETATM   31  O1  UNL     1       1.067  12.871  16.544  1.00  0.00    -0.393 OA
HETATM   32  H13 UNL     1       1.332  13.071  15.628  1.00  0.00     0.210 HD
ENDBRANCH   2  31
BRANCH   3  33
HETATM   33  O2  UNL     1       0.903  10.176  15.150  1.00  0.00    -0.392 OA
HETATM   34  H15 UNL     1       1.792  10.568  15.084  1.00  0.00     0.210 HD
ENDBRANCH   3  33
BRANCH   5  35
HETATM   35  O3  UNL     1      -2.194   7.801  17.024  1.00  0.00    -0.389 OA
HETATM   36  H17 UNL     1      -2.334   6.895  16.672  1.00  0.00     0.210 HD
ENDBRANCH   5  35
BRANCH   7  37
HETATM   37  O4  UNL     1      -1.868   5.738  15.505  1.00  0.00    -0.395 OA
HETATM   38  H21 UNL     1      -2.360   5.261  14.801  1.00  0.00     0.210 HD
ENDBRANCH   7  37
BRANCH  10  39
HETATM   39  O5  UNL     1      -0.408   6.255  10.585  1.00  0.00    -0.396 OA
HETATM   40  H26 UNL     1       0.156   5.460  10.609  1.00  0.00     0.210 HD
ENDBRANCH  10  39
TORSDOF 12
ENDMDL
