MODEL 1
REMARK minimizedAffinity -9.38754463
REMARK CNNscore 0.738006949
REMARK CNNaffinity 7.83521271
REMARK  14 active torsions:
REMARK  status: ('A' for Active; 'I' for Inactive)
REMARK    1  A    between atoms: C2_2  and  C3_3 
REMARK    2  A    between atoms: C3_3  and  C4_4 
REMARK    3  A    between atoms: C7_7  and  C9_9 
REMARK    4  A    between atoms: C10_11  and  C11_12 
REMARK    5  A    between atoms: C12_14  and  O3_15 
REMARK    6  A    between atoms: C12_14  and  C13_16 
REMARK    7  A    between atoms: C13_16  and  O4_17 
REMARK    8  A    between atoms: C26_31  and  O6_32 
REMARK    9  A    between atoms: C29_35  and  C30_36 
REMARK   10  A    between atoms: C30_36  and  C32_38 
REMARK   11  A    between atoms: C32_38  and  O7_39 
REMARK   12  A    between atoms: C32_38  and  C34_41 
REMARK   13  A    between atoms: C34_41  and  C36_43 
REMARK   14  A    between atoms: C36_43  and  O9_45 
ROOT
HETATM    1  C3  UNL     1      -2.904   6.785  13.512  1.00  0.00     0.090 C 
HETATM    2  C22 UNL     1      -1.991   6.380  14.676  1.00  0.00     0.046 C 
HETATM    3  C23 UNL     1      -0.607   6.469  14.080  1.00  0.00     0.072 C 
HETATM    4  C24 UNL     1      -0.739   7.578  13.031  1.00  0.00     0.168 C 
HETATM    5  C25 UNL     1      -0.092   8.894  13.475  1.00  0.00     0.100 C 
HETATM    6  C26 UNL     1       1.371   8.907  13.066  1.00  0.00     0.129 C 
HETATM    7  C27 UNL     1       1.535   8.735  11.534  1.00  0.00     0.040 C 
HETATM    8  C28 UNL     1       2.809   7.907  11.293  1.00  0.00     0.015 C 
HETATM    9  C29 UNL     1       0.262   8.102  10.918  1.00  0.00     0.137 C 
HETATM   10  O10 UNL     1      -0.156   7.072  11.827  1.00  0.00    -0.349 OA
HETATM   11  O11 UNL     1      -2.145   7.811  12.840  1.00  0.00    -0.341 OA
ENDROOT
BRANCH   1  12
HETATM   12  C2  UNL     1      -3.095   5.588  12.539  1.00  0.00     0.036 C 
HETATM   13  C1  UNL     1      -3.338   4.239  13.198  1.00  0.00     0.008 C 
ENDBRANCH   1  12
BRANCH   1  14
HETATM   14  C4  UNL     1      -4.274   7.332  13.998  1.00  0.00     0.157 C 
HETATM   15  C5  UNL     1      -4.258   8.263  15.200  1.00  0.00     0.038 C 
HETATM   16  C6  UNL     1      -5.720   8.291  15.594  1.00  0.00     0.043 C 
HETATM   17  C7  UNL     1      -6.223   6.882  15.218  1.00  0.00     0.084 C 
HETATM   18  C8  UNL     1      -6.404   6.062  16.499  1.00  0.00     0.049 C 
HETATM   19  O5  UNL     1      -5.161   6.282  14.439  1.00  0.00    -0.370 OA
BRANCH  17  20
HETATM   20  C9  UNL     1      -7.489   6.997  14.333  1.00  0.00     0.160 C 
HETATM   21  O1  UNL     1      -8.644   7.413  15.080  1.00  0.00    -0.375 OA
HETATM   22  C10 UNL     1      -9.740   7.356  14.147  1.00  0.00     0.152 C 
HETATM   23  C19 UNL     1      -9.457   6.125  13.280  1.00  0.00     0.041 C 
HETATM   24  C20 UNL     1      -7.968   5.817  13.475  1.00  0.00     0.016 C 
HETATM   25  C21 UNL     1      -7.799   4.419  14.052  1.00  0.00     0.012 C 
BRANCH  22  26
HETATM   26  C11 UNL     1     -11.107   7.319  14.864  1.00  0.00     0.158 C 
HETATM   27  O2  UNL     1     -12.164   6.888  13.997  1.00  0.00    -0.345 OA
HETATM   28  C12 UNL     1     -12.647   7.833  13.028  1.00  0.00     0.187 C 
HETATM   29  C14 UNL     1     -13.126   9.127  13.735  1.00  0.00     0.046 C 
HETATM   30  C15 UNL     1     -13.607  10.216  12.775  1.00  0.00     0.015 C 
HETATM   31  C16 UNL     1     -12.020   9.686  14.642  1.00  0.00     0.016 C 
HETATM   32  C17 UNL     1     -11.530   8.605  15.613  1.00  0.00     0.014 C 
HETATM   33  C18 UNL     1     -10.471   9.167  16.559  1.00  0.00     0.012 C 
BRANCH  28  34
HETATM   34  O3  UNL     1     -11.659   8.091  12.034  1.00  0.00    -0.363 OA
HETATM   35  H17 UNL     1     -11.294   8.976  12.181  1.00  0.00     0.213 HD
ENDBRANCH  28  34
BRANCH  28  36
HETATM   36  C13 UNL     1     -13.813   7.095  12.316  1.00  0.00     0.232 C 
BRANCH  36  37
HETATM   37  O4  UNL     1     -14.800   6.635  13.240  1.00  0.00    -0.396 OA
HETATM   38  H20 UNL     1     -14.297   6.140  13.918  1.00  0.00     0.209 HD
ENDBRANCH  36  37
ENDBRANCH  28  36
ENDBRANCH  22  26
ENDBRANCH  17  20
ENDBRANCH   1  14
BRANCH   6  39
HETATM   39  O6  UNL     1       1.979  10.138  13.462  1.00  0.00    -0.395 OA
HETATM   40  H44 UNL     1       1.910  10.207  14.430  1.00  0.00     0.210 HD
ENDBRANCH   6  39
BRANCH   9  41
HETATM   41  C30 UNL     1       0.358   7.502   9.475  1.00  0.00     0.041 C 
HETATM   42  C31 UNL     1      -0.119   8.560   8.458  1.00  0.00     0.015 C 
BRANCH  41  43
HETATM   43  C32 UNL     1       1.810   6.999   9.142  1.00  0.00     0.141 C 
BRANCH  43  44
HETATM   44  O7  UNL     1       2.721   7.959   9.692  1.00  0.00    -0.389 OA
HETATM   45  C33 UNL     1       3.549   8.613   8.742  1.00  0.00     0.202 C 
ENDBRANCH  43  44
BRANCH  43  46
HETATM   46  C34 UNL     1       2.110   5.575   9.700  1.00  0.00     0.109 C 
HETATM   47  C35 UNL     1       2.124   5.532  11.229  1.00  0.00     0.024 C 
BRANCH  46  48
HETATM   48  C36 UNL     1       3.368   4.923   9.159  1.00  0.00     0.145 C 
HETATM   49  O8  UNL     1       3.527   4.533   8.012  1.00  0.00    -0.650 OA
BRANCH  48  50
HETATM   50  O9  UNL     1       4.409   4.873  10.010  1.00  0.00    -0.776 OA
HETATM   51  H62 UNL     1       5.135   4.494   9.467  1.00  0.00     0.167 HD
ENDBRANCH  48  50
ENDBRANCH  46  48
ENDBRANCH  43  46
ENDBRANCH  41  43
ENDBRANCH   9  41
TORSDOF 14
ENDMDL
