MODEL 1
REMARK minimizedAffinity -10.6315479
REMARK  6 active torsions:
REMARK  status: ('A' for Active; 'I' for Inactive)
REMARK    1  A    between atoms: C12_13  and  C13_14 
REMARK    2  A    between atoms: C13_14  and  C15_16 
REMARK    3  A    between atoms: C15_16  and  C16_17 
REMARK    4  A    between atoms: C16_17  and  C17_18 
REMARK    5  A    between atoms: C18_19  and  C20_21 
REMARK    6  A    between atoms: C20_21  and  O3_23 
ROOT
HETATM    1  C1  UNL     1      -5.169  47.899 -28.705  1.00  0.00     0.052 C 
HETATM    2  C2  UNL     1      -5.333  48.060 -27.217  1.00  0.00    -0.013 C 
HETATM    3  C3  UNL     1      -4.388  48.442 -26.324  1.00  0.00    -0.066 C 
HETATM    4  C4  UNL     1      -2.959  48.735 -26.737  1.00  0.00     0.036 C 
HETATM    5  C5  UNL     1      -2.456  50.058 -26.170  1.00  0.00     0.010 C 
HETATM    6  C6  UNL     1      -2.512  50.023 -24.641  1.00  0.00     0.007 C 
HETATM    7  C7  UNL     1      -3.979  49.826 -24.167  1.00  0.00     0.068 C 
HETATM    8  C8  UNL     1      -3.997  49.793 -22.626  1.00  0.00     0.133 C 
HETATM    9  O1  UNL     1      -4.563  48.907 -21.986  1.00  0.00    -0.298 OA
HETATM   10  C9  UNL     1      -3.291  50.932 -21.889  1.00  0.00     0.089 C 
HETATM   11  C10 UNL     1      -1.839  51.022 -22.377  1.00  0.00    -0.026 C 
HETATM   12  C11 UNL     1      -1.112  49.708 -21.942  1.00  0.00     0.016 C 
HETATM   13  C12 UNL     1      -0.984  52.242 -21.910  1.00  0.00    -0.002 C 
HETATM   14  C21 UNL     1       0.110  52.322 -23.025  1.00  0.00     0.006 C 
HETATM   15  C22 UNL     1      -0.384  51.502 -24.233  1.00  0.00     0.011 C 
HETATM   16  C23 UNL     1      -1.871  51.258 -23.944  1.00  0.00    -0.032 C 
HETATM   17  C24 UNL     1      -2.618  52.562 -24.384  1.00  0.00     0.016 C 
HETATM   18  C25 UNL     1      -4.653  48.573 -24.811  1.00  0.00     0.027 C 
HETATM   19  C26 UNL     1      -6.170  48.610 -24.523  1.00  0.00     0.018 C 
HETATM   20  C27 UNL     1      -6.907  47.509 -25.254  1.00  0.00     0.084 C 
HETATM   21  C28 UNL     1      -6.702  47.670 -26.733  1.00  0.00     0.155 C 
HETATM   22  O4  UNL     1      -7.607  47.432 -27.531  1.00  0.00    -0.293 OA
ENDROOT
BRANCH  13  23
HETATM   23  C13 UNL     1      -0.354  52.266 -20.482  1.00  0.00    -0.014 C 
HETATM   24  C14 UNL     1       0.931  53.099 -20.431  1.00  0.00     0.010 C 
BRANCH  23  25
HETATM   25  C15 UNL     1      -0.056  50.815 -20.006  1.00  0.00     0.008 C 
BRANCH  25  26
HETATM   26  C16 UNL     1      -0.432  50.492 -18.552  1.00  0.00     0.028 C 
BRANCH  26  27
HETATM   27  C17 UNL     1       0.302  51.340 -17.551  1.00  0.00    -0.013 C 
HETATM   28  C18 UNL     1       0.746  50.962 -16.336  1.00  0.00     0.008 C 
HETATM   29  C19 UNL     1       0.554  49.611 -15.716  1.00  0.00     0.055 C 
BRANCH  28  30
HETATM   30  C20 UNL     1       1.463  51.992 -15.540  1.00  0.00     0.171 C 
HETATM   31  O2  UNL     1       2.035  51.825 -14.478  1.00  0.00    -0.646 OA
BRANCH  30  32
HETATM   32  O3  UNL     1       1.426  53.203 -16.120  1.00  0.00    -0.773 OA
HETATM   33  H28 UNL     1       1.922  53.770 -15.493  1.00  0.00     0.167 HD
ENDBRANCH  30  32
ENDBRANCH  28  30
ENDBRANCH  26  27
ENDBRANCH  25  26
ENDBRANCH  23  25
ENDBRANCH  13  23
TORSDOF 6
ENDMDL
