MODEL 1
REMARK minimizedAffinity -6.0356741
REMARK CNNscore 0.577471793
REMARK CNNaffinity 6.59821892
REMARK  4 active torsions:
REMARK  status: ('A' for Active; 'I' for Inactive)
REMARK    1  A    between atoms: C4_4  and  C5_5 
REMARK    2  A    between atoms: C5_5  and  C6_6 
REMARK    3  A    between atoms: C6_6  and  C7_7 
REMARK    4  A    between atoms: C7_7  and  C9_9 
ROOT
HETATM    1  C9  UNL     1     -13.583 -12.888  28.070  1.00  0.00    -0.002 C 
HETATM    2  C10 UNL     1     -14.565 -13.489  29.120  1.00  0.00     0.007 C 
HETATM    3  C11 UNL     1     -15.266 -12.320  29.810  1.00  0.00     0.015 C 
HETATM    4  C12 UNL     1     -14.218 -11.196  29.773  1.00  0.00    -0.013 C 
HETATM    5  C13 UNL     1     -13.163 -11.511  30.874  1.00  0.00     0.021 C 
HETATM    6  C14 UNL     1     -14.704  -9.780  30.029  1.00  0.00    -0.070 C 
HETATM    7  C15 UNL     1     -15.850  -9.480  30.660  1.00  0.00    -0.022 C 
HETATM    8  C16 UNL     1     -16.317  -8.069  30.820  1.00  0.00     0.034 C 
HETATM    9  C17 UNL     1     -15.201  -7.009  31.032  1.00  0.00     0.013 C 
HETATM   10  C18 UNL     1     -15.662  -5.577  30.582  1.00  0.00     0.018 C 
HETATM   11  C19 UNL     1     -15.999  -5.458  29.084  1.00  0.00     0.023 C 
HETATM   12  C20 UNL     1     -16.926  -5.157  31.374  1.00  0.00     0.023 C 
HETATM   13  C21 UNL     1     -14.549  -4.576  30.922  1.00  0.00     0.135 C 
HETATM   14  O1  UNL     1     -14.782  -3.451  31.387  1.00  0.00    -0.297 OA
HETATM   15  C22 UNL     1     -13.113  -4.971  30.670  1.00  0.00     0.080 C 
HETATM   16  C23 UNL     1     -12.969  -6.279  29.915  1.00  0.00     0.017 C 
HETATM   17  C24 UNL     1     -13.762  -7.459  30.534  1.00  0.00    -0.031 C 
HETATM   18  C25 UNL     1     -12.974  -7.929  31.796  1.00  0.00     0.016 C 
HETATM   19  C26 UNL     1     -13.863  -8.634  29.482  1.00  0.00     0.024 C 
HETATM   20  C27 UNL     1     -12.503  -9.067  28.867  1.00  0.00     0.010 C 
HETATM   21  C28 UNL     1     -12.427 -10.444  28.164  1.00  0.00     0.011 C 
HETATM   22  C29 UNL     1     -13.681 -11.324  28.307  1.00  0.00    -0.029 C 
HETATM   23  C30 UNL     1     -14.706 -10.830  27.228  1.00  0.00     0.016 C 
ENDROOT
BRANCH   1  24
HETATM   24  C7  UNL     1     -12.175 -13.566  28.037  1.00  0.00    -0.014 C 
HETATM   25  C8  UNL     1     -11.753 -14.064  29.430  1.00  0.00     0.010 C 
BRANCH  24  26
HETATM   26  C6  UNL     1     -11.044 -12.682  27.437  1.00  0.00     0.008 C 
BRANCH  26  27
HETATM   27  C5  UNL     1      -9.858 -13.392  26.758  1.00  0.00     0.028 C 
BRANCH  27  28
HETATM   28  C4  UNL     1      -8.973 -12.473  25.963  1.00  0.00    -0.025 C 
HETATM   29  C2  UNL     1      -8.539 -12.614  24.693  1.00  0.00    -0.091 C 
HETATM   30  C1  UNL     1      -8.868 -13.763  23.780  1.00  0.00     0.042 C 
HETATM   31  C3  UNL     1      -7.653 -11.563  24.068  1.00  0.00     0.042 C 
ENDBRANCH  27  28
ENDBRANCH  26  27
ENDBRANCH  24  26
ENDBRANCH   1  24
TORSDOF 4
ENDMDL
