MODEL 1
REMARK minimizedAffinity -7.75571632
REMARK  18 active torsions:
REMARK  status: ('A' for Active; 'I' for Inactive)
REMARK    1  A    between atoms: C2_2  and  C14_18 
REMARK    2  A    between atoms: C3_3  and  C4_4 
REMARK    3  A    between atoms: C4_4  and  O2_6 
REMARK    4  A    between atoms: O2_6  and  C5_7 
REMARK    5  A    between atoms: C5_7  and  C6_8 
REMARK    6  A    between atoms: C6_8  and  C7_9 
REMARK    7  A    between atoms: C7_9  and  C8_10 
REMARK    8  A    between atoms: C8_10  and  C9_11 
REMARK    9  A    between atoms: C9_11  and  C10_12 
REMARK   10  A    between atoms: C10_12  and  C11_13 
REMARK   11  A    between atoms: C11_13  and  C12_14 
REMARK   12  A    between atoms: C12_14  and  C13_15 
REMARK   13  A    between atoms: C13_15  and  O4_17 
REMARK   14  A    between atoms: C14_18  and  C15_19 
REMARK   15  A    between atoms: C21_27  and  O7_28 
REMARK   16  A    between atoms: C22_30  and  C23_31 
REMARK   17  A    between atoms: C23_31  and  C25_33 
REMARK   18  A    between atoms: C25_33  and  O9_35 
ROOT
HETATM    1  C15 UNL     1      -2.041  50.764 -26.458  1.00  0.00     0.190 C 
HETATM    2  O5  UNL     1      -0.896  50.501 -27.303  1.00  0.00    -0.380 OA
HETATM    3  C16 UNL     1       0.353  50.779 -26.675  1.00  0.00     0.175 C 
HETATM    4  C17 UNL     1       0.486  52.277 -26.422  1.00  0.00     0.046 C 
HETATM    5  C18 UNL     1       1.309  52.625 -25.182  1.00  0.00     0.044 C 
HETATM    6  C19 UNL     1       0.330  53.375 -24.276  1.00  0.00     0.152 C 
HETATM    7  O6  UNL     1      -0.511  54.032 -25.260  1.00  0.00    -0.372 OA
HETATM    8  C20 UNL     1      -0.859  52.950 -26.156  1.00  0.00     0.193 C 
HETATM    9  C21 UNL     1      -1.811  51.943 -25.457  1.00  0.00     0.216 C 
HETATM   10  O8  UNL     1      -1.216  51.450 -24.240  1.00  0.00    -0.342 OA
HETATM   11  C22 UNL     1      -0.636  52.504 -23.430  1.00  0.00     0.160 C 
ENDROOT
BRANCH   1  12
HETATM   12  C14 UNL     1      -2.462  49.457 -25.751  1.00  0.00     0.071 C 
BRANCH  12  13
HETATM   13  C2  UNL     1      -3.735  48.847 -26.323  1.00  0.00    -0.075 C 
HETATM   14  C1  UNL     1      -4.772  48.457 -25.304  1.00  0.00     0.043 C 
HETATM   15  C3  UNL     1      -3.851  48.657 -27.654  1.00  0.00     0.084 C 
BRANCH  15  16
HETATM   16  C4  UNL     1      -4.997  48.111 -28.414  1.00  0.00     0.283 C 
HETATM   17  O1  UNL     1      -6.031  47.764 -27.863  1.00  0.00    -0.260 OA
BRANCH  16  18
HETATM   18  O2  UNL     1      -4.714  48.001 -29.732  1.00  0.00    -0.318 OA
BRANCH  18  19
HETATM   19  C5  UNL     1      -5.660  48.601 -30.628  1.00  0.00     0.179 C 
BRANCH  19  20
HETATM   20  C6  UNL     1      -6.475  47.516 -31.325  1.00  0.00     0.027 C 
BRANCH  20  21
HETATM   21  C7  UNL     1      -7.688  48.098 -32.051  1.00  0.00     0.002 C 
BRANCH  21  22
HETATM   22  C8  UNL     1      -8.444  49.082 -31.155  1.00  0.00     0.000 C 
BRANCH  22  23
HETATM   23  C9  UNL     1      -9.587  48.435 -30.363  1.00  0.00     0.000 C 
BRANCH  23  24
HETATM   24  C10 UNL     1      -9.210  48.106 -28.917  1.00  0.00     0.001 C 
BRANCH  24  25
HETATM   25  C11 UNL     1     -10.340  47.452 -28.112  1.00  0.00     0.010 C 
BRANCH  25  26
HETATM   26  C12 UNL     1     -10.822  48.266 -26.911  1.00  0.00     0.110 C 
BRANCH  26  27
HETATM   27  C13 UNL     1      -9.718  48.828 -26.060  1.00  0.00     0.139 C 
HETATM   28  O3  UNL     1      -8.860  48.181 -25.481  1.00  0.00    -0.650 OA
BRANCH  27  29
HETATM   29  O4  UNL     1      -9.701  50.173 -26.020  1.00  0.00    -0.776 OA
HETATM   30  H21 UNL     1      -8.926  50.384 -25.459  1.00  0.00     0.167 HD
ENDBRANCH  27  29
ENDBRANCH  26  27
ENDBRANCH  25  26
ENDBRANCH  24  25
ENDBRANCH  23  24
ENDBRANCH  22  23
ENDBRANCH  21  22
ENDBRANCH  20  21
ENDBRANCH  19  20
ENDBRANCH  18  19
ENDBRANCH  16  18
ENDBRANCH  15  16
ENDBRANCH  12  13
ENDBRANCH   1  12
BRANCH   9  31
HETATM   31  O7  UNL     1      -3.049  52.560 -25.124  1.00  0.00    -0.361 OA
HETATM   32  H32 UNL     1      -3.593  51.869 -24.714  1.00  0.00     0.213 HD
ENDBRANCH   9  31
BRANCH  11  33
HETATM   33  C23 UNL     1      -0.092  51.860 -22.129  1.00  0.00     0.041 C 
HETATM   34  C24 UNL     1       0.771  52.805 -21.283  1.00  0.00     0.015 C 
BRANCH  33  35
HETATM   35  C25 UNL     1      -1.155  51.175 -21.244  1.00  0.00     0.120 C 
HETATM   36  C26 UNL     1      -1.005  49.662 -21.158  1.00  0.00     0.040 C 
BRANCH  35  37
HETATM   37  O9  UNL     1      -2.463  51.490 -21.713  1.00  0.00    -0.396 OA
HETATM   38  H42 UNL     1      -3.101  51.095 -21.092  1.00  0.00     0.210 HD
ENDBRANCH  35  37
ENDBRANCH  33  35
ENDBRANCH  11  33
TORSDOF 18
ENDMDL
