MODEL 1
REMARK minimizedAffinity -9.25121021
REMARK CNNscore 0.690715432
REMARK CNNaffinity 6.68993378
REMARK  13 active torsions:
REMARK  status: ('A' for Active; 'I' for Inactive)
REMARK    1  A    between atoms: C5_6  and  C6_7 
REMARK    2  A    between atoms: C5_6  and  C27_31 
REMARK    3  A    between atoms: C18_19  and  O2_20 
REMARK    4  A    between atoms: C23_25  and  O3_26 
REMARK    5  A    between atoms: C28_33  and  C29_34 
REMARK    6  A    between atoms: C29_34  and  O6_36 
REMARK    7  A    between atoms: C29_34  and  C31_37 
REMARK    8  A    between atoms: C31_37  and  C33_39 
REMARK    9  A    between atoms: C31_37  and  C34_41 
REMARK   10  A    between atoms: C33_39  and  O7_40 
REMARK   11  A    between atoms: C34_41  and  C35_42 
REMARK   12  A    between atoms: C35_42  and  C36_43 
REMARK   13  A    between atoms: C39_48  and  N2_49 
ROOT
HETATM    1  C1  UNL     1       3.457  64.576 -30.952  1.00  0.00     0.010 C 
HETATM    2  C2  UNL     1       3.893  64.441 -32.410  1.00  0.00    -0.014 C 
HETATM    3  C3  UNL     1       4.054  62.971 -32.803  1.00  0.00     0.030 C 
HETATM    4  C4  UNL     1       5.058  62.774 -33.930  1.00  0.00     0.169 C 
HETATM    5  O1  UNL     1       5.126  63.926 -34.767  1.00  0.00    -0.377 OA
HETATM    6  C5  UNL     1       5.722  65.077 -34.136  1.00  0.00     0.094 C 
HETATM    7  C41 UNL     1       5.183  65.223 -32.684  1.00  0.00     0.045 C 
ENDROOT
BRANCH   6   8
HETATM    8  C6  UNL     1       5.390  66.330 -35.026  1.00  0.00     0.035 C 
HETATM    9  C7  UNL     1       6.689  67.110 -35.539  1.00  0.00     0.016 C 
HETATM   10  C8  UNL     1       6.353  67.570 -36.964  1.00  0.00     0.026 C 
HETATM   11  C9  UNL     1       6.926  68.832 -37.579  1.00  0.00     0.013 C 
HETATM   12  C18 UNL     1       4.833  67.645 -36.917  1.00  0.00     0.094 C 
HETATM   13  C10 UNL     1       6.369  68.933 -39.028  1.00  0.00     0.043 C 
HETATM   14  C11 UNL     1       4.911  68.522 -39.189  1.00  0.00    -0.006 C 
HETATM   15  C12 UNL     1       4.165  68.003 -38.201  1.00  0.00    -0.030 C 
HETATM   16  C26 UNL     1       4.276  68.707 -40.517  1.00  0.00     0.161 C 
HETATM   17  C13 UNL     1       2.655  67.818 -38.190  1.00  0.00     0.027 C 
HETATM   18  C14 UNL     1       2.257  66.468 -37.527  1.00  0.00     0.011 C 
HETATM   19  C19 UNL     1       1.953  68.190 -39.560  1.00  0.00    -0.026 C 
HETATM   20  C15 UNL     1       2.966  66.204 -36.168  1.00  0.00     0.014 C 
HETATM   21  C16 UNL     1       4.497  66.244 -36.330  1.00  0.00    -0.002 C 
HETATM   22  C17 UNL     1       4.919  65.082 -37.274  1.00  0.00     0.019 C 
HETATM   23  C20 UNL     1       0.690  67.319 -39.781  1.00  0.00     0.016 C 
HETATM   24  C21 UNL     1       1.508  69.686 -39.496  1.00  0.00     0.013 C 
HETATM   25  C25 UNL     1       2.926  68.022 -40.765  1.00  0.00     0.071 C 
HETATM   26  C22 UNL     1       0.912  70.212 -40.801  1.00  0.00     0.032 C 
HETATM   27  C23 UNL     1       1.830  69.978 -41.996  1.00  0.00     0.119 C 
HETATM   28  C24 UNL     1       2.319  68.531 -42.087  1.00  0.00     0.045 C 
HETATM   29  O4  UNL     1       4.883  69.326 -41.389  1.00  0.00    -0.292 OA
BRANCH  27  30
HETATM   30  O3  UNL     1       1.133  70.324 -43.192  1.00  0.00    -0.396 OA
HETATM   31  H34 UNL     1       0.402  69.694 -43.311  1.00  0.00     0.210 HD
ENDBRANCH  27  30
BRANCH  12  32
HETATM   32  O2  UNL     1       4.426  68.674 -35.995  1.00  0.00    -0.384 OA
HETATM   33  H25 UNL     1       4.577  69.537 -36.416  1.00  0.00     0.211 HD
ENDBRANCH  12  32
ENDBRANCH   6   8
BRANCH   6  34
HETATM   34  C27 UNL     1       7.248  64.846 -34.168  1.00  0.00     0.189 A 
HETATM   35  O5  UNL     1       7.920  65.011 -32.898  1.00  0.00    -0.369 OA
HETATM   36  C28 UNL     1       8.012  63.712 -33.470  1.00  0.00     0.189 A 
BRANCH  36  37
HETATM   37  C29 UNL     1       9.401  63.255 -33.893  1.00  0.00     0.092 C 
HETATM   38  C30 UNL     1       9.837  61.950 -33.196  1.00  0.00     0.049 C 
BRANCH  37  39
HETATM   39  O6  UNL     1      10.301  64.281 -33.422  1.00  0.00    -0.387 OA
HETATM   40  H43 UNL     1      10.345  64.209 -32.453  1.00  0.00     0.210 HD
ENDBRANCH  37  39
BRANCH  37  41
HETATM   41  C31 UNL     1       9.546  63.172 -35.490  1.00  0.00     0.011 C 
HETATM   42  C32 UNL     1       8.272  63.761 -36.150  1.00  0.00     0.020 C 
BRANCH  41  43
HETATM   43  C33 UNL     1       9.647  61.692 -35.977  1.00  0.00     0.176 C 
BRANCH  43  44
HETATM   44  O7  UNL     1       8.451  60.944 -35.786  1.00  0.00    -0.400 OA
HETATM   45  H49 UNL     1       7.969  61.352 -35.035  1.00  0.00     0.209 HD
ENDBRANCH  43  44
ENDBRANCH  41  43
BRANCH  41  46
HETATM   46  C34 UNL     1      10.823  63.952 -35.954  1.00  0.00     0.019 C 
BRANCH  46  47
HETATM   47  C35 UNL     1      12.207  63.483 -35.460  1.00  0.00     0.039 C 
BRANCH  47  48
HETATM   48  C36 UNL     1      13.397  64.029 -36.208  1.00  0.00    -0.054 A 
HETATM   49  C37 UNL     1      14.608  63.339 -36.251  1.00  0.00     0.024 A 
HETATM   50  C38 UNL     1      15.657  63.891 -36.965  1.00  0.00     0.090 A 
HETATM   51  N1  UNL     1      15.581  65.059 -37.636  1.00  0.00    -0.357 N 
HETATM   52  C39 UNL     1      14.412  65.714 -37.608  1.00  0.00     0.077 A 
ATOM     53  H1  UNL     1      16.383  65.429 -38.146  1.00  0.00     0.166 HD
HETATM   54  C40 UNL     1      13.303  65.232 -36.918  1.00  0.00     0.049 A 
BRANCH  52  55
HETATM   55  N2  UNL     1      14.325  66.915 -38.322  1.00  0.00    -0.289 NA
HETATM   56  H56 UNL     1      14.048  67.664 -37.699  1.00  0.00     0.125 HD
HETATM   57  H57 UNL     1      13.619  66.824 -39.045  1.00  0.00     0.125 HD
ENDBRANCH  52  55
ENDBRANCH  47  48
ENDBRANCH  46  47
ENDBRANCH  41  46
ENDBRANCH  37  41
ENDBRANCH  36  37
ENDBRANCH   6  34
TORSDOF 13
ENDMDL
