MODEL 1
REMARK minimizedAffinity -9.34525013
REMARK CNNscore 0.786816835
REMARK CNNaffinity 7.37237358
REMARK  12 active torsions:
REMARK  status: ('A' for Active; 'I' for Inactive)
REMARK    1  A    between atoms: O1_2  and  C2_3 
REMARK    2  A    between atoms: C4_5  and  O2_6 
REMARK    3  A    between atoms: O2_6  and  C5_7 
REMARK    4  A    between atoms: C8_10  and  C9_11 
REMARK    5  A    between atoms: N1_12  and  C10_14 
REMARK    6  A    between atoms: C10_14  and  C11_15 
REMARK    7  A    between atoms: C11_15  and  C12_16 
REMARK    8  A    between atoms: C12_16  and  O3_17 
REMARK    9  A    between atoms: C18_23  and  C19_24 
REMARK   10  A    between atoms: C25_32  and  O6_33 
REMARK   11  A    between atoms: C29_37  and  O7_38 
REMARK   12  A    between atoms: C33_43  and  O9_44 
ROOT
HETATM    1  C5  UNL     1      -6.708   7.089  14.569  1.00  0.00     0.127 C 
HETATM    2  C6  UNL     1      -6.026   7.666  13.347  1.00  0.00     0.033 C 
HETATM    3  C7  UNL     1      -4.910   8.612  13.756  1.00  0.00     0.021 C 
HETATM    4  C8  UNL     1      -3.880   8.001  14.760  1.00  0.00     0.026 C 
HETATM    5  C13 UNL     1      -2.473   8.035  14.026  1.00  0.00     0.009 C 
HETATM    6  C14 UNL     1      -1.860   9.436  13.954  1.00  0.00     0.007 C 
HETATM    7  C15 UNL     1      -0.699   9.395  12.969  1.00  0.00     0.013 C 
HETATM    8  C16 UNL     1       0.477   8.544  13.491  1.00  0.00    -0.005 C 
HETATM    9  C17 UNL     1       1.260   9.436  14.495  1.00  0.00     0.019 C 
HETATM   10  C18 UNL     1       1.489   8.151  12.332  1.00  0.00     0.028 C 
HETATM   11  C23 UNL     1       1.943   6.740  12.733  1.00  0.00     0.013 C 
HETATM   12  C24 UNL     1       0.674   6.085  13.280  1.00  0.00     0.040 C 
HETATM   13  C25 UNL     1       0.042   7.171  14.169  1.00  0.00     0.070 C 
HETATM   14  C26 UNL     1      -1.471   7.004  14.578  1.00  0.00     0.026 C 
HETATM   15  C27 UNL     1      -2.044   5.582  14.325  1.00  0.00     0.011 C 
HETATM   16  C28 UNL     1      -3.584   5.499  14.319  1.00  0.00     0.039 C 
HETATM   17  C29 UNL     1      -4.236   6.541  15.242  1.00  0.00     0.073 C 
HETATM   18  C30 UNL     1      -5.754   6.275  15.432  1.00  0.00     0.071 C 
ENDROOT
BRANCH   1  19
HETATM   19  O2  UNL     1      -7.803   6.289  14.111  1.00  0.00    -0.356 OA
BRANCH  19  20
HETATM   20  C4  UNL     1      -9.068   6.772  14.564  1.00  0.00     0.263 C 
HETATM   21  C3  UNL     1      -8.825   8.034  15.388  1.00  0.00     0.095 C 
HETATM   22  C2  UNL     1     -10.162   8.544  15.926  1.00  0.00     0.156 C 
HETATM   23  C33 UNL     1     -11.146   8.767  14.767  1.00  0.00     0.175 C 
HETATM   24  C31 UNL     1     -11.224   7.560  13.814  1.00  0.00     0.151 C 
HETATM   25  O8  UNL     1      -9.930   7.056  13.461  1.00  0.00    -0.354 OA
HETATM   26  C32 UNL     1     -12.100   6.424  14.351  1.00  0.00     0.042 C 
BRANCH  22  27
HETATM   27  O1  UNL     1     -10.028   9.809  16.601  1.00  0.00    -0.388 OA
HETATM   28  C1  UNL     1     -10.939   9.989  17.682  1.00  0.00     0.202 C 
ENDBRANCH  22  27
BRANCH  23  29
HETATM   29  O9  UNL     1     -10.716   9.917  14.015  1.00  0.00    -0.390 OA
HETATM   30  H51 UNL     1     -10.424  10.564  14.689  1.00  0.00     0.210 HD
ENDBRANCH  23  29
ENDBRANCH  19  20
ENDBRANCH   1  19
BRANCH  17  31
HETATM   31  O7  UNL     1      -3.602   6.271  16.519  1.00  0.00    -0.389 OA
HETATM   32  H43 UNL     1      -4.218   5.738  17.054  1.00  0.00     0.210 HD
ENDBRANCH  17  31
BRANCH   4  33
HETATM   33  C9  UNL     1      -3.860   8.826  16.057  1.00  0.00     0.068 C 
HETATM   34  N1  UNL     1      -2.782   8.934  16.759  1.00  0.00    -0.401 N 
ATOM     35  H1  UNL     1      -1.930   8.412  16.552  1.00  0.00     0.158 HD
BRANCH  34  36
HETATM   36  C10 UNL     1      -2.891   9.877  17.883  1.00  0.00     0.121 C 
BRANCH  36  37
HETATM   37  C11 UNL     1      -1.851  10.985  17.718  1.00  0.00     0.045 C 
BRANCH  37  38
HETATM   38  C12 UNL     1      -0.808  10.957  18.825  1.00  0.00     0.165 C 
BRANCH  38  39
HETATM   39  O3  UNL     1       0.385  10.312  18.391  1.00  0.00    -0.401 OA
HETATM   40  H20 UNL     1       0.746  10.829  17.646  1.00  0.00     0.209 HD
ENDBRANCH  38  39
ENDBRANCH  37  38
ENDBRANCH  36  37
ENDBRANCH  34  36
ENDBRANCH   4  33
BRANCH  13  41
HETATM   41  O6  UNL     1       0.779   7.021  15.418  1.00  0.00    -0.389 OA
HETATM   42  H37 UNL     1       0.511   6.175  15.817  1.00  0.00     0.210 HD
ENDBRANCH  13  41
BRANCH  10  43
HETATM   43  C19 UNL     1       1.000   8.209  10.896  1.00  0.00    -0.045 A 
HETATM   44  C20 UNL     1       1.716   7.901   9.806  1.00  0.00     0.087 A 
HETATM   45  C21 UNL     1       0.842   8.078   8.645  1.00  0.00     0.283 A 
HETATM   46  O4  UNL     1       1.161   7.870   7.484  1.00  0.00    -0.260 OA
HETATM   47  O5  UNL     1      -0.379   8.503   9.068  1.00  0.00    -0.314 OA
HETATM   48  C22 UNL     1      -0.380   8.583  10.491  1.00  0.00     0.213 A 
ENDBRANCH  10  43
TORSDOF 12
ENDMDL
