MODEL 1
REMARK minimizedAffinity -8.31113911
REMARK CNNscore 0.422646224
REMARK CNNaffinity 7.14546013
REMARK  6 active torsions:
REMARK  status: ('A' for Active; 'I' for Inactive)
REMARK    1  A    between atoms: C2_2  and  C30_31 
REMARK    2  A    between atoms: C3_3  and  C4_4 
REMARK    3  A    between atoms: C4_4  and  C5_5 
REMARK    4  A    between atoms: C5_5  and  C6_6 
REMARK    5  A    between atoms: C6_6  and  C8_8 
REMARK    6  A    between atoms: C30_31  and  O3_33 
ROOT
HETATM    1  C8  UNL     1      -0.402  50.701 -17.380  1.00  0.00    -0.002 C 
HETATM    2  C9  UNL     1      -1.910  50.425 -17.465  1.00  0.00     0.007 C 
HETATM    3  C10 UNL     1      -2.428  50.872 -16.115  1.00  0.00     0.015 C 
HETATM    4  C11 UNL     1      -1.420  50.297 -15.080  1.00  0.00    -0.013 C 
HETATM    5  C12 UNL     1      -1.972  48.929 -14.581  1.00  0.00     0.021 C 
HETATM    6  C13 UNL     1      -1.379  51.222 -13.837  1.00  0.00    -0.070 C 
HETATM    7  C14 UNL     1      -2.514  51.561 -13.185  1.00  0.00    -0.022 C 
HETATM    8  C15 UNL     1      -2.584  52.360 -11.921  1.00  0.00     0.034 C 
HETATM    9  C16 UNL     1      -1.260  53.043 -11.530  1.00  0.00     0.013 C 
HETATM   10  C17 UNL     1      -1.281  53.781 -10.137  1.00  0.00     0.018 C 
HETATM   11  C18 UNL     1      -1.373  55.304 -10.373  1.00  0.00     0.023 C 
HETATM   12  C19 UNL     1      -2.481  53.379  -9.250  1.00  0.00     0.023 C 
HETATM   13  C20 UNL     1      -0.006  53.558  -9.309  1.00  0.00     0.135 C 
HETATM   14  O1  UNL     1      -0.022  53.614  -8.075  1.00  0.00    -0.297 OA
HETATM   15  C21 UNL     1       1.319  53.367 -10.002  1.00  0.00     0.080 C 
HETATM   16  C22 UNL     1       1.226  52.909 -11.444  1.00  0.00     0.017 C 
HETATM   17  C23 UNL     1      -0.045  52.089 -11.776  1.00  0.00    -0.031 C 
HETATM   18  C24 UNL     1      -0.107  50.812 -10.908  1.00  0.00     0.016 C 
HETATM   19  C25 UNL     1      -0.040  51.714 -13.311  1.00  0.00     0.024 C 
HETATM   20  C26 UNL     1       1.071  50.741 -13.719  1.00  0.00     0.010 C 
HETATM   21  C27 UNL     1       1.177  50.759 -15.239  1.00  0.00     0.011 C 
HETATM   22  C28 UNL     1      -0.057  50.131 -15.930  1.00  0.00    -0.029 C 
HETATM   23  C29 UNL     1       0.335  48.634 -16.152  1.00  0.00     0.016 C 
ENDROOT
BRANCH   1  24
HETATM   24  C6  UNL     1       0.006  52.189 -17.663  1.00  0.00    -0.014 C 
HETATM   25  C7  UNL     1       1.525  52.349 -17.446  1.00  0.00     0.010 C 
BRANCH  24  26
HETATM   26  C5  UNL     1      -0.362  52.689 -19.084  1.00  0.00     0.008 C 
BRANCH  26  27
HETATM   27  C4  UNL     1       0.807  52.679 -20.077  1.00  0.00     0.028 C 
BRANCH  27  28
HETATM   28  C3  UNL     1       0.317  52.453 -21.483  1.00  0.00    -0.013 C 
HETATM   29  C2  UNL     1       0.595  53.167 -22.592  1.00  0.00     0.008 C 
HETATM   30  C1  UNL     1       0.028  52.779 -23.929  1.00  0.00     0.055 C 
BRANCH  29  31
HETATM   31  C30 UNL     1       1.424  54.397 -22.551  1.00  0.00     0.171 C 
HETATM   32  O2  UNL     1       1.978  54.889 -21.586  1.00  0.00    -0.646 OA
BRANCH  31  33
HETATM   33  O3  UNL     1       1.508  54.977 -23.760  1.00  0.00    -0.773 OA
HETATM   34  H46 UNL     1       2.071  55.762 -23.597  1.00  0.00     0.167 HD
ENDBRANCH  31  33
ENDBRANCH  29  31
ENDBRANCH  27  28
ENDBRANCH  26  27
ENDBRANCH  24  26
ENDBRANCH   1  24
TORSDOF 6
ENDMDL
