MODEL 1
REMARK minimizedAffinity -9.57925034
REMARK  5 active torsions:
REMARK  status: ('A' for Active; 'I' for Inactive)
REMARK    1  A    between atoms: C2_2  and  C25_28 
REMARK    2  A    between atoms: C3_3  and  C4_4 
REMARK    3  A    between atoms: C4_4  and  C6_6 
REMARK    4  A    between atoms: C20_20  and  O1_21 
REMARK    5  A    between atoms: C25_28  and  C27_30 
ROOT
HETATM    1  C6  UNL     1      -5.658   6.295  13.429  1.00  0.00     0.001 C 
HETATM    2  C7  UNL     1      -5.905   7.788  13.800  1.00  0.00     0.006 C 
HETATM    3  C8  UNL     1      -4.575   8.533  13.594  1.00  0.00     0.009 C 
HETATM    4  C9  UNL     1      -3.655   7.475  12.991  1.00  0.00     0.036 C 
HETATM    5  C10 UNL     1      -4.111   6.142  13.639  1.00  0.00    -0.033 C 
HETATM    6  C11 UNL     1      -3.765   6.007  15.137  1.00  0.00     0.016 C 
HETATM    7  C12 UNL     1      -3.441   5.008  12.836  1.00  0.00     0.010 C 
HETATM    8  C13 UNL     1      -1.907   5.138  12.807  1.00  0.00     0.010 C 
HETATM    9  C14 UNL     1      -1.429   6.505  12.278  1.00  0.00     0.039 C 
HETATM   10  C15 UNL     1      -2.146   7.731  12.942  1.00  0.00     0.123 C 
HETATM   11  C16 UNL     1      -1.475   8.188  14.210  1.00  0.00     0.014 C 
HETATM   12  C17 UNL     1      -0.187   8.525  14.036  1.00  0.00     0.014 C 
HETATM   13  C18 UNL     1       0.338   8.257  12.637  1.00  0.00     0.124 C 
HETATM   14  C19 UNL     1       1.779   8.751  12.457  1.00  0.00     0.078 C 
HETATM   15  C20 UNL     1       2.456   8.237  11.181  1.00  0.00     0.121 C 
HETATM   16  C21 UNL     1       1.518   7.513  10.219  1.00  0.00     0.033 C 
HETATM   17  C22 UNL     1       0.746   6.377  10.895  1.00  0.00     0.015 C 
HETATM   18  C23 UNL     1       0.142   6.735  12.290  1.00  0.00     0.001 C 
HETATM   19  C24 UNL     1       0.862   5.848  13.342  1.00  0.00     0.019 C 
HETATM   20  O2  UNL     1      -0.496   9.015  11.716  1.00  0.00    -0.223 OA
HETATM   21  O3  UNL     1      -1.944   8.850  12.032  1.00  0.00    -0.224 OA
ENDROOT
BRANCH   1  22
HETATM   22  C4  UNL     1      -6.633   5.337  14.164  1.00  0.00     0.009 C 
HETATM   23  C5  UNL     1      -6.789   3.969  13.491  1.00  0.00     0.014 C 
BRANCH  22  24
HETATM   24  C3  UNL     1      -8.028   5.876  14.465  1.00  0.00    -0.019 C 
HETATM   25  C2  UNL     1      -9.040   6.263  13.658  1.00  0.00    -0.083 C 
HETATM   26  C1  UNL     1      -8.988   6.187  12.154  1.00  0.00     0.043 C 
BRANCH  25  27
HETATM   27  C25 UNL     1     -10.364   6.811  14.223  1.00  0.00     0.013 C 
HETATM   28  C26 UNL     1     -11.296   7.320  13.102  1.00  0.00     0.015 C 
BRANCH  27  29
HETATM   29  C27 UNL     1     -10.144   7.892  15.330  1.00  0.00    -0.015 C 
HETATM   30  C28 UNL     1      -8.996   7.531  16.281  1.00  0.00     0.010 C 
HETATM   31  C29 UNL     1      -9.872   9.285  14.748  1.00  0.00     0.010 C 
ENDBRANCH  27  29
ENDBRANCH  25  27
ENDBRANCH  22  24
ENDBRANCH   1  22
BRANCH  15  32
HETATM   32  O1  UNL     1       3.514   7.353  11.570  1.00  0.00    -0.395 OA
HETATM   33  H28 UNL     1       3.882   6.950  10.763  1.00  0.00     0.210 HD
ENDBRANCH  15  32
TORSDOF 5
ENDMDL
