MODEL 1
REMARK minimizedAffinity -10.0090418
REMARK CNNscore 0.848238707
REMARK CNNaffinity 7.78209829
REMARK  11 active torsions:
REMARK  status: ('A' for Active; 'I' for Inactive)
REMARK    1  A    between atoms: C5_7  and  C6_8 
REMARK    2  A    between atoms: C6_8  and  C7_9 
REMARK    3  A    between atoms: C7_9  and  O3_10 
REMARK    4  A    between atoms: C7_9  and  C15_19 
REMARK    5  A    between atoms: O3_10  and  C8_11 
REMARK    6  A    between atoms: C8_11  and  C9_13 
REMARK    7  A    between atoms: C15_19  and  O5_21 
REMARK    8  A    between atoms: C15_19  and  C17_22 
REMARK    9  A    between atoms: C20_25  and  O6_26 
REMARK   10  A    between atoms: C26_33  and  O8_34 
REMARK   11  A    between atoms: C27_35  and  O9_36 
ROOT
HETATM    1  C17 UNL     1      -6.645   6.932  14.476  1.00  0.00     0.034 C 
HETATM    2  C18 UNL     1      -6.783   8.414  14.851  1.00  0.00     0.012 C 
HETATM    3  C19 UNL     1      -5.476   9.006  14.347  1.00  0.00     0.044 C 
HETATM    4  C20 UNL     1      -4.411   8.021  14.851  1.00  0.00     0.089 C 
HETATM    5  C21 UNL     1      -3.104   7.972  14.072  1.00  0.00    -0.037 C 
HETATM    6  C22 UNL     1      -2.758   8.850  13.117  1.00  0.00     0.057 C 
HETATM    7  C23 UNL     1      -1.529   8.695  12.310  1.00  0.00     0.154 C 
HETATM    8  O7  UNL     1      -1.319   9.510  11.412  1.00  0.00    -0.293 OA
HETATM    9  C24 UNL     1      -0.598   7.521  12.566  1.00  0.00     0.071 C 
HETATM   10  C25 UNL     1      -0.747   6.510  11.422  1.00  0.00     0.047 C 
HETATM   11  C26 UNL     1      -0.016   5.186  11.655  1.00  0.00     0.147 C 
HETATM   12  C27 UNL     1       0.854   5.172  12.917  1.00  0.00     0.147 C 
HETATM   13  C28 UNL     1       0.050   5.578  14.150  1.00  0.00     0.044 C 
HETATM   14  C29 UNL     1      -0.735   6.923  13.996  1.00  0.00    -0.023 C 
HETATM   15  C30 UNL     1      -0.068   7.940  14.978  1.00  0.00     0.016 C 
HETATM   16  C31 UNL     1      -2.242   6.776  14.429  1.00  0.00     0.027 C 
HETATM   17  C32 UNL     1      -2.984   5.501  13.968  1.00  0.00     0.011 C 
HETATM   18  C33 UNL     1      -4.509   5.661  13.842  1.00  0.00     0.014 C 
HETATM   19  C34 UNL     1      -5.146   6.607  14.900  1.00  0.00    -0.002 C 
HETATM   20  C35 UNL     1      -5.018   5.967  16.299  1.00  0.00     0.019 C 
ENDROOT
BRANCH   1  21
HETATM   21  C15 UNL     1      -7.846   6.052  14.961  1.00  0.00     0.085 C 
HETATM   22  C16 UNL     1      -7.362   4.878  15.829  1.00  0.00     0.049 C 
BRANCH  21  23
HETATM   23  C7  UNL     1      -8.714   5.501  13.757  1.00  0.00     0.167 C 
BRANCH  23  24
HETATM   24  C6  UNL     1      -9.622   6.557  13.084  1.00  0.00     0.043 C 
BRANCH  24  25
HETATM   25  C5  UNL     1     -10.646   7.190  14.062  1.00  0.00     0.026 C 
HETATM   26  C2  UNL     1     -10.889   8.663  13.726  1.00  0.00     0.087 C 
HETATM   27  C1  UNL     1     -11.293   9.492  14.939  1.00  0.00     0.021 C 
HETATM   28  C3  UNL     1     -12.039   8.586  12.757  1.00  0.00     0.263 C 
HETATM   29  O1  UNL     1     -12.393   9.480  12.006  1.00  0.00    -0.265 OA
HETATM   30  O2  UNL     1     -12.656   7.374  12.853  1.00  0.00    -0.321 OA
HETATM   31  C4  UNL     1     -12.043   6.611  13.893  1.00  0.00     0.184 C 
ENDBRANCH  24  25
ENDBRANCH  23  24
BRANCH  23  32
HETATM   32  O3  UNL     1      -7.848   4.948  12.735  1.00  0.00    -0.309 OA
BRANCH  32  33
HETATM   33  C8  UNL     1      -7.946   3.609  12.528  1.00  0.00     0.293 C 
HETATM   34  O4  UNL     1      -8.955   2.941  12.701  1.00  0.00    -0.259 OA
BRANCH  33  35
HETATM   35  C9  UNL     1      -6.660   3.059  12.026  1.00  0.00     0.039 A 
HETATM   36  C10 UNL     1      -6.418   1.682  11.936  1.00  0.00     0.017 A 
HETATM   37  C11 UNL     1      -5.189   1.216  11.464  1.00  0.00     0.001 A 
HETATM   38  C12 UNL     1      -4.200   2.121  11.079  1.00  0.00     0.000 A 
HETATM   39  C13 UNL     1      -4.437   3.493  11.159  1.00  0.00     0.001 A 
HETATM   40  C14 UNL     1      -5.665   3.963  11.629  1.00  0.00     0.017 A 
ENDBRANCH  33  35
ENDBRANCH  32  33
ENDBRANCH  23  32
ENDBRANCH  21  23
BRANCH  21  41
HETATM   41  O5  UNL     1      -8.694   6.839  15.808  1.00  0.00    -0.387 OA
HETATM   42  H19 UNL     1      -9.364   7.299  15.262  1.00  0.00     0.210 HD
ENDBRANCH  21  41
ENDBRANCH   1  21
BRANCH   4  43
HETATM   43  O6  UNL     1      -4.064   8.449  16.172  1.00  0.00    -0.384 OA
HETATM   44  H25 UNL     1      -3.555   9.274  16.091  1.00  0.00     0.211 HD
ENDBRANCH   4  43
BRANCH  12  45
HETATM   45  O9  UNL     1       1.971   6.050  12.761  1.00  0.00    -0.393 OA
HETATM   46  H33 UNL     1       2.210   6.017  11.812  1.00  0.00     0.210 HD
ENDBRANCH  12  45
BRANCH  11  47
HETATM   47  O8  UNL     1       0.822   4.923  10.523  1.00  0.00    -0.393 OA
HETATM   48  H31 UNL     1       1.117   3.996  10.583  1.00  0.00     0.210 HD
ENDBRANCH  11  47
TORSDOF 11
ENDMDL
