MODEL 1
REMARK minimizedAffinity -8.68197823
REMARK CNNscore 0.65689677
REMARK CNNaffinity 6.50086737
REMARK  9 active torsions:
REMARK  status: ('A' for Active; 'I' for Inactive)
REMARK    1  A    between atoms: C2_2  and  C33_38 
REMARK    2  A    between atoms: C3_3  and  C4_4 
REMARK    3  A    between atoms: C4_4  and  O1_5 
REMARK    4  A    between atoms: C4_4  and  C5_6 
REMARK    5  A    between atoms: C5_6  and  C6_7 
REMARK    6  A    between atoms: C6_7  and  C8_9 
REMARK    7  A    between atoms: C10_11  and  O2_12 
REMARK    8  A    between atoms: C32_36  and  O5_37 
REMARK    9  A    between atoms: C33_38  and  O7_40 
ROOT
HETATM    1  C8  UNL     1     -12.340  46.273 -26.519  1.00  0.00     0.002 C 
HETATM    2  C9  UNL     1     -11.665  47.388 -25.685  1.00  0.00     0.038 C 
HETATM    3  C10 UNL     1     -10.533  47.960 -26.571  1.00  0.00     0.132 C 
HETATM    4  C11 UNL     1     -10.795  47.388 -28.002  1.00  0.00     0.017 C 
HETATM    5  C12 UNL     1     -11.857  48.273 -28.731  1.00  0.00     0.023 C 
HETATM    6  C13 UNL     1      -9.626  47.256 -28.989  1.00  0.00    -0.029 C 
HETATM    7  C14 UNL     1      -9.583  46.222 -29.872  1.00  0.00     0.003 C 
HETATM    8  C15 UNL     1     -10.805  45.294 -29.962  1.00  0.00     0.157 C 
HETATM    9  O3  UNL     1     -10.963  44.528 -30.911  1.00  0.00    -0.293 OA
HETATM   10  C16 UNL     1     -11.838  45.277 -28.845  1.00  0.00     0.094 C 
HETATM   11  C17 UNL     1     -11.263  45.919 -27.591  1.00  0.00    -0.016 C 
HETATM   12  C18 UNL     1     -10.029  45.104 -26.979  1.00  0.00     0.011 C 
HETATM   13  C19 UNL     1      -9.713  43.686 -27.509  1.00  0.00     0.001 C 
HETATM   14  C20 UNL     1      -8.214  43.402 -27.699  1.00  0.00     0.000 C 
HETATM   15  C21 UNL     1      -7.444  44.352 -28.630  1.00  0.00     0.001 C 
HETATM   16  C22 UNL     1      -7.904  44.394 -30.108  1.00  0.00     0.015 C 
HETATM   17  C23 UNL     1      -8.314  45.820 -30.678  1.00  0.00    -0.004 C 
HETATM   18  C24 UNL     1      -8.631  45.684 -32.207  1.00  0.00     0.022 C 
HETATM   19  C25 UNL     1      -8.319  46.917 -33.036  1.00  0.00     0.080 C 
HETATM   20  C26 UNL     1      -6.843  47.221 -33.002  1.00  0.00     0.135 C 
HETATM   21  O4  UNL     1      -6.284  47.707 -33.986  1.00  0.00    -0.297 OA
HETATM   22  C27 UNL     1      -6.083  46.906 -31.711  1.00  0.00     0.018 C 
HETATM   23  C28 UNL     1      -5.016  48.006 -31.500  1.00  0.00     0.023 C 
HETATM   24  C29 UNL     1      -5.312  45.589 -31.926  1.00  0.00     0.023 C 
HETATM   25  C30 UNL     1      -7.085  46.829 -30.491  1.00  0.00     0.017 C 
HETATM   26  C31 UNL     1      -7.572  48.233 -30.081  1.00  0.00     0.043 C 
HETATM   27  C32 UNL     1      -8.490  48.238 -28.867  1.00  0.00     0.149 C 
ENDROOT
BRANCH   1  28
HETATM   28  C6  UNL     1     -13.138  45.183 -25.744  1.00  0.00    -0.011 C 
HETATM   29  C7  UNL     1     -13.001  43.847 -26.501  1.00  0.00     0.010 C 
BRANCH  28  30
HETATM   30  C5  UNL     1     -14.621  45.482 -25.451  1.00  0.00     0.040 C 
BRANCH  30  31
HETATM   31  C4  UNL     1     -14.929  46.838 -24.783  1.00  0.00     0.142 C 
BRANCH  31  32
HETATM   32  C3  UNL     1     -16.381  47.000 -24.450  1.00  0.00     0.018 C 
HETATM   33  C2  UNL     1     -17.437  46.366 -25.000  1.00  0.00     0.010 C 
HETATM   34  C1  UNL     1     -17.389  45.369 -26.118  1.00  0.00     0.055 C 
BRANCH  33  35
HETATM   35  C33 UNL     1     -18.771  46.711 -24.442  1.00  0.00     0.171 C 
HETATM   36  O6  UNL     1     -19.765  47.033 -25.069  1.00  0.00    -0.646 OA
BRANCH  35  37
HETATM   37  O7  UNL     1     -18.793  46.654 -23.100  1.00  0.00    -0.773 OA
HETATM   38  H48 UNL     1     -19.715  46.901 -22.879  1.00  0.00     0.167 HD
ENDBRANCH  35  37
ENDBRANCH  33  35
ENDBRANCH  31  32
BRANCH  31  39
HETATM   39  O1  UNL     1     -14.235  46.887 -23.538  1.00  0.00    -0.392 OA
HETATM   40  H6  UNL     1     -13.283  46.871 -23.733  1.00  0.00     0.210 HD
ENDBRANCH  31  39
ENDBRANCH  30  31
ENDBRANCH  28  30
ENDBRANCH   1  28
BRANCH   3  41
HETATM   41  O2  UNL     1     -10.510  49.381 -26.547  1.00  0.00    -0.394 OA
HETATM   42  H17 UNL     1     -10.531  49.662 -25.614  1.00  0.00     0.210 HD
ENDBRANCH   3  41
BRANCH  27  43
HETATM   43  O5  UNL     1      -8.963  49.576 -28.774  1.00  0.00    -0.391 OA
HETATM   44  H47 UNL     1      -9.507  49.663 -27.964  1.00  0.00     0.210 HD
ENDBRANCH  27  43
TORSDOF 9
ENDMDL
