MODEL 1
REMARK minimizedAffinity -6.6562438
REMARK CNNscore 0.860704482
REMARK CNNaffinity 7.69673014
REMARK  12 active torsions:
REMARK  status: ('A' for Active; 'I' for Inactive)
REMARK    1  A    between atoms: O1_2  and  C2_3 
REMARK    2  A    between atoms: C4_5  and  O2_6 
REMARK    3  A    between atoms: O2_6  and  C5_7 
REMARK    4  A    between atoms: C15_17  and  O3_18 
REMARK    5  A    between atoms: O3_18  and  C16_19 
REMARK    6  A    between atoms: C18_22  and  O5_23 
REMARK    7  A    between atoms: O5_23  and  C19_24 
REMARK    8  A    between atoms: C19_24  and  C20_26 
REMARK    9  A    between atoms: C20_26  and  C21_27 
REMARK   10  A    between atoms: C26_32  and  C27_33 
REMARK   11  A    between atoms: C31_38  and  O8_39 
REMARK   12  A    between atoms: C35_44  and  O10_45 
ROOT
HETATM    1  C5  UNL     1      -3.282  52.012 -10.981  1.00  0.00     0.128 C 
HETATM    2  C6  UNL     1      -3.330  53.295 -10.141  1.00  0.00     0.033 C 
HETATM    3  C7  UNL     1      -1.939  53.886  -9.878  1.00  0.00     0.016 C 
HETATM    4  C8  UNL     1      -0.915  52.890  -9.248  1.00  0.00    -0.014 C 
HETATM    5  C9  UNL     1      -1.435  52.481  -7.852  1.00  0.00     0.020 C 
HETATM    6  C10 UNL     1      -0.930  51.658 -10.160  1.00  0.00    -0.072 C 
HETATM    7  C11 UNL     1       0.153  51.215 -10.815  1.00  0.00    -0.023 C 
HETATM    8  C12 UNL     1       1.462  51.929 -10.815  1.00  0.00     0.035 C 
HETATM    9  C13 UNL     1       1.290  53.430 -10.507  1.00  0.00     0.032 C 
HETATM   10  C14 UNL     1       0.511  53.628  -9.178  1.00  0.00     0.037 C 
HETATM   11  C15 UNL     1       1.449  53.340  -7.966  1.00  0.00     0.167 C 
HETATM   12  C18 UNL     1       2.763  54.186  -8.030  1.00  0.00     0.173 C 
HETATM   13  C24 UNL     1       3.577  54.043  -9.350  1.00  0.00     0.027 C 
HETATM   14  C25 UNL     1       4.384  52.727  -9.366  1.00  0.00     0.022 C 
HETATM   15  C26 UNL     1       4.551  55.248  -9.615  1.00  0.00     0.069 C 
HETATM   16  C29 UNL     1       3.628  56.391 -10.052  1.00  0.00     0.016 C 
HETATM   17  C30 UNL     1       2.390  55.736 -10.661  1.00  0.00     0.040 C 
HETATM   18  C31 UNL     1       2.620  54.210 -10.568  1.00  0.00     0.073 C 
HETATM   19  C32 UNL     1      -2.276  51.005 -10.399  1.00  0.00     0.066 C 
ENDROOT
BRANCH   1  20
HETATM   20  O2  UNL     1      -4.551  51.349 -11.040  1.00  0.00    -0.356 OA
BRANCH  20  21
HETATM   21  C4  UNL     1      -4.664  50.193 -10.215  1.00  0.00     0.263 C 
HETATM   22  C3  UNL     1      -6.138  50.032  -9.815  1.00  0.00     0.095 C 
HETATM   23  C2  UNL     1      -6.477  48.554  -9.660  1.00  0.00     0.156 C 
HETATM   24  C35 UNL     1      -6.263  47.842 -11.016  1.00  0.00     0.175 C 
HETATM   25  C33 UNL     1      -5.085  48.466 -11.785  1.00  0.00     0.151 C 
HETATM   26  O9  UNL     1      -4.150  49.027 -10.862  1.00  0.00    -0.354 OA
HETATM   27  C34 UNL     1      -4.360  47.425 -12.627  1.00  0.00     0.042 C 
BRANCH  23  28
HETATM   28  O1  UNL     1      -7.843  48.343  -9.269  1.00  0.00    -0.388 OA
HETATM   29  C1  UNL     1      -8.445  49.487  -8.677  1.00  0.00     0.202 C 
ENDBRANCH  23  28
BRANCH  24  30
HETATM   30  O10 UNL     1      -7.448  47.932 -11.821  1.00  0.00    -0.390 OA
HETATM   31  H54 UNL     1      -8.188  47.910 -11.179  1.00  0.00     0.210 HD
ENDBRANCH  24  30
ENDBRANCH  20  21
ENDBRANCH   1  20
BRANCH  11  32
HETATM   32  O3  UNL     1       0.768  53.780  -6.758  1.00  0.00    -0.313 OA
BRANCH  32  33
HETATM   33  C16 UNL     1       0.064  54.944  -6.824  1.00  0.00     0.255 C 
HETATM   34  C17 UNL     1       0.627  55.818  -7.903  1.00  0.00     0.126 C 
HETATM   35  O4  UNL     1      -0.890  55.246  -6.124  1.00  0.00    -0.266 OA
ENDBRANCH  32  33
ENDBRANCH  11  32
BRANCH  18  36
HETATM   36  O8  UNL     1       3.314  53.851 -11.773  1.00  0.00    -0.389 OA
HETATM   37  H46 UNL     1       2.717  53.989 -12.530  1.00  0.00     0.210 HD
ENDBRANCH  18  36
BRANCH  12  38
HETATM   38  O5  UNL     1       3.587  53.780  -6.911  1.00  0.00    -0.312 OA
BRANCH  38  39
HETATM   39  C19 UNL     1       3.804  54.676  -5.909  1.00  0.00     0.259 C 
HETATM   40  O6  UNL     1       4.557  54.494  -4.964  1.00  0.00    -0.265 OA
BRANCH  39  41
HETATM   41  C20 UNL     1       3.016  55.943  -6.171  1.00  0.00     0.115 C 
BRANCH  41  42
HETATM   42  C21 UNL     1       3.102  56.958  -5.021  1.00  0.00    -0.013 C 
HETATM   43  C22 UNL     1       3.260  58.393  -5.528  1.00  0.00     0.010 C 
HETATM   44  C23 UNL     1       1.846  56.865  -4.150  1.00  0.00     0.010 C 
ENDBRANCH  41  42
ENDBRANCH  39  41
ENDBRANCH  38  39
ENDBRANCH  12  38
BRANCH  15  45
HETATM   45  C27 UNL     1       5.549  55.638  -8.520  1.00  0.00     0.128 C 
HETATM   46  C28 UNL     1       6.682  54.691  -8.203  1.00  0.00     0.091 C 
HETATM   47  O7  UNL     1       5.397  56.649  -7.830  1.00  0.00    -0.298 OA
ENDBRANCH  15  45
TORSDOF 12
ENDMDL
