MODEL 1
REMARK minimizedAffinity -8.93215752
REMARK CNNscore 0.789868534
REMARK CNNaffinity 7.20258093
REMARK  15 active torsions:
REMARK  status: ('A' for Active; 'I' for Inactive)
REMARK    1  A    between atoms: O1_2  and  C2_3 
REMARK    2  A    between atoms: C6_8  and  C7_9 
REMARK    3  A    between atoms: C7_9  and  O3_11 
REMARK    4  A    between atoms: C8_12  and  C9_13 
REMARK    5  A    between atoms: C9_13  and  C10_14 
REMARK    6  A    between atoms: C10_14  and  N2_15 
REMARK       I    between atoms: N2_15  and  C11_16 
REMARK    7  A    between atoms: C11_16  and  C12_18 
REMARK    8  A    between atoms: C12_18  and  C13_19 
REMARK    9  A    between atoms: C13_19  and  C14_20 
REMARK   10  A    between atoms: C14_20  and  O6_22 
REMARK   11  A    between atoms: O6_22  and  C15_23 
REMARK   12  A    between atoms: C15_23  and  C16_24 
REMARK   13  A    between atoms: C16_24  and  C17_26 
REMARK   14  A    between atoms: C17_26  and  O8_27 
REMARK   15  A    between atoms: C32_43  and  O10_44 
ROOT
HETATM    1  O6  UNL     1       1.382  51.124 -14.044  1.00  0.00    -0.314 OA
ENDROOT
BRANCH   1   2
HETATM    2  C14 UNL     1       1.851  51.522 -15.250  1.00  0.00     0.259 C 
HETATM    3  O5  UNL     1       2.976  51.986 -15.421  1.00  0.00    -0.265 OA
BRANCH   2   4
HETATM    4  C13 UNL     1       0.842  51.362 -16.366  1.00  0.00     0.120 C 
BRANCH   4   5
HETATM    5  C12 UNL     1       1.043  52.321 -17.535  1.00  0.00     0.112 C 
BRANCH   5   6
HETATM    6  C11 UNL     1       0.312  51.858 -18.781  1.00  0.00     0.218 C 
HETATM    7  N2  UNL     1       0.327  52.796 -19.790  1.00  0.00    -0.361 N 
HETATM    8  H12 UNL     1       0.525  53.755 -19.531  1.00  0.00     0.162 HD
HETATM    9  O4  UNL     1      -0.204  50.752 -18.885  1.00  0.00    -0.274 OA
BRANCH   7  10
HETATM   10  C10 UNL     1      -0.450  52.597 -21.003  1.00  0.00     0.127 C 
BRANCH  10  11
HETATM   11  C9  UNL     1       0.415  52.228 -22.208  1.00  0.00     0.061 C 
BRANCH  11  12
HETATM   12  C8  UNL     1      -0.383  51.942 -23.451  1.00  0.00    -0.011 A 
HETATM   13  C6  UNL     1      -0.400  52.670 -24.640  1.00  0.00     0.114 A 
HETATM   14  N1  UNL     1      -1.275  52.027 -25.488  1.00  0.00    -0.350 N 
HETATM   15  C5  UNL     1      -1.830  50.924 -24.893  1.00  0.00     0.043 A 
HETATM   16  H6  UNL     1      -1.482  52.344 -26.427  1.00  0.00     0.166 HD
HETATM   17  C4  UNL     1      -2.761  50.005 -25.387  1.00  0.00     0.033 A 
HETATM   18  C36 UNL     1      -1.294  50.843 -23.612  1.00  0.00     0.002 A 
HETATM   19  C3  UNL     1      -3.163  48.963 -24.542  1.00  0.00     0.039 A 
HETATM   20  C2  UNL     1      -2.651  48.848 -23.251  1.00  0.00     0.069 A 
HETATM   21  C37 UNL     1      -1.713  49.780 -22.783  1.00  0.00     0.051 A 
BRANCH  13  22
HETATM   22  C7  UNL     1       0.277  53.859 -25.075  1.00  0.00     0.194 C 
HETATM   23  O2  UNL     1       0.141  54.415 -26.153  1.00  0.00    -0.645 OA
BRANCH  22  24
HETATM   24  O3  UNL     1       1.129  54.343 -24.151  1.00  0.00    -0.772 OA
HETATM   25  H7  UNL     1       1.500  55.138 -24.587  1.00  0.00     0.167 HD
ENDBRANCH  22  24
ENDBRANCH  13  22
BRANCH  20  26
HETATM   26  O1  UNL     1      -2.975  47.873 -22.344  1.00  0.00    -0.356 OA
HETATM   27  C1  UNL     1      -1.899  47.255 -21.649  1.00  0.00     0.210 C 
ENDBRANCH  20  26
ENDBRANCH  11  12
ENDBRANCH  10  11
ENDBRANCH   7  10
ENDBRANCH   5   6
ENDBRANCH   4   5
ENDBRANCH   2   4
ENDBRANCH   1   2
BRANCH   1  28
HETATM   28  C15 UNL     1       1.083  52.152 -13.108  1.00  0.00     0.260 C 
BRANCH  28  29
HETATM   29  C16 UNL     1       1.245  51.686 -11.673  1.00  0.00     0.185 C 
HETATM   30  O7  UNL     1       0.694  50.642 -11.310  1.00  0.00    -0.292 OA
BRANCH  29  31
HETATM   31  C17 UNL     1       2.195  52.491 -10.737  1.00  0.00     0.128 C 
HETATM   32  C18 UNL     1       3.232  53.312 -11.570  1.00  0.00     0.047 C 
HETATM   33  C19 UNL     1       3.417  54.664 -10.854  1.00  0.00     0.009 C 
HETATM   34  C20 UNL     1       2.673  54.505  -9.532  1.00  0.00     0.002 C 
HETATM   35  C21 UNL     1       2.283  55.774  -8.759  1.00  0.00    -0.002 C 
HETATM   36  C34 UNL     1       1.467  53.606  -9.902  1.00  0.00     0.001 C 
HETATM   37  C22 UNL     1       3.528  56.622  -8.446  1.00  0.00     0.010 C 
HETATM   38  C31 UNL     1       1.562  55.366  -7.432  1.00  0.00     0.031 C 
HETATM   39  C23 UNL     1       3.177  57.853  -7.622  1.00  0.00     0.035 C 
HETATM   40  C24 UNL     1       2.438  57.489  -6.357  1.00  0.00    -0.068 C 
HETATM   41  C25 UNL     1       2.873  57.947  -5.171  1.00  0.00     0.053 C 
HETATM   42  C29 UNL     1       1.188  56.610  -6.529  1.00  0.00    -0.014 C 
HETATM   43  C26 UNL     1       2.110  57.717  -3.924  1.00  0.00     0.149 C 
HETATM   44  O9  UNL     1       2.589  58.062  -2.847  1.00  0.00    -0.293 OA
HETATM   45  C27 UNL     1       0.727  57.130  -4.047  1.00  0.00     0.084 C 
HETATM   46  C28 UNL     1       0.712  56.075  -5.143  1.00  0.00     0.022 C 
HETATM   47  C30 UNL     1       0.076  57.508  -7.123  1.00  0.00     0.020 C 
HETATM   48  C32 UNL     1       0.412  54.342  -7.662  1.00  0.00     0.124 C 
HETATM   49  C33 UNL     1       0.813  53.162  -8.574  1.00  0.00     0.045 C 
HETATM   50  C35 UNL     1       0.427  54.335 -10.798  1.00  0.00     0.019 C 
BRANCH  31  51
HETATM   51  O8  UNL     1       2.989  51.649  -9.904  1.00  0.00    -0.381 OA
HETATM   52  H19 UNL     1       2.426  51.198  -9.243  1.00  0.00     0.211 HD
ENDBRANCH  31  51
BRANCH  48  53
HETATM   53  O10 UNL     1      -0.742  54.969  -8.199  1.00  0.00    -0.395 OA
HETATM   54  H40 UNL     1      -1.471  54.327  -8.184  1.00  0.00     0.210 HD
ENDBRANCH  48  53
ENDBRANCH  29  31
ENDBRANCH  28  29
ENDBRANCH   1  28
TORSDOF 15
ENDMDL
