MODEL 1
REMARK minimizedAffinity -8.91282463
REMARK CNNscore 0.660596073
REMARK CNNaffinity 6.81246185
REMARK  12 active torsions:
REMARK  status: ('A' for Active; 'I' for Inactive)
REMARK    1  A    between atoms: C19_21  and  O3_22 
REMARK    2  A    between atoms: C19_21  and  C20_23 
REMARK    3  A    between atoms: C20_23  and  C21_25 
REMARK    4  A    between atoms: C21_25  and  O5_26 
REMARK    5  A    between atoms: O5_26  and  C22_27 
REMARK    6  A    between atoms: C22_27  and  C23_29 
REMARK    7  A    between atoms: C23_29  and  C24_30 
REMARK    8  A    between atoms: C24_30  and  C25_31 
REMARK       I    between atoms: C25_31  and  N1_33 
REMARK    9  A    between atoms: N1_33  and  C26_34 
REMARK   10  A    between atoms: C26_34  and  C27_35 
REMARK   11  A    between atoms: C30_38  and  C31_39 
REMARK   12  A    between atoms: C31_39  and  O9_41 
ROOT
HETATM    1  C1  UNL     1       0.764  49.288 -15.598  1.00  0.00     0.021 C 
HETATM    2  C2  UNL     1      -0.110  50.439 -16.165  1.00  0.00    -0.009 C 
HETATM    3  C3  UNL     1       0.449  51.786 -15.622  1.00  0.00     0.022 C 
HETATM    4  C4  UNL     1       0.282  51.962 -14.119  1.00  0.00     0.084 C 
HETATM    5  C5  UNL     1      -1.172  51.817 -13.749  1.00  0.00     0.149 C 
HETATM    6  O1  UNL     1      -1.648  52.347 -12.746  1.00  0.00    -0.293 OA
HETATM    7  C6  UNL     1      -2.022  50.920 -14.571  1.00  0.00     0.053 C 
HETATM    8  C7  UNL     1      -1.531  50.245 -15.628  1.00  0.00    -0.067 C 
HETATM    9  C8  UNL     1      -2.369  49.174 -16.268  1.00  0.00     0.035 C 
HETATM   10  C9  UNL     1      -2.354  49.242 -17.790  1.00  0.00     0.010 C 
HETATM   11  C10 UNL     1      -0.921  49.227 -18.353  1.00  0.00     0.003 C 
HETATM   12  C11 UNL     1      -0.038  50.358 -17.742  1.00  0.00     0.072 C 
HETATM   13  C12 UNL     1      -0.219  51.680 -18.508  1.00  0.00     0.133 C 
HETATM   14  O2  UNL     1       0.484  52.669 -18.291  1.00  0.00    -0.297 OA
HETATM   15  C13 UNL     1      -1.208  51.723 -19.646  1.00  0.00     0.091 C 
HETATM   16  C14 UNL     1      -0.903  50.589 -20.634  1.00  0.00     0.005 C 
HETATM   17  C15 UNL     1       0.470  50.863 -21.310  1.00  0.00     0.019 C 
HETATM   18  C16 UNL     1      -0.810  49.204 -19.902  1.00  0.00     0.002 C 
HETATM   19  C17 UNL     1      -1.776  48.263 -20.641  1.00  0.00     0.009 C 
HETATM   20  C18 UNL     1      -1.942  48.892 -22.018  1.00  0.00     0.047 C 
HETATM   21  C19 UNL     1      -2.025  50.391 -21.706  1.00  0.00     0.128 C 
ENDROOT
BRANCH  21  22
HETATM   22  O3  UNL     1      -3.304  50.642 -21.121  1.00  0.00    -0.381 OA
HETATM   23  H25 UNL     1      -3.989  50.343 -21.752  1.00  0.00     0.211 HD
ENDBRANCH  21  22
BRANCH  21  24
HETATM   24  C20 UNL     1      -1.860  51.252 -22.976  1.00  0.00     0.185 C 
HETATM   25  O4  UNL     1      -0.792  51.297 -23.598  1.00  0.00    -0.292 OA
BRANCH  24  26
HETATM   26  C21 UNL     1      -3.058  52.105 -23.395  1.00  0.00     0.260 C 
BRANCH  26  27
HETATM   27  O5  UNL     1      -3.781  51.524 -24.482  1.00  0.00    -0.314 OA
BRANCH  27  28
HETATM   28  C22 UNL     1      -3.275  51.823 -25.708  1.00  0.00     0.259 C 
HETATM   29  O6  UNL     1      -3.062  52.965 -26.099  1.00  0.00    -0.265 OA
BRANCH  28  30
HETATM   30  C23 UNL     1      -3.019  50.590 -26.544  1.00  0.00     0.120 C 
BRANCH  30  31
HETATM   31  C24 UNL     1      -3.715  49.333 -26.036  1.00  0.00     0.112 C 
BRANCH  31  32
HETATM   32  C25 UNL     1      -4.269  48.495 -27.165  1.00  0.00     0.218 C 
HETATM   33  O7  UNL     1      -3.611  48.153 -28.140  1.00  0.00    -0.274 OA
HETATM   34  N1  UNL     1      -5.599  48.179 -26.987  1.00  0.00    -0.361 N 
HETATM   35  H32 UNL     1      -6.072  48.504 -26.154  1.00  0.00     0.162 HD
BRANCH  34  36
HETATM   36  C26 UNL     1      -6.372  47.462 -27.981  1.00  0.00     0.127 C 
BRANCH  36  37
HETATM   37  C27 UNL     1      -7.880  47.773 -27.923  1.00  0.00     0.003 C 
HETATM   38  C28 UNL     1      -8.567  47.163 -26.695  1.00  0.00     0.007 C 
HETATM   39  C29 UNL     1     -10.018  47.639 -26.562  1.00  0.00     0.015 C 
HETATM   40  C30 UNL     1     -10.711  47.871 -27.911  1.00  0.00     0.084 C 
HETATM   41  C32 UNL     1     -10.082  47.036 -29.028  1.00  0.00     0.015 C 
HETATM   42  C33 UNL     1      -8.604  47.375 -29.225  1.00  0.00     0.007 C 
BRANCH  40  43
HETATM   43  C31 UNL     1     -12.197  47.625 -27.775  1.00  0.00     0.143 C 
HETATM   44  O8  UNL     1     -12.992  48.357 -27.209  1.00  0.00    -0.650 OA
BRANCH  43  45
HETATM   45  O9  UNL     1     -12.605  46.452 -28.296  1.00  0.00    -0.776 OA
HETATM   46  H41 UNL     1     -13.561  46.414 -28.087  1.00  0.00     0.167 HD
ENDBRANCH  43  45
ENDBRANCH  40  43
ENDBRANCH  36  37
ENDBRANCH  34  36
ENDBRANCH  31  32
ENDBRANCH  30  31
ENDBRANCH  28  30
ENDBRANCH  27  28
ENDBRANCH  26  27
ENDBRANCH  24  26
ENDBRANCH  21  24
TORSDOF 12
ENDMDL
