MODEL 1
REMARK minimizedAffinity -7.56804085
REMARK  5 active torsions:
REMARK  status: ('A' for Active; 'I' for Inactive)
REMARK    1  A    between atoms: O1_2  and  C2_3 
REMARK    2  A    between atoms: C3_4  and  O2_5 
REMARK    3  A    between atoms: C4_6  and  C5_7 
REMARK    4  A    between atoms: C5_7  and  O3_8 
REMARK    5  A    between atoms: C6_10  and  N1_11 
ROOT
HETATM    1  C2  UNL     1      -1.017  52.876 -26.049  1.00  0.00     0.201 C 
HETATM    2  C3  UNL     1      -0.051  53.005 -27.222  1.00  0.00     0.182 C 
HETATM    3  C4  UNL     1       0.773  51.729 -27.104  1.00  0.00     0.179 C 
HETATM    4  O4  UNL     1       0.984  51.543 -25.698  1.00  0.00    -0.353 OA
HETATM    5  C6  UNL     1      -0.210  52.014 -25.043  1.00  0.00     0.264 C 
ENDROOT
BRANCH   5   6
HETATM    6  N1  UNL     1       0.169  52.642 -23.775  1.00  0.00    -0.279 N 
HETATM    7  C7  UNL     1      -0.058  51.948 -22.599  1.00  0.00     0.110 A 
HETATM    8  C8  UNL     1       0.314  52.411 -21.399  1.00  0.00     0.022 A 
HETATM    9  C9  UNL     1       0.092  51.695 -20.108  1.00  0.00     0.056 C 
HETATM   10  C10 UNL     1       1.008  53.718 -21.345  1.00  0.00     0.256 A 
HETATM   11  O5  UNL     1       1.357  54.225 -20.285  1.00  0.00    -0.267 OA
HETATM   12  N2  UNL     1       1.236  54.317 -22.549  1.00  0.00    -0.275 N 
HETATM   13  C11 UNL     1       0.864  53.840 -23.777  1.00  0.00     0.331 A 
HETATM   14  H16 UNL     1       1.729  55.195 -22.535  1.00  0.00     0.173 HD
HETATM   15  O6  UNL     1       1.135  54.485 -24.786  1.00  0.00    -0.246 OA
ENDBRANCH   5   6
BRANCH   1  16
HETATM   16  O1  UNL     1      -2.191  52.173 -26.527  1.00  0.00    -0.384 OA
HETATM   17  C1  UNL     1      -3.191  52.053 -25.520  1.00  0.00     0.202 C 
ENDBRANCH   1  16
BRANCH   2  18
HETATM   18  O2  UNL     1      -0.702  53.110 -28.485  1.00  0.00    -0.390 OA
HETATM   19  H6  UNL     1      -1.572  52.675 -28.367  1.00  0.00     0.210 HD
ENDBRANCH   2  18
BRANCH   3  20
HETATM   20  C5  UNL     1       2.092  51.815 -27.868  1.00  0.00     0.198 C 
BRANCH  20  21
HETATM   21  O3  UNL     1       3.187  51.360 -27.077  1.00  0.00    -0.398 OA
HETATM   22  H10 UNL     1       2.910  50.529 -26.639  1.00  0.00     0.209 HD
ENDBRANCH  20  21
ENDBRANCH   3  20
TORSDOF 5
ENDMDL
