MODEL 1
REMARK minimizedAffinity -10.2948761
REMARK CNNscore 0.513668597
REMARK CNNaffinity 6.44732141
REMARK  5 active torsions:
REMARK  status: ('A' for Active; 'I' for Inactive)
REMARK    1  A    between atoms: C5_5  and  C6_6 
REMARK    2  A    between atoms: C6_6  and  C7_8 
REMARK    3  A    between atoms: C7_8  and  O2_9 
REMARK    4  A    between atoms: O2_9  and  C8_10 
REMARK    5  A    between atoms: C14_17  and  C15_18 
ROOT
HETATM    1  C8  UNL     1      -1.955   4.695  12.844  1.00  0.00     0.093 A 
HETATM    2  C9  UNL     1      -2.552   3.627  12.175  1.00  0.00     0.076 A 
HETATM    3  C10 UNL     1      -3.941   3.477  12.227  1.00  0.00     0.093 A 
HETATM    4  C11 UNL     1      -4.762   4.365  12.920  1.00  0.00     0.011 A 
HETATM    5  C12 UNL     1      -4.159   5.440  13.580  1.00  0.00     0.042 A 
HETATM    6  C13 UNL     1      -2.769   5.605  13.537  1.00  0.00     0.068 A 
HETATM    7 CL1  UNL     1      -2.082   6.946  14.388  1.00  0.00    -0.081 Cl
HETATM    8  C14 UNL     1      -6.215   4.142  12.928  1.00  0.00    -0.007 A 
HETATM    9  C21 UNL     1      -6.694   3.081  12.259  1.00  0.00     0.095 A 
HETATM   10  C22 UNL     1      -5.843   2.136  11.522  1.00  0.00     0.289 A 
HETATM   11  O3  UNL     1      -6.333   1.182  10.930  1.00  0.00    -0.260 OA
HETATM   12  O4  UNL     1      -4.479   2.377  11.534  1.00  0.00    -0.275 OA
ENDROOT
BRANCH   1  13
HETATM   13  O2  UNL     1      -0.608   4.940  12.832  1.00  0.00    -0.342 OA
BRANCH  13  14
HETATM   14  C7  UNL     1      -0.185   6.120  12.163  1.00  0.00     0.254 C 
BRANCH  14  15
HETATM   15  C6  UNL     1       0.940   5.799  11.184  1.00  0.00     0.155 C 
HETATM   16  O1  UNL     1       1.356   4.643  11.075  1.00  0.00    -0.295 OA
BRANCH  15  17
HETATM   17  C5  UNL     1       1.593   6.968  10.438  1.00  0.00     0.062 C 
HETATM   18  C4  UNL     1       1.810   6.561   8.975  1.00  0.00     0.049 C 
HETATM   19  C2  UNL     1       1.945   7.766   8.028  1.00  0.00     0.054 C 
HETATM   20  C1  UNL     1       1.902   7.283   6.573  1.00  0.00     0.045 C 
HETATM   21  C3  UNL     1       3.267   8.509   8.261  1.00  0.00     0.045 C 
HETATM   22  O5  UNL     1       0.884   8.720   8.172  1.00  0.00    -0.381 OA
HETATM   23  C24 UNL     1      -0.004   8.518   9.270  1.00  0.00     0.169 C 
HETATM   24  C23 UNL     1       0.764   8.256  10.553  1.00  0.00     0.038 C 
ENDBRANCH  15  17
ENDBRANCH  14  15
ENDBRANCH  13  14
ENDBRANCH   1  13
BRANCH   8  25
HETATM   25  C15 UNL     1      -7.213   4.988  13.610  1.00  0.00    -0.025 A 
HETATM   26  C16 UNL     1      -8.237   5.599  12.876  1.00  0.00     0.012 A 
HETATM   27  C17 UNL     1      -9.179   6.403  13.521  1.00  0.00     0.001 A 
HETATM   28  C18 UNL     1      -9.101   6.599  14.901  1.00  0.00     0.000 A 
HETATM   29  C19 UNL     1      -8.084   5.992  15.637  1.00  0.00     0.001 A 
HETATM   30  C20 UNL     1      -7.140   5.188  14.994  1.00  0.00     0.012 A 
ENDBRANCH   8  25
TORSDOF 5
ENDMDL
