MODEL 1
REMARK minimizedAffinity -8.74583817
REMARK CNNscore 0.714098632
REMARK CNNaffinity 8.58013916
REMARK  23 active torsions:
REMARK  status: ('A' for Active; 'I' for Inactive)
REMARK    1  A    between atoms: C3_3  and  C4_4 
REMARK    2  A    between atoms: C5_5  and  C6_6 
REMARK    3  A    between atoms: C7_8  and  O2_9 
REMARK    4  A    between atoms: C7_8  and  C8_10 
REMARK    5  A    between atoms: C8_10  and  C10_12 
REMARK       I    between atoms: C10_12  and  N1_14 
REMARK    6  A    between atoms: N1_14  and  C11_15 
REMARK    7  A    between atoms: C11_15  and  C12_16 
REMARK    8  A    between atoms: C13_17  and  C14_18 
REMARK    9  A    between atoms: C15_19  and  C17_21 
REMARK   10  A    between atoms: C17_21  and  O4_22 
REMARK   11  A    between atoms: C17_21  and  C19_24 
REMARK   12  A    between atoms: C19_24  and  C21_26 
REMARK   13  A    between atoms: C23_28  and  O5_29 
REMARK   14  A    between atoms: C24_30  and  C25_31 
REMARK   15  A    between atoms: C26_32  and  C27_33 
REMARK   16  A    between atoms: C28_34  and  C29_35 
REMARK   17  A    between atoms: C30_36  and  C31_37 
REMARK   18  A    between atoms: C31_37  and  O7_39 
REMARK   19  A    between atoms: C32_41  and  O9_42 
REMARK   20  A    between atoms: O9_42  and  C33_43 
REMARK   21  A    between atoms: C33_43  and  C34_45 
REMARK   22  A    between atoms: C34_45  and  C35_46 
REMARK   23  A    between atoms: C41_52  and  O11_53 
ROOT
HETATM    1  C10 UNL     1      -1.051  50.445 -14.379  1.00  0.00     0.227 C 
HETATM    2  O3  UNL     1       0.155  50.213 -14.438  1.00  0.00    -0.273 OA
HETATM    3  N1  UNL     1      -1.999  49.670 -15.005  1.00  0.00    -0.357 N 
HETATM    4  H14 UNL     1      -2.908  50.103 -15.161  1.00  0.00     0.162 HD
ENDROOT
BRANCH   1   5
HETATM    5  C8  UNL     1      -1.591  51.680 -13.663  1.00  0.00     0.139 C 
HETATM    6  C9  UNL     1      -3.120  51.565 -13.648  1.00  0.00     0.026 C 
BRANCH   5   7
HETATM    7  C7  UNL     1      -0.907  51.767 -12.266  1.00  0.00     0.204 C 
HETATM    8  O1  UNL     1      -0.186  53.022 -12.219  1.00  0.00    -0.342 OA
HETATM    9  C6  UNL     1       0.164  53.426 -10.895  1.00  0.00     0.158 C 
HETATM   10  C42 UNL     1      -1.121  53.931 -10.159  1.00  0.00     0.011 C 
HETATM   11  C41 UNL     1      -2.339  53.054 -10.588  1.00  0.00     0.163 C 
HETATM   12  C43 UNL     1      -0.902  53.780  -8.636  1.00  0.00     0.020 C 
HETATM   13  C44 UNL     1      -1.416  55.419 -10.444  1.00  0.00     0.020 C 
HETATM   14  C32 UNL     1      -1.864  51.657 -11.026  1.00  0.00     0.224 C 
BRANCH   9  15
HETATM   15  C5  UNL     1       1.299  54.422 -10.934  1.00  0.00     0.006 C 
HETATM   16  C4  UNL     1       1.777  55.133  -9.899  1.00  0.00    -0.002 C 
BRANCH  16  17
HETATM   17  C3  UNL     1       2.867  56.071 -10.045  1.00  0.00    -0.005 C 
HETATM   18  C2  UNL     1       4.176  55.782 -10.058  1.00  0.00    -0.031 C 
HETATM   19  C1  UNL     1       4.829  54.442  -9.964  1.00  0.00     0.036 C 
ENDBRANCH  16  17
ENDBRANCH   9  15
BRANCH  11  20
HETATM   20  O11 UNL     1      -3.088  53.637 -11.665  1.00  0.00    -0.392 OA
HETATM   21  H53 UNL     1      -3.642  54.348 -11.294  1.00  0.00     0.210 HD
ENDBRANCH  11  20
BRANCH  14  22
HETATM   22  O9  UNL     1      -2.987  50.783 -11.247  1.00  0.00    -0.307 OA
BRANCH  22  23
HETATM   23  C33 UNL     1      -3.694  50.451 -10.130  1.00  0.00     0.263 C 
HETATM   24  O10 UNL     1      -3.219  49.885  -9.154  1.00  0.00    -0.265 OA
BRANCH  23  25
HETATM   25  C34 UNL     1      -5.136  50.891 -10.252  1.00  0.00     0.149 C 
BRANCH  25  26
HETATM   26  C35 UNL     1      -6.083  49.726 -10.398  1.00  0.00    -0.049 A 
HETATM   27  C36 UNL     1      -7.262  49.686  -9.646  1.00  0.00     0.007 A 
HETATM   28  C37 UNL     1      -8.161  48.628  -9.795  1.00  0.00     0.001 A 
HETATM   29  C38 UNL     1      -7.886  47.601 -10.696  1.00  0.00     0.000 A 
HETATM   30  C39 UNL     1      -6.712  47.630 -11.450  1.00  0.00     0.001 A 
HETATM   31  C40 UNL     1      -5.818  48.691 -11.305  1.00  0.00     0.007 A 
ENDBRANCH  25  26
ENDBRANCH  23  25
ENDBRANCH  22  23
ENDBRANCH  14  22
BRANCH   7  32
HETATM   32  O2  UNL     1       0.048  50.700 -12.117  1.00  0.00    -0.362 OA
HETATM   33  H9  UNL     1       0.487  50.570 -12.979  1.00  0.00     0.213 HD
ENDBRANCH   7  32
ENDBRANCH   5   7
ENDBRANCH   1   5
BRANCH   3  34
HETATM   34  C11 UNL     1      -1.632  48.572 -15.865  1.00  0.00     0.149 C 
BRANCH  34  35
HETATM   35  C12 UNL     1      -1.478  49.003 -17.290  1.00  0.00    -0.007 C 
HETATM   36  C13 UNL     1      -2.209  48.619 -18.346  1.00  0.00    -0.002 C 
BRANCH  36  37
HETATM   37  C14 UNL     1      -1.934  49.083 -19.691  1.00  0.00     0.005 C 
HETATM   38  C15 UNL     1      -2.559  50.098 -20.325  1.00  0.00    -0.055 C 
HETATM   39  C16 UNL     1      -3.639  50.938 -19.688  1.00  0.00     0.046 C 
BRANCH  38  40
HETATM   40  C17 UNL     1      -2.221  50.398 -21.790  1.00  0.00     0.155 C 
BRANCH  40  41
HETATM   41  O4  UNL     1      -3.403  50.262 -22.584  1.00  0.00    -0.386 OA
HETATM   42  C18 UNL     1      -3.476  49.015 -23.263  1.00  0.00     0.202 C 
ENDBRANCH  40  41
BRANCH  40  43
HETATM   43  C19 UNL     1      -1.576  51.805 -21.974  1.00  0.00     0.044 C 
HETATM   44  C20 UNL     1      -1.374  52.168 -23.454  1.00  0.00     0.015 C 
BRANCH  43  45
HETATM   45  C21 UNL     1      -0.226  51.965 -21.232  1.00  0.00     0.131 C 
HETATM   46  C22 UNL     1       0.912  52.545 -22.064  1.00  0.00     0.067 C 
HETATM   47  C23 UNL     1       1.575  53.583 -21.181  1.00  0.00     0.153 C 
HETATM   48  C24 UNL     1       0.833  53.516 -19.844  1.00  0.00     0.173 C 
HETATM   49  O8  UNL     1      -0.361  52.755 -20.054  1.00  0.00    -0.374 OA
BRANCH  47  50
HETATM   50  O5  UNL     1       1.427  54.873 -21.780  1.00  0.00    -0.393 OA
HETATM   51  H35 UNL     1       1.947  54.882 -22.598  1.00  0.00     0.210 HD
ENDBRANCH  47  50
BRANCH  48  52
HETATM   52  C25 UNL     1       1.611  52.820 -18.759  1.00  0.00     0.007 C 
HETATM   53  C26 UNL     1       1.158  52.650 -17.505  1.00  0.00    -0.001 C 
BRANCH  53  54
HETATM   54  C27 UNL     1       1.899  51.931 -16.494  1.00  0.00    -0.000 C 
HETATM   55  C28 UNL     1       3.087  52.347 -16.026  1.00  0.00     0.000 C 
BRANCH  55  56
HETATM   56  C29 UNL     1       3.821  51.634 -15.004  1.00  0.00     0.007 C 
HETATM   57  C30 UNL     1       3.215  50.957 -14.018  1.00  0.00     0.081 C 
BRANCH  57  58
HETATM   58  C31 UNL     1       4.028  50.239 -13.027  1.00  0.00     0.165 C 
HETATM   59  O6  UNL     1       3.894  50.234 -11.820  1.00  0.00    -0.647 OA
BRANCH  58  60
HETATM   60  O7  UNL     1       4.986  49.526 -13.648  1.00  0.00    -0.773 OA
HETATM   61  H43 UNL     1       5.471  49.092 -12.915  1.00  0.00     0.167 HD
ENDBRANCH  58  60
ENDBRANCH  57  58
ENDBRANCH  55  56
ENDBRANCH  53  54
ENDBRANCH  48  52
ENDBRANCH  43  45
ENDBRANCH  40  43
ENDBRANCH  38  40
ENDBRANCH  36  37
ENDBRANCH  34  35
ENDBRANCH   3  34
TORSDOF 23
ENDMDL
