MODEL 1
REMARK minimizedAffinity -10.1707144
REMARK  6 active torsions:
REMARK  status: ('A' for Active; 'I' for Inactive)
REMARK    1  A    between atoms: C2_2  and  C30_31 
REMARK    2  A    between atoms: C3_3  and  C4_4 
REMARK    3  A    between atoms: C4_4  and  C5_5 
REMARK    4  A    between atoms: C5_5  and  C6_6 
REMARK    5  A    between atoms: C6_6  and  C8_8 
REMARK    6  A    between atoms: C30_31  and  O3_33 
ROOT
HETATM    1  C8  UNL     1      -3.125  48.433 -20.109  1.00  0.00    -0.002 C 
HETATM    2  C9  UNL     1      -3.659  47.283 -20.975  1.00  0.00     0.007 C 
HETATM    3  C10 UNL     1      -3.223  47.663 -22.374  1.00  0.00     0.015 C 
HETATM    4  C11 UNL     1      -3.552  49.176 -22.508  1.00  0.00    -0.013 C 
HETATM    5  C12 UNL     1      -4.960  49.305 -23.160  1.00  0.00     0.021 C 
HETATM    6  C13 UNL     1      -2.558  49.831 -23.500  1.00  0.00    -0.070 C 
HETATM    7  C14 UNL     1      -2.377  49.322 -24.740  1.00  0.00    -0.022 C 
HETATM    8  C15 UNL     1      -1.524  49.927 -25.811  1.00  0.00     0.034 C 
HETATM    9  C16 UNL     1      -0.603  51.061 -25.322  1.00  0.00     0.013 C 
HETATM   10  C17 UNL     1       0.206  51.794 -26.458  1.00  0.00     0.018 C 
HETATM   11  C18 UNL     1       1.673  51.316 -26.425  1.00  0.00     0.023 C 
HETATM   12  C19 UNL     1      -0.338  51.511 -27.877  1.00  0.00     0.023 C 
HETATM   13  C20 UNL     1       0.255  53.320 -26.285  1.00  0.00     0.135 C 
HETATM   14  O1  UNL     1       0.384  54.074 -27.255  1.00  0.00    -0.297 OA
HETATM   15  C21 UNL     1       0.250  53.922 -24.903  1.00  0.00     0.080 C 
HETATM   16  C22 UNL     1      -0.307  53.022 -23.816  1.00  0.00     0.017 C 
HETATM   17  C23 UNL     1      -1.350  51.990 -24.310  1.00  0.00    -0.031 C 
HETATM   18  C24 UNL     1      -2.563  52.707 -24.946  1.00  0.00     0.016 C 
HETATM   19  C25 UNL     1      -1.813  51.092 -23.095  1.00  0.00     0.024 C 
HETATM   20  C26 UNL     1      -2.607  51.846 -22.021  1.00  0.00     0.010 C 
HETATM   21  C27 UNL     1      -2.666  50.967 -20.778  1.00  0.00     0.011 C 
HETATM   22  C28 UNL     1      -3.536  49.704 -20.981  1.00  0.00    -0.029 C 
HETATM   23  C29 UNL     1      -4.956  50.118 -20.473  1.00  0.00     0.016 C 
ENDROOT
BRANCH   1  24
HETATM   24  C6  UNL     1      -1.610  48.310 -19.721  1.00  0.00    -0.014 C 
HETATM   25  C7  UNL     1      -0.767  49.158 -20.694  1.00  0.00     0.010 C 
BRANCH  24  26
HETATM   26  C5  UNL     1      -1.291  48.734 -18.265  1.00  0.00     0.008 C 
BRANCH  26  27
HETATM   27  C4  UNL     1      -0.520  50.054 -18.148  1.00  0.00     0.028 C 
BRANCH  27  28
HETATM   28  C3  UNL     1       0.304  50.087 -16.888  1.00  0.00    -0.013 C 
HETATM   29  C2  UNL     1       1.050  51.099 -16.401  1.00  0.00     0.008 C 
HETATM   30  C1  UNL     1       1.796  50.960 -15.103  1.00  0.00     0.055 C 
BRANCH  29  31
HETATM   31  C30 UNL     1       1.221  52.377 -17.134  1.00  0.00     0.171 C 
HETATM   32  O2  UNL     1       1.167  52.558 -18.336  1.00  0.00    -0.646 OA
BRANCH  31  33
HETATM   33  O3  UNL     1       1.474  53.398 -16.298  1.00  0.00    -0.773 OA
HETATM   34  H46 UNL     1       1.565  54.167 -16.898  1.00  0.00     0.167 HD
ENDBRANCH  31  33
ENDBRANCH  29  31
ENDBRANCH  27  28
ENDBRANCH  26  27
ENDBRANCH  24  26
ENDBRANCH   1  24
TORSDOF 6
ENDMDL
