MODEL 1
REMARK minimizedAffinity -7.4189167
REMARK CNNscore 0.305391729
REMARK CNNaffinity 5.58298492
REMARK  11 active torsions:
REMARK  status: ('A' for Active; 'I' for Inactive)
REMARK    1  A    between atoms: C3_3  and  O1_4 
REMARK    2  A    between atoms: N1_14  and  O2_16 
REMARK    3  A    between atoms: O2_16  and  C13_17 
REMARK    4  A    between atoms: C13_17  and  C14_18 
REMARK       I    between atoms: C14_18  and  N2_20 
REMARK    5  A    between atoms: N2_20  and  C15_21 
REMARK    6  A    between atoms: C15_21  and  C16_22 
REMARK    7  A    between atoms: C15_21  and  C19_27 
REMARK    8  A    between atoms: C16_22  and  O5_24 
REMARK    9  A    between atoms: O5_24  and  C17_25 
REMARK   10  A    between atoms: C19_27  and  O6_28 
REMARK   11  A    between atoms: C19_27  and  C20_29 
ROOT
HETATM    1  C1  UNL     1       6.368  18.940  21.417  1.00  0.00     0.015 C 
HETATM    2  C2  UNL     1       5.530  18.178  21.819  1.00  0.00    -0.078 C 
HETATM    3  C3  UNL     1       4.482  17.254  22.313  1.00  0.00     0.128 C 
HETATM    4  C4  UNL     1       3.569  16.856  21.153  1.00  0.00     0.052 C 
HETATM    5  C5  UNL     1       4.258  15.663  20.489  1.00  0.00     0.010 C 
HETATM    6  C6  UNL     1       5.288  15.115  21.501  1.00  0.00     0.002 C 
HETATM    7  C7  UNL     1       5.285  13.582  21.659  1.00  0.00    -0.004 C 
HETATM    8  C8  UNL     1       5.735  12.876  20.375  1.00  0.00     0.010 C 
HETATM    9  C9  UNL     1       5.399  11.395  20.407  1.00  0.00     0.035 C 
HETATM   10  C10 UNL     1       3.902  11.295  20.382  1.00  0.00    -0.069 C 
HETATM   11  C11 UNL     1       3.284  10.780  19.302  1.00  0.00     0.030 C 
HETATM   12  C12 UNL     1       1.798  10.747  19.186  1.00  0.00     0.032 C 
HETATM   13  N1  UNL     1       1.123  10.183  18.230  1.00  0.00    -0.271 N 
ATOM     14  H1  UNL     1       0.105  10.167  18.182  1.00  0.00     0.194 HD
HETATM   15  C26 UNL     1       0.990  11.414  20.281  1.00  0.00     0.060 C 
HETATM   16  C27 UNL     1       1.803  12.434  21.073  1.00  0.00     0.020 C 
HETATM   17  C28 UNL     1       3.167  11.889  21.577  1.00  0.00    -0.016 C 
HETATM   18  C29 UNL     1       2.896  10.731  22.577  1.00  0.00     0.020 C 
HETATM   19  C30 UNL     1       4.020  12.988  22.354  1.00  0.00     0.002 C 
HETATM   20  C31 UNL     1       3.174  14.070  23.057  1.00  0.00     0.007 C 
HETATM   21  C32 UNL     1       4.038  15.116  23.759  1.00  0.00     0.014 C 
HETATM   22  C33 UNL     1       5.033  15.883  22.830  1.00  0.00     0.003 C 
HETATM   23  C34 UNL     1       6.341  16.052  23.638  1.00  0.00     0.020 C 
ENDROOT
BRANCH   3  24
HETATM   24  O1  UNL     1       3.727  17.940  23.300  1.00  0.00    -0.377 OA
HETATM   25  H2  UNL     1       4.362  18.277  23.955  1.00  0.00     0.211 HD
ENDBRANCH   3  24
BRANCH  13  26
HETATM   26  O2  UNL     1       1.966   9.597  17.272  1.00  0.00    -0.271 OA
BRANCH  26  27
HETATM   27  C13 UNL     1       1.735  10.220  16.020  1.00  0.00     0.303 C 
BRANCH  27  28
HETATM   28  C14 UNL     1       0.736   9.423  15.186  1.00  0.00     0.244 C 
HETATM   29  O3  UNL     1      -0.123   8.683  15.657  1.00  0.00    -0.271 OA
HETATM   30  N2  UNL     1       0.876   9.619  13.824  1.00  0.00    -0.343 N 
HETATM   31  H16 UNL     1       1.774   9.969  13.502  1.00  0.00     0.163 HD
BRANCH  30  32
HETATM   32  C15 UNL     1       0.168   8.753  12.859  1.00  0.00     0.217 C 
BRANCH  32  33
HETATM   33  C16 UNL     1       0.983   8.566  11.568  1.00  0.00     0.284 C 
HETATM   34  O4  UNL     1       0.545   8.764  10.441  1.00  0.00    -0.263 OA
BRANCH  33  35
HETATM   35  O5  UNL     1       2.264   8.173  11.843  1.00  0.00    -0.320 OA
BRANCH  35  36
HETATM   36  C17 UNL     1       2.413   6.853  12.387  1.00  0.00     0.174 C 
HETATM   37  C18 UNL     1       1.667   5.845  11.534  1.00  0.00     0.034 C 
ENDBRANCH  35  36
ENDBRANCH  33  35
ENDBRANCH  32  33
BRANCH  32  38
HETATM   38  C19 UNL     1      -1.256   9.284  12.564  1.00  0.00     0.183 C 
BRANCH  38  39
HETATM   39  O6  UNL     1      -1.550  10.493  13.268  1.00  0.00    -0.388 OA
HETATM   40  H24 UNL     1      -0.824  11.122  13.109  1.00  0.00     0.210 HD
ENDBRANCH  38  39
BRANCH  38  41
HETATM   41  C20 UNL     1      -2.358   8.268  12.810  1.00  0.00    -0.027 A 
HETATM   42  C21 UNL     1      -3.697   8.665  12.951  1.00  0.00     0.010 A 
HETATM   43  C22 UNL     1      -4.696   7.724  13.211  1.00  0.00     0.001 A 
HETATM   44  C23 UNL     1      -4.370   6.375  13.329  1.00  0.00     0.000 A 
HETATM   45  C24 UNL     1      -3.048   5.965  13.182  1.00  0.00     0.001 A 
HETATM   46  C25 UNL     1      -2.047   6.904  12.923  1.00  0.00     0.010 A 
ENDBRANCH  38  41
ENDBRANCH  32  38
ENDBRANCH  30  32
ENDBRANCH  27  28
ENDBRANCH  26  27
ENDBRANCH  13  26
TORSDOF 11
ENDMDL
