MODEL 1
REMARK minimizedAffinity -9.57084846
REMARK  6 active torsions:
REMARK  status: ('A' for Active; 'I' for Inactive)
REMARK    1  A    between atoms: C2_2  and  C30_32 
REMARK    2  A    between atoms: C3_3  and  C4_4 
REMARK    3  A    between atoms: C4_4  and  C5_5 
REMARK    4  A    between atoms: C5_5  and  C6_6 
REMARK    5  A    between atoms: C6_6  and  C8_8 
REMARK    6  A    between atoms: C30_32  and  O4_34 
ROOT
HETATM    1  C8  UNL     1       1.141   7.031  13.244  1.00  0.00    -0.002 C 
HETATM    2  C9  UNL     1       0.289   8.238  13.730  1.00  0.00     0.007 C 
HETATM    3  C10 UNL     1      -1.182   7.782  13.763  1.00  0.00     0.015 C 
HETATM    4  C11 UNL     1      -1.138   6.251  13.594  1.00  0.00    -0.005 C 
HETATM    5  C12 UNL     1      -0.883   5.640  15.006  1.00  0.00     0.021 C 
HETATM    6  C13 UNL     1      -2.354   5.504  13.060  1.00  0.00    -0.000 C 
HETATM    7  C14 UNL     1      -2.220   4.358  12.343  1.00  0.00    -0.060 C 
HETATM    8  C15 UNL     1      -0.823   3.804  12.018  1.00  0.00     0.036 C 
HETATM    9  C16 UNL     1       0.403   4.632  12.454  1.00  0.00     0.015 C 
HETATM   10  C17 UNL     1       0.064   6.120  12.577  1.00  0.00    -0.028 C 
HETATM   11  C18 UNL     1      -0.267   6.671  11.153  1.00  0.00     0.016 C 
HETATM   12  C19 UNL     1      -3.426   3.558  11.777  1.00  0.00    -0.014 C 
HETATM   13  C20 UNL     1      -3.537   3.900  10.274  1.00  0.00     0.020 C 
HETATM   14  C21 UNL     1      -3.202   2.037  11.965  1.00  0.00     0.021 C 
HETATM   15  C22 UNL     1      -4.383   1.142  11.620  1.00  0.00     0.080 C 
HETATM   16  C23 UNL     1      -5.700   1.836  11.373  1.00  0.00     0.135 C 
HETATM   17  O1  UNL     1      -6.533   1.281  10.652  1.00  0.00    -0.297 OA
HETATM   18  C24 UNL     1      -6.017   3.147  12.103  1.00  0.00     0.018 C 
HETATM   19  C25 UNL     1      -6.906   4.005  11.173  1.00  0.00     0.023 C 
HETATM   20  C26 UNL     1      -6.864   2.759  13.333  1.00  0.00     0.023 C 
HETATM   21  C27 UNL     1      -4.723   3.895  12.577  1.00  0.00     0.020 C 
HETATM   22  C28 UNL     1      -4.906   5.409  12.707  1.00  0.00     0.090 C 
HETATM   23  C29 UNL     1      -3.713   6.037  13.381  1.00  0.00     0.157 C 
HETATM   24  O2  UNL     1      -3.865   6.985  14.149  1.00  0.00    -0.293 OA
ENDROOT
BRANCH   1  25
HETATM   25  C6  UNL     1       2.387   7.477  12.429  1.00  0.00    -0.014 C 
HETATM   26  C7  UNL     1       2.169   8.791  11.671  1.00  0.00     0.010 C 
BRANCH  25  27
HETATM   27  C5  UNL     1       2.929   6.376  11.474  1.00  0.00     0.008 C 
BRANCH  27  28
HETATM   28  C4  UNL     1       3.680   6.803  10.205  1.00  0.00     0.028 C 
BRANCH  28  29
HETATM   29  C3  UNL     1       3.122   6.281   8.912  1.00  0.00    -0.013 C 
HETATM   30  C2  UNL     1       2.503   6.960   7.925  1.00  0.00     0.008 C 
HETATM   31  C1  UNL     1       2.115   6.289   6.635  1.00  0.00     0.055 C 
BRANCH  30  32
HETATM   32  C30 UNL     1       2.171   8.403   7.960  1.00  0.00     0.171 C 
HETATM   33  O3  UNL     1       1.134   8.878   8.386  1.00  0.00    -0.646 OA
BRANCH  32  34
HETATM   34  O4  UNL     1       3.173   9.198   7.548  1.00  0.00    -0.773 OA
HETATM   35  H44 UNL     1       2.819  10.100   7.673  1.00  0.00     0.167 HD
ENDBRANCH  32  34
ENDBRANCH  30  32
ENDBRANCH  28  29
ENDBRANCH  27  28
ENDBRANCH  25  27
ENDBRANCH   1  25
TORSDOF 6
ENDMDL
