MODEL 1
REMARK minimizedAffinity -7.36517954
REMARK CNNscore 0.715968251
REMARK CNNaffinity 6.95364618
REMARK  8 active torsions:
REMARK  status: ('A' for Active; 'I' for Inactive)
REMARK    1  A    between atoms: C2_2  and  C3_3 
REMARK    2  A    between atoms: C2_2  and  C9_12 
REMARK    3  A    between atoms: C3_3  and  C4_4 
REMARK    4  A    between atoms: C4_4  and  O1_5 
REMARK    5  A    between atoms: C4_4  and  C5_6 
REMARK    6  A    between atoms: C5_6  and  O2_7 
REMARK    7  A    between atoms: C5_6  and  C6_8 
REMARK    8  A    between atoms: C6_8  and  O3_11 
ROOT
HETATM    1  C9  UNL     1       3.140  56.652  -8.762  1.00  0.00    -0.002 C 
HETATM    2  C10 UNL     1       4.032  56.121  -9.886  1.00  0.00     0.007 C 
HETATM    3  C11 UNL     1       3.089  55.217 -10.667  1.00  0.00     0.015 C 
HETATM    4  C12 UNL     1       2.360  54.386  -9.585  1.00  0.00    -0.005 C 
HETATM    5  C13 UNL     1       3.301  53.226  -9.145  1.00  0.00     0.021 C 
HETATM    6  C14 UNL     1       1.051  53.761 -10.115  1.00  0.00    -0.000 C 
HETATM    7  C15 UNL     1      -0.188  53.980  -9.606  1.00  0.00    -0.060 C 
HETATM    8  C16 UNL     1      -0.343  54.946  -8.446  1.00  0.00     0.036 C 
HETATM    9  C17 UNL     1       0.726  56.027  -8.454  1.00  0.00     0.015 C 
HETATM   10  C18 UNL     1       2.166  55.457  -8.404  1.00  0.00    -0.028 C 
HETATM   11  C19 UNL     1       2.371  54.836  -7.008  1.00  0.00     0.016 C 
HETATM   12  C20 UNL     1      -1.492  53.278 -10.092  1.00  0.00    -0.014 C 
HETATM   13  C21 UNL     1      -2.600  54.345 -10.314  1.00  0.00     0.020 C 
HETATM   14  C22 UNL     1      -1.907  52.290  -8.973  1.00  0.00     0.021 C 
HETATM   15  C23 UNL     1      -3.013  51.305  -9.323  1.00  0.00     0.080 C 
HETATM   16  C24 UNL     1      -3.530  51.451 -10.729  1.00  0.00     0.135 C 
HETATM   17  O4  UNL     1      -4.740  51.379 -10.950  1.00  0.00    -0.297 OA
HETATM   18  C25 UNL     1      -2.493  51.563 -11.856  1.00  0.00     0.018 C 
HETATM   19  C26 UNL     1      -2.109  50.109 -12.198  1.00  0.00     0.023 C 
HETATM   20  C27 UNL     1      -3.178  52.150 -13.115  1.00  0.00     0.023 C 
HETATM   21  C28 UNL     1      -1.291  52.502 -11.442  1.00  0.00     0.020 C 
HETATM   22  C29 UNL     1       0.057  51.784 -11.433  1.00  0.00     0.090 C 
HETATM   23  C30 UNL     1       1.175  52.772 -11.237  1.00  0.00     0.157 C 
HETATM   24  O5  UNL     1       2.175  52.726 -11.949  1.00  0.00    -0.293 OA
ENDROOT
BRANCH   1  25
HETATM   25  C2  UNL     1       3.910  57.488  -7.704  1.00  0.00    -0.011 C 
HETATM   26  C1  UNL     1       2.949  58.129  -6.692  1.00  0.00     0.010 C 
BRANCH  25  27
HETATM   27  C3  UNL     1       5.082  56.783  -6.991  1.00  0.00     0.039 C 
BRANCH  27  28
HETATM   28  C4  UNL     1       5.180  57.094  -5.483  1.00  0.00     0.150 C 
BRANCH  28  29
HETATM   29  O1  UNL     1       4.724  55.927  -4.770  1.00  0.00    -0.393 OA
HETATM   30  H8  UNL     1       5.264  55.180  -5.093  1.00  0.00     0.210 HD
ENDBRANCH  28  29
BRANCH  28  31
HETATM   31  C5  UNL     1       6.626  57.429  -5.015  1.00  0.00     0.180 C 
BRANCH  31  32
HETATM   32  O2  UNL     1       7.020  58.701  -5.563  1.00  0.00    -0.390 OA
HETATM   33  H10 UNL     1       6.758  58.661  -6.507  1.00  0.00     0.210 HD
ENDBRANCH  31  32
BRANCH  31  34
HETATM   34  C6  UNL     1       7.676  56.335  -5.373  1.00  0.00     0.079 C 
HETATM   35  C7  UNL     1       7.642  55.149  -4.403  1.00  0.00     0.048 C 
HETATM   36  C8  UNL     1       7.434  55.811  -6.796  1.00  0.00     0.048 C 
BRANCH  34  37
HETATM   37  O3  UNL     1       8.991  56.904  -5.328  1.00  0.00    -0.388 OA
HETATM   38  H17 UNL     1       9.106  57.447  -6.129  1.00  0.00     0.210 HD
ENDBRANCH  34  37
ENDBRANCH  31  34
ENDBRANCH  28  31
ENDBRANCH  27  28
ENDBRANCH  25  27
ENDBRANCH   1  25
TORSDOF 8
ENDMDL
