MODEL 1
REMARK minimizedAffinity -10.9774599
REMARK CNNscore 0.914964736
REMARK CNNaffinity 7.79247808
REMARK  9 active torsions:
REMARK  status: ('A' for Active; 'I' for Inactive)
REMARK    1  A    between atoms: C2_2  and  O1_3 
REMARK    2  A    between atoms: O1_3  and  C3_4 
REMARK    3  A    between atoms: C3_4  and  C4_6 
REMARK    4  A    between atoms: C4_6  and  O3_7 
REMARK    5  A    between atoms: C6_9  and  N4_37 
REMARK    6  A    between atoms: C7_11  and  N1_13 
REMARK    7  A    between atoms: C12_17  and  O5_18 
REMARK    8  A    between atoms: C13_19  and  N2_20 
REMARK    9  A    between atoms: C27_38  and  C28_39 
ROOT
HETATM    1  C4  UNL     1      -0.358   7.799  12.856  1.00  0.00     0.200 C 
HETATM    2  C5  UNL     1       0.492   7.208  13.968  1.00  0.00     0.108 C 
HETATM    3  C6  UNL     1      -0.481   7.061  15.132  1.00  0.00     0.235 C 
HETATM    4  O4  UNL     1      -1.788   7.462  14.701  1.00  0.00    -0.332 OA
HETATM    5  C7  UNL     1      -1.814   7.440  13.244  1.00  0.00     0.181 C 
HETATM    6  C8  UNL     1      -2.837   8.545  12.924  1.00  0.00     0.075 C 
ENDROOT
BRANCH   1   7
HETATM    7  C3  UNL     1       0.008   7.341  11.447  1.00  0.00     0.298 C 
HETATM    8  O2  UNL     1       1.049   6.731  11.223  1.00  0.00    -0.262 OA
BRANCH   7   9
HETATM    9  O1  UNL     1      -0.912   7.697  10.519  1.00  0.00    -0.319 OA
BRANCH   9  10
HETATM   10  C2  UNL     1      -0.535   8.753   9.619  1.00  0.00     0.174 C 
HETATM   11  C1  UNL     1      -0.218   8.180   8.252  1.00  0.00     0.034 C 
ENDBRANCH   9  10
ENDBRANCH   7   9
ENDBRANCH   1   7
BRANCH   1  12
HETATM   12  O3  UNL     1      -0.140   9.232  12.923  1.00  0.00    -0.375 OA
HETATM   13  H6  UNL     1      -0.274   9.585  12.017  1.00  0.00     0.211 HD
ENDBRANCH   1  12
BRANCH   5  14
HETATM   14  N1  UNL     1      -2.263   6.093  12.817  1.00  0.00    -0.307 N 
HETATM   15  C9  UNL     1      -1.466   5.052  12.347  1.00  0.00     0.051 A 
HETATM   16  C10 UNL     1      -0.061   4.948  12.255  1.00  0.00     0.033 A 
HETATM   17  C14 UNL     1      -2.320   3.988  11.947  1.00  0.00     0.028 A 
HETATM   18  C11 UNL     1       0.519   3.792  11.751  1.00  0.00     0.040 A 
HETATM   19  C12 UNL     1      -0.293   2.760  11.348  1.00  0.00     0.087 A 
HETATM   20  C13 UNL     1      -1.704   2.820  11.402  1.00  0.00     0.053 A 
HETATM   21  C15 UNL     1      -3.671   4.394  12.262  1.00  0.00     0.024 C 
HETATM   22  C16 UNL     1      -5.002   3.921  12.195  1.00  0.00     0.062 A 
HETATM   23  C28 UNL     1      -3.555   5.641  12.862  1.00  0.00     0.078 C 
HETATM   24  C17 UNL     1      -5.541   2.714  11.564  1.00  0.00     0.260 A 
HETATM   25  C19 UNL     1      -6.131   4.588  12.754  1.00  0.00     0.062 A 
HETATM   26  O6  UNL     1      -4.937   1.920  10.871  1.00  0.00    -0.267 OA
HETATM   27  N3  UNL     1      -6.868   2.662  11.839  1.00  0.00    -0.289 N 
HETATM   28  C18 UNL     1      -7.308   3.764  12.493  1.00  0.00     0.260 A 
HETATM   29  H18 UNL     1      -7.487   1.958  11.469  1.00  0.00     0.172 HD
HETATM   30  O7  UNL     1      -8.462   4.011  12.779  1.00  0.00    -0.267 OA
HETATM   31  C20 UNL     1      -6.069   5.811  13.425  1.00  0.00     0.022 A 
HETATM   32  C21 UNL     1      -6.926   6.729  14.108  1.00  0.00     0.004 A 
HETATM   33  C27 UNL     1      -4.804   6.356  13.476  1.00  0.00     0.077 A 
HETATM   34  C22 UNL     1      -8.304   6.756  14.410  1.00  0.00     0.014 A 
HETATM   35  C26 UNL     1      -6.132   7.805  14.546  1.00  0.00     0.048 A 
HETATM   36  C23 UNL     1      -8.845   7.828  15.128  1.00  0.00     0.001 A 
HETATM   37  C24 UNL     1      -8.037   8.876  15.551  1.00  0.00     0.002 A 
HETATM   38  C25 UNL     1      -6.669   8.884  15.269  1.00  0.00     0.030 A 
HETATM   39  N4  UNL     1      -4.845   7.550  14.126  1.00  0.00    -0.316 N 
BRANCH  19  40
HETATM   40  O5  UNL     1       0.300   1.594  10.932  1.00  0.00    -0.359 OA
HETATM   41  H15 UNL     1      -0.431   0.943  10.977  1.00  0.00     0.217 HD
ENDBRANCH  19  40
BRANCH  20  42
HETATM   42  N2  UNL     1      -2.367   1.654  10.935  1.00  0.00    -0.300 NA
HETATM   43  H16 UNL     1      -2.136   1.489   9.955  1.00  0.00     0.124 HD
HETATM   44  H17 UNL     1      -3.389   1.733  10.989  1.00  0.00     0.124 HD
ENDBRANCH  20  42
ENDBRANCH   5  14
TORSDOF 9
ENDMDL
