MODEL 1
REMARK minimizedAffinity -7.96594143
REMARK  10 active torsions:
REMARK  status: ('A' for Active; 'I' for Inactive)
REMARK    1  A    between atoms: C5_5  and  C6_6 
REMARK    2  A    between atoms: C6_6  and  C8_8 
REMARK    3  A    between atoms: C8_8  and  O1_9 
REMARK    4  A    between atoms: O1_9  and  C9_10 
REMARK    5  A    between atoms: C14_17  and  O4_18 
REMARK    6  A    between atoms: C17_21  and  O5_22 
REMARK    7  A    between atoms: C20_25  and  O6_27 
REMARK    8  A    between atoms: O6_27  and  C22_28 
REMARK    9  A    between atoms: C22_28  and  C23_30 
REMARK   10  A    between atoms: C23_30  and  C24_31 
ROOT
HETATM    1  C1  UNL     1      -5.608  52.243 -23.377  1.00  0.00     0.015 C 
HETATM    2  C2  UNL     1      -4.545  51.620 -23.915  1.00  0.00    -0.082 C 
HETATM    3  C3  UNL     1      -3.979  52.118 -25.223  1.00  0.00     0.034 C 
HETATM    4  C4  UNL     1      -2.498  51.768 -25.389  1.00  0.00     0.010 C 
HETATM    5  C5  UNL     1      -1.714  51.876 -24.062  1.00  0.00    -0.001 C 
HETATM    6  C11 UNL     1      -2.335  50.919 -22.994  1.00  0.00     0.033 C 
HETATM    7  C12 UNL     1      -2.511  51.487 -21.562  1.00  0.00     0.162 C 
HETATM    8  O3  UNL     1      -3.556  50.700 -20.935  1.00  0.00    -0.373 OA
HETATM    9  C13 UNL     1      -4.242  49.928 -21.944  1.00  0.00     0.163 C 
HETATM   10  C14 UNL     1      -3.967  48.412 -21.708  1.00  0.00     0.178 C 
HETATM   11  C15 UNL     1      -2.552  48.028 -21.306  1.00  0.00    -0.030 C 
HETATM   12  C16 UNL     1      -1.760  47.316 -22.130  1.00  0.00     0.019 C 
HETATM   13  C17 UNL     1      -2.118  48.419 -19.906  1.00  0.00     0.149 C 
HETATM   14  C18 UNL     1      -0.743  49.068 -19.742  1.00  0.00     0.039 C 
HETATM   15  C19 UNL     1      -0.377  50.280 -20.606  1.00  0.00     0.044 C 
HETATM   16  C20 UNL     1      -1.261  51.568 -20.624  1.00  0.00     0.093 C 
HETATM   17  C21 UNL     1      -1.660  51.928 -19.178  1.00  0.00     0.049 C 
HETATM   18  C26 UNL     1      -3.768  50.459 -23.304  1.00  0.00     0.052 C 
ENDROOT
BRANCH   5  19
HETATM   19  C6  UNL     1      -0.178  51.636 -24.253  1.00  0.00     0.010 C 
HETATM   20  C7  UNL     1       0.170  50.734 -25.444  1.00  0.00     0.012 C 
BRANCH  19  21
HETATM   21  C8  UNL     1       0.631  52.953 -24.296  1.00  0.00     0.183 C 
BRANCH  21  22
HETATM   22  O1  UNL     1       1.035  53.324 -25.622  1.00  0.00    -0.321 OA
BRANCH  22  23
HETATM   23  C9  UNL     1       0.317  54.304 -26.231  1.00  0.00     0.254 C 
HETATM   24  C10 UNL     1      -0.245  53.799 -27.522  1.00  0.00     0.126 C 
HETATM   25  O2  UNL     1       0.141  55.438 -25.805  1.00  0.00    -0.266 OA
ENDBRANCH  22  23
ENDBRANCH  21  22
ENDBRANCH  19  21
ENDBRANCH   5  19
BRANCH  16  26
HETATM   26  O6  UNL     1      -0.313  52.591 -21.096  1.00  0.00    -0.308 OA
BRANCH  26  27
HETATM   27  C22 UNL     1       0.463  53.311 -20.241  1.00  0.00     0.259 C 
HETATM   28  O7  UNL     1       0.856  54.452 -20.422  1.00  0.00    -0.265 OA
BRANCH  27  29
HETATM   29  C23 UNL     1       0.762  52.467 -19.020  1.00  0.00     0.111 C 
BRANCH  29  30
HETATM   30  C24 UNL     1       1.759  53.118 -18.064  1.00  0.00     0.005 C 
HETATM   31  C25 UNL     1       1.891  52.364 -16.747  1.00  0.00     0.005 C 
ENDBRANCH  29  30
ENDBRANCH  27  29
ENDBRANCH  26  27
ENDBRANCH  16  26
BRANCH  10  32
HETATM   32  O4  UNL     1      -4.840  47.921 -20.677  1.00  0.00    -0.389 OA
HETATM   33  H21 UNL     1      -4.861  48.600 -19.979  1.00  0.00     0.210 HD
ENDBRANCH  10  32
BRANCH  13  34
HETATM   34  O5  UNL     1      -2.123  47.230 -19.103  1.00  0.00    -0.391 OA
HETATM   35  H25 UNL     1      -2.850  46.669 -19.433  1.00  0.00     0.210 HD
ENDBRANCH  13  34
TORSDOF 10
ENDMDL
