MODEL 1
REMARK minimizedAffinity -8.68034744
REMARK  5 active torsions:
REMARK  status: ('A' for Active; 'I' for Inactive)
REMARK    1  A    between atoms: C2_2  and  C4_4 
REMARK    2  A    between atoms: C7_7  and  C8_8 
REMARK    3  A    between atoms: C8_8  and  O2_10 
REMARK    4  A    between atoms: C11_13  and  C12_14 
REMARK    5  A    between atoms: C12_14  and  O4_16 
ROOT
HETATM    1  C4  UNL     1      -6.420   4.706  12.488  1.00  0.00     0.019 C 
HETATM    2  C5  UNL     1      -6.243   3.264  12.966  1.00  0.00     0.011 C 
HETATM    3  C6  UNL     1      -4.980   2.826  12.236  1.00  0.00     0.021 C 
HETATM    4  C7  UNL     1      -4.016   4.030  12.356  1.00  0.00     0.050 C 
HETATM    5  C9  UNL     1      -3.142   3.860  13.611  1.00  0.00     0.022 C 
HETATM    6  C10 UNL     1      -2.470   5.148  14.083  1.00  0.00     0.023 C 
HETATM    7  C11 UNL     1      -3.439   6.332  14.332  1.00  0.00     0.057 C 
HETATM    8  C13 UNL     1      -4.393   6.531  13.105  1.00  0.00     0.011 C 
HETATM    9  C14 UNL     1      -5.378   7.683  13.342  1.00  0.00     0.007 C 
HETATM   10  C15 UNL     1      -4.691   9.008  13.698  1.00  0.00     0.006 C 
HETATM   11  C16 UNL     1      -3.672   8.879  14.856  1.00  0.00     0.003 C 
HETATM   12  C17 UNL     1      -3.087  10.257  15.400  1.00  0.00    -0.035 C 
HETATM   13  C18 UNL     1      -2.363  11.056  14.291  1.00  0.00     0.016 C 
HETATM   14  C19 UNL     1      -4.271  11.129  15.921  1.00  0.00     0.017 C 
HETATM   15  C20 UNL     1      -3.852  12.367  16.701  1.00  0.00     0.080 C 
HETATM   16  C21 UNL     1      -2.912  12.028  17.830  1.00  0.00     0.135 C 
HETATM   17  O5  UNL     1      -3.078  12.546  18.936  1.00  0.00    -0.297 OA
HETATM   18  C22 UNL     1      -1.702  11.134  17.512  1.00  0.00     0.017 C 
HETATM   19  C23 UNL     1      -0.614  12.005  16.867  1.00  0.00     0.023 C 
HETATM   20  C24 UNL     1      -1.135  10.621  18.861  1.00  0.00     0.023 C 
HETATM   21  C25 UNL     1      -2.180   9.918  16.643  1.00  0.00     0.009 C 
HETATM   22  C26 UNL     1      -1.049   8.943  16.257  1.00  0.00     0.007 C 
HETATM   23  C27 UNL     1      -1.592   7.612  15.730  1.00  0.00     0.011 C 
HETATM   24  C28 UNL     1      -2.618   7.736  14.564  1.00  0.00    -0.022 C 
HETATM   25  C29 UNL     1      -1.757   8.091  13.306  1.00  0.00     0.017 C 
HETATM   26  C30 UNL     1      -4.967   5.280  12.366  1.00  0.00     0.018 C 
ENDROOT
BRANCH   4  27
HETATM   27  C8  UNL     1      -3.080   4.086  11.149  1.00  0.00     0.149 C 
HETATM   28  O1  UNL     1      -1.907   4.427  11.156  1.00  0.00    -0.649 OA
BRANCH  27  29
HETATM   29  O2  UNL     1      -3.637   3.635  10.009  1.00  0.00    -0.776 OA
HETATM   30  H11 UNL     1      -2.913   3.697   9.351  1.00  0.00     0.167 HD
ENDBRANCH  27  29
ENDBRANCH   4  27
BRANCH   1  31
HETATM   31  C2  UNL     1      -7.599   5.480  13.048  1.00  0.00    -0.088 C 
HETATM   32  C1  UNL     1      -8.463   6.091  12.214  1.00  0.00     0.014 C 
HETATM   33  C3  UNL     1      -7.885   5.474  14.524  1.00  0.00     0.043 C 
ENDBRANCH   1  31
BRANCH   7  34
HETATM   34  C12 UNL     1      -4.249   5.973  15.606  1.00  0.00     0.149 C 
HETATM   35  O3  UNL     1      -5.455   6.023  15.781  1.00  0.00    -0.649 OA
BRANCH  34  36
HETATM   36  O4  UNL     1      -3.493   5.608  16.651  1.00  0.00    -0.776 OA
HETATM   37  H16 UNL     1      -4.153   5.458  17.362  1.00  0.00     0.167 HD
ENDBRANCH  34  36
ENDBRANCH   7  34
TORSDOF 5
ENDMDL
