MODEL 1
REMARK minimizedAffinity -8.65717316
REMARK CNNscore 0.371574938
REMARK CNNaffinity 6.7695179
REMARK  6 active torsions:
REMARK  status: ('A' for Active; 'I' for Inactive)
REMARK       I    between atoms: N1_1  and  C1_2 
REMARK       I    between atoms: C1_2  and  N2_3 
REMARK    1  A    between atoms: N3_4  and  C2_6 
REMARK    2  A    between atoms: C11_16  and  S1_17 
REMARK    3  A    between atoms: S1_17  and  O4_20 
REMARK    4  A    between atoms: C23_33  and  O6_34 
REMARK    5  A    between atoms: C29_40  and  C30_41 
REMARK    6  A    between atoms: C30_41  and  O7_42 
ROOT
HETATM    1  C2  UNL     1     -11.737  46.901 -36.864  1.00  0.00     0.263 C 
HETATM    2  O1  UNL     1     -11.215  46.634 -38.209  1.00  0.00    -0.322 OA
HETATM    3  C3  UNL     1     -11.364  45.339 -38.637  1.00  0.00     0.071 C 
HETATM    4  C4  UNL     1     -10.198  44.668 -39.005  1.00  0.00     0.037 C 
HETATM    5  C5  UNL     1     -10.223  43.284 -39.174  1.00  0.00     0.010 C 
HETATM    6  C6  UNL     1     -11.420  42.575 -39.013  1.00  0.00    -0.058 C 
HETATM    7  C7  UNL     1     -12.611  43.291 -38.831  1.00  0.00     0.010 C 
HETATM    8  C8  UNL     1     -12.585  44.672 -38.634  1.00  0.00     0.037 C 
HETATM    9  C9  UNL     1     -11.406  41.067 -38.898  1.00  0.00     0.040 C 
HETATM   10  C10 UNL     1     -10.652  40.575 -37.635  1.00  0.00     0.027 C 
HETATM   11  C11 UNL     1     -11.132  41.178 -36.282  1.00  0.00     0.130 C 
HETATM   12  C12 UNL     1     -10.123  41.032 -35.080  1.00  0.00     0.037 C 
HETATM   13  C13 UNL     1      -8.637  41.115 -35.402  1.00  0.00    -0.014 C 
HETATM   14  C14 UNL     1      -7.776  41.070 -34.360  1.00  0.00    -0.050 C 
HETATM   15  C15 UNL     1      -8.334  40.754 -33.006  1.00  0.00     0.042 C 
HETATM   16  C16 UNL     1      -9.268  41.921 -32.708  1.00  0.00     0.001 C 
HETATM   17  C17 UNL     1      -8.459  43.175 -32.267  1.00  0.00     0.038 C 
HETATM   18  C18 UNL     1      -6.912  43.229 -32.503  1.00  0.00     0.130 C 
HETATM   19  O5  UNL     1      -6.525  43.012 -33.875  1.00  0.00    -0.371 OA
HETATM   20  C19 UNL     1      -6.393  41.668 -34.395  1.00  0.00     0.185 C 
HETATM   21  C20 UNL     1      -5.258  40.728 -33.940  1.00  0.00    -0.006 A 
HETATM   22  C21 UNL     1      -5.347  39.356 -34.284  1.00  0.00     0.014 A 
HETATM   23  C22 UNL     1      -4.331  38.451 -33.971  1.00  0.00     0.037 A 
HETATM   24  C23 UNL     1      -3.187  38.899 -33.329  1.00  0.00     0.067 A 
HETATM   25  C24 UNL     1      -3.045  40.240 -32.996  1.00  0.00     0.057 A 
HETATM   26  C25 UNL     1      -4.067  41.147 -33.308  1.00  0.00     0.029 A 
HETATM   27  C26 UNL     1      -3.894  42.505 -32.916  1.00  0.00    -0.066 C 
HETATM   28  C27 UNL     1      -4.109  43.636 -32.589  1.00  0.00    -0.101 C 
HETATM   29  C28 UNL     1      -4.822  44.872 -32.289  1.00  0.00     0.103 C 
HETATM   30  C29 UNL     1      -6.362  44.657 -32.107  1.00  0.00     0.049 C 
HETATM   31  C31 UNL     1     -10.357  42.075 -33.869  1.00  0.00     0.032 C 
HETATM   32  C32 UNL     1     -10.633  43.486 -34.391  1.00  0.00    -0.053 C 
HETATM   33  C33 UNL     1     -11.937  44.004 -34.330  1.00  0.00     0.008 C 
HETATM   34  C34 UNL     1     -12.286  45.144 -35.061  1.00  0.00     0.012 C 
HETATM   35  C35 UNL     1     -11.337  45.816 -35.845  1.00  0.00    -0.010 C 
HETATM   36  C36 UNL     1     -10.001  45.394 -35.766  1.00  0.00     0.012 C 
HETATM   37  C37 UNL     1      -9.662  44.229 -35.079  1.00  0.00     0.008 C 
ENDROOT
BRANCH   1  38
HETATM   38  N3  UNL     1     -13.168  47.260 -36.778  1.00  0.00    -0.341 N 
HETATM   39  C1  UNL     1     -13.606  48.145 -37.591  1.00  0.00     0.124 C 
HETATM   40  N1  UNL     1     -12.969  48.820 -38.575  1.00  0.00    -0.279 NA
HETATM   41  N2  UNL     1     -14.903  48.522 -37.546  1.00  0.00    -0.279 NA
HETATM   42  H1  UNL     1     -13.553  48.911 -39.398  1.00  0.00     0.126 HD
HETATM   43  H2  UNL     1     -12.088  48.385 -38.840  1.00  0.00     0.126 HD
HETATM   44  H3  UNL     1     -15.026  49.528 -37.605  1.00  0.00     0.126 HD
HETATM   45  H4  UNL     1     -15.365  48.142 -36.723  1.00  0.00     0.126 HD
ATOM     46  H3  UNL     1     -13.783  46.819 -36.095  1.00  0.00     0.164 HD
ENDBRANCH   1  38
BRANCH  11  47
HETATM   47  S1  UNL     1     -12.716  40.387 -35.778  1.00  0.00     0.099 S 
HETATM   48  O2  UNL     1     -13.040  39.268 -36.634  1.00  0.00    -0.601 OA
HETATM   49  O3  UNL     1     -13.697  41.395 -35.452  1.00  0.00    -0.601 OA
BRANCH  47  50
HETATM   50  O4  UNL     1     -12.239  39.699 -34.398  1.00  0.00    -0.295 OA
HETATM   51  H15 UNL     1     -12.122  38.741 -34.570  1.00  0.00     0.232 HD
ENDBRANCH  47  50
ENDBRANCH  11  47
BRANCH  30  52
HETATM   52  C30 UNL     1      -6.763  45.094 -30.688  1.00  0.00     0.172 C 
BRANCH  52  53
HETATM   53  O7  UNL     1      -6.764  43.984 -29.800  1.00  0.00    -0.400 OA
HETATM   54  H34 UNL     1      -7.011  44.317 -28.919  1.00  0.00     0.209 HD
ENDBRANCH  52  53
ENDBRANCH  30  52
BRANCH  24  55
HETATM   55  O6  UNL     1      -2.213  37.988 -33.050  1.00  0.00    -0.361 OA
HETATM   56  H27 UNL     1      -1.428  38.463 -32.730  1.00  0.00     0.217 HD
ENDBRANCH  24  55
TORSDOF 6
ENDMDL
