MODEL 1
REMARK minimizedAffinity -8.6290741
REMARK  11 active torsions:
REMARK  status: ('A' for Active; 'I' for Inactive)
REMARK    1  A    between atoms: C2_2  and  C3_3 
REMARK    2  A    between atoms: C2_2  and  C4_5 
REMARK    3  A    between atoms: C3_3  and  O1_4 
REMARK    4  A    between atoms: C13_14  and  C14_15 
REMARK    5  A    between atoms: C14_15  and  C16_17 
REMARK    6  A    between atoms: C16_17  and  C17_18 
REMARK    7  A    between atoms: C17_18  and  C18_19 
REMARK    8  A    between atoms: C27_28  and  C28_29 
REMARK    9  A    between atoms: C28_29  and  C29_30 
REMARK   10  A    between atoms: C29_30  and  C30_31 
REMARK   11  A    between atoms: C30_31  and  O3_33 
ROOT
HETATM    1  C4  UNL     1       3.732   7.906  10.810  1.00  0.00     0.025 C 
HETATM    2  C5  UNL     1       3.287   8.783  11.993  1.00  0.00     0.010 C 
HETATM    3  C6  UNL     1       1.789   9.036  11.959  1.00  0.00     0.007 C 
HETATM    4  C7  UNL     1       1.049   7.733  12.280  1.00  0.00     0.004 C 
HETATM    5  C8  UNL     1       1.405   6.620  11.259  1.00  0.00    -0.027 A 
HETATM    6  C9  UNL     1       0.223   5.935  10.543  1.00  0.00     0.011 C 
HETATM    7  C10 UNL     1      -1.107   5.778  11.301  1.00  0.00     0.011 C 
HETATM    8  C11 UNL     1      -1.160   6.511  12.644  1.00  0.00    -0.032 C 
HETATM    9  C12 UNL     1      -0.464   5.611  13.697  1.00  0.00     0.016 C 
HETATM   10  C13 UNL     1      -2.591   6.914  13.122  1.00  0.00    -0.002 C 
HETATM   11  C22 UNL     1      -2.360   8.166  14.002  1.00  0.00     0.006 C 
HETATM   12  C23 UNL     1      -0.905   8.613  13.766  1.00  0.00     0.011 C 
HETATM   13  C24 UNL     1      -0.482   7.916  12.457  1.00  0.00    -0.032 C 
HETATM   14  C25 UNL     1      -1.056   8.776  11.285  1.00  0.00     0.016 C 
HETATM   15  C26 UNL     1       2.548   5.698  11.639  1.00  0.00     0.022 A 
HETATM   16  C27 UNL     1       2.805   6.689  10.533  1.00  0.00    -0.024 A 
ENDROOT
BRANCH  10  17
HETATM   17  C14 UNL     1      -3.622   5.860  13.622  1.00  0.00    -0.014 C 
HETATM   18  C15 UNL     1      -3.802   6.013  15.147  1.00  0.00     0.010 C 
BRANCH  17  19
HETATM   19  C16 UNL     1      -3.487   4.356  13.285  1.00  0.00     0.008 C 
BRANCH  19  20
HETATM   20  C17 UNL     1      -4.584   3.710  12.439  1.00  0.00     0.028 C 
BRANCH  20  21
HETATM   21  C18 UNL     1      -5.887   4.451  12.593  1.00  0.00    -0.025 C 
HETATM   22  C19 UNL     1      -7.119   3.931  12.762  1.00  0.00    -0.091 C 
HETATM   23  C20 UNL     1      -8.321   4.834  12.873  1.00  0.00     0.042 C 
HETATM   24  C21 UNL     1      -7.437   2.466  12.871  1.00  0.00     0.042 C 
ENDBRANCH  20  21
ENDBRANCH  19  20
ENDBRANCH  17  19
ENDBRANCH  10  17
BRANCH  16  25
HETATM   25  C28 UNL     1       2.846   6.210   9.067  1.00  0.00     0.021 C 
BRANCH  25  26
HETATM   26  C29 UNL     1       1.881   6.884   8.099  1.00  0.00     0.111 C 
BRANCH  26  27
HETATM   27  C30 UNL     1       2.094   8.366   8.011  1.00  0.00     0.139 C 
HETATM   28  O2  UNL     1       3.073   8.944   7.570  1.00  0.00    -0.650 OA
BRANCH  27  29
HETATM   29  O3  UNL     1       1.026   9.065   8.453  1.00  0.00    -0.776 OA
HETATM   30  H48 UNL     1       1.316   9.999   8.364  1.00  0.00     0.167 HD
ENDBRANCH  27  29
ENDBRANCH  26  27
ENDBRANCH  25  26
ENDBRANCH  16  25
BRANCH   1  31
HETATM   31  C2  UNL     1       5.241   7.642  10.911  1.00  0.00    -0.061 C 
HETATM   32  C1  UNL     1       6.122   8.587  10.523  1.00  0.00     0.017 C 
BRANCH  31  33
HETATM   33  C3  UNL     1       5.745   6.372  11.553  1.00  0.00     0.198 C 
BRANCH  33  34
HETATM   34  O1  UNL     1       5.996   5.373  10.584  1.00  0.00    -0.397 OA
HETATM   35  H5  UNL     1       6.519   5.783   9.871  1.00  0.00     0.209 HD
ENDBRANCH  33  34
ENDBRANCH  31  33
ENDBRANCH   1  31
TORSDOF 11
ENDMDL
