MODEL 1
REMARK minimizedAffinity -8.68080425
REMARK CNNscore 0.669037104
REMARK CNNaffinity 6.82441139
REMARK  11 active torsions:
REMARK  status: ('A' for Active; 'I' for Inactive)
REMARK    1  A    between atoms: C3_4  and  O2_5 
REMARK    2  A    between atoms: O2_5  and  C4_6 
REMARK    3  A    between atoms: C7_9  and  C8_10 
REMARK    4  A    between atoms: N1_11  and  C9_13 
REMARK    5  A    between atoms: C9_13  and  C10_14 
REMARK    6  A    between atoms: C10_14  and  O3_15 
REMARK    7  A    between atoms: C16_21  and  C17_22 
REMARK    8  A    between atoms: C23_30  and  O6_31 
REMARK    9  A    between atoms: C27_35  and  O7_36 
REMARK   10  A    between atoms: C30_39  and  O8_40 
REMARK   11  A    between atoms: C31_41  and  O9_42 
ROOT
HETATM    1  C4  UNL     1      -7.613  48.654 -24.033  1.00  0.00     0.127 C 
HETATM    2  C5  UNL     1      -7.778  49.949 -23.237  1.00  0.00     0.033 C 
HETATM    3  C6  UNL     1      -6.561  50.349 -22.396  1.00  0.00     0.021 C 
HETATM    4  C7  UNL     1      -5.659  49.189 -21.904  1.00  0.00     0.026 C 
HETATM    5  C11 UNL     1      -4.347  49.793 -21.266  1.00  0.00     0.009 C 
HETATM    6  C12 UNL     1      -4.533  50.658 -20.019  1.00  0.00     0.007 C 
HETATM    7  C13 UNL     1      -3.238  51.418 -19.736  1.00  0.00     0.013 C 
HETATM    8  C14 UNL     1      -1.975  50.521 -19.641  1.00  0.00    -0.005 C 
HETATM    9  C15 UNL     1      -1.364  50.755 -18.233  1.00  0.00     0.019 C 
HETATM   10  C16 UNL     1      -0.927  50.813 -20.766  1.00  0.00     0.028 C 
HETATM   11  C21 UNL     1      -0.025  49.560 -20.770  1.00  0.00     0.013 C 
HETATM   12  C22 UNL     1      -0.854  48.421 -20.161  1.00  0.00     0.040 C 
HETATM   13  C23 UNL     1      -2.257  49.002 -19.906  1.00  0.00     0.070 C 
HETATM   14  C24 UNL     1      -3.295  48.681 -21.039  1.00  0.00     0.026 C 
HETATM   15  C25 UNL     1      -2.770  48.220 -22.412  1.00  0.00     0.011 C 
HETATM   16  C26 UNL     1      -3.798  48.383 -23.542  1.00  0.00     0.039 C 
HETATM   17  C27 UNL     1      -5.272  48.220 -23.101  1.00  0.00     0.073 C 
HETATM   18  C28 UNL     1      -6.144  48.428 -24.362  1.00  0.00     0.071 C 
ENDROOT
BRANCH   1  19
HETATM   19  O2  UNL     1      -8.316  48.755 -25.277  1.00  0.00    -0.356 OA
BRANCH  19  20
HETATM   20  C3  UNL     1      -8.656  47.494 -25.858  1.00  0.00     0.263 C 
HETATM   21  O1  UNL     1      -8.889  47.722 -27.253  1.00  0.00    -0.354 OA
HETATM   22  C2  UNL     1      -9.221  46.520 -27.949  1.00  0.00     0.151 C 
HETATM   23  C1  UNL     1      -9.307  46.854 -29.434  1.00  0.00     0.042 C 
HETATM   24  C31 UNL     1     -10.550  45.959 -27.418  1.00  0.00     0.175 C 
HETATM   25  C30 UNL     1     -10.454  45.736 -25.902  1.00  0.00     0.154 C 
HETATM   26  C29 UNL     1      -9.927  46.971 -25.194  1.00  0.00     0.095 C 
BRANCH  24  27
HETATM   27  O9  UNL     1     -10.871  44.703 -28.026  1.00  0.00    -0.390 OA
HETATM   28  H47 UNL     1     -11.178  44.891 -28.930  1.00  0.00     0.210 HD
ENDBRANCH  24  27
BRANCH  25  29
HETATM   29  O8  UNL     1      -9.582  44.626 -25.637  1.00  0.00    -0.393 OA
HETATM   30  H45 UNL     1      -9.832  43.961 -26.311  1.00  0.00     0.210 HD
ENDBRANCH  25  29
ENDBRANCH  19  20
ENDBRANCH   1  19
BRANCH  17  31
HETATM   31  O7  UNL     1      -5.395  46.846 -22.676  1.00  0.00    -0.389 OA
HETATM   32  H39 UNL     1      -5.433  46.283 -23.471  1.00  0.00     0.210 HD
ENDBRANCH  17  31
BRANCH   4  33
HETATM   33  C8  UNL     1      -6.403  48.410 -20.808  1.00  0.00     0.068 C 
HETATM   34  N1  UNL     1      -7.415  48.911 -20.179  1.00  0.00    -0.399 N 
ATOM     35  H1  UNL     1      -7.714  49.879 -20.294  1.00  0.00     0.158 HD
BRANCH  34  36
HETATM   36  C9  UNL     1      -8.101  47.965 -19.283  1.00  0.00     0.144 C 
BRANCH  36  37
HETATM   37  C10 UNL     1      -8.388  48.665 -17.952  1.00  0.00     0.183 C 
BRANCH  37  38
HETATM   38  O3  UNL     1      -7.848  47.920 -16.860  1.00  0.00    -0.399 OA
HETATM   39  H16 UNL     1      -8.235  47.024 -16.933  1.00  0.00     0.209 HD
ENDBRANCH  37  38
ENDBRANCH  36  37
ENDBRANCH  34  36
ENDBRANCH   4  33
BRANCH  13  40
HETATM   40  O6  UNL     1      -2.816  48.407 -18.726  1.00  0.00    -0.389 OA
HETATM   41  H33 UNL     1      -2.115  48.285 -18.062  1.00  0.00     0.210 HD
ENDBRANCH  13  40
BRANCH  10  42
HETATM   42  C17 UNL     1      -0.183  52.121 -20.721  1.00  0.00    -0.045 A 
HETATM   43  C18 UNL     1       0.474  52.674 -21.740  1.00  0.00     0.087 A 
HETATM   44  C19 UNL     1       1.063  53.922 -21.259  1.00  0.00     0.283 A 
HETATM   45  O4  UNL     1       1.747  54.674 -21.930  1.00  0.00    -0.260 OA
HETATM   46  O5  UNL     1       0.729  54.093 -19.953  1.00  0.00    -0.314 OA
HETATM   47  C20 UNL     1      -0.025  52.964 -19.511  1.00  0.00     0.213 A 
ENDBRANCH  10  42
TORSDOF 11
ENDMDL
