MODEL 1
REMARK minimizedAffinity -8.38273525
REMARK  13 active torsions:
REMARK  status: ('A' for Active; 'I' for Inactive)
REMARK    1  A    between atoms: C2_2  and  C3_3 
REMARK    2  A    between atoms: C2_2  and  C14_14 
REMARK    3  A    between atoms: C4_4  and  C5_5 
REMARK    4  A    between atoms: C6_6  and  C8_8 
REMARK    5  A    between atoms: C8_8  and  C9_9 
REMARK    6  A    between atoms: C9_9  and  C10_10 
REMARK    7  A    between atoms: C18_18  and  C19_19 
REMARK    8  A    between atoms: C19_19  and  C20_20 
REMARK    9  A    between atoms: C20_20  and  C21_21 
REMARK   10  A    between atoms: C21_21  and  O1_22 
REMARK   11  A    between atoms: C23_24  and  C25_26 
REMARK   12  A    between atoms: C28_30  and  O3_32 
REMARK   13  A    between atoms: C30_33  and  O4_34 
ROOT
HETATM    1  C14 UNL     1      -1.058  50.633 -22.428  1.00  0.00     0.047 C 
HETATM    2  C15 UNL     1      -2.014  51.805 -22.170  1.00  0.00     0.013 C 
HETATM    3  C16 UNL     1      -2.046  52.494 -23.530  1.00  0.00     0.017 C 
HETATM    4  C17 UNL     1      -2.059  51.352 -24.604  1.00  0.00     0.024 C 
HETATM    5  C18 UNL     1      -3.469  51.210 -25.327  1.00  0.00     0.029 C 
HETATM    6  C22 UNL     1      -3.410  50.137 -26.454  1.00  0.00    -0.066 C 
HETATM    7  C23 UNL     1      -4.111  48.983 -26.618  1.00  0.00    -0.021 C 
HETATM    8  C24 UNL     1      -4.073  48.137 -27.872  1.00  0.00     0.052 C 
HETATM    9  C26 UNL     1      -2.367  50.537 -27.493  1.00  0.00     0.038 C 
HETATM   10  C27 UNL     1      -0.991  50.647 -26.847  1.00  0.00     0.042 C 
HETATM   11  C28 UNL     1      -0.951  51.673 -25.699  1.00  0.00     0.065 C 
HETATM   12  C29 UNL     1      -1.045  53.100 -26.291  1.00  0.00     0.047 C 
HETATM   13  C30 UNL     1      -1.632  50.083 -23.763  1.00  0.00     0.138 C 
ENDROOT
BRANCH   5  14
HETATM   14  C19 UNL     1      -4.717  51.272 -24.398  1.00  0.00     0.012 C 
BRANCH  14  15
HETATM   15  C20 UNL     1      -4.452  51.982 -23.059  1.00  0.00     0.027 C 
BRANCH  15  16
HETATM   16  C21 UNL     1      -5.066  51.241 -21.875  1.00  0.00     0.164 C 
BRANCH  16  17
HETATM   17  O1  UNL     1      -4.977  51.995 -20.674  1.00  0.00    -0.401 OA
HETATM   18  H32 UNL     1      -5.493  52.806 -20.803  1.00  0.00     0.209 HD
ENDBRANCH  16  17
ENDBRANCH  15  16
ENDBRANCH  14  15
ENDBRANCH   5  14
BRANCH  11  19
HETATM   19  O3  UNL     1       0.354  51.586 -25.100  1.00  0.00    -0.389 OA
HETATM   20  H44 UNL     1       1.015  51.734 -25.801  1.00  0.00     0.210 HD
ENDBRANCH  11  19
BRANCH  13  21
HETATM   21  O4  UNL     1      -2.737  49.219 -23.509  1.00  0.00    -0.394 OA
HETATM   22  H46 UNL     1      -2.442  48.556 -22.858  1.00  0.00     0.210 HD
ENDBRANCH  13  21
BRANCH   1  23
HETATM   23  C2  UNL     1      -0.869  49.619 -21.301  1.00  0.00    -0.061 C 
HETATM   24  C1  UNL     1      -1.284  48.341 -21.391  1.00  0.00     0.019 C 
BRANCH  23  25
HETATM   25  C3  UNL     1      -0.224  50.039 -20.058  1.00  0.00     0.007 C 
HETATM   26  C4  UNL     1      -0.792  50.683 -19.025  1.00  0.00     0.001 C 
BRANCH  26  27
HETATM   27  C5  UNL     1      -0.030  51.108 -17.865  1.00  0.00     0.002 C 
HETATM   28  C6  UNL     1       0.804  52.163 -17.794  1.00  0.00    -0.084 C 
HETATM   29  C7  UNL     1       1.053  53.145 -18.910  1.00  0.00     0.043 C 
BRANCH  28  30
HETATM   30  C8  UNL     1       1.571  52.437 -16.511  1.00  0.00     0.037 C 
BRANCH  30  31
HETATM   31  C9  UNL     1       0.977  51.710 -15.302  1.00  0.00     0.031 C 
BRANCH  31  32
HETATM   32  C10 UNL     1       2.001  50.854 -14.603  1.00  0.00    -0.024 C 
HETATM   33  C11 UNL     1       3.338  51.012 -14.622  1.00  0.00    -0.091 C 
HETATM   34  C12 UNL     1       4.060  52.132 -15.322  1.00  0.00     0.042 C 
HETATM   35  C13 UNL     1       4.239  50.048 -13.902  1.00  0.00     0.042 C 
ENDBRANCH  31  32
ENDBRANCH  30  31
ENDBRANCH  28  30
ENDBRANCH  26  27
ENDBRANCH  23  25
ENDBRANCH   1  23
BRANCH   7  36
HETATM   36  C25 UNL     1      -4.998  48.378 -25.580  1.00  0.00     0.265 C 
HETATM   37  O2  UNL     1      -6.095  47.886 -25.835  1.00  0.00    -0.302 OA
ENDBRANCH   7  36
TORSDOF 13
ENDMDL
