MODEL 1
REMARK minimizedAffinity -6.08191061
REMARK CNNscore 0.153192773
REMARK CNNaffinity 6.12795258
REMARK  8 active torsions:
REMARK  status: ('A' for Active; 'I' for Inactive)
REMARK    1  A    between atoms: C10_11  and  C11_12 
REMARK    2  A    between atoms: C29_32  and  C30_33 
REMARK    3  A    between atoms: C29_32  and  C31_35 
REMARK    4  A    between atoms: C30_33  and  O1_34 
REMARK    5  A    between atoms: C31_35  and  O3_37 
REMARK    6  A    between atoms: C41_48  and  C42_49 
REMARK    7  A    between atoms: C42_49  and  O5_51 
REMARK    8  A    between atoms: C44_53  and  O6_54 
ROOT
HETATM    1  C1  UNL     1       7.496  17.002  14.792  1.00  0.00     0.036 C 
HETATM    2  C2  UNL     1       6.464  17.819  14.088  1.00  0.00    -0.026 C 
HETATM    3  C3  UNL     1       5.468  17.400  13.282  1.00  0.00    -0.050 C 
HETATM    4  C4  UNL     1       4.610  18.458  12.597  1.00  0.00     0.310 C 
HETATM    5  N1  UNL     1       3.172  18.247  12.612  1.00  0.00     0.125 N 
HETATM    6  C5  UNL     1       2.614  18.517  13.945  1.00  0.00     0.277 C 
HETATM    7  C6  UNL     1       2.787  17.225  14.719  1.00  0.00     0.051 C 
HETATM    8  C7  UNL     1       2.693  16.133  13.632  1.00  0.00     0.070 C 
HETATM    9  C8  UNL     1       1.287  15.555  13.686  1.00  0.00    -0.016 A 
HETATM   10  C9  UNL     1       0.734  14.694  14.631  1.00  0.00     0.018 A 
HETATM   11  C10 UNL     1      -0.602  14.294  14.508  1.00  0.00    -0.048 A 
HETATM   12  C33 UNL     1      -1.378  14.828  13.461  1.00  0.00     0.010 A 
HETATM   13  C34 UNL     1      -0.820  15.715  12.535  1.00  0.00     0.030 A 
HETATM   14  C35 UNL     1       0.515  16.065  12.642  1.00  0.00     0.039 A 
HETATM   15  N4  UNL     1       1.249  16.849  11.774  1.00  0.00    -0.347 N 
HETATM   16  C36 UNL     1       0.669  17.931  11.014  1.00  0.00     0.152 C 
HETATM   17  C37 UNL     1       2.656  16.910  12.237  1.00  0.00     0.274 C 
HETATM   18  C38 UNL     1       3.473  16.001  11.171  1.00  0.00     0.186 C 
HETATM   19  C39 UNL     1       4.985  15.968  11.360  1.00  0.00     0.047 C 
HETATM   20  C40 UNL     1       5.195  15.937  12.888  1.00  0.00     0.043 C 
HETATM   21  C41 UNL     1       3.937  15.188  13.551  1.00  0.00     0.121 C 
HETATM   22  C44 UNL     1       3.534  14.047  12.578  1.00  0.00     0.277 C 
HETATM   23  O7  UNL     1       3.084  14.600  11.327  1.00  0.00    -0.350 OA
ENDROOT
BRANCH  11  24
HETATM   24  C11 UNL     1      -1.172  13.205  15.438  1.00  0.00     0.070 C 
HETATM   25  C12 UNL     1      -0.930  11.851  14.736  1.00  0.00     0.026 C 
HETATM   26  C13 UNL     1      -0.722  10.557  15.578  1.00  0.00     0.039 C 
HETATM   27  C14 UNL     1      -0.215  10.826  16.985  1.00  0.00    -0.051 C 
HETATM   28  C29 UNL     1      -1.933   9.591  15.586  1.00  0.00     0.107 C 
HETATM   29  C15 UNL     1       1.080  11.081  17.274  1.00  0.00    -0.026 C 
HETATM   30  C17 UNL     1      -1.221  10.751  18.116  1.00  0.00     0.306 C 
HETATM   31  C16 UNL     1       2.230  11.177  16.318  1.00  0.00     0.036 C 
HETATM   32  N2  UNL     1      -2.612  10.872  17.719  1.00  0.00     0.094 N 
HETATM   33  C18 UNL     1      -3.520  10.614  18.835  1.00  0.00     0.310 C 
HETATM   34  C19 UNL     1      -3.057  10.230  16.463  1.00  0.00     0.248 C 
HETATM   35  C20 UNL     1      -3.959  11.250  15.682  1.00  0.00     0.079 C 
HETATM   36  C21 UNL     1      -3.763  12.726  15.930  1.00  0.00    -0.020 A 
HETATM   37  C22 UNL     1      -2.608  13.494  15.815  1.00  0.00     0.025 A 
HETATM   38  C28 UNL     1      -4.823  13.621  16.341  1.00  0.00    -0.001 A 
HETATM   39  N3  UNL     1      -2.935  14.775  16.215  1.00  0.00    -0.358 N 
HETATM   40  C23 UNL     1      -4.274  14.887  16.503  1.00  0.00     0.043 A 
HETATM   41  H28 UNL     1      -2.270  15.538  16.262  1.00  0.00     0.166 HD
HETATM   42  C24 UNL     1      -5.021  16.003  16.906  1.00  0.00     0.030 A 
HETATM   43  C25 UNL     1      -6.381  15.819  17.158  1.00  0.00     0.002 A 
HETATM   44  C26 UNL     1      -6.965  14.563  17.009  1.00  0.00     0.001 A 
HETATM   45  C27 UNL     1      -6.203  13.460  16.601  1.00  0.00     0.014 A 
BRANCH  28  46
HETATM   46  C30 UNL     1      -1.534   8.143  16.060  1.00  0.00     0.186 C 
BRANCH  46  47
HETATM   47  O1  UNL     1      -2.557   7.348  16.621  1.00  0.00    -0.399 OA
HETATM   48  H35 UNL     1      -2.143   6.554  17.004  1.00  0.00     0.209 HD
ENDBRANCH  46  47
ENDBRANCH  28  46
BRANCH  28  49
HETATM   49  C31 UNL     1      -2.438   9.244  14.178  1.00  0.00     0.272 C 
HETATM   50  O2  UNL     1      -3.418   8.540  13.972  1.00  0.00    -0.264 OA
BRANCH  49  51
HETATM   51  O3  UNL     1      -1.624   9.704  13.192  1.00  0.00    -0.326 OA
HETATM   52  C32 UNL     1      -1.618   8.928  11.995  1.00  0.00     0.213 C 
ENDBRANCH  49  51
ENDBRANCH  28  49
ENDBRANCH  11  24
BRANCH  21  53
HETATM   53  C42 UNL     1       4.243  14.539  14.890  1.00  0.00     0.274 C 
HETATM   54  O4  UNL     1       4.482  13.346  15.037  1.00  0.00    -0.264 OA
BRANCH  53  55
HETATM   55  O5  UNL     1       4.163  15.402  15.936  1.00  0.00    -0.326 OA
HETATM   56  C43 UNL     1       4.263  14.779  17.217  1.00  0.00     0.213 C 
ENDBRANCH  53  55
ENDBRANCH  21  53
BRANCH  22  57
HETATM   57  O6  UNL     1       4.631  13.186  12.312  1.00  0.00    -0.370 OA
HETATM   58  H52 UNL     1       4.240  12.427  11.846  1.00  0.00     0.212 HD
ENDBRANCH  22  57
TORSDOF 8
ENDMDL
