MODEL 1
REMARK minimizedAffinity -10.9041414
REMARK CNNscore 0.625273585
REMARK CNNaffinity 7.22764969
REMARK  8 active torsions:
REMARK  status: ('A' for Active; 'I' for Inactive)
REMARK    1  A    between atoms: C12_12  and  O1_13 
REMARK    2  A    between atoms: C17_18  and  O2_19 
REMARK    3  A    between atoms: C18_20  and  C19_21 
REMARK    4  A    between atoms: C19_21  and  C21_23 
REMARK    5  A    between atoms: C21_23  and  C22_24 
REMARK    6  A    between atoms: C22_24  and  C23_25 
REMARK    7  A    between atoms: C24_26  and  C26_28 
REMARK    8  A    between atoms: C26_28  and  O3_29 
ROOT
HETATM    1  C1  UNL     1      -4.207   3.244  10.542  1.00  0.00     0.044 C 
HETATM    2  C2  UNL     1      -4.883   3.792  11.774  1.00  0.00    -0.074 C 
HETATM    3  C3  UNL     1      -4.393   4.736  12.621  1.00  0.00    -0.044 C 
HETATM    4  C4  UNL     1      -2.980   5.216  12.689  1.00  0.00    -0.048 C 
HETATM    5  C5  UNL     1      -2.664   6.366  13.349  1.00  0.00    -0.064 C 
HETATM    6  C6  UNL     1      -3.689   7.281  13.969  1.00  0.00     0.036 C 
HETATM    7  C7  UNL     1      -5.120   6.894  13.638  1.00  0.00     0.014 C 
HETATM    8  C8  UNL     1      -5.306   5.369  13.697  1.00  0.00     0.030 C 
HETATM    9  C9  UNL     1      -6.826   4.970  13.645  1.00  0.00    -0.014 C 
HETATM   10  C10 UNL     1      -7.627   5.798  12.611  1.00  0.00     0.018 C 
HETATM   11  C11 UNL     1      -7.480   5.213  15.025  1.00  0.00     0.018 C 
HETATM   12  C12 UNL     1      -6.891   3.461  13.322  1.00  0.00     0.130 C 
HETATM   13  C13 UNL     1      -6.248   3.164  11.968  1.00  0.00     0.067 C 
HETATM   14  C14 UNL     1      -1.203   6.740  13.616  1.00  0.00    -0.010 C 
HETATM   15  C15 UNL     1      -0.893   6.104  15.011  1.00  0.00     0.021 C 
HETATM   16  C16 UNL     1      -0.788   8.223  13.686  1.00  0.00     0.046 C 
HETATM   17  C17 UNL     1       0.747   8.212  13.471  1.00  0.00     0.124 C 
HETATM   18  C18 UNL     1       1.100   6.823  12.856  1.00  0.00     0.027 C 
HETATM   19  C27 UNL     1      -0.288   6.262  12.428  1.00  0.00    -0.026 C 
HETATM   20  C28 UNL     1      -0.734   6.859  11.059  1.00  0.00     0.016 C 
HETATM   21  C29 UNL     1      -0.400   4.737  12.361  1.00  0.00     0.015 C 
HETATM   22  C30 UNL     1      -1.868   4.313  12.131  1.00  0.00     0.040 C 
ENDROOT
BRANCH  18  23
HETATM   23  C19 UNL     1       2.353   6.686  11.935  1.00  0.00    -0.011 C 
HETATM   24  C20 UNL     1       2.592   8.040  11.235  1.00  0.00     0.010 C 
BRANCH  23  25
HETATM   25  C21 UNL     1       2.376   5.544  10.891  1.00  0.00     0.008 C 
BRANCH  25  26
HETATM   26  C22 UNL     1       3.272   5.772   9.663  1.00  0.00     0.028 C 
BRANCH  26  27
HETATM   27  C23 UNL     1       2.606   6.551   8.562  1.00  0.00    -0.022 C 
HETATM   28  C24 UNL     1       2.486   6.201   7.264  1.00  0.00    -0.064 C 
HETATM   29  C25 UNL     1       1.742   7.089   6.299  1.00  0.00     0.045 C 
BRANCH  28  30
HETATM   30  C26 UNL     1       3.049   4.946   6.654  1.00  0.00     0.197 C 
BRANCH  30  31
HETATM   31  O3  UNL     1       3.296   4.001   7.686  1.00  0.00    -0.397 OA
HETATM   32  H41 UNL     1       2.465   3.917   8.187  1.00  0.00     0.209 HD
ENDBRANCH  30  31
ENDBRANCH  28  30
ENDBRANCH  26  27
ENDBRANCH  25  26
ENDBRANCH  23  25
ENDBRANCH  18  23
BRANCH  17  33
HETATM   33  O2  UNL     1       1.117   9.306  12.658  1.00  0.00    -0.395 OA
HETATM   34  H25 UNL     1       0.858  10.121  13.122  1.00  0.00     0.210 HD
ENDBRANCH  17  33
BRANCH  12  35
HETATM   35  O1  UNL     1      -8.230   2.961  13.342  1.00  0.00    -0.394 OA
HETATM   36  H16 UNL     1      -8.695   3.291  12.555  1.00  0.00     0.210 HD
ENDBRANCH  12  35
TORSDOF 8
ENDMDL
