MODEL 1
REMARK minimizedAffinity -9.01747322
REMARK CNNscore 0.708038747
REMARK CNNaffinity 7.81839132
REMARK  13 active torsions:
REMARK  status: ('A' for Active; 'I' for Inactive)
REMARK    1  A    between atoms: C19_21  and  O3_22 
REMARK    2  A    between atoms: C19_21  and  C20_23 
REMARK    3  A    between atoms: C20_23  and  C21_25 
REMARK    4  A    between atoms: C21_25  and  O5_26 
REMARK    5  A    between atoms: O5_26  and  C22_27 
REMARK    6  A    between atoms: C22_27  and  C23_29 
REMARK    7  A    between atoms: C23_29  and  C24_30 
REMARK    8  A    between atoms: C24_30  and  C25_31 
REMARK       I    between atoms: C25_31  and  N1_33 
REMARK    9  A    between atoms: N1_33  and  C26_34 
REMARK   10  A    between atoms: C26_34  and  C27_35 
REMARK   11  A    between atoms: C27_35  and  C28_36 
REMARK   12  A    between atoms: C31_39  and  O8_40 
REMARK   13  A    between atoms: C32_41  and  O9_42 
ROOT
HETATM    1  C20 UNL     1      -3.470   6.972  14.172  1.00  0.00     0.185 C 
HETATM    2  O4  UNL     1      -3.797   6.229  13.234  1.00  0.00    -0.292 OA
ENDROOT
BRANCH   1   3
HETATM    3  C19 UNL     1      -1.962   7.265  14.415  1.00  0.00     0.128 C 
HETATM    4  C14 UNL     1      -1.190   7.973  13.249  1.00  0.00     0.005 C 
HETATM    5  C13 UNL     1      -0.047   8.896  13.754  1.00  0.00     0.091 C 
HETATM    6  C15 UNL     1      -2.132   8.866  12.415  1.00  0.00     0.019 C 
HETATM    7  C16 UNL     1      -0.632   6.786  12.403  1.00  0.00     0.002 C 
HETATM    8  C12 UNL     1       1.245   8.154  13.996  1.00  0.00     0.133 C 
HETATM    9  C11 UNL     1       1.851   7.397  12.819  1.00  0.00     0.072 C 
HETATM   10  O2  UNL     1       1.826   8.199  15.080  1.00  0.00    -0.297 OA
HETATM   11  C2  UNL     1       3.133   8.106  12.244  1.00  0.00    -0.009 C 
HETATM   12  C10 UNL     1       0.771   7.006  11.777  1.00  0.00     0.003 C 
HETATM   13  C1  UNL     1       3.094   9.647  12.370  1.00  0.00     0.021 C 
HETATM   14  C3  UNL     1       4.354   7.581  13.060  1.00  0.00     0.022 C 
HETATM   15  C7  UNL     1       3.306   7.784  10.757  1.00  0.00    -0.067 C 
HETATM   16  C4  UNL     1       5.701   7.877  12.412  1.00  0.00     0.084 C 
HETATM   17  C5  UNL     1       5.726   7.320  11.013  1.00  0.00     0.149 C 
HETATM   18  O1  UNL     1       6.750   6.872  10.496  1.00  0.00    -0.293 OA
HETATM   19  C6  UNL     1       4.476   7.393  10.217  1.00  0.00     0.053 C 
HETATM   20  C8  UNL     1       2.105   7.958   9.854  1.00  0.00     0.035 C 
HETATM   21  C9  UNL     1       0.760   7.964  10.584  1.00  0.00     0.010 C 
HETATM   22  C17 UNL     1      -0.631   5.552  13.341  1.00  0.00     0.009 C 
HETATM   23  C18 UNL     1      -1.139   6.015  14.699  1.00  0.00     0.047 C 
BRANCH   3  24
HETATM   24  O3  UNL     1      -1.939   8.072  15.601  1.00  0.00    -0.381 OA
HETATM   25  H25 UNL     1      -2.706   8.676  15.543  1.00  0.00     0.211 HD
ENDBRANCH   3  24
ENDBRANCH   1   3
BRANCH   1  26
HETATM   26  C21 UNL     1      -4.520   7.596  15.092  1.00  0.00     0.260 C 
BRANCH  26  27
HETATM   27  O5  UNL     1      -5.232   6.627  15.863  1.00  0.00    -0.314 OA
BRANCH  27  28
HETATM   28  C22 UNL     1      -6.586   6.774  15.834  1.00  0.00     0.259 C 
HETATM   29  O6  UNL     1      -7.251   7.270  16.734  1.00  0.00    -0.265 OA
BRANCH  28  30
HETATM   30  C23 UNL     1      -7.132   6.231  14.537  1.00  0.00     0.120 C 
BRANCH  30  31
HETATM   31  C24 UNL     1      -7.762   4.859  14.742  1.00  0.00     0.112 C 
BRANCH  31  32
HETATM   32  C25 UNL     1      -7.369   3.891  13.644  1.00  0.00     0.218 C 
HETATM   33  O7  UNL     1      -8.115   3.015  13.219  1.00  0.00    -0.274 OA
HETATM   34  N1  UNL     1      -6.107   4.128  13.145  1.00  0.00    -0.361 N 
HETATM   35  H32 UNL     1      -5.497   4.745  13.671  1.00  0.00     0.162 HD
BRANCH  34  36
HETATM   36  C26 UNL     1      -5.476   3.217  12.210  1.00  0.00     0.127 C 
BRANCH  36  37
HETATM   37  C27 UNL     1      -4.289   3.851  11.469  1.00  0.00     0.058 C 
BRANCH  37  38
HETATM   38  C28 UNL     1      -3.123   2.898  11.325  1.00  0.00    -0.054 A 
HETATM   39  C29 UNL     1      -3.339   1.509  11.367  1.00  0.00     0.010 A 
HETATM   40  C30 UNL     1      -2.269   0.616  11.284  1.00  0.00     0.040 A 
HETATM   41  C31 UNL     1      -0.984   1.116  11.150  1.00  0.00     0.098 A 
HETATM   42  C32 UNL     1      -0.753   2.489  11.097  1.00  0.00     0.099 A 
HETATM   43  C33 UNL     1      -1.813   3.387  11.186  1.00  0.00     0.046 A 
BRANCH  41  44
HETATM   44  O8  UNL     1       0.068   0.246  11.077  1.00  0.00    -0.358 OA
HETATM   45  H39 UNL     1       0.853   0.822  10.989  1.00  0.00     0.217 HD
ENDBRANCH  41  44
BRANCH  42  46
HETATM   46  O9  UNL     1       0.540   2.911  10.965  1.00  0.00    -0.358 OA
HETATM   47  H40 UNL     1       0.538   3.877  10.864  1.00  0.00     0.217 HD
ENDBRANCH  42  46
ENDBRANCH  37  38
ENDBRANCH  36  37
ENDBRANCH  34  36
ENDBRANCH  31  32
ENDBRANCH  30  31
ENDBRANCH  28  30
ENDBRANCH  27  28
ENDBRANCH  26  27
ENDBRANCH   1  26
TORSDOF 13
ENDMDL
