MODEL 1
REMARK minimizedAffinity -7.56788492
REMARK CNNscore 0.663265824
REMARK CNNaffinity 6.77858162
REMARK  8 active torsions:
REMARK  status: ('A' for Active; 'I' for Inactive)
REMARK    1  A    between atoms: C4_4  and  C5_5 
REMARK    2  A    between atoms: C5_5  and  C6_6 
REMARK    3  A    between atoms: C6_6  and  C7_7 
REMARK    4  A    between atoms: C9_9  and  C10_10 
REMARK    5  A    between atoms: C11_11  and  C12_12 
REMARK    6  A    between atoms: C14_14  and  C15_15 
REMARK    7  A    between atoms: C24_25  and  C26_27 
REMARK    8  A    between atoms: C29_31  and  O3_33 
ROOT
HETATM    1  C15 UNL     1      -0.498  51.590 -12.742  1.00  0.00     0.149 C 
HETATM    2  C16 UNL     1       0.059  52.981 -12.459  1.00  0.00     0.054 C 
HETATM    3  C17 UNL     1       0.381  52.993 -10.946  1.00  0.00     0.050 C 
HETATM    4  C18 UNL     1       0.429  51.465 -10.646  1.00  0.00     0.272 C 
HETATM    5  O1  UNL     1       1.576  51.042  -9.928  1.00  0.00    -0.360 OA
HETATM    6  C19 UNL     1       2.694  50.696 -10.729  1.00  0.00     0.171 C 
HETATM    7  C20 UNL     1       3.128  51.802 -11.674  1.00  0.00     0.027 C 
HETATM    8  C21 UNL     1       3.080  53.180 -11.031  1.00  0.00     0.012 C 
HETATM    9  C22 UNL     1       1.703  53.801 -10.651  1.00  0.00     0.032 C 
HETATM   10  C23 UNL     1       1.783  54.397  -9.217  1.00  0.00    -0.066 C 
HETATM   11  C24 UNL     1       2.519  55.505  -8.931  1.00  0.00    -0.021 C 
HETATM   12  C25 UNL     1       3.308  56.318  -9.928  1.00  0.00     0.052 C 
HETATM   13  C27 UNL     1       0.948  53.631  -8.215  1.00  0.00     0.038 C 
HETATM   14  C28 UNL     1      -0.530  53.551  -8.611  1.00  0.00     0.042 C 
HETATM   15  C29 UNL     1      -0.794  53.662 -10.130  1.00  0.00     0.067 C 
HETATM   16  C30 UNL     1      -1.068  55.140 -10.497  1.00  0.00     0.047 C 
HETATM   17  O4  UNL     1       0.241  50.745 -11.867  1.00  0.00    -0.351 OA
ENDROOT
BRANCH   1  18
HETATM   18  C14 UNL     1      -0.335  51.203 -14.189  1.00  0.00     0.011 C 
HETATM   19  C12 UNL     1       0.612  50.443 -14.783  1.00  0.00    -0.063 C 
HETATM   20  C13 UNL     1       1.696  49.715 -14.030  1.00  0.00     0.048 C 
BRANCH  19  21
HETATM   21  C11 UNL     1       0.563  50.286 -16.240  1.00  0.00     0.006 C 
HETATM   22  C10 UNL     1      -0.230  50.956 -17.094  1.00  0.00     0.001 C 
BRANCH  22  23
HETATM   23  C9  UNL     1      -0.207  50.719 -18.523  1.00  0.00     0.002 C 
HETATM   24  C7  UNL     1      -0.037  51.633 -19.502  1.00  0.00    -0.084 C 
HETATM   25  C8  UNL     1       0.156  53.114 -19.300  1.00  0.00     0.043 C 
BRANCH  24  26
HETATM   26  C6  UNL     1      -0.067  51.187 -20.956  1.00  0.00     0.037 C 
BRANCH  26  27
HETATM   27  C5  UNL     1      -0.549  52.290 -21.905  1.00  0.00     0.031 C 
BRANCH  27  28
HETATM   28  C4  UNL     1       0.337  52.398 -23.119  1.00  0.00    -0.024 C 
HETATM   29  C2  UNL     1       0.086  51.937 -24.361  1.00  0.00    -0.091 C 
HETATM   30  C1  UNL     1      -1.188  51.262 -24.788  1.00  0.00     0.042 C 
HETATM   31  C3  UNL     1       1.110  52.085 -25.457  1.00  0.00     0.042 C 
ENDBRANCH  27  28
ENDBRANCH  26  27
ENDBRANCH  24  26
ENDBRANCH  22  23
ENDBRANCH  19  21
ENDBRANCH   1  18
BRANCH  15  32
HETATM   32  O3  UNL     1      -2.022  52.973 -10.412  1.00  0.00    -0.389 OA
HETATM   33  H44 UNL     1      -2.736  53.391  -9.898  1.00  0.00     0.210 HD
ENDBRANCH  15  32
BRANCH  11  34
HETATM   34  C26 UNL     1       2.641  56.062  -7.540  1.00  0.00     0.265 C 
HETATM   35  O2  UNL     1       3.468  55.651  -6.732  1.00  0.00    -0.302 OA
ENDBRANCH  11  34
TORSDOF 8
ENDMDL
