MODEL 1
REMARK minimizedAffinity -8.7217083
REMARK  4 active torsions:
REMARK  status: ('A' for Active; 'I' for Inactive)
REMARK    1  A    between atoms: O1_2  and  C2_3 
REMARK    2  A    between atoms: C6_9  and  C7_10 
REMARK       I    between atoms: C7_10  and  N2_12 
REMARK    3  A    between atoms: C23_29  and  O3_30 
REMARK    4  A    between atoms: C26_33  and  O4_34 
ROOT
HETATM    1  C7  UNL     1      13.385  36.165  16.837  1.00  0.00     0.258 C 
HETATM    2  O2  UNL     1      12.968  36.472  15.722  1.00  0.00    -0.267 OA
HETATM    3  N2  UNL     1      14.728  35.904  17.107  1.00  0.00    -0.339 N 
HETATM    4  C8  UNL     1      15.215  35.237  18.322  1.00  0.00     0.127 C 
HETATM    5  C9  UNL     1      16.091  34.045  17.966  1.00  0.00     0.024 C 
HETATM    6  C10 UNL     1      17.343  34.476  17.209  1.00  0.00     0.037 C 
HETATM    7  C11 UNL     1      17.153  35.763  16.453  1.00  0.00    -0.060 C 
HETATM    8  C12 UNL     1      18.193  36.643  16.258  1.00  0.00    -0.015 C 
HETATM    9  C13 UNL     1      18.077  37.940  15.382  1.00  0.00     0.031 C 
HETATM   10  C14 UNL     1      16.877  37.658  14.526  1.00  0.00     0.019 C 
HETATM   11  C15 UNL     1      15.824  37.585  15.644  1.00  0.00     0.031 C 
HETATM   12  C16 UNL     1      15.176  38.935  15.666  1.00  0.00     0.124 C 
HETATM   13  N3  UNL     1      16.303  39.872  16.038  1.00  0.00    -0.407 N 
HETATM   14  C17 UNL     1      16.135  41.228  15.537  1.00  0.00     0.117 C 
HETATM   15  C18 UNL     1      16.869  41.455  14.220  1.00  0.00     0.019 C 
HETATM   16  C19 UNL     1      18.332  41.008  14.259  1.00  0.00     0.004 C 
HETATM   17  C20 UNL     1      18.732  40.430  15.613  1.00  0.00     0.026 C 
HETATM   18  C21 UNL     1      17.743  39.352  16.098  1.00  0.00     0.086 C 
HETATM   19  C22 UNL     1      15.671  36.118  16.005  1.00  0.00     0.122 C 
ENDROOT
BRANCH   1  20
HETATM   20  C6  UNL     1      12.418  36.142  17.940  1.00  0.00     0.081 A 
HETATM   21  C5  UNL     1      12.893  36.290  19.229  1.00  0.00     0.108 A 
HETATM   22  N1  UNL     1      12.100  36.289  20.327  1.00  0.00    -0.364 N 
HETATM   23  C4  UNL     1      10.778  36.095  20.156  1.00  0.00     0.048 A 
ATOM     24  H1  UNL     1      12.493  36.430  21.257  1.00  0.00     0.165 HD
HETATM   25  C3  UNL     1       9.959  36.081  21.276  1.00  0.00     0.070 A 
HETATM   26  C24 UNL     1      10.196  35.903  18.886  1.00  0.00     0.028 A 
HETATM   27  C2  UNL     1       8.577  35.874  21.181  1.00  0.00     0.103 A 
HETATM   28  C26 UNL     1       7.991  35.674  19.920  1.00  0.00     0.102 A 
HETATM   29  C25 UNL     1       8.803  35.694  18.784  1.00  0.00     0.056 A 
HETATM   30  C23 UNL     1      11.052  35.927  17.766  1.00  0.00     0.095 A 
BRANCH  27  31
HETATM   31  O1  UNL     1       7.722  35.837  22.255  1.00  0.00    -0.353 OA
HETATM   32  C1  UNL     1       8.043  34.956  23.323  1.00  0.00     0.210 C 
ENDBRANCH  27  31
BRANCH  28  33
HETATM   33  O4  UNL     1       6.634  35.480  19.903  1.00  0.00    -0.353 OA
HETATM   34  C27 UNL     1       6.161  34.141  19.822  1.00  0.00     0.210 C 
ENDBRANCH  28  33
BRANCH  30  35
HETATM   35  O3  UNL     1      10.492  35.725  16.525  1.00  0.00    -0.359 OA
HETATM   36  H29 UNL     1      11.184  35.700  15.838  1.00  0.00     0.217 HD
ENDBRANCH  30  35
ENDBRANCH   1  20
TORSDOF 4
ENDMDL
