MODEL 1
REMARK minimizedAffinity -7.9831996
REMARK CNNscore 0.507661939
REMARK CNNaffinity 6.11064005
REMARK  11 active torsions:
REMARK  status: ('A' for Active; 'I' for Inactive)
REMARK    1  A    between atoms: C11_11  and  C13_13 
REMARK    2  A    between atoms: C13_13  and  O2_15 
REMARK    3  A    between atoms: O2_15  and  C14_16 
REMARK    4  A    between atoms: C15_18  and  C16_19 
REMARK    5  A    between atoms: C16_19  and  O4_20 
REMARK    6  A    between atoms: C17_21  and  O5_22 
REMARK    7  A    between atoms: C18_23  and  O6_24 
REMARK    8  A    between atoms: C19_25  and  O7_26 
REMARK    9  A    between atoms: C20_27  and  C21_28 
REMARK   10  A    between atoms: C21_28  and  C22_29 
REMARK   11  A    between atoms: C26_35  and  O10_36 
ROOT
HETATM    1  C1  UNL     1      -1.157  47.260 -21.375  1.00  0.00     0.015 C 
HETATM    2  C2  UNL     1      -2.256  48.031 -21.318  1.00  0.00    -0.084 C 
HETATM    3  C3  UNL     1      -3.561  47.493 -20.797  1.00  0.00     0.034 C 
HETATM    4  C4  UNL     1      -4.718  47.653 -21.795  1.00  0.00     0.011 C 
HETATM    5  C5  UNL     1      -4.451  48.688 -22.915  1.00  0.00     0.012 C 
HETATM    6  C6  UNL     1      -3.707  49.945 -22.344  1.00  0.00    -0.032 C 
HETATM    7  C7  UNL     1      -4.488  50.625 -21.200  1.00  0.00     0.016 C 
HETATM    8  C8  UNL     1      -3.525  50.955 -23.507  1.00  0.00     0.010 C 
HETATM    9  C9  UNL     1      -4.817  51.419 -24.176  1.00  0.00     0.002 C 
HETATM   10  C10 UNL     1      -6.008  50.475 -24.029  1.00  0.00     0.020 C 
HETATM   11  C11 UNL     1      -5.655  48.974 -23.895  1.00  0.00     0.049 C 
HETATM   12  C12 UNL     1      -5.254  48.485 -25.315  1.00  0.00     0.026 C 
HETATM   13  C20 UNL     1      -2.265  49.460 -21.869  1.00  0.00     0.025 C 
ENDROOT
BRANCH  11  14
HETATM   14  C13 UNL     1      -6.924  48.188 -23.508  1.00  0.00     0.270 C 
HETATM   15  O1  UNL     1      -7.519  48.321 -22.446  1.00  0.00    -0.264 OA
BRANCH  14  16
HETATM   16  O2  UNL     1      -7.319  47.370 -24.517  1.00  0.00    -0.286 OA
BRANCH  16  17
HETATM   17  C14 UNL     1      -8.647  46.833 -24.434  1.00  0.00     0.301 C 
HETATM   18  O3  UNL     1      -9.611  47.888 -24.574  1.00  0.00    -0.348 OA
HETATM   19  C15 UNL     1      -9.884  48.335 -25.911  1.00  0.00     0.179 C 
HETATM   20  C17 UNL     1      -8.860  47.851 -26.953  1.00  0.00     0.180 C 
HETATM   21  C18 UNL     1      -8.724  46.326 -26.934  1.00  0.00     0.183 C 
HETATM   22  C19 UNL     1      -8.827  45.746 -25.514  1.00  0.00     0.205 C 
BRANCH  19  23
HETATM   23  C16 UNL     1     -11.341  47.968 -26.246  1.00  0.00     0.198 C 
BRANCH  23  24
HETATM   24  O4  UNL     1     -11.919  48.909 -27.143  1.00  0.00    -0.398 OA
HETATM   25  H24 UNL     1     -12.869  48.690 -27.204  1.00  0.00     0.209 HD
ENDBRANCH  23  24
ENDBRANCH  19  23
BRANCH  20  26
HETATM   26  O5  UNL     1      -9.125  48.273 -28.295  1.00  0.00    -0.390 OA
HETATM   27  H26 UNL     1     -10.095  48.422 -28.368  1.00  0.00     0.210 HD
ENDBRANCH  20  26
BRANCH  21  28
HETATM   28  O6  UNL     1      -7.462  45.953 -27.526  1.00  0.00    -0.390 OA
HETATM   29  H28 UNL     1      -7.402  46.478 -28.350  1.00  0.00     0.210 HD
ENDBRANCH  21  28
BRANCH  22  30
HETATM   30  O7  UNL     1      -7.907  44.661 -25.349  1.00  0.00    -0.388 OA
HETATM   31  H30 UNL     1      -7.254  44.776 -26.074  1.00  0.00     0.210 HD
ENDBRANCH  22  30
ENDBRANCH  16  17
ENDBRANCH  14  16
ENDBRANCH  11  14
BRANCH  13  32
HETATM   32  C21 UNL     1      -1.448  50.454 -20.992  1.00  0.00     0.037 C 
BRANCH  32  33
HETATM   33  C22 UNL     1      -0.593  51.458 -21.721  1.00  0.00    -0.010 C 
HETATM   34  C23 UNL     1       0.062  52.501 -21.184  1.00  0.00     0.044 C 
HETATM   35  C24 UNL     1       0.837  53.431 -22.043  1.00  0.00     0.291 C 
HETATM   36  C26 UNL     1       0.183  52.999 -19.792  1.00  0.00     0.181 C 
HETATM   37  O8  UNL     1       0.843  53.455 -23.261  1.00  0.00    -0.260 OA
HETATM   38  O9  UNL     1       1.527  54.288 -21.241  1.00  0.00    -0.315 OA
HETATM   39  C25 UNL     1       1.438  53.839 -19.892  1.00  0.00     0.215 C 
BRANCH  36  40
HETATM   40  O10 UNL     1       0.334  51.963 -18.837  1.00  0.00    -0.389 OA
HETATM   41  H38 UNL     1       0.314  52.372 -17.955  1.00  0.00     0.210 HD
ENDBRANCH  36  40
ENDBRANCH  32  33
ENDBRANCH  13  32
TORSDOF 11
ENDMDL
