MODEL 1
REMARK minimizedAffinity -8.05994129
REMARK  6 active torsions:
REMARK  status: ('A' for Active; 'I' for Inactive)
REMARK    1  A    between atoms: C9_10  and  C10_11 
REMARK    2  A    between atoms: C11_13  and  O3_14 
REMARK    3  A    between atoms: C12_15  and  C13_16 
REMARK    4  A    between atoms: C14_18  and  O5_19 
REMARK    5  A    between atoms: C16_21  and  C17_22 
REMARK    6  A    between atoms: C17_22  and  C18_23 
ROOT
HETATM    1  C1  UNL     1      -4.468   8.514  12.776  1.00  0.00     0.043 C 
HETATM    2  C2  UNL     1      -3.218   8.524  13.629  1.00  0.00    -0.087 C 
HETATM    3  C3  UNL     1      -2.259   9.435  13.371  1.00  0.00    -0.024 C 
HETATM    4  C4  UNL     1      -0.949   9.733  14.043  1.00  0.00     0.030 C 
HETATM    5  C5  UNL     1      -0.149   8.610  14.706  1.00  0.00     0.042 C 
HETATM    6  C6  UNL     1       0.761   7.732  13.796  1.00  0.00     0.069 C 
HETATM    7  C7  UNL     1       1.402   6.666  14.709  1.00  0.00     0.047 C 
HETATM    8  O1  UNL     1       1.813   8.707  13.453  1.00  0.00    -0.338 OA
HETATM    9  C8  UNL     1       2.882   8.211  12.762  1.00  0.00     0.095 A 
HETATM   10  C9  UNL     1       4.146   8.760  13.022  1.00  0.00     0.070 A 
HETATM   11  C11 UNL     1       5.288   8.213  12.420  1.00  0.00     0.097 A 
HETATM   12  C12 UNL     1       5.157   7.114  11.570  1.00  0.00     0.069 A 
HETATM   13  C14 UNL     1       3.881   6.592  11.295  1.00  0.00     0.091 A 
HETATM   14  C15 UNL     1       2.721   7.170  11.845  1.00  0.00     0.015 A 
HETATM   15  C16 UNL     1       1.329   6.683  11.492  1.00  0.00     0.032 C 
HETATM   16  C21 UNL     1       0.183   7.234  12.441  1.00  0.00     0.034 C 
HETATM   17  C22 UNL     1      -1.064   6.377  12.258  1.00  0.00     0.006 A 
HETATM   18  C23 UNL     1      -2.208   5.859  13.112  1.00  0.00    -0.001 A 
HETATM   19  C24 UNL     1      -2.432   6.197  14.540  1.00  0.00     0.010 C 
HETATM   20  C25 UNL     1      -3.226   7.505  14.754  1.00  0.00     0.034 C 
HETATM   21  C26 UNL     1      -1.183   4.873  12.561  1.00  0.00    -0.039 A 
HETATM   22  C27 UNL     1      -0.310   4.116  13.525  1.00  0.00     0.015 C 
HETATM   23  C28 UNL     1      -1.595   4.012  11.382  1.00  0.00     0.015 C 
ENDROOT
BRANCH  15  24
HETATM   24  C17 UNL     1       0.996   6.809   9.965  1.00  0.00     0.014 C 
BRANCH  24  25
HETATM   25  C18 UNL     1       1.051   8.161   9.207  1.00  0.00    -0.022 C 
HETATM   26  C19 UNL     1      -0.313   8.676   8.747  1.00  0.00     0.009 C 
HETATM   27  C20 UNL     1       2.051   8.232   8.059  1.00  0.00     0.009 C 
ENDBRANCH  24  25
ENDBRANCH  15  24
BRANCH  13  28
HETATM   28  O5  UNL     1       3.718   5.492  10.490  1.00  0.00    -0.359 OA
HETATM   29  H15 UNL     1       4.602   5.208  10.159  1.00  0.00     0.217 HD
ENDBRANCH  13  28
BRANCH  10  30
HETATM   30  C10 UNL     1       4.263   9.899  13.954  1.00  0.00     0.275 C 
HETATM   31  O2  UNL     1       5.243   9.999  14.689  1.00  0.00    -0.301 OA
ENDBRANCH  10  30
BRANCH  12  32
HETATM   32  C13 UNL     1       6.365   6.513  10.966  1.00  0.00     0.275 C 
HETATM   33  O4  UNL     1       7.179   7.214  10.369  1.00  0.00    -0.301 OA
ENDBRANCH  12  32
BRANCH  11  34
HETATM   34  O3  UNL     1       6.544   8.715  12.659  1.00  0.00    -0.359 OA
HETATM   35  H13 UNL     1       6.469   9.471  13.288  1.00  0.00     0.217 HD
ENDBRANCH  11  34
TORSDOF 6
ENDMDL
