MODEL 1
REMARK minimizedAffinity -7.21533012
REMARK CNNscore 0.719997466
REMARK CNNaffinity 6.58998871
REMARK  4 active torsions:
REMARK  status: ('A' for Active; 'I' for Inactive)
REMARK    1  A    between atoms: C2_2  and  C4_4 
REMARK    2  A    between atoms: C7_7  and  C8_8 
REMARK    3  A    between atoms: C8_8  and  O1_9 
REMARK    4  A    between atoms: C10_11  and  O2_12 
ROOT
HETATM    1  C4  UNL     1      -0.040   6.996  11.954  1.00  0.00     0.018 C 
HETATM    2  C5  UNL     1      -0.459   5.656  11.288  1.00  0.00     0.010 C 
HETATM    3  C6  UNL     1      -1.772   5.222  11.960  1.00  0.00     0.013 C 
HETATM    4  C7  UNL     1      -1.775   5.969  13.303  1.00  0.00    -0.012 C 
HETATM    5  C9  UNL     1      -3.172   6.154  13.907  1.00  0.00     0.044 C 
HETATM    6  C10 UNL     1      -3.149   7.136  15.101  1.00  0.00     0.128 C 
HETATM    7  C11 UNL     1      -2.494   8.543  14.781  1.00  0.00    -0.006 C 
HETATM    8  C12 UNL     1      -3.484   9.281  13.812  1.00  0.00     0.019 C 
HETATM    9  C13 UNL     1      -1.099   8.312  14.047  1.00  0.00     0.002 C 
HETATM   10  C14 UNL     1      -0.408   9.634  13.698  1.00  0.00     0.006 C 
HETATM   11  C15 UNL     1      -0.224  10.544  14.914  1.00  0.00     0.006 C 
HETATM   12  C16 UNL     1      -1.538  10.805  15.685  1.00  0.00     0.003 C 
HETATM   13  C17 UNL     1      -1.422  11.971  16.755  1.00  0.00    -0.035 C 
HETATM   14  C18 UNL     1      -0.261  11.738  17.765  1.00  0.00     0.016 C 
HETATM   15  C19 UNL     1      -1.062  13.295  16.002  1.00  0.00     0.017 C 
HETATM   16  C20 UNL     1      -1.511  14.544  16.738  1.00  0.00     0.080 C 
HETATM   17  C21 UNL     1      -3.017  14.578  16.815  1.00  0.00     0.135 C 
HETATM   18  O3  UNL     1      -3.610  15.656  16.726  1.00  0.00    -0.297 OA
HETATM   19  C22 UNL     1      -3.761  13.246  17.023  1.00  0.00     0.017 C 
HETATM   20  C23 UNL     1      -4.873  13.528  18.064  1.00  0.00     0.023 C 
HETATM   21  C24 UNL     1      -4.446  12.896  15.696  1.00  0.00     0.023 C 
HETATM   22  C25 UNL     1      -2.752  12.169  17.581  1.00  0.00     0.009 C 
HETATM   23  C26 UNL     1      -3.376  10.821  17.996  1.00  0.00     0.007 C 
HETATM   24  C27 UNL     1      -3.529   9.790  16.881  1.00  0.00     0.011 C 
HETATM   25  C28 UNL     1      -2.220   9.450  16.124  1.00  0.00    -0.030 C 
HETATM   26  C29 UNL     1      -1.324   8.648  17.116  1.00  0.00     0.016 C 
HETATM   27  C30 UNL     1      -1.255   7.355  12.844  1.00  0.00     0.009 C 
ENDROOT
BRANCH   1  28
HETATM   28  C2  UNL     1       0.392   8.025  10.924  1.00  0.00    -0.089 C 
HETATM   29  C1  UNL     1      -0.510   8.625  10.127  1.00  0.00     0.014 C 
HETATM   30  C3  UNL     1       1.852   8.384  10.826  1.00  0.00     0.043 C 
ENDBRANCH   1  28
BRANCH   4  31
HETATM   31  C8  UNL     1      -0.845   5.218  14.303  1.00  0.00     0.174 C 
BRANCH  31  32
HETATM   32  O1  UNL     1      -0.650   6.006  15.472  1.00  0.00    -0.400 OA
HETATM   33  H13 UNL     1      -0.135   5.469  16.099  1.00  0.00     0.209 HD
ENDBRANCH  31  32
ENDBRANCH   4  31
BRANCH   6  34
HETATM   34  O2  UNL     1      -4.493   7.295  15.554  1.00  0.00    -0.395 OA
HETATM   35  H17 UNL     1      -4.848   6.408  15.738  1.00  0.00     0.210 HD
ENDBRANCH   6  34
TORSDOF 4
ENDMDL
