MODEL 1
REMARK minimizedAffinity -9.69169998
REMARK CNNscore 0.594405532
REMARK CNNaffinity 7.20407104
REMARK  8 active torsions:
REMARK  status: ('A' for Active; 'I' for Inactive)
REMARK    1  A    between atoms: C2_2  and  C33_38 
REMARK    2  A    between atoms: C3_3  and  C4_4 
REMARK    3  A    between atoms: C4_4  and  O1_5 
REMARK    4  A    between atoms: C4_4  and  C5_6 
REMARK    5  A    between atoms: C5_6  and  C6_7 
REMARK    6  A    between atoms: C15_17  and  O3_18 
REMARK    7  A    between atoms: C28_32  and  O5_33 
REMARK    8  A    between atoms: C33_38  and  O7_40 
ROOT
HETATM    1  C6  UNL     1      -5.243   4.992  12.669  1.00  0.00    -0.007 C 
HETATM    2  C7  UNL     1      -6.691   5.530  12.751  1.00  0.00     0.005 C 
HETATM    3  C8  UNL     1      -7.453   5.295  14.060  1.00  0.00     0.000 C 
HETATM    4  C9  UNL     1      -7.585   6.521  14.965  1.00  0.00     0.001 C 
HETATM    5  C10 UNL     1      -6.297   6.927  15.687  1.00  0.00     0.013 C 
HETATM    6  C11 UNL     1      -5.291   7.670  14.785  1.00  0.00     0.070 C 
HETATM    7  C12 UNL     1      -4.812   8.957  15.478  1.00  0.00     0.161 C 
HETATM    8  O2  UNL     1      -5.662   9.782  15.821  1.00  0.00    -0.292 OA
HETATM    9  C13 UNL     1      -3.332   9.236  15.694  1.00  0.00     0.003 C 
HETATM   10  C14 UNL     1      -2.446   8.206  15.574  1.00  0.00    -0.029 C 
HETATM   11  C15 UNL     1      -0.971   8.490  15.747  1.00  0.00     0.149 C 
HETATM   12  C16 UNL     1      -0.729   9.484  16.872  1.00  0.00     0.043 C 
HETATM   13  C17 UNL     1      -1.554  10.784  16.826  1.00  0.00     0.016 C 
HETATM   14  C18 UNL     1      -1.777  11.353  18.279  1.00  0.00     0.018 C 
HETATM   15  C19 UNL     1      -2.606  10.428  19.192  1.00  0.00     0.023 C 
HETATM   16  C20 UNL     1      -0.413  11.606  18.966  1.00  0.00     0.023 C 
HETATM   17  C21 UNL     1      -2.489  12.712  18.202  1.00  0.00     0.135 C 
HETATM   18  O4  UNL     1      -2.365  13.571  19.076  1.00  0.00    -0.297 OA
HETATM   19  C22 UNL     1      -3.343  12.989  16.993  1.00  0.00     0.080 C 
HETATM   20  C23 UNL     1      -3.925  11.691  16.458  1.00  0.00     0.022 C 
HETATM   21  C24 UNL     1      -2.851  10.696  15.918  1.00  0.00    -0.008 C 
HETATM   22  C25 UNL     1      -2.480  11.209  14.490  1.00  0.00     0.021 C 
HETATM   23  C26 UNL     1      -2.925   6.782  15.254  1.00  0.00     0.017 C 
HETATM   24  C27 UNL     1      -3.281   6.168  16.639  1.00  0.00     0.023 C 
HETATM   25  C28 UNL     1      -1.980   5.793  14.495  1.00  0.00     0.132 C 
HETATM   26  C29 UNL     1      -2.902   4.807  13.758  1.00  0.00     0.038 C 
HETATM   27  C30 UNL     1      -4.348   5.352  13.882  1.00  0.00     0.002 C 
HETATM   28  C31 UNL     1      -4.110   6.863  14.210  1.00  0.00    -0.016 C 
HETATM   29  C32 UNL     1      -3.676   7.603  12.887  1.00  0.00     0.018 C 
ENDROOT
BRANCH   1  30
HETATM   30  C5  UNL     1      -5.211   3.485  12.254  1.00  0.00     0.040 C 
BRANCH  30  31
HETATM   31  C4  UNL     1      -4.748   3.124  10.836  1.00  0.00     0.142 C 
BRANCH  31  32
HETATM   32  C3  UNL     1      -3.471   2.323  10.864  1.00  0.00     0.018 C 
HETATM   33  C2  UNL     1      -2.191   2.756  10.856  1.00  0.00     0.010 C 
HETATM   34  C1  UNL     1      -1.752   4.186  10.727  1.00  0.00     0.055 C 
BRANCH  33  35
HETATM   35  C33 UNL     1      -1.066   1.787  10.946  1.00  0.00     0.171 C 
HETATM   36  O6  UNL     1       0.086   2.066  11.230  1.00  0.00    -0.646 OA
BRANCH  35  37
HETATM   37  O7  UNL     1      -1.417   0.515  10.693  1.00  0.00    -0.773 OA
HETATM   38  H48 UNL     1      -0.576   0.024  10.798  1.00  0.00     0.167 HD
ENDBRANCH  35  37
ENDBRANCH  33  35
ENDBRANCH  31  32
BRANCH  31  39
HETATM   39  O1  UNL     1      -5.753   2.423  10.128  1.00  0.00    -0.392 OA
HETATM   40  H6  UNL     1      -5.369   2.144   9.280  1.00  0.00     0.210 HD
ENDBRANCH  31  39
ENDBRANCH  30  31
ENDBRANCH   1  30
BRANCH  25  41
HETATM   41  O5  UNL     1      -1.106   5.049  15.332  1.00  0.00    -0.394 OA
HETATM   42  H41 UNL     1      -0.632   5.725  15.863  1.00  0.00     0.210 HD
ENDBRANCH  25  41
BRANCH  11  43
HETATM   43  O3  UNL     1      -0.247   7.317  16.107  1.00  0.00    -0.391 OA
HETATM   44  H20 UNL     1       0.692   7.572  16.172  1.00  0.00     0.210 HD
ENDBRANCH  11  43
TORSDOF 8
ENDMDL
