MODEL 1
REMARK minimizedAffinity -8.34230709
REMARK CNNscore 0.705924511
REMARK CNNaffinity 7.29691267
REMARK  11 active torsions:
REMARK  status: ('A' for Active; 'I' for Inactive)
REMARK    1  A    between atoms: C4_4  and  C5_5 
REMARK    2  A    between atoms: C5_5  and  C6_6 
REMARK    3  A    between atoms: C7_7  and  O1_8 
REMARK    4  A    between atoms: C12_13  and  C14_15 
REMARK    5  A    between atoms: C14_15  and  C15_16 
REMARK    6  A    between atoms: C15_16  and  C16_17 
REMARK    7  A    between atoms: C16_17  and  C17_18 
REMARK    8  A    between atoms: C17_18  and  O2_21 
REMARK    9  A    between atoms: C23_26  and  C24_27 
REMARK   10  A    between atoms: C26_29  and  O4_30 
REMARK   11  A    between atoms: C28_32  and  O5_33 
ROOT
HETATM    1  C6  UNL     1      -4.741   8.254  14.574  1.00  0.00    -0.006 A 
HETATM    2  C7  UNL     1      -5.873   8.979  15.001  1.00  0.00     0.107 A 
HETATM    3  C8  UNL     1      -7.179   8.487  14.882  1.00  0.00     0.117 A 
HETATM    4  C9  UNL     1      -7.413   7.238  14.321  1.00  0.00     0.035 A 
HETATM    5  C10 UNL     1      -8.753   6.717  14.163  1.00  0.00     0.016 C 
HETATM    6  C11 UNL     1      -9.747   7.453  14.667  1.00  0.00     0.012 C 
HETATM    7  C12 UNL     1      -9.538   8.772  15.388  1.00  0.00     0.082 C 
HETATM    8  C13 UNL     1     -10.419   9.841  14.723  1.00  0.00     0.051 C 
HETATM    9  O3  UNL     1      -8.187   9.308  15.318  1.00  0.00    -0.333 OA
HETATM   10  C20 UNL     1      -6.299   6.515  13.897  1.00  0.00     0.100 A 
HETATM   11  C21 UNL     1      -4.990   6.979  14.003  1.00  0.00     0.011 A 
HETATM   12  C22 UNL     1      -4.178   5.944  13.457  1.00  0.00     0.053 A 
HETATM   13  C23 UNL     1      -5.021   4.925  13.056  1.00  0.00     0.087 A 
HETATM   14  O6  UNL     1      -6.313   5.276  13.327  1.00  0.00    -0.308 OA
ENDROOT
BRANCH  13  15
HETATM   15  C24 UNL     1      -4.819   3.621  12.430  1.00  0.00     0.003 A 
HETATM   16  C25 UNL     1      -5.903   2.791  12.108  1.00  0.00     0.051 A 
HETATM   17  C26 UNL     1      -5.692   1.548  11.513  1.00  0.00     0.069 A 
HETATM   18  C27 UNL     1      -4.408   1.100  11.224  1.00  0.00     0.073 A 
HETATM   19  C28 UNL     1      -3.332   1.920  11.541  1.00  0.00     0.069 A 
HETATM   20  C29 UNL     1      -3.525   3.166  12.137  1.00  0.00     0.051 A 
BRANCH  17  21
HETATM   21  O4  UNL     1      -6.790   0.788  11.232  1.00  0.00    -0.361 OA
HETATM   22  H31 UNL     1      -6.503  -0.044  10.819  1.00  0.00     0.217 HD
ENDBRANCH  17  21
BRANCH  19  23
HETATM   23  O5  UNL     1      -2.046   1.541  11.283  1.00  0.00    -0.361 OA
HETATM   24  H33 UNL     1      -2.051   0.655  10.884  1.00  0.00     0.217 HD
ENDBRANCH  19  23
ENDBRANCH  13  15
BRANCH   1  25
HETATM   25  C5  UNL     1      -3.346   8.812  14.747  1.00  0.00     0.070 C 
BRANCH  25  26
HETATM   26  C4  UNL     1      -2.670   9.069  13.426  1.00  0.00    -0.020 C 
HETATM   27  C2  UNL     1      -1.562   8.486  12.927  1.00  0.00    -0.091 C 
HETATM   28  C1  UNL     1      -0.766   7.407  13.608  1.00  0.00     0.042 C 
HETATM   29  C3  UNL     1      -1.030   8.885  11.575  1.00  0.00     0.042 C 
ENDBRANCH  25  26
ENDBRANCH   1  25
BRANCH   2  30
HETATM   30  O1  UNL     1      -5.698  10.226  15.554  1.00  0.00    -0.357 OA
HETATM   31  H10 UNL     1      -6.595  10.533  15.791  1.00  0.00     0.217 HD
ENDBRANCH   2  30
BRANCH   7  32
HETATM   32  C14 UNL     1      -9.856   8.651  16.901  1.00  0.00     0.042 C 
BRANCH  32  33
HETATM   33  C15 UNL     1     -10.748   9.748  17.492  1.00  0.00     0.006 C 
BRANCH  33  34
HETATM   34  C16 UNL     1     -11.545   9.319  18.737  1.00  0.00     0.037 C 
BRANCH  34  35
HETATM   35  C17 UNL     1     -11.546  10.278  19.946  1.00  0.00     0.051 C 
HETATM   36  C18 UNL     1     -12.992  10.573  20.368  1.00  0.00     0.045 C 
HETATM   37  C19 UNL     1     -10.818  11.591  19.659  1.00  0.00     0.045 C 
BRANCH  35  38
HETATM   38  O2  UNL     1     -10.895   9.660  21.058  1.00  0.00    -0.391 OA
HETATM   39  H28 UNL     1     -11.373   8.838  21.270  1.00  0.00     0.210 HD
ENDBRANCH  35  38
ENDBRANCH  34  35
ENDBRANCH  33  34
ENDBRANCH  32  33
ENDBRANCH   7  32
TORSDOF 11
ENDMDL
