MODEL 1
REMARK minimizedAffinity -7.046597
REMARK CNNscore 0.685737669
REMARK CNNaffinity 6.87353516
REMARK  4 active torsions:
REMARK  status: ('A' for Active; 'I' for Inactive)
REMARK    1  A    between atoms: C4_4  and  C5_5 
REMARK    2  A    between atoms: C5_5  and  C6_6 
REMARK    3  A    between atoms: C6_6  and  C7_7 
REMARK    4  A    between atoms: C7_7  and  C9_9 
ROOT
HETATM    1  C9  UNL     1      -1.928  52.315 -11.020  1.00  0.00    -0.002 C 
HETATM    2  C10 UNL     1      -1.342  50.890 -11.257  1.00  0.00     0.007 C 
HETATM    3  C11 UNL     1       0.178  50.969 -11.027  1.00  0.00     0.015 C 
HETATM    4  C12 UNL     1       0.491  52.479 -10.989  1.00  0.00    -0.013 C 
HETATM    5  C13 UNL     1       0.622  52.929 -12.480  1.00  0.00     0.021 C 
HETATM    6  C14 UNL     1       1.770  52.929 -10.294  1.00  0.00    -0.070 C 
HETATM    7  C15 UNL     1       2.870  52.162 -10.233  1.00  0.00    -0.022 C 
HETATM    8  C16 UNL     1       4.172  52.571  -9.622  1.00  0.00     0.034 C 
HETATM    9  C17 UNL     1       4.286  54.020  -9.082  1.00  0.00     0.013 C 
HETATM   10  C18 UNL     1       4.519  54.116  -7.531  1.00  0.00     0.018 C 
HETATM   11  C19 UNL     1       5.809  53.360  -7.133  1.00  0.00     0.023 C 
HETATM   12  C20 UNL     1       3.353  53.579  -6.692  1.00  0.00     0.023 C 
HETATM   13  C21 UNL     1       4.747  55.588  -7.138  1.00  0.00     0.135 C 
HETATM   14  O1  UNL     1       5.175  55.909  -6.028  1.00  0.00    -0.297 OA
HETATM   15  C22 UNL     1       4.446  56.647  -8.171  1.00  0.00     0.080 C 
HETATM   16  C23 UNL     1       3.128  56.313  -8.846  1.00  0.00     0.017 C 
HETATM   17  C24 UNL     1       3.188  54.993  -9.669  1.00  0.00    -0.031 C 
HETATM   18  C25 UNL     1       3.618  55.359 -11.119  1.00  0.00     0.016 C 
HETATM   19  C26 UNL     1       1.764  54.320  -9.672  1.00  0.00     0.024 C 
HETATM   20  C27 UNL     1       0.631  55.221 -10.227  1.00  0.00     0.010 C 
HETATM   21  C28 UNL     1      -0.770  54.571 -10.295  1.00  0.00     0.011 C 
HETATM   22  C29 UNL     1      -0.775  53.027 -10.236  1.00  0.00    -0.029 C 
HETATM   23  C30 UNL     1      -0.850  52.582  -8.741  1.00  0.00     0.016 C 
ENDROOT
BRANCH   1  24
HETATM   24  C7  UNL     1      -3.369  52.265 -10.423  1.00  0.00    -0.014 C 
HETATM   25  C8  UNL     1      -4.150  53.554 -10.695  1.00  0.00     0.010 C 
BRANCH  24  26
HETATM   26  C6  UNL     1      -4.140  51.042 -10.998  1.00  0.00     0.008 C 
BRANCH  26  27
HETATM   27  C5  UNL     1      -4.788  50.099  -9.974  1.00  0.00     0.028 C 
BRANCH  27  28
HETATM   28  C4  UNL     1      -6.283  50.013 -10.106  1.00  0.00    -0.025 C 
HETATM   29  C2  UNL     1      -6.993  49.095 -10.792  1.00  0.00    -0.091 C 
HETATM   30  C1  UNL     1      -8.496  49.171 -10.849  1.00  0.00     0.042 C 
HETATM   31  C3  UNL     1      -6.403  47.929 -11.536  1.00  0.00     0.042 C 
ENDBRANCH  27  28
ENDBRANCH  26  27
ENDBRANCH  24  26
ENDBRANCH   1  24
TORSDOF 4
ENDMDL
