MODEL 1
REMARK minimizedAffinity -9.4967823
REMARK CNNscore 0.390038192
REMARK CNNaffinity 7.23976946
REMARK  11 active torsions:
REMARK  status: ('A' for Active; 'I' for Inactive)
REMARK    1  A    between atoms: C3_3  and  O1_4 
REMARK    2  A    between atoms: N1_14  and  O2_16 
REMARK    3  A    between atoms: O2_16  and  C13_17 
REMARK    4  A    between atoms: C13_17  and  C14_18 
REMARK       I    between atoms: C14_18  and  N2_20 
REMARK    5  A    between atoms: N2_20  and  C15_21 
REMARK    6  A    between atoms: C15_21  and  C16_22 
REMARK    7  A    between atoms: C15_21  and  C17_25 
REMARK    8  A    between atoms: C16_22  and  O5_24 
REMARK    9  A    between atoms: C17_25  and  O6_26 
REMARK   10  A    between atoms: C17_25  and  C18_27 
REMARK   11  A    between atoms: C22_31  and  N3_32 
ROOT
HETATM    1  C1  UNL     1      -0.707   5.808  11.025  1.00  0.00     0.015 C 
HETATM    2  C2  UNL     1      -0.586   6.522  11.984  1.00  0.00    -0.078 C 
HETATM    3  C3  UNL     1      -0.402   7.406  13.156  1.00  0.00     0.128 C 
HETATM    4  C4  UNL     1       0.262   6.623  14.298  1.00  0.00     0.052 C 
HETATM    5  C5  UNL     1      -0.897   5.872  14.941  1.00  0.00     0.010 C 
HETATM    6  C6  UNL     1      -2.054   6.881  14.922  1.00  0.00     0.002 C 
HETATM    7  C7  UNL     1      -3.482   6.289  14.896  1.00  0.00    -0.004 C 
HETATM    8  C8  UNL     1      -3.742   5.118  13.926  1.00  0.00     0.010 C 
HETATM    9  C9  UNL     1      -5.038   5.174  13.104  1.00  0.00     0.035 C 
HETATM   10  C10 UNL     1      -6.231   5.863  13.723  1.00  0.00    -0.069 C 
HETATM   11  C11 UNL     1      -7.457   5.649  13.214  1.00  0.00     0.030 C 
HETATM   12  C12 UNL     1      -8.657   6.371  13.713  1.00  0.00     0.032 C 
HETATM   13  N1  UNL     1      -9.823   5.974  13.284  1.00  0.00    -0.271 N 
ATOM     14  H1  UNL     1      -9.961   5.212  12.621  1.00  0.00     0.194 HD
HETATM   15  C24 UNL     1      -8.469   7.509  14.704  1.00  0.00     0.060 C 
HETATM   16  C25 UNL     1      -7.025   8.000  14.768  1.00  0.00     0.020 C 
HETATM   17  C26 UNL     1      -5.986   6.852  14.850  1.00  0.00    -0.016 C 
HETATM   18  C27 UNL     1      -6.184   6.108  16.198  1.00  0.00     0.020 C 
HETATM   19  C28 UNL     1      -4.526   7.421  14.756  1.00  0.00     0.002 C 
HETATM   20  C29 UNL     1      -4.266   8.302  13.502  1.00  0.00     0.007 C 
HETATM   21  C30 UNL     1      -2.907   8.089  12.824  1.00  0.00     0.014 C 
HETATM   22  C31 UNL     1      -1.733   7.924  13.807  1.00  0.00     0.003 C 
HETATM   23  C32 UNL     1      -1.494   9.306  14.481  1.00  0.00     0.020 C 
ENDROOT
BRANCH   3  24
HETATM   24  O1  UNL     1       0.443   8.477  12.758  1.00  0.00    -0.377 OA
HETATM   25  H2  UNL     1       1.227   8.081  12.342  1.00  0.00     0.211 HD
ENDBRANCH   3  24
BRANCH  13  26
HETATM   26  O2  UNL     1     -10.862   6.726  13.850  1.00  0.00    -0.271 OA
BRANCH  26  27
HETATM   27  C13 UNL     1     -11.386   7.602  12.857  1.00  0.00     0.303 C 
BRANCH  27  28
HETATM   28  C14 UNL     1     -12.863   7.904  13.100  1.00  0.00     0.244 C 
HETATM   29  O3  UNL     1     -13.235   8.827  13.821  1.00  0.00    -0.271 OA
HETATM   30  N2  UNL     1     -13.746   7.064  12.459  1.00  0.00    -0.342 N 
HETATM   31  H16 UNL     1     -13.361   6.183  12.127  1.00  0.00     0.163 HD
BRANCH  30  32
HETATM   32  C15 UNL     1     -15.179   7.065  12.790  1.00  0.00     0.216 C 
BRANCH  32  33
HETATM   33  C16 UNL     1     -15.856   8.326  12.233  1.00  0.00     0.166 C 
HETATM   34  O4  UNL     1     -16.294   9.258  12.892  1.00  0.00    -0.648 OA
BRANCH  33  35
HETATM   35  O5  UNL     1     -15.944   8.374  10.885  1.00  0.00    -0.775 OA
HETATM   36  H18 UNL     1     -16.437   9.202  10.702  1.00  0.00     0.167 HD
ENDBRANCH  33  35
ENDBRANCH  32  33
BRANCH  32  37
HETATM   37  C17 UNL     1     -15.363   6.987  14.326  1.00  0.00     0.184 C 
BRANCH  37  38
HETATM   38  O6  UNL     1     -16.137   8.122  14.758  1.00  0.00    -0.388 OA
HETATM   39  H20 UNL     1     -17.054   7.818  14.892  1.00  0.00     0.210 HD
ENDBRANCH  37  38
BRANCH  37  40
HETATM   40  C18 UNL     1     -15.913   5.713  14.957  1.00  0.00    -0.025 A 
HETATM   41  C19 UNL     1     -16.865   5.832  15.991  1.00  0.00     0.010 A 
HETATM   42  C20 UNL     1     -17.400   4.709  16.631  1.00  0.00     0.003 A 
HETATM   43  C21 UNL     1     -16.982   3.434  16.262  1.00  0.00     0.036 A 
HETATM   44  C22 UNL     1     -16.019   3.296  15.256  1.00  0.00     0.103 A 
HETATM   45  C23 UNL     1     -15.480   4.423  14.611  1.00  0.00     0.045 A 
BRANCH  44  46
HETATM   46  N3  UNL     1     -15.559   1.953  14.879  1.00  0.00    -0.116 N 
HETATM   47  O7  UNL     1     -16.358   1.216  14.285  1.00  0.00    -0.532 OA
HETATM   48  O8  UNL     1     -14.395   1.641  15.169  1.00  0.00    -0.532 OA
ENDBRANCH  44  46
ENDBRANCH  37  40
ENDBRANCH  32  37
ENDBRANCH  30  32
ENDBRANCH  27  28
ENDBRANCH  26  27
ENDBRANCH  13  26
TORSDOF 11
ENDMDL
