MODEL 1
REMARK minimizedAffinity -6.60628605
REMARK CNNscore 0.2976771
REMARK CNNaffinity 5.46916389
REMARK  8 active torsions:
REMARK  status: ('A' for Active; 'I' for Inactive)
REMARK    1  A    between atoms: C12_14  and  C13_15 
REMARK    2  A    between atoms: C13_15  and  C15_17 
REMARK    3  A    between atoms: C15_17  and  C16_18 
REMARK    4  A    between atoms: C16_18  and  C17_19 
REMARK    5  A    between atoms: C26_28  and  C27_29 
REMARK    6  A    between atoms: C27_29  and  C28_30 
REMARK    7  A    between atoms: C28_30  and  C29_31 
REMARK    8  A    between atoms: C29_31  and  O4_33 
ROOT
HETATM    1  C1  UNL     1       5.108  16.358  23.888  1.00  0.00     0.025 C 
HETATM    2  C2  UNL     1       4.261  15.440  23.407  1.00  0.00     0.015 C 
HETATM    3  C3  UNL     1       2.833  15.775  23.210  1.00  0.00     0.289 C 
HETATM    4  O1  UNL     1       2.349  16.890  23.159  1.00  0.00    -0.260 OA
HETATM    5  O2  UNL     1       2.148  14.609  23.107  1.00  0.00    -0.311 OA
HETATM    6  C4  UNL     1       3.027  13.508  23.379  1.00  0.00     0.142 C 
HETATM    7  C5  UNL     1       2.598  12.301  22.564  1.00  0.00     0.039 C 
HETATM    8  C6  UNL     1       2.669  12.595  21.059  1.00  0.00     0.006 C 
HETATM    9  C7  UNL     1       4.130  12.913  20.654  1.00  0.00    -0.027 A 
HETATM   10  C8  UNL     1       4.770  11.964  19.624  1.00  0.00     0.011 C 
HETATM   11  C9  UNL     1       3.880  11.450  18.477  1.00  0.00     0.011 C 
HETATM   12  C10 UNL     1       2.386  11.725  18.668  1.00  0.00    -0.032 C 
HETATM   13  C11 UNL     1       2.096  13.172  18.188  1.00  0.00     0.016 C 
HETATM   14  C12 UNL     1       1.433  10.716  17.955  1.00  0.00    -0.002 C 
HETATM   15  C21 UNL     1       0.133  10.783  18.791  1.00  0.00     0.006 C 
HETATM   16  C22 UNL     1       0.490  11.501  20.112  1.00  0.00     0.011 C 
HETATM   17  C23 UNL     1       2.032  11.477  20.179  1.00  0.00    -0.032 C 
HETATM   18  C24 UNL     1       2.430  10.066  20.728  1.00  0.00     0.016 C 
HETATM   19  C25 UNL     1       4.534  14.368  20.517  1.00  0.00     0.022 A 
HETATM   20  C26 UNL     1       5.036  13.615  21.727  1.00  0.00    -0.021 A 
HETATM   21  C30 UNL     1       4.453  13.984  23.116  1.00  0.00     0.063 C 
ENDROOT
BRANCH  14  22
HETATM   22  C13 UNL     1       1.301  10.646  16.406  1.00  0.00    -0.014 C 
HETATM   23  C14 UNL     1       2.404   9.730  15.844  1.00  0.00     0.010 C 
BRANCH  22  24
HETATM   24  C15 UNL     1      -0.050  10.360  15.705  1.00  0.00     0.008 C 
BRANCH  24  25
HETATM   25  C16 UNL     1      -0.372   8.970  15.139  1.00  0.00     0.028 C 
BRANCH  25  26
HETATM   26  C17 UNL     1      -1.784   8.813  14.646  1.00  0.00    -0.025 C 
HETATM   27  C18 UNL     1      -2.224   8.816  13.372  1.00  0.00    -0.091 C 
HETATM   28  C19 UNL     1      -3.693   8.665  13.072  1.00  0.00     0.042 C 
HETATM   29  C20 UNL     1      -1.357   8.945  12.151  1.00  0.00     0.042 C 
ENDBRANCH  25  26
ENDBRANCH  24  25
ENDBRANCH  22  24
ENDBRANCH  14  22
BRANCH  20  30
HETATM   30  C27 UNL     1       6.505  13.153  21.767  1.00  0.00     0.021 C 
BRANCH  30  31
HETATM   31  C28 UNL     1       6.897  12.196  22.885  1.00  0.00     0.111 C 
BRANCH  31  32
HETATM   32  C29 UNL     1       8.348  12.293  23.270  1.00  0.00     0.139 C 
HETATM   33  O3  UNL     1       8.997  13.302  23.482  1.00  0.00    -0.650 OA
BRANCH  32  34
HETATM   34  O4  UNL     1       8.939  11.082  23.301  1.00  0.00    -0.776 OA
HETATM   35  H43 UNL     1       9.870  11.280  23.539  1.00  0.00     0.167 HD
ENDBRANCH  32  34
ENDBRANCH  31  32
ENDBRANCH  30  31
ENDBRANCH  20  30
TORSDOF 8
ENDMDL
