MODEL 1
REMARK minimizedAffinity -8.70583725
REMARK CNNscore 0.678414404
REMARK CNNaffinity 7.24779272
REMARK  12 active torsions:
REMARK  status: ('A' for Active; 'I' for Inactive)
REMARK    1  A    between atoms: C19_20  and  O2_21 
REMARK    2  A    between atoms: C19_20  and  C20_22 
REMARK    3  A    between atoms: C20_22  and  C21_24 
REMARK    4  A    between atoms: C21_24  and  O4_25 
REMARK    5  A    between atoms: O4_25  and  C22_26 
REMARK    6  A    between atoms: C22_26  and  C23_28 
REMARK    7  A    between atoms: C23_28  and  C24_29 
REMARK    8  A    between atoms: C24_29  and  C25_30 
REMARK       I    between atoms: C25_30  and  N1_32 
REMARK    9  A    between atoms: N1_32  and  C26_33 
REMARK   10  A    between atoms: C26_33  and  C27_34 
REMARK   11  A    between atoms: C30_37  and  C31_38 
REMARK   12  A    between atoms: C31_38  and  O8_40 
ROOT
HETATM    1  C20 UNL     1      -1.462   8.210  15.870  1.00  0.00     0.185 C 
HETATM    2  O3  UNL     1      -0.236   8.140  16.018  1.00  0.00    -0.292 OA
ENDROOT
BRANCH   1   3
HETATM    3  C19 UNL     1      -2.188   7.506  14.675  1.00  0.00     0.128 C 
HETATM    4  C14 UNL     1      -3.625   8.046  14.351  1.00  0.00    -0.002 C 
HETATM    5  C13 UNL     1      -4.147   7.542  12.972  1.00  0.00     0.013 C 
HETATM    6  C15 UNL     1      -3.716   9.582  14.341  1.00  0.00     0.019 C 
HETATM    7  C16 UNL     1      -4.444   7.455  15.522  1.00  0.00     0.002 C 
HETATM    8  C12 UNL     1      -5.363   6.620  13.023  1.00  0.00     0.007 C 
HETATM    9  C11 UNL     1      -6.498   7.148  13.914  1.00  0.00     0.002 C 
HETATM   10  C2  UNL     1      -7.791   6.250  13.920  1.00  0.00    -0.016 C 
HETATM   11  C10 UNL     1      -5.977   7.523  15.343  1.00  0.00    -0.004 C 
HETATM   12  C1  UNL     1      -9.008   7.113  14.366  1.00  0.00     0.020 C 
HETATM   13  C3  UNL     1      -8.206   5.730  12.505  1.00  0.00     0.022 C 
HETATM   14  C7  UNL     1      -7.559   5.102  14.891  1.00  0.00    -0.068 C 
HETATM   15  C4  UNL     1      -7.590   4.411  12.060  1.00  0.00     0.084 C 
HETATM   16  C5  UNL     1      -7.702   3.368  13.136  1.00  0.00     0.149 C 
HETATM   17  O1  UNL     1      -7.821   2.171  12.884  1.00  0.00    -0.293 OA
HETATM   18  C6  UNL     1      -7.555   3.804  14.539  1.00  0.00     0.053 C 
HETATM   19  C8  UNL     1      -7.253   5.460  16.323  1.00  0.00     0.035 C 
HETATM   20  C9  UNL     1      -6.701   6.866  16.539  1.00  0.00     0.010 C 
HETATM   21  C17 UNL     1      -3.845   6.058  15.771  1.00  0.00     0.009 C 
HETATM   22  C18 UNL     1      -2.486   6.042  15.065  1.00  0.00     0.047 C 
BRANCH   3  23
HETATM   23  O2  UNL     1      -1.346   7.467  13.528  1.00  0.00    -0.381 OA
HETATM   24  H27 UNL     1      -1.136   8.385  13.284  1.00  0.00     0.211 HD
ENDBRANCH   3  23
ENDBRANCH   1   3
BRANCH   1  25
HETATM   25  C21 UNL     1      -2.293   8.939  16.932  1.00  0.00     0.260 C 
BRANCH  25  26
HETATM   26  O4  UNL     1      -1.600   9.969  17.637  1.00  0.00    -0.314 OA
BRANCH  26  27
HETATM   27  C22 UNL     1      -2.058  11.235  17.430  1.00  0.00     0.259 C 
HETATM   28  O5  UNL     1      -1.454  12.102  16.817  1.00  0.00    -0.265 OA
BRANCH  27  29
HETATM   29  C23 UNL     1      -3.347  11.484  18.182  1.00  0.00     0.120 C 
BRANCH  29  30
HETATM   30  C24 UNL     1      -4.323  12.414  17.468  1.00  0.00     0.112 C 
BRANCH  30  31
HETATM   31  C25 UNL     1      -4.838  13.507  18.384  1.00  0.00     0.218 C 
HETATM   32  O6  UNL     1      -5.116  14.634  17.988  1.00  0.00    -0.274 OA
HETATM   33  N1  UNL     1      -4.972  13.099  19.690  1.00  0.00    -0.357 N 
HETATM   34  H34 UNL     1      -4.596  12.203  19.970  1.00  0.00     0.162 HD
BRANCH  33  35
HETATM   35  C26 UNL     1      -5.344  14.022  20.740  1.00  0.00     0.161 C 
BRANCH  35  36
HETATM   36  C27 UNL     1      -6.609  13.569  21.425  1.00  0.00    -0.040 A 
HETATM   37  C28 UNL     1      -7.775  13.316  20.688  1.00  0.00     0.010 A 
HETATM   38  C29 UNL     1      -8.940  12.886  21.328  1.00  0.00     0.019 A 
HETATM   39  C30 UNL     1      -8.953  12.694  22.714  1.00  0.00     0.037 A 
HETATM   40  C32 UNL     1      -7.791  12.935  23.455  1.00  0.00     0.019 A 
HETATM   41  C33 UNL     1      -6.627  13.369  22.814  1.00  0.00     0.010 A 
BRANCH  39  42
HETATM   42  C31 UNL     1     -10.165  12.237  23.436  1.00  0.00     0.176 C 
HETATM   43  O7  UNL     1     -11.299  12.233  22.994  1.00  0.00    -0.646 OA
BRANCH  42  44
HETATM   44  O8  UNL     1      -9.899  11.803  24.681  1.00  0.00    -0.773 OA
HETATM   45  H39 UNL     1     -10.778  11.528  25.022  1.00  0.00     0.167 HD
ENDBRANCH  42  44
ENDBRANCH  39  42
ENDBRANCH  35  36
ENDBRANCH  33  35
ENDBRANCH  30  31
ENDBRANCH  29  30
ENDBRANCH  27  29
ENDBRANCH  26  27
ENDBRANCH  25  26
ENDBRANCH   1  25
TORSDOF 12
ENDMDL
