MODEL 1
REMARK minimizedAffinity -6.87476349
REMARK CNNscore 0.473268896
REMARK CNNaffinity 6.52988625
REMARK  12 active torsions:
REMARK  status: ('A' for Active; 'I' for Inactive)
REMARK    1  A    between atoms: O1_2  and  C2_3 
REMARK    2  A    between atoms: C3_6  and  C4_7 
REMARK    3  A    between atoms: C4_7  and  C5_8 
REMARK    4  A    between atoms: C6_9  and  C8_11 
REMARK    5  A    between atoms: C8_11  and  C9_12 
REMARK    6  A    between atoms: C10_13  and  C11_14 
REMARK    7  A    between atoms: C13_16  and  C14_17 
REMARK    8  A    between atoms: C14_17  and  C16_19 
REMARK    9  A    between atoms: C16_19  and  O2_20 
REMARK   10  A    between atoms: C16_19  and  C18_22 
REMARK   11  A    between atoms: C24_29  and  O4_30 
REMARK   12  A    between atoms: C25_31  and  O5_32 
ROOT
HETATM    1  C5  UNL     1      -4.686   7.792  13.844  1.00  0.00    -0.018 C 
HETATM    2  C6  UNL     1      -3.414   8.194  14.051  1.00  0.00    -0.084 C 
HETATM    3  C7  UNL     1      -2.538   7.722  15.182  1.00  0.00     0.043 C 
ENDROOT
BRANCH   2   4
HETATM    4  C8  UNL     1      -2.780   9.235  13.148  1.00  0.00     0.060 C 
BRANCH   4   5
HETATM    5  C9  UNL     1      -1.387   8.844  12.739  1.00  0.00    -0.022 C 
HETATM    6  C10 UNL     1      -0.964   8.807  11.464  1.00  0.00     0.003 C 
BRANCH   6   7
HETATM    7  C11 UNL     1       0.371   8.425  11.002  1.00  0.00    -0.066 C 
HETATM    8  C12 UNL     1       1.557   8.979  11.750  1.00  0.00     0.048 C 
HETATM    9  C13 UNL     1       0.469   7.620   9.921  1.00  0.00    -0.013 C 
BRANCH   9  10
HETATM   10  C14 UNL     1       1.731   7.060   9.275  1.00  0.00     0.037 C 
HETATM   11  C15 UNL     1       2.894   7.996   9.627  1.00  0.00     0.017 C 
BRANCH  10  12
HETATM   12  C16 UNL     1       1.977   5.591   9.733  1.00  0.00     0.165 C 
BRANCH  12  13
HETATM   13  O2  UNL     1       3.403   5.407   9.826  1.00  0.00    -0.387 OA
HETATM   14  C17 UNL     1       3.847   4.176   9.273  1.00  0.00     0.202 C 
ENDBRANCH  12  13
BRANCH  12  15
HETATM   15  C18 UNL     1       1.338   5.294  11.084  1.00  0.00     0.110 A 
HETATM   16  C19 UNL     1       2.011   5.848  12.306  1.00  0.00     0.051 C 
HETATM   17  O3  UNL     1       0.898   3.928  11.239  1.00  0.00    -0.367 OA
HETATM   18  C20 UNL     1      -0.137   4.904  11.119  1.00  0.00     0.155 A 
HETATM   19  C21 UNL     1      -0.995   5.054  12.324  1.00  0.00     0.042 C 
ENDBRANCH  12  15
ENDBRANCH  10  12
ENDBRANCH   9  10
ENDBRANCH   6   7
ENDBRANCH   4   5
ENDBRANCH   2   4
BRANCH   1  20
HETATM   20  C4  UNL     1      -5.483   6.779  14.624  1.00  0.00     0.085 C 
BRANCH  20  21
HETATM   21  C3  UNL     1      -5.884   5.576  13.796  1.00  0.00     0.023 A 
HETATM   22  N1  UNL     1      -4.857   4.956  13.152  1.00  0.00    -0.337 N 
HETATM   23  C2  UNL     1      -5.110   3.838  12.429  1.00  0.00     0.179 A 
ATOM     24  H1  UNL     1      -3.909   5.328  13.213  1.00  0.00     0.168 HD
HETATM   25  C25 UNL     1      -6.376   3.277  12.317  1.00  0.00     0.153 A 
HETATM   26  C24 UNL     1      -7.412   3.950  12.975  1.00  0.00     0.111 A 
HETATM   27  C22 UNL     1      -7.202   5.114  13.719  1.00  0.00    -0.003 A 
HETATM   28  C23 UNL     1      -8.339   5.775  14.443  1.00  0.00     0.053 C 
BRANCH  23  29
HETATM   29  O1  UNL     1      -4.051   3.253  11.767  1.00  0.00    -0.339 OA
HETATM   30  C1  UNL     1      -3.862   3.739  10.440  1.00  0.00     0.211 C 
ENDBRANCH  23  29
BRANCH  25  31
HETATM   31  O5  UNL     1      -6.784   2.157  11.641  1.00  0.00    -0.349 OA
HETATM   32  C26 UNL     1      -5.859   1.083  11.533  1.00  0.00     0.210 C 
ENDBRANCH  25  31
BRANCH  26  33
HETATM   33  O4  UNL     1      -8.685   3.433  12.896  1.00  0.00    -0.357 OA
HETATM   34  H36 UNL     1      -8.604   2.635  12.336  1.00  0.00     0.217 HD
ENDBRANCH  26  33
ENDBRANCH  20  21
ENDBRANCH   1  20
TORSDOF 12
ENDMDL
