MODEL 1
REMARK minimizedAffinity -6.15452242
REMARK CNNscore 0.235531732
REMARK CNNaffinity 6.58439302
REMARK  10 active torsions:
REMARK  status: ('A' for Active; 'I' for Inactive)
REMARK    1  A    between atoms: C16_18  and  C17_19 
REMARK    2  A    between atoms: C26_30  and  C27_31 
REMARK    3  A    between atoms: C27_31  and  O1_33 
REMARK    4  A    between atoms: C30_35  and  C31_36 
REMARK    5  A    between atoms: C31_36  and  O3_38 
REMARK    6  A    between atoms: C37_44  and  O4_45 
REMARK    7  A    between atoms: C41_49  and  C42_50 
REMARK    8  A    between atoms: C41_49  and  C43_52 
REMARK    9  A    between atoms: C42_50  and  O5_51 
REMARK   10  A    between atoms: C43_52  and  O7_54 
ROOT
HETATM    1  C17 UNL     1     -13.460  15.524  -1.993  1.00  0.00     0.013 A 
HETATM    2  C18 UNL     1     -12.841  15.894  -0.775  1.00  0.00     0.053 A 
HETATM    3  N3  UNL     1     -11.748  15.343  -0.147  1.00  0.00    -0.357 N 
HETATM    4  C19 UNL     1     -11.464  16.002   1.026  1.00  0.00     0.038 A 
HETATM    5  C20 UNL     1     -12.403  17.010   1.166  1.00  0.00    -0.020 A 
HETATM    6  C21 UNL     1     -12.458  17.998   2.285  1.00  0.00     0.072 C 
HETATM    7  C22 UNL     1     -12.456  17.358   3.683  1.00  0.00     0.277 C 
HETATM    8  N4  UNL     1     -11.386  16.414   4.035  1.00  0.00     0.096 N 
HETATM    9  C23 UNL     1     -11.867  15.035   4.215  1.00  0.00     0.277 C 
HETATM   10  C24 UNL     1     -10.736  14.042   3.886  1.00  0.00     0.016 C 
HETATM   11  C25 UNL     1      -9.467  14.475   4.637  1.00  0.00     0.015 C 
HETATM   12  C26 UNL     1      -9.010  15.851   4.103  1.00  0.00     0.049 C 
HETATM   13  C29 UNL     1     -10.151  16.457   3.212  1.00  0.00     0.253 C 
HETATM   14  C30 UNL     1     -10.288  15.579   1.904  1.00  0.00     0.122 C 
HETATM   15  C33 UNL     1     -10.465  14.096   2.370  1.00  0.00     0.035 C 
HETATM   16  C34 UNL     1     -13.277  16.941   0.033  1.00  0.00    -0.000 A 
HETATM   17  C35 UNL     1     -14.399  17.679  -0.386  1.00  0.00     0.017 A 
HETATM   18  C36 UNL     1     -15.038  17.350  -1.586  1.00  0.00     0.038 A 
HETATM   19  C37 UNL     1     -14.580  16.300  -2.385  1.00  0.00     0.077 A 
HETATM   20  H19 UNL     1     -11.233  14.546  -0.501  1.00  0.00     0.166 HD
ENDROOT
BRANCH   1  21
HETATM   21  C16 UNL     1     -12.931  14.365  -2.879  1.00  0.00     0.075 C 
HETATM   22  C9  UNL     1     -12.704  14.892  -4.334  1.00  0.00     0.025 A 
HETATM   23  C8  UNL     1     -12.945  14.539  -5.680  1.00  0.00    -0.020 A 
HETATM   24  N2  UNL     1     -11.980  16.081  -4.400  1.00  0.00    -0.358 N 
HETATM   25  C7  UNL     1     -13.601  13.318  -6.329  1.00  0.00     0.079 C 
HETATM   26  C15 UNL     1     -12.412  15.593  -6.508  1.00  0.00    -0.001 A 
HETATM   27  C6  UNL     1     -14.052  12.310  -5.290  1.00  0.00     0.248 C 
HETATM   28  N1  UNL     1     -15.132  11.316  -5.491  1.00  0.00     0.094 N 
HETATM   29  C41 UNL     1     -12.920  11.604  -4.466  1.00  0.00     0.107 C 
HETATM   30  C4  UNL     1     -15.779  11.066  -4.168  1.00  0.00     0.306 C 
HETATM   31  C5  UNL     1     -16.137  11.711  -6.473  1.00  0.00     0.310 C 
HETATM   32  C3  UNL     1     -14.792  10.846  -3.002  1.00  0.00    -0.051 C 
HETATM   33  C2  UNL     1     -15.068   9.924  -2.059  1.00  0.00    -0.026 C 
HETATM   34  C40 UNL     1     -13.493  11.694  -3.031  1.00  0.00     0.039 C 
HETATM   35  C1  UNL     1     -14.255   9.570  -0.855  1.00  0.00     0.036 C 
HETATM   36  C39 UNL     1     -13.837  13.146  -2.541  1.00  0.00     0.026 C 
HETATM   37  C10 UNL     1     -11.826  16.533  -5.678  1.00  0.00     0.043 A 
HETATM   38  C14 UNL     1     -12.371  15.816  -7.902  1.00  0.00     0.014 A 
HETATM   39  C11 UNL     1     -11.204  17.694  -6.154  1.00  0.00     0.030 A 
HETATM   40  C12 UNL     1     -11.182  17.896  -7.536  1.00  0.00     0.002 A 
HETATM   41  C13 UNL     1     -11.756  16.970  -8.402  1.00  0.00     0.001 A 
HETATM   42  H13 UNL     1     -11.642  16.574  -3.583  1.00  0.00     0.166 HD
BRANCH  29  43
HETATM   43  C42 UNL     1     -12.660  10.115  -4.904  1.00  0.00     0.186 C 
BRANCH  43  44
HETATM   44  O5  UNL     1     -12.232   9.273  -3.822  1.00  0.00    -0.399 OA
HETATM   45  H51 UNL     1     -11.452   9.668  -3.396  1.00  0.00     0.209 HD
ENDBRANCH  43  44
ENDBRANCH  29  43
BRANCH  29  46
HETATM   46  C43 UNL     1     -11.486  12.151  -4.521  1.00  0.00     0.272 C 
HETATM   47  O6  UNL     1     -10.890  12.609  -3.550  1.00  0.00    -0.264 OA
BRANCH  46  48
HETATM   48  O7  UNL     1     -10.880  11.905  -5.715  1.00  0.00    -0.326 OA
HETATM   49  C44 UNL     1      -9.677  12.644  -5.939  1.00  0.00     0.213 C 
ENDBRANCH  46  48
ENDBRANCH  29  46
ENDBRANCH   1  21
BRANCH  19  50
HETATM   50  O4  UNL     1     -15.168  15.933  -3.570  1.00  0.00    -0.355 OA
HETATM   51  C38 UNL     1     -16.545  15.580  -3.543  1.00  0.00     0.210 C 
ENDBRANCH  19  50
BRANCH  14  52
HETATM   52  C31 UNL     1      -9.036  15.704   1.005  1.00  0.00     0.275 C 
HETATM   53  O2  UNL     1      -8.136  14.869   0.966  1.00  0.00    -0.264 OA
BRANCH  52  54
HETATM   54  O3  UNL     1      -9.093  16.799   0.196  1.00  0.00    -0.326 OA
HETATM   55  C32 UNL     1      -8.241  17.874   0.594  1.00  0.00     0.213 C 
ENDBRANCH  52  54
ENDBRANCH  14  52
BRANCH  12  56
HETATM   56  C27 UNL     1      -8.451  16.766   5.214  1.00  0.00     0.120 C 
HETATM   57  C28 UNL     1      -9.451  17.598   6.006  1.00  0.00     0.040 C 
BRANCH  56  58
HETATM   58  O1  UNL     1      -7.479  17.648   4.643  1.00  0.00    -0.396 OA
HETATM   59  H34 UNL     1      -7.957  18.367   4.197  1.00  0.00     0.210 HD
ENDBRANCH  56  58
ENDBRANCH  12  56
TORSDOF 10
ENDMDL
