MODEL 1
REMARK minimizedAffinity -7.54222059
REMARK CNNscore 0.789482236
REMARK CNNaffinity 7.50687551
REMARK  9 active torsions:
REMARK  status: ('A' for Active; 'I' for Inactive)
REMARK    1  A    between atoms: C2_2  and  O1_3 
REMARK    2  A    between atoms: O1_3  and  C3_4 
REMARK    3  A    between atoms: C14_15  and  O2_16 
REMARK    4  A    between atoms: O2_16  and  C15_17 
REMARK    5  A    between atoms: C21_24  and  O4_25 
REMARK    6  A    between atoms: O4_25  and  C22_26 
REMARK    7  A    between atoms: C24_29  and  O6_30 
REMARK    8  A    between atoms: C25_31  and  O7_32 
REMARK    9  A    between atoms: C26_33  and  O8_34 
ROOT
HETATM    1  C3  UNL     1       6.024  56.197  -6.070  1.00  0.00     0.260 C 
HETATM    2  C4  UNL     1       4.967  57.313  -6.017  1.00  0.00     0.065 C 
HETATM    3  C5  UNL     1       3.588  56.767  -6.408  1.00  0.00    -0.007 C 
HETATM    4  C6  UNL     1       2.507  57.825  -6.215  1.00  0.00     0.010 C 
HETATM    5  C7  UNL     1       3.676  56.278  -7.869  1.00  0.00     0.027 C 
HETATM    6  C8  UNL     1       5.059  55.629  -8.168  1.00  0.00     0.130 C 
HETATM    7  C9  UNL     1       4.799  54.441  -9.116  1.00  0.00     0.042 C 
HETATM    8  C10 UNL     1       3.383  54.684  -9.675  1.00  0.00    -0.029 C 
HETATM    9  C11 UNL     1       3.520  55.727 -10.829  1.00  0.00     0.016 C 
HETATM   10  C12 UNL     1       2.671  53.405 -10.183  1.00  0.00     0.006 C 
HETATM   11  C13 UNL     1       3.198  52.889 -11.526  1.00  0.00     0.039 C 
HETATM   12  C14 UNL     1       2.534  51.556 -11.884  1.00  0.00     0.138 C 
HETATM   13  C17 UNL     1       1.035  51.778 -12.201  1.00  0.00     0.035 C 
HETATM   14  C18 UNL     1       0.199  50.470 -12.524  1.00  0.00    -0.015 C 
HETATM   15  C19 UNL     1       0.369  50.115 -14.027  1.00  0.00     0.018 C 
HETATM   16  C20 UNL     1       0.669  49.239 -11.718  1.00  0.00     0.018 C 
HETATM   17  C21 UNL     1      -1.341  50.706 -12.271  1.00  0.00     0.133 C 
HETATM   18  C27 UNL     1      -1.728  52.148 -12.605  1.00  0.00     0.034 C 
HETATM   19  C28 UNL     1      -1.030  53.165 -11.702  1.00  0.00     0.013 C 
HETATM   20  C29 UNL     1       0.314  52.668 -11.180  1.00  0.00    -0.025 A 
HETATM   21  C30 UNL     1       0.373  52.338  -9.710  1.00  0.00     0.021 A 
HETATM   22  C31 UNL     1       1.133  53.555 -10.203  1.00  0.00    -0.027 A 
HETATM   23  C32 UNL     1       0.552  54.932  -9.867  1.00  0.00     0.011 C 
HETATM   24  C33 UNL     1       1.287  55.782  -8.816  1.00  0.00     0.011 C 
HETATM   25  C34 UNL     1       2.651  55.227  -8.394  1.00  0.00    -0.030 C 
HETATM   26  C35 UNL     1       2.403  54.153  -7.291  1.00  0.00     0.016 C 
HETATM   27  O9  UNL     1       5.669  55.151  -6.975  1.00  0.00    -0.356 OA
ENDROOT
BRANCH  17  28
HETATM   28  O4  UNL     1      -1.650  50.402 -10.908  1.00  0.00    -0.353 OA
BRANCH  28  29
HETATM   29  C22 UNL     1      -2.763  49.520 -10.725  1.00  0.00     0.291 C 
HETATM   30  O5  UNL     1      -3.519  49.416 -11.937  1.00  0.00    -0.356 OA
HETATM   31  C23 UNL     1      -4.514  48.382 -11.859  1.00  0.00     0.205 C 
HETATM   32  C24 UNL     1      -5.199  48.304 -10.483  1.00  0.00     0.173 C 
HETATM   33  C25 UNL     1      -5.121  49.665  -9.768  1.00  0.00     0.182 C 
HETATM   34  C26 UNL     1      -3.664  50.153  -9.636  1.00  0.00     0.204 C 
BRANCH  32  35
HETATM   35  O6  UNL     1      -4.552  47.281  -9.719  1.00  0.00    -0.391 OA
HETATM   36  H39 UNL     1      -4.819  47.380  -8.786  1.00  0.00     0.210 HD
ENDBRANCH  32  35
BRANCH  33  37
HETATM   37  O7  UNL     1      -5.911  50.637 -10.467  1.00  0.00    -0.390 OA
HETATM   38  H41 UNL     1      -5.493  50.793 -11.339  1.00  0.00     0.210 HD
ENDBRANCH  33  37
BRANCH  34  39
HETATM   39  O8  UNL     1      -3.160  49.847  -8.325  1.00  0.00    -0.388 OA
HETATM   40  H43 UNL     1      -3.348  50.632  -7.779  1.00  0.00     0.210 HD
ENDBRANCH  34  39
ENDBRANCH  28  29
ENDBRANCH  17  28
BRANCH  12  41
HETATM   41  O2  UNL     1       3.185  51.036 -13.063  1.00  0.00    -0.316 OA
BRANCH  41  42
HETATM   42  C15 UNL     1       4.101  50.047 -12.856  1.00  0.00     0.255 C 
HETATM   43  C16 UNL     1       4.067  49.617 -11.421  1.00  0.00     0.126 C 
HETATM   44  O3  UNL     1       4.828  49.552 -13.706  1.00  0.00    -0.266 OA
ENDBRANCH  41  42
ENDBRANCH  12  41
BRANCH   1  45
HETATM   45  O1  UNL     1       7.284  56.783  -6.403  1.00  0.00    -0.362 OA
BRANCH  45  46
HETATM   46  C2  UNL     1       8.195  56.852  -5.312  1.00  0.00     0.166 C 
HETATM   47  C1  UNL     1       8.818  55.507  -4.972  1.00  0.00     0.033 C 
ENDBRANCH  45  46
ENDBRANCH   1  45
TORSDOF 9
ENDMDL
