MODEL 1
REMARK minimizedAffinity -7.02300024
REMARK CNNscore 0.577528834
REMARK CNNaffinity 5.93147135
REMARK  4 active torsions:
REMARK  status: ('A' for Active; 'I' for Inactive)
REMARK    1  A    between atoms: C4_4  and  C5_5 
REMARK    2  A    between atoms: C22_22  and  C23_23 
REMARK    3  A    between atoms: C23_23  and  O2_25 
REMARK    4  A    between atoms: C28_30  and  O3_31 
ROOT
HETATM    1  C5  UNL     1     -17.803  45.202 -22.863  1.00  0.00     0.032 C 
HETATM    2  C6  UNL     1     -16.681  45.642 -23.852  1.00  0.00     0.014 C 
HETATM    3  C7  UNL     1     -15.744  46.762 -23.360  1.00  0.00     0.007 C 
HETATM    4  C8  UNL     1     -14.677  47.134 -24.391  1.00  0.00     0.007 C 
HETATM    5  C9  UNL     1     -13.929  45.913 -24.954  1.00  0.00     0.007 C 
HETATM    6  C10 UNL     1     -12.719  46.278 -25.875  1.00  0.00    -0.018 C 
HETATM    7  C11 UNL     1     -13.104  47.127 -27.109  1.00  0.00     0.020 C 
HETATM    8  C12 UNL     1     -11.545  46.995 -25.235  1.00  0.00    -0.020 C 
HETATM    9  C13 UNL     1     -10.369  46.493 -25.657  1.00  0.00    -0.021 C 
HETATM   10  C14 UNL     1     -10.539  45.272 -26.542  1.00  0.00    -0.026 C 
HETATM   11  C15 UNL     1     -10.297  45.566 -28.023  1.00  0.00     0.019 C 
HETATM   12  C16 UNL     1      -9.584  44.151 -26.099  1.00  0.00     0.019 C 
HETATM   13  C17 UNL     1     -11.996  44.934 -26.163  1.00  0.00     0.009 C 
HETATM   14  C18 UNL     1     -12.841  43.986 -26.995  1.00  0.00     0.007 C 
HETATM   15  C19 UNL     1     -14.097  43.614 -26.178  1.00  0.00     0.011 C 
HETATM   16  C20 UNL     1     -14.913  44.823 -25.578  1.00  0.00    -0.021 C 
HETATM   17  C21 UNL     1     -15.733  45.398 -26.771  1.00  0.00     0.017 C 
HETATM   18  C22 UNL     1     -15.927  44.364 -24.409  1.00  0.00     0.057 C 
HETATM   19  C24 UNL     1     -17.002  43.309 -24.873  1.00  0.00     0.023 C 
HETATM   20  C25 UNL     1     -18.435  43.834 -24.968  1.00  0.00     0.022 C 
HETATM   21  C26 UNL     1     -18.945  44.487 -23.659  1.00  0.00     0.060 C 
HETATM   22  C27 UNL     1     -19.688  43.497 -22.763  1.00  0.00     0.081 C 
HETATM   23  C28 UNL     1     -21.092  43.532 -23.312  1.00  0.00     0.267 C 
HETATM   24  O4  UNL     1     -21.298  44.862 -23.752  1.00  0.00    -0.289 OA
HETATM   25  C29 UNL     1     -20.089  45.412 -24.061  1.00  0.00     0.270 C 
HETATM   26  O5  UNL     1     -19.966  46.489 -24.626  1.00  0.00    -0.264 OA
ENDROOT
BRANCH   1  27
HETATM   27  C4  UNL     1     -18.308  46.321 -21.969  1.00  0.00    -0.018 C 
HETATM   28  C2  UNL     1     -18.490  46.312 -20.633  1.00  0.00    -0.091 C 
HETATM   29  C1  UNL     1     -18.980  47.553 -19.928  1.00  0.00     0.042 C 
HETATM   30  C3  UNL     1     -18.236  45.152 -19.711  1.00  0.00     0.042 C 
ENDBRANCH   1  27
BRANCH  23  31
HETATM   31  O3  UNL     1     -22.047  43.173 -22.336  1.00  0.00    -0.371 OA
HETATM   32  H42 UNL     1     -21.936  43.795 -21.597  1.00  0.00     0.212 HD
ENDBRANCH  23  31
BRANCH  18  33
HETATM   33  C23 UNL     1     -15.133  43.597 -23.311  1.00  0.00     0.149 C 
HETATM   34  O1  UNL     1     -14.018  43.112 -23.438  1.00  0.00    -0.649 OA
BRANCH  33  35
HETATM   35  O2  UNL     1     -15.745  43.459 -22.128  1.00  0.00    -0.776 OA
HETATM   36  H34 UNL     1     -15.088  42.988 -21.572  1.00  0.00     0.167 HD
ENDBRANCH  33  35
ENDBRANCH  18  33
TORSDOF 4
ENDMDL
