MODEL 1
REMARK minimizedAffinity -8.8677454
REMARK CNNscore 0.322589278
REMARK CNNaffinity 7.02280807
REMARK  19 active torsions:
REMARK  status: ('A' for Active; 'I' for Inactive)
REMARK    1  A    between atoms: O1_2  and  C2_3 
REMARK    2  A    between atoms: C2_3  and  C3_4 
REMARK    3  A    between atoms: C2_3  and  C28_36 
REMARK    4  A    between atoms: C3_4  and  C4_5 
REMARK    5  A    between atoms: C4_5  and  C6_7 
REMARK    6  A    between atoms: C6_7  and  O2_8 
REMARK    7  A    between atoms: C6_7  and  C7_9 
REMARK    8  A    between atoms: C8_10  and  C9_11 
REMARK    9  A    between atoms: C10_12  and  C11_13 
REMARK   10  A    between atoms: C11_13  and  N1_14 
REMARK       I    between atoms: N1_14  and  C12_15 
REMARK   11  A    between atoms: C12_15  and  C13_17 
REMARK   12  A    between atoms: C13_17  and  C16_20 
REMARK   13  A    between atoms: C16_20  and  O4_21 
REMARK   14  A    between atoms: C16_20  and  C17_22 
REMARK   15  A    between atoms: C19_24  and  C20_25 
REMARK   16  A    between atoms: C21_26  and  C22_27 
REMARK   17  A    between atoms: C23_28  and  C24_29 
REMARK   18  A    between atoms: C26_31  and  N2_33 
REMARK   19  A    between atoms: C28_36  and  O7_37 
ROOT
HETATM    1  C9  UNL     1      -3.401  48.643 -26.925  1.00  0.00    -0.003 C 
HETATM    2  C10 UNL     1      -3.409  49.875 -26.396  1.00  0.00    -0.007 C 
ENDROOT
BRANCH   1   3
HETATM    3  C8  UNL     1      -3.836  48.354 -28.273  1.00  0.00    -0.002 C 
HETATM    4  C7  UNL     1      -5.123  48.437 -28.639  1.00  0.00     0.005 C 
BRANCH   4   5
HETATM    5  C6  UNL     1      -5.639  48.127 -30.014  1.00  0.00     0.144 C 
BRANCH   5   6
HETATM    6  C4  UNL     1      -7.115  48.569 -30.224  1.00  0.00     0.016 C 
HETATM    7  C5  UNL     1      -7.995  47.926 -29.144  1.00  0.00     0.013 C 
BRANCH   6   8
HETATM    8  C3  UNL     1      -7.643  48.221 -31.629  1.00  0.00     0.042 C 
BRANCH   8   9
HETATM    9  C2  UNL     1      -7.153  46.937 -32.365  1.00  0.00     0.159 C 
BRANCH   9  10
HETATM   10  O1  UNL     1      -6.610  47.442 -33.607  1.00  0.00    -0.388 OA
HETATM   11  C1  UNL     1      -5.184  47.412 -33.682  1.00  0.00     0.202 C 
ENDBRANCH   9  10
BRANCH   9  12
HETATM   12  C28 UNL     1      -8.251  45.881 -32.782  1.00  0.00     0.133 C 
HETATM   13  C29 UNL     1      -9.677  46.504 -32.951  1.00  0.00     0.114 C 
HETATM   14  C30 UNL     1     -10.553  45.827 -34.005  1.00  0.00     0.023 C 
HETATM   15  C31 UNL     1     -10.335  46.338 -31.609  1.00  0.00     0.227 C 
HETATM   16  O8  UNL     1     -11.262  47.014 -31.193  1.00  0.00    -0.273 OA
HETATM   17  N3  UNL     1      -9.734  45.274 -30.977  1.00  0.00    -0.332 N 
HETATM   18  C32 UNL     1     -10.052  44.942 -29.607  1.00  0.00     0.154 C 
HETATM   19  C33 UNL     1      -8.489  44.795 -31.676  1.00  0.00     0.183 A 
HETATM   20  C34 UNL     1      -7.350  44.346 -30.697  1.00  0.00     0.294 A 
HETATM   21  C35 UNL     1      -8.508  43.251 -31.983  1.00  0.00     0.169 A 
HETATM   22  O9  UNL     1      -6.731  44.807 -29.762  1.00  0.00    -0.262 OA
HETATM   23  O10 UNL     1      -7.355  43.055 -31.115  1.00  0.00    -0.311 OA
HETATM   24  C36 UNL     1      -8.244  42.595 -33.325  1.00  0.00     0.043 C 
BRANCH  12  25
HETATM   25  O7  UNL     1      -7.875  45.252 -34.016  1.00  0.00    -0.383 OA
HETATM   26  H42 UNL     1      -7.661  45.931 -34.676  1.00  0.00     0.210 HD
ENDBRANCH  12  25
ENDBRANCH   9  12
ENDBRANCH   8   9
ENDBRANCH   6   8
ENDBRANCH   5   6
BRANCH   5  27
HETATM   27  O2  UNL     1      -4.787  48.784 -30.944  1.00  0.00    -0.391 OA
HETATM   28  H12 UNL     1      -3.890  48.435 -30.805  1.00  0.00     0.210 HD
ENDBRANCH   5  27
ENDBRANCH   4   5
ENDBRANCH   1   3
BRANCH   2  29
HETATM   29  C11 UNL     1      -2.923  50.181 -25.017  1.00  0.00     0.149 C 
BRANCH  29  30
HETATM   30  N1  UNL     1      -1.622  50.792 -25.119  1.00  0.00    -0.357 N 
HETATM   31  C12 UNL     1      -1.500  52.164 -25.041  1.00  0.00     0.228 C 
HETATM   32  O3  UNL     1      -2.470  52.880 -24.794  1.00  0.00    -0.273 OA
HETATM   33  H19 UNL     1      -0.872  50.247 -25.522  1.00  0.00     0.162 HD
BRANCH  31  34
HETATM   34  C13 UNL     1      -0.082  52.740 -25.286  1.00  0.00     0.063 C 
HETATM   35  C14 UNL     1      -0.141  53.587 -26.572  1.00  0.00     0.028 C 
HETATM   36  C15 UNL     1       0.870  51.540 -25.437  1.00  0.00     0.028 C 
BRANCH  34  37
HETATM   37  C16 UNL     1       0.283  53.603 -24.026  1.00  0.00     0.164 C 
BRANCH  37  38
HETATM   38  O4  UNL     1       1.480  54.348 -24.308  1.00  0.00    -0.390 OA
HETATM   39  H27 UNL     1       1.201  55.072 -24.911  1.00  0.00     0.210 HD
ENDBRANCH  37  38
BRANCH  37  40
HETATM   40  C17 UNL     1       0.511  53.024 -22.624  1.00  0.00    -0.054 C 
HETATM   41  C18 UNL     1       0.111  51.560 -22.556  1.00  0.00     0.046 C 
HETATM   42  C19 UNL     1       1.004  53.695 -21.563  1.00  0.00     0.005 C 
BRANCH  42  43
HETATM   43  C20 UNL     1       1.184  53.180 -20.218  1.00  0.00     0.000 C 
HETATM   44  C21 UNL     1       0.203  53.170 -19.301  1.00  0.00     0.000 C 
BRANCH  44  45
HETATM   45  C22 UNL     1       0.392  52.638 -17.965  1.00  0.00     0.001 C 
HETATM   46  C23 UNL     1       1.600  52.294 -17.485  1.00  0.00     0.009 C 
BRANCH  46  47
HETATM   47  C24 UNL     1       1.889  51.739 -16.153  1.00  0.00    -0.034 C 
HETATM   48  C25 UNL     1       0.813  50.844 -15.566  1.00  0.00     0.050 C 
HETATM   49  C26 UNL     1       3.062  52.010 -15.529  1.00  0.00     0.082 C 
HETATM   50  C27 UNL     1       4.240  52.838 -15.926  1.00  0.00     0.075 C 
BRANCH  49  51
HETATM   51  N2  UNL     1       3.264  51.441 -14.210  1.00  0.00    -0.120 N 
HETATM   52  O5  UNL     1       2.863  52.108 -13.250  1.00  0.00    -0.532 OA
HETATM   53  O6  UNL     1       3.793  50.324 -14.152  1.00  0.00    -0.532 OA
ENDBRANCH  49  51
ENDBRANCH  46  47
ENDBRANCH  44  45
ENDBRANCH  42  43
ENDBRANCH  37  40
ENDBRANCH  34  37
ENDBRANCH  31  34
ENDBRANCH  29  30
ENDBRANCH   2  29
TORSDOF 19
ENDMDL
