MODEL 1
REMARK minimizedAffinity -8.69200611
REMARK CNNscore 0.471489698
REMARK CNNaffinity 7.6890564
REMARK  10 active torsions:
REMARK  status: ('A' for Active; 'I' for Inactive)
REMARK    1  A    between atoms: C2_2  and  C3_3 
REMARK    2  A    between atoms: C4_4  and  C18_19 
REMARK    3  A    between atoms: C19_20  and  O1_21 
REMARK    4  A    between atoms: N2_22  and  C20_23 
REMARK    5  A    between atoms: C20_23  and  C21_24 
REMARK    6  A    between atoms: C21_24  and  O3_26 
REMARK    7  A    between atoms: O3_26  and  C22_27 
REMARK    8  A    between atoms: C32_37  and  C33_38 
REMARK    9  A    between atoms: C39_46  and  O6_47 
REMARK   10  A    between atoms: C45_53  and  O7_54 
ROOT
HETATM    1  C21 UNL     1     -14.344   8.123  23.895  1.00  0.00     0.222 C 
HETATM    2  O2  UNL     1     -14.144   7.834  22.724  1.00  0.00    -0.287 OA
ENDROOT
BRANCH   1   3
HETATM    3  C20 UNL     1     -14.938   7.152  24.919  1.00  0.00     0.328 C 
BRANCH   3   4
HETATM    4  N2  UNL     1     -15.734   5.920  24.315  1.00  0.00    -0.023 N 
HETATM    5  C6  UNL     1     -16.499   5.209  25.494  1.00  0.00     0.214 C 
HETATM    6  C5  UNL     1     -17.646   4.396  24.857  1.00  0.00     0.041 C 
HETATM    7  C7  UNL     1     -15.582   4.242  26.310  1.00  0.00     0.109 C 
HETATM    8  C4  UNL     1     -17.256   4.023  23.416  1.00  0.00     0.004 C 
HETATM    9  C3  UNL     1     -17.498   5.308  22.595  1.00  0.00     0.047 C 
HETATM   10  C45 UNL     1     -16.730   6.478  23.285  1.00  0.00     0.329 C 
HETATM   11  N1  UNL     1     -14.752   4.877  27.373  1.00  0.00    -0.279 NA
HETATM   12  C15 UNL     1     -14.565   3.468  25.425  1.00  0.00     0.035 C 
HETATM   13  C8  UNL     1     -15.434   5.331  28.587  1.00  0.00     0.117 C 
HETATM   14  C9  UNL     1     -13.793   3.835  27.604  1.00  0.00     0.018 A 
HETATM   15  C10 UNL     1     -12.992   3.646  28.724  1.00  0.00     0.024 A 
HETATM   16  C14 UNL     1     -13.663   2.968  26.499  1.00  0.00    -0.024 A 
HETATM   17  C11 UNL     1     -12.086   2.578  28.731  1.00  0.00     0.002 A 
HETATM   18  C12 UNL     1     -11.980   1.716  27.629  1.00  0.00     0.001 A 
HETATM   19  C13 UNL     1     -12.769   1.909  26.496  1.00  0.00     0.010 A 
HETATM   20  C16 UNL     1     -13.769   4.389  24.499  1.00  0.00     0.053 C 
HETATM   21  C19 UNL     1     -15.258   2.574  24.392  1.00  0.00     0.139 C 
HETATM   22  C17 UNL     1     -14.862   4.873  23.587  1.00  0.00     0.202 C 
HETATM   23  C18 UNL     1     -15.761   3.617  23.343  1.00  0.00     0.051 C 
BRANCH   9  24
HETATM   24  C2  UNL     1     -17.131   5.200  21.103  1.00  0.00     0.005 C 
HETATM   25  C1  UNL     1     -16.467   6.454  20.549  1.00  0.00     0.005 C 
ENDBRANCH   9  24
BRANCH  10  26
HETATM   26  O7  UNL     1     -17.607   7.397  23.900  1.00  0.00    -0.369 OA
HETATM   27  H61 UNL     1     -18.502   7.323  23.498  1.00  0.00     0.212 HD
ENDBRANCH  10  26
BRANCH  21  28
HETATM   28  O1  UNL     1     -16.316   1.803  24.915  1.00  0.00    -0.394 OA
HETATM   29  H24 UNL     1     -16.009   0.874  25.009  1.00  0.00     0.210 HD
ENDBRANCH  21  28
ENDBRANCH   3   4
ENDBRANCH   1   3
BRANCH   1  30
HETATM   30  O3  UNL     1     -14.087   9.328  24.474  1.00  0.00     0.000 OA
HETATM   31 BR1  UNL     1     -12.778   8.666  25.421  1.00  0.00    -0.148 Br
BRANCH  30  32
HETATM   32  C22 UNL     1     -12.698   9.744  24.496  1.00  0.00    -0.009 C 
HETATM   33  C23 UNL     1     -11.961   8.918  23.455  1.00  0.00     0.006 C 
HETATM   34  C24 UNL     1     -10.670   9.612  23.040  1.00  0.00     0.010 C 
HETATM   35  C25 UNL     1     -10.936  10.937  22.271  1.00  0.00    -0.036 C 
HETATM   36  C26 UNL     1     -11.291  10.534  20.806  1.00  0.00     0.016 C 
HETATM   37  C27 UNL     1      -9.637  11.835  22.250  1.00  0.00     0.001 C 
HETATM   38  C43 UNL     1     -12.167  11.709  22.860  1.00  0.00    -0.005 C 
HETATM   39  C28 UNL     1      -9.099  12.194  23.660  1.00  0.00     0.007 C 
HETATM   40  C40 UNL     1      -9.836  13.093  21.377  1.00  0.00     0.025 C 
HETATM   41  C29 UNL     1      -8.555  13.623  23.790  1.00  0.00     0.013 C 
HETATM   42  C30 UNL     1      -7.679  14.066  22.594  1.00  0.00    -0.005 C 
HETATM   43  C31 UNL     1      -6.382  13.217  22.654  1.00  0.00     0.019 C 
HETATM   44  C32 UNL     1      -7.386  15.606  22.744  1.00  0.00     0.028 C 
HETATM   45  C39 UNL     1      -8.504  13.924  21.258  1.00  0.00     0.070 C 
HETATM   46  C37 UNL     1      -8.482  16.279  21.902  1.00  0.00     0.013 C 
HETATM   47  C38 UNL     1      -8.692  15.352  20.714  1.00  0.00     0.040 C 
HETATM   48  C41 UNL     1     -11.147  13.842  21.739  1.00  0.00     0.008 C 
HETATM   49  C42 UNL     1     -11.983  13.244  22.876  1.00  0.00     0.006 C 
HETATM   50  C44 UNL     1     -12.597  11.260  24.282  1.00  0.00     0.156 C 
BRANCH  44  51
HETATM   51  C33 UNL     1      -6.008  16.109  22.398  1.00  0.00    -0.045 A 
HETATM   52  C34 UNL     1      -4.866  15.512  22.731  1.00  0.00     0.087 A 
HETATM   53  C35 UNL     1      -3.767  16.336  22.233  1.00  0.00     0.283 A 
HETATM   54  O4  UNL     1      -2.587  16.100  22.395  1.00  0.00    -0.260 OA
HETATM   55  O5  UNL     1      -4.289  17.416  21.596  1.00  0.00    -0.314 OA
HETATM   56  C36 UNL     1      -5.716  17.364  21.653  1.00  0.00     0.213 A 
ENDBRANCH  44  51
BRANCH  45  57
HETATM   57  O6  UNL     1      -7.676  13.234  20.301  1.00  0.00    -0.389 OA
HETATM   58  H51 UNL     1      -8.165  13.169  19.464  1.00  0.00     0.210 HD
ENDBRANCH  45  57
ENDBRANCH  30  32
ENDBRANCH   1  30
TORSDOF 10
ENDMDL
