MODEL 1
REMARK minimizedAffinity -7.92922783
REMARK CNNscore 0.426279694
REMARK CNNaffinity 6.51114988
REMARK  9 active torsions:
REMARK  status: ('A' for Active; 'I' for Inactive)
REMARK    1  A    between atoms: C3_3  and  O1_4 
REMARK    2  A    between atoms: N1_14  and  O2_16 
REMARK    3  A    between atoms: O2_16  and  C13_17 
REMARK    4  A    between atoms: C13_17  and  C14_18 
REMARK       I    between atoms: C14_18  and  N2_20 
REMARK    5  A    between atoms: N2_20  and  C15_21 
REMARK    6  A    between atoms: C15_21  and  C16_22 
REMARK    7  A    between atoms: C15_21  and  C18_26 
REMARK    8  A    between atoms: C16_22  and  C17_23 
REMARK    9  A    between atoms: C17_23  and  O5_25 
ROOT
HETATM    1  C1  UNL     1       0.450  55.612 -24.543  1.00  0.00     0.015 C 
HETATM    2  C2  UNL     1       0.303  54.583 -25.146  1.00  0.00    -0.078 C 
HETATM    3  C3  UNL     1       0.140  53.330 -25.906  1.00  0.00     0.128 C 
HETATM    4  C4  UNL     1      -0.779  53.521 -27.125  1.00  0.00     0.052 C 
HETATM    5  C5  UNL     1      -1.472  52.165 -27.349  1.00  0.00     0.010 C 
HETATM    6  C6  UNL     1      -0.967  51.219 -26.241  1.00  0.00     0.002 C 
HETATM    7  C7  UNL     1      -1.945  50.104 -25.812  1.00  0.00    -0.004 C 
HETATM    8  C8  UNL     1      -2.403  49.276 -27.021  1.00  0.00     0.010 C 
HETATM    9  C9  UNL     1      -3.255  48.094 -26.582  1.00  0.00     0.035 C 
HETATM   10  C10 UNL     1      -4.442  48.521 -25.751  1.00  0.00    -0.069 C 
HETATM   11  C11 UNL     1      -5.654  48.001 -26.016  1.00  0.00     0.030 C 
HETATM   12  C12 UNL     1      -6.828  48.250 -25.138  1.00  0.00     0.032 C 
HETATM   13  N1  UNL     1      -7.923  47.585 -25.383  1.00  0.00    -0.271 N 
ATOM     14  H1  UNL     1      -8.037  46.929 -26.154  1.00  0.00     0.194 HD
HETATM   15  C25 UNL     1      -6.656  49.183 -23.958  1.00  0.00     0.060 C 
HETATM   16  C26 UNL     1      -5.503  50.157 -24.162  1.00  0.00     0.020 C 
HETATM   17  C27 UNL     1      -4.168  49.482 -24.588  1.00  0.00    -0.016 C 
HETATM   18  C28 UNL     1      -3.611  48.647 -23.410  1.00  0.00     0.020 C 
HETATM   19  C29 UNL     1      -3.168  50.632 -25.025  1.00  0.00     0.002 C 
HETATM   20  C30 UNL     1      -2.694  51.514 -23.850  1.00  0.00     0.007 C 
HETATM   21  C31 UNL     1      -1.778  52.652 -24.304  1.00  0.00     0.014 C 
HETATM   22  C32 UNL     1      -0.533  52.175 -25.097  1.00  0.00     0.003 C 
HETATM   23  C33 UNL     1       0.462  51.482 -24.148  1.00  0.00     0.020 C 
ENDROOT
BRANCH   3  24
HETATM   24  O1  UNL     1       1.436  52.943 -26.366  1.00  0.00    -0.377 OA
HETATM   25  H2  UNL     1       1.329  52.329 -27.111  1.00  0.00     0.211 HD
ENDBRANCH   3  24
BRANCH  13  26
HETATM   26  O2  UNL     1      -8.925  47.892 -24.444  1.00  0.00    -0.271 OA
BRANCH  26  27
HETATM   27  C13 UNL     1     -10.164  47.334 -24.865  1.00  0.00     0.303 C 
BRANCH  27  28
HETATM   28  C14 UNL     1     -10.930  46.823 -23.656  1.00  0.00     0.244 C 
HETATM   29  O3  UNL     1     -10.380  46.237 -22.727  1.00  0.00    -0.271 OA
HETATM   30  N2  UNL     1     -12.299  47.003 -23.741  1.00  0.00    -0.354 N 
HETATM   31  H16 UNL     1     -12.650  47.468 -24.574  1.00  0.00     0.162 HD
BRANCH  30  32
HETATM   32  C15 UNL     1     -13.235  46.380 -22.804  1.00  0.00     0.098 C 
BRANCH  32  33
HETATM   33  C16 UNL     1     -13.568  47.343 -21.654  1.00  0.00     0.135 C 
BRANCH  33  34
HETATM   34  C17 UNL     1     -12.905  46.919 -20.376  1.00  0.00     0.141 C 
HETATM   35  O4  UNL     1     -12.361  45.846 -20.167  1.00  0.00    -0.650 OA
BRANCH  34  36
HETATM   36  O5  UNL     1     -12.918  47.881 -19.433  1.00  0.00    -0.776 OA
HETATM   37  H20 UNL     1     -12.478  47.463 -18.662  1.00  0.00     0.167 HD
ENDBRANCH  34  36
ENDBRANCH  33  34
ENDBRANCH  32  33
BRANCH  32  38
HETATM   38  C18 UNL     1     -14.533  45.883 -23.512  1.00  0.00     0.014 C 
HETATM   39  C19 UNL     1     -14.610  46.334 -24.982  1.00  0.00     0.033 C 
HETATM   40  C20 UNL     1     -15.886  45.844 -25.647  1.00  0.00     0.169 C 
HETATM   41  O6  UNL     1     -17.036  46.288 -24.930  1.00  0.00    -0.381 OA
HETATM   42  C21 UNL     1     -17.101  45.859 -23.561  1.00  0.00     0.054 C 
HETATM   43  C22 UNL     1     -18.318  46.575 -22.957  1.00  0.00     0.045 C 
HETATM   44  C23 UNL     1     -17.346  44.342 -23.480  1.00  0.00     0.045 C 
HETATM   45  C24 UNL     1     -15.832  46.290 -22.792  1.00  0.00     0.044 C 
ENDBRANCH  32  38
ENDBRANCH  30  32
ENDBRANCH  27  28
ENDBRANCH  26  27
ENDBRANCH  13  26
TORSDOF 9
ENDMDL
