MODEL 1
REMARK minimizedAffinity -8.56137657
REMARK CNNscore 0.553401232
REMARK CNNaffinity 7.28535652
REMARK  15 active torsions:
REMARK  status: ('A' for Active; 'I' for Inactive)
REMARK    1  A    between atoms: C2_2  and  C3_3 
REMARK    2  A    between atoms: C2_2  and  C35_44 
REMARK    3  A    between atoms: C3_3  and  C4_4 
REMARK    4  A    between atoms: C4_4  and  C5_5 
REMARK    5  A    between atoms: C5_5  and  C7_7 
REMARK    6  A    between atoms: C9_9  and  O1_10 
REMARK    7  A    between atoms: C10_11  and  C11_12 
REMARK    8  A    between atoms: C11_12  and  O3_14 
REMARK    9  A    between atoms: C22_25  and  O4_26 
REMARK   10  A    between atoms: O4_26  and  C23_27 
REMARK   11  A    between atoms: C24_29  and  C25_30 
REMARK   12  A    between atoms: C25_30  and  O6_31 
REMARK   13  A    between atoms: C26_32  and  O7_33 
REMARK   14  A    between atoms: C28_35  and  O8_36 
REMARK   15  A    between atoms: C29_37  and  O9_38 
ROOT
HETATM    1  C7  UNL     1      -8.140  45.655 -18.461  1.00  0.00     0.001 C 
HETATM    2  C8  UNL     1      -8.062  46.784 -17.383  1.00  0.00     0.039 C 
HETATM    3  C9  UNL     1      -7.127  47.891 -17.893  1.00  0.00     0.142 C 
HETATM    4  C10 UNL     1      -7.165  47.717 -19.433  1.00  0.00     0.102 C 
HETATM    5  C12 UNL     1      -6.104  48.360 -20.333  1.00  0.00    -0.054 C 
HETATM    6  C13 UNL     1      -5.808  47.819 -21.544  1.00  0.00    -0.067 C 
HETATM    7  C14 UNL     1      -6.439  46.514 -22.018  1.00  0.00     0.036 C 
HETATM    8  C15 UNL     1      -7.410  45.789 -21.059  1.00  0.00     0.015 C 
HETATM    9  C16 UNL     1      -7.152  46.144 -19.586  1.00  0.00    -0.016 C 
HETATM   10  C17 UNL     1      -5.764  45.486 -19.254  1.00  0.00     0.017 C 
HETATM   11  C18 UNL     1      -4.752  48.466 -22.481  1.00  0.00    -0.013 C 
HETATM   12  C19 UNL     1      -3.429  47.719 -22.160  1.00  0.00     0.021 C 
HETATM   13  C20 UNL     1      -5.103  48.320 -23.986  1.00  0.00     0.017 C 
HETATM   14  C21 UNL     1      -4.216  49.121 -24.955  1.00  0.00     0.037 C 
HETATM   15  C22 UNL     1      -3.237  50.112 -24.314  1.00  0.00     0.153 C 
HETATM   16  C30 UNL     1      -3.899  50.859 -23.172  1.00  0.00    -0.055 C 
HETATM   17  C31 UNL     1      -3.907  52.203 -23.069  1.00  0.00     0.017 C 
HETATM   18  C32 UNL     1      -4.708  50.008 -22.190  1.00  0.00     0.029 C 
HETATM   19  C33 UNL     1      -4.365  50.232 -20.713  1.00  0.00     0.014 C 
HETATM   20  C34 UNL     1      -5.472  49.647 -19.827  1.00  0.00     0.036 C 
ENDROOT
BRANCH  15  21
HETATM   21  O4  UNL     1      -2.791  50.993 -25.351  1.00  0.00    -0.349 OA
BRANCH  21  22
HETATM   22  C23 UNL     1      -1.523  50.637 -25.914  1.00  0.00     0.292 C 
HETATM   23  O5  UNL     1      -0.469  51.085 -25.060  1.00  0.00    -0.348 OA
HETATM   24  C24 UNL     1      -0.417  52.519 -24.906  1.00  0.00     0.179 C 
HETATM   25  C26 UNL     1      -0.226  53.225 -26.271  1.00  0.00     0.183 C 
HETATM   26  C28 UNL     1      -1.353  52.765 -27.215  1.00  0.00     0.183 C 
HETATM   27  C29 UNL     1      -1.357  51.238 -27.327  1.00  0.00     0.204 C 
BRANCH  24  28
HETATM   28  C25 UNL     1       0.748  52.838 -23.953  1.00  0.00     0.198 C 
BRANCH  28  29
HETATM   29  O6  UNL     1       1.119  54.218 -24.040  1.00  0.00    -0.398 OA
HETATM   30  H36 UNL     1       1.737  54.311 -24.788  1.00  0.00     0.209 HD
ENDBRANCH  28  29
ENDBRANCH  24  28
BRANCH  25  31
HETATM   31  O7  UNL     1       1.070  52.856 -26.784  1.00  0.00    -0.385 OA
HETATM   32  C27 UNL     1       1.016  52.217 -28.053  1.00  0.00     0.202 C 
ENDBRANCH  25  31
BRANCH  26  33
HETATM   33  O8  UNL     1      -1.232  53.354 -28.518  1.00  0.00    -0.390 OA
HETATM   34  H42 UNL     1      -1.785  52.794 -29.097  1.00  0.00     0.210 HD
ENDBRANCH  26  33
BRANCH  27  35
HETATM   35  O9  UNL     1      -2.400  50.846 -28.241  1.00  0.00    -0.388 OA
HETATM   36  H44 UNL     1      -2.404  49.875 -28.269  1.00  0.00     0.210 HD
ENDBRANCH  27  35
ENDBRANCH  21  22
ENDBRANCH  15  21
BRANCH   4  37
HETATM   37  C11 UNL     1      -8.485  48.396 -19.925  1.00  0.00     0.156 C 
HETATM   38  O2  UNL     1      -9.439  48.770 -19.261  1.00  0.00    -0.649 OA
BRANCH  37  39
HETATM   39  O3  UNL     1      -8.596  48.484 -21.273  1.00  0.00    -0.775 OA
HETATM   40  H16 UNL     1      -9.504  48.834 -21.405  1.00  0.00     0.167 HD
ENDBRANCH  37  39
ENDBRANCH   4  37
BRANCH   3  41
HETATM   41  O1  UNL     1      -5.846  47.813 -17.275  1.00  0.00    -0.394 OA
HETATM   42  H15 UNL     1      -5.463  46.935 -17.390  1.00  0.00     0.210 HD
ENDBRANCH   3  41
BRANCH   1  43
HETATM   43  C5  UNL     1      -9.586  45.230 -18.880  1.00  0.00    -0.013 C 
HETATM   44  C6  UNL     1      -9.833  45.462 -20.380  1.00  0.00     0.010 C 
BRANCH  43  45
HETATM   45  C4  UNL     1     -10.645  46.049 -18.086  1.00  0.00     0.009 C 
BRANCH  45  46
HETATM   46  C3  UNL     1     -11.984  46.250 -18.816  1.00  0.00     0.034 C 
BRANCH  46  47
HETATM   47  C2  UNL     1     -13.129  46.841 -18.013  1.00  0.00    -0.086 C 
HETATM   48  C1  UNL     1     -13.354  46.411 -16.760  1.00  0.00     0.014 C 
BRANCH  47  49
HETATM   49  C35 UNL     1     -13.958  47.984 -18.592  1.00  0.00     0.005 C 
HETATM   50  C36 UNL     1     -15.408  47.590 -18.860  1.00  0.00     0.014 C 
HETATM   51  C37 UNL     1     -13.335  48.623 -19.837  1.00  0.00     0.014 C 
ENDBRANCH  47  49
ENDBRANCH  46  47
ENDBRANCH  45  46
ENDBRANCH  43  45
ENDBRANCH   1  43
TORSDOF 15
ENDMDL
