MODEL 1
REMARK minimizedAffinity -6.24208689
REMARK CNNscore 0.670364857
REMARK CNNaffinity 6.98108721
REMARK  8 active torsions:
REMARK  status: ('A' for Active; 'I' for Inactive)
REMARK    1  A    between atoms: C4_4  and  C5_5 
REMARK    2  A    between atoms: C5_5  and  C6_6 
REMARK    3  A    between atoms: C6_6  and  C7_7 
REMARK    4  A    between atoms: C7_7  and  C9_9 
REMARK    5  A    between atoms: C21_21  and  C22_22 
REMARK    6  A    between atoms: C22_22  and  C23_23 
REMARK    7  A    between atoms: C23_23  and  C24_24 
REMARK    8  A    between atoms: C24_24  and  O1_25 
ROOT
HETATM    1  C9  UNL     1      -1.672  52.346 -10.541  1.00  0.00    -0.002 C 
HETATM    2  C10 UNL     1      -1.018  52.513 -11.944  1.00  0.00     0.006 C 
HETATM    3  C11 UNL     1       0.184  53.480 -11.763  1.00  0.00     0.011 C 
HETATM    4  C12 UNL     1       0.002  54.068 -10.346  1.00  0.00    -0.032 C 
HETATM    5  C13 UNL     1      -1.045  55.218 -10.517  1.00  0.00     0.016 C 
HETATM    6  C14 UNL     1       1.293  54.562  -9.637  1.00  0.00     0.003 C 
HETATM    7  C15 UNL     1       2.082  55.661 -10.384  1.00  0.00     0.010 C 
HETATM    8  C16 UNL     1       3.237  56.228  -9.550  1.00  0.00     0.035 C 
HETATM    9  C17 UNL     1       3.707  55.232  -8.514  1.00  0.00    -0.073 C 
HETATM   10  C18 UNL     1       4.938  54.652  -8.531  1.00  0.00    -0.085 C 
HETATM   11  C19 UNL     1       5.437  53.683  -7.481  1.00  0.00     0.043 C 
HETATM   12  C20 UNL     1       5.981  54.891  -9.599  1.00  0.00     0.043 C 
HETATM   13  C21 UNL     1       2.612  54.882  -7.472  1.00  0.00     0.023 C 
HETATM   14  C25 UNL     1       1.126  54.894  -8.094  1.00  0.00    -0.032 C 
HETATM   15  C26 UNL     1       0.430  56.261  -7.860  1.00  0.00     0.016 C 
HETATM   16  C27 UNL     1       0.240  53.811  -7.366  1.00  0.00     0.011 C 
HETATM   17  C28 UNL     1      -0.948  53.221  -8.161  1.00  0.00     0.011 C 
HETATM   18  C29 UNL     1      -0.534  52.798  -9.578  1.00  0.00    -0.032 C 
HETATM   19  C30 UNL     1       0.504  51.641  -9.427  1.00  0.00     0.016 C 
ENDROOT
BRANCH   1  20
HETATM   20  C7  UNL     1      -2.405  50.996 -10.263  1.00  0.00    -0.014 C 
HETATM   21  C8  UNL     1      -1.915  49.812 -11.104  1.00  0.00     0.010 C 
BRANCH  20  22
HETATM   22  C6  UNL     1      -3.936  51.203 -10.461  1.00  0.00     0.008 C 
BRANCH  22  23
HETATM   23  C5  UNL     1      -4.850  50.189  -9.757  1.00  0.00     0.028 C 
BRANCH  23  24
HETATM   24  C4  UNL     1      -5.869  49.521 -10.637  1.00  0.00    -0.025 C 
HETATM   25  C2  UNL     1      -7.172  49.309 -10.360  1.00  0.00    -0.091 C 
HETATM   26  C1  UNL     1      -8.064  48.607 -11.348  1.00  0.00     0.042 C 
HETATM   27  C3  UNL     1      -7.861  49.740  -9.096  1.00  0.00     0.042 C 
ENDBRANCH  23  24
ENDBRANCH  22  23
ENDBRANCH  20  22
ENDBRANCH   1  20
BRANCH  13  28
HETATM   28  C22 UNL     1       2.859  55.726  -6.194  1.00  0.00     0.012 C 
BRANCH  28  29
HETATM   29  C23 UNL     1       3.725  56.971  -6.417  1.00  0.00     0.027 C 
BRANCH  29  30
HETATM   30  C24 UNL     1       2.948  58.261  -6.177  1.00  0.00     0.164 C 
BRANCH  30  31
HETATM   31  O1  UNL     1       2.061  58.095  -5.081  1.00  0.00    -0.401 OA
HETATM   32  H42 UNL     1       1.592  58.938  -4.962  1.00  0.00     0.209 HD
ENDBRANCH  30  31
ENDBRANCH  29  30
ENDBRANCH  28  29
ENDBRANCH  13  28
TORSDOF 8
ENDMDL
