MODEL 1
REMARK minimizedAffinity -7.14961243
REMARK CNNscore 0.559462786
REMARK CNNaffinity 6.37567139
REMARK  6 active torsions:
REMARK  status: ('A' for Active; 'I' for Inactive)
REMARK    1  A    between atoms: C2_2  and  C30_31 
REMARK    2  A    between atoms: C3_3  and  C4_4 
REMARK    3  A    between atoms: C4_4  and  C5_5 
REMARK    4  A    between atoms: C5_5  and  C6_6 
REMARK    5  A    between atoms: C6_6  and  C8_8 
REMARK    6  A    between atoms: C30_31  and  O3_33 
ROOT
HETATM    1  C8  UNL     1       3.688  12.085  20.585  1.00  0.00    -0.002 C 
HETATM    2  C9  UNL     1       4.391  11.218  19.490  1.00  0.00     0.007 C 
HETATM    3  C10 UNL     1       3.335  10.872  18.419  1.00  0.00     0.015 C 
HETATM    4  C11 UNL     1       2.175  11.841  18.702  1.00  0.00    -0.013 C 
HETATM    5  C12 UNL     1       2.576  13.211  18.053  1.00  0.00     0.021 C 
HETATM    6  C13 UNL     1       0.789  11.523  18.129  1.00  0.00    -0.070 C 
HETATM    7  C14 UNL     1       0.648  11.142  16.845  1.00  0.00    -0.022 C 
HETATM    8  C15 UNL     1      -0.652  11.188  16.105  1.00  0.00     0.034 C 
HETATM    9  C16 UNL     1      -1.631  12.189  16.759  1.00  0.00     0.013 C 
HETATM   10  C17 UNL     1      -2.919  12.458  15.899  1.00  0.00     0.018 C 
HETATM   11  C18 UNL     1      -3.648  11.206  15.384  1.00  0.00     0.023 C 
HETATM   12  C19 UNL     1      -2.520  13.291  14.653  1.00  0.00     0.023 C 
HETATM   13  C20 UNL     1      -3.933  13.284  16.707  1.00  0.00     0.135 C 
HETATM   14  O1  UNL     1      -4.624  14.165  16.191  1.00  0.00    -0.297 OA
HETATM   15  C21 UNL     1      -4.156  12.906  18.150  1.00  0.00     0.080 C 
HETATM   16  C22 UNL     1      -2.832  12.839  18.890  1.00  0.00     0.017 C 
HETATM   17  C23 UNL     1      -1.831  11.834  18.274  1.00  0.00    -0.031 C 
HETATM   18  C24 UNL     1      -2.394  10.397  18.475  1.00  0.00     0.016 C 
HETATM   19  C25 UNL     1      -0.419  11.856  19.024  1.00  0.00     0.024 C 
HETATM   20  C26 UNL     1      -0.104  13.084  19.905  1.00  0.00     0.010 C 
HETATM   21  C27 UNL     1       1.197  12.952  20.745  1.00  0.00     0.011 C 
HETATM   22  C28 UNL     1       2.171  11.846  20.271  1.00  0.00    -0.029 C 
HETATM   23  C29 UNL     1       1.778  10.467  20.897  1.00  0.00     0.016 C 
ENDROOT
BRANCH   1  24
HETATM   24  C6  UNL     1       4.246  11.797  22.013  1.00  0.00    -0.014 C 
HETATM   25  C7  UNL     1       3.589  10.562  22.643  1.00  0.00     0.010 C 
BRANCH  24  26
HETATM   26  C5  UNL     1       4.030  13.024  22.938  1.00  0.00     0.008 C 
BRANCH  26  27
HETATM   27  C4  UNL     1       5.294  13.877  23.119  1.00  0.00     0.028 C 
BRANCH  27  28
HETATM   28  C3  UNL     1       6.533  13.049  22.919  1.00  0.00    -0.013 C 
HETATM   29  C2  UNL     1       7.815  13.437  23.085  1.00  0.00     0.008 C 
HETATM   30  C1  UNL     1       8.272  14.812  23.474  1.00  0.00     0.055 C 
BRANCH  29  31
HETATM   31  C30 UNL     1       8.932  12.479  22.863  1.00  0.00     0.171 C 
HETATM   32  O2  UNL     1       9.971  12.735  22.279  1.00  0.00    -0.646 OA
BRANCH  31  33
HETATM   33  O3  UNL     1       8.710  11.249  23.358  1.00  0.00    -0.773 OA
HETATM   34  H46 UNL     1       9.522  10.758  23.117  1.00  0.00     0.167 HD
ENDBRANCH  31  33
ENDBRANCH  29  31
ENDBRANCH  27  28
ENDBRANCH  26  27
ENDBRANCH  24  26
ENDBRANCH   1  24
TORSDOF 6
ENDMDL
