MODEL 1
REMARK minimizedAffinity -9.96946907
REMARK CNNscore 0.405917287
REMARK CNNaffinity 7.3284173
REMARK  10 active torsions:
REMARK  status: ('A' for Active; 'I' for Inactive)
REMARK    1  A    between atoms: O1_2  and  C2_3 
REMARK    2  A    between atoms: C2_3  and  C3_5 
REMARK    3  A    between atoms: C3_5  and  C4_6 
REMARK    4  A    between atoms: C3_5  and  N1_13 
REMARK    5  A    between atoms: C4_6  and  C5_7 
REMARK       I    between atoms: N1_13  and  C11_14 
REMARK    6  A    between atoms: C11_14  and  C12_16 
REMARK    7  A    between atoms: C12_16  and  O4_17 
REMARK    8  A    between atoms: O4_17  and  N2_18 
REMARK    9  A    between atoms: C27_34  and  O5_35 
REMARK   10  A    between atoms: C27_34  and  C28_36 
ROOT
HETATM    1  N2  UNL     1      -3.057   5.287  13.300  1.00  0.00    -0.271 N 
ATOM      2  H2  UNL     1      -2.676   4.572  12.680  1.00  0.00     0.194 HD
HETATM    3  C13 UNL     1      -4.307   5.361  13.652  1.00  0.00     0.032 C 
HETATM    4  C14 UNL     1      -4.883   6.354  14.605  1.00  0.00     0.030 C 
HETATM    5  C15 UNL     1      -6.210   6.464  14.810  1.00  0.00    -0.069 C 
HETATM    6  C16 UNL     1      -6.707   7.640  15.629  1.00  0.00     0.035 C 
HETATM    7  C17 UNL     1      -8.134   7.505  16.145  1.00  0.00     0.010 C 
HETATM    8  C18 UNL     1      -9.151   7.048  15.080  1.00  0.00    -0.004 C 
HETATM    9  C19 UNL     1      -8.470   6.501  13.787  1.00  0.00     0.002 C 
HETATM   10  C20 UNL     1      -9.532   5.916  12.830  1.00  0.00     0.007 C 
HETATM   11  C21 UNL     1     -10.628   6.952  12.485  1.00  0.00     0.013 C 
HETATM   12  C22 UNL     1     -11.287   7.563  13.739  1.00  0.00    -0.002 C 
HETATM   13  C23 UNL     1     -12.150   6.472  14.433  1.00  0.00     0.019 C 
HETATM   14  C24 UNL     1     -10.152   8.126  14.646  1.00  0.00     0.002 C 
HETATM   15  C25 UNL     1     -10.907   8.919  15.706  1.00  0.00     0.009 C 
HETATM   16  C26 UNL     1     -12.107   9.524  14.948  1.00  0.00     0.047 C 
HETATM   17  C27 UNL     1     -12.129   8.863  13.538  1.00  0.00     0.125 C 
HETATM   18  C30 UNL     1      -7.251   5.578  14.116  1.00  0.00    -0.016 C 
HETATM   19  C31 UNL     1      -7.652   4.401  15.038  1.00  0.00     0.020 C 
HETATM   20  C32 UNL     1      -6.635   4.995  12.814  1.00  0.00     0.020 C 
HETATM   21  C33 UNL     1      -5.261   4.363  13.032  1.00  0.00     0.060 C 
ENDROOT
BRANCH   1  22
HETATM   22  O4  UNL     1      -2.302   6.317  13.881  1.00  0.00    -0.271 OA
BRANCH  22  23
HETATM   23  C12 UNL     1      -1.456   6.913  12.899  1.00  0.00     0.303 C 
BRANCH  23  24
HETATM   24  C11 UNL     1      -0.109   6.212  12.920  1.00  0.00     0.244 C 
HETATM   25  N1  UNL     1       0.897   6.919  12.285  1.00  0.00    -0.345 N 
HETATM   26  H12 UNL     1       0.553   7.608  11.619  1.00  0.00     0.163 HD
HETATM   27  O3  UNL     1       0.070   5.130  13.472  1.00  0.00    -0.271 OA
BRANCH  25  28
HETATM   28  C3  UNL     1       2.199   6.301  11.993  1.00  0.00     0.188 C 
BRANCH  28  29
HETATM   29  C2  UNL     1       3.345   7.333  11.999  1.00  0.00     0.281 C 
HETATM   30  O2  UNL     1       3.208   8.537  12.183  1.00  0.00    -0.263 OA
BRANCH  29  31
HETATM   31  O1  UNL     1       4.536   6.744  11.666  1.00  0.00    -0.325 OA
HETATM   32  C1  UNL     1       5.684   7.553  11.929  1.00  0.00     0.213 C 
ENDBRANCH  29  31
ENDBRANCH  28  29
BRANCH  28  33
HETATM   33  C4  UNL     1       2.195   5.457  10.704  1.00  0.00     0.074 C 
BRANCH  33  34
HETATM   34  C5  UNL     1       1.928   6.286   9.466  1.00  0.00    -0.056 A 
HETATM   35  C6  UNL     1       2.636   6.031   8.282  1.00  0.00     0.007 A 
HETATM   36  C7  UNL     1       2.393   6.792   7.136  1.00  0.00     0.001 A 
HETATM   37  C8  UNL     1       1.448   7.814   7.163  1.00  0.00     0.000 A 
HETATM   38  C9  UNL     1       0.749   8.081   8.337  1.00  0.00     0.001 A 
HETATM   39  C10 UNL     1       0.990   7.323   9.486  1.00  0.00     0.007 A 
ENDBRANCH  33  34
ENDBRANCH  28  33
ENDBRANCH  25  28
ENDBRANCH  23  24
ENDBRANCH  22  23
ENDBRANCH   1  22
BRANCH  17  40
HETATM   40  O5  UNL     1     -11.451   9.745  12.633  1.00  0.00    -0.381 OA
HETATM   41  H34 UNL     1     -11.871  10.621  12.698  1.00  0.00     0.211 HD
ENDBRANCH  17  40
BRANCH  17  42
HETATM   42  C28 UNL     1     -13.569   8.626  13.026  1.00  0.00     0.158 C 
HETATM   43  C29 UNL     1     -14.320   7.438  13.574  1.00  0.00     0.094 C 
HETATM   44  O6  UNL     1     -14.113   9.379  12.214  1.00  0.00    -0.295 OA
ENDBRANCH  17  42
TORSDOF 10
ENDMDL
