MODEL 1
REMARK minimizedAffinity -9.46133232
REMARK CNNscore 0.484025657
REMARK CNNaffinity 7.4141674
REMARK  12 active torsions:
REMARK  status: ('A' for Active; 'I' for Inactive)
REMARK    1  A    between atoms: O1_2  and  C2_3 
REMARK    2  A    between atoms: C2_3  and  C3_4 
REMARK    3  A    between atoms: C2_3  and  C7_8 
REMARK    4  A    between atoms: C7_8  and  C8_9 
REMARK    5  A    between atoms: C8_9  and  C10_11 
REMARK    6  A    between atoms: C28_30  and  O3_31 
REMARK    7  A    between atoms: O3_31  and  C29_32 
REMARK    8  A    between atoms: C30_34  and  C31_35 
REMARK    9  A    between atoms: C31_35  and  O5_36 
REMARK   10  A    between atoms: C32_37  and  O6_38 
REMARK   11  A    between atoms: C33_39  and  O7_40 
REMARK   12  A    between atoms: C34_41  and  O8_42 
ROOT
HETATM    1  C10 UNL     1      -4.854   6.742  15.295  1.00  0.00    -0.002 C 
HETATM    2  C11 UNL     1      -5.122   5.365  14.607  1.00  0.00     0.006 C 
HETATM    3  C12 UNL     1      -4.106   5.201  13.464  1.00  0.00     0.011 C 
HETATM    4  C13 UNL     1      -3.047   6.290  13.718  1.00  0.00    -0.029 C 
HETATM    5  C14 UNL     1      -2.078   5.695  14.791  1.00  0.00     0.016 C 
HETATM    6  C15 UNL     1      -2.255   6.753  12.455  1.00  0.00     0.028 C 
HETATM    7  C16 UNL     1      -1.435   5.643  11.822  1.00  0.00    -0.021 C 
HETATM    8  C17 UNL     1      -0.155   5.830  11.453  1.00  0.00     0.008 C 
HETATM    9  C18 UNL     1       0.544   7.168  11.676  1.00  0.00     0.092 C 
HETATM   10  O2  UNL     1      -0.076   8.038  10.700  1.00  0.00    -0.374 OA
HETATM   11  C19 UNL     1      -1.142   8.753  11.336  1.00  0.00     0.179 C 
HETATM   12  C20 UNL     1      -1.405   8.082  12.705  1.00  0.00    -0.004 C 
HETATM   13  C21 UNL     1      -2.103   9.109  13.636  1.00  0.00     0.014 C 
HETATM   14  C22 UNL     1      -3.001   8.562  14.759  1.00  0.00     0.011 C 
HETATM   15  C23 UNL     1      -3.951   7.469  14.242  1.00  0.00    -0.032 C 
HETATM   16  C24 UNL     1      -4.869   8.085  13.139  1.00  0.00     0.016 C 
HETATM   17  C25 UNL     1       0.054   7.691  13.057  1.00  0.00     0.036 C 
HETATM   18  C26 UNL     1       0.957   8.782  13.627  1.00  0.00     0.011 C 
HETATM   19  C27 UNL     1       2.397   8.291  13.794  1.00  0.00     0.033 C 
HETATM   20  C28 UNL     1       2.785   7.119  12.877  1.00  0.00     0.136 C 
HETATM   21  C35 UNL     1       2.110   7.218  11.480  1.00  0.00     0.014 C 
HETATM   22  C36 UNL     1       2.572   8.517  10.752  1.00  0.00     0.021 C 
HETATM   23  C37 UNL     1       2.630   6.062  10.590  1.00  0.00     0.021 C 
ENDROOT
BRANCH  20  24
HETATM   24  O3  UNL     1       4.210   7.088  12.709  1.00  0.00    -0.352 OA
BRANCH  24  25
HETATM   25  C29 UNL     1       4.916   8.111  13.425  1.00  0.00     0.292 C 
HETATM   26  O4  UNL     1       5.560   9.011  12.529  1.00  0.00    -0.348 OA
HETATM   27  C30 UNL     1       6.923   8.704  12.209  1.00  0.00     0.179 C 
HETATM   28  C32 UNL     1       7.812   8.721  13.473  1.00  0.00     0.180 C 
HETATM   29  C33 UNL     1       7.084   8.242  14.739  1.00  0.00     0.183 C 
HETATM   30  C34 UNL     1       5.863   7.393  14.423  1.00  0.00     0.204 C 
BRANCH  27  31
HETATM   31  C31 UNL     1       7.032   7.420  11.364  1.00  0.00     0.198 C 
BRANCH  31  32
HETATM   32  O5  UNL     1       5.987   7.329  10.404  1.00  0.00    -0.398 OA
HETATM   33  H48 UNL     1       6.025   6.435  10.025  1.00  0.00     0.209 HD
ENDBRANCH  31  32
ENDBRANCH  27  31
BRANCH  28  34
HETATM   34  O6  UNL     1       8.282  10.065  13.706  1.00  0.00    -0.390 OA
HETATM   35  H50 UNL     1       7.887  10.326  14.569  1.00  0.00     0.210 HD
ENDBRANCH  28  34
BRANCH  29  36
HETATM   36  O7  UNL     1       6.690   9.379  15.545  1.00  0.00    -0.390 OA
HETATM   37  H52 UNL     1       5.936   9.066  16.089  1.00  0.00     0.210 HD
ENDBRANCH  29  36
BRANCH  30  38
HETATM   38  O8  UNL     1       5.168   7.124  15.660  1.00  0.00    -0.388 OA
HETATM   39  H54 UNL     1       5.510   6.276  16.000  1.00  0.00     0.210 HD
ENDBRANCH  30  38
ENDBRANCH  24  25
ENDBRANCH  20  24
BRANCH   1  40
HETATM   40  C8  UNL     1      -6.183   7.419  15.755  1.00  0.00    -0.011 C 
HETATM   41  C9  UNL     1      -7.141   6.427  16.423  1.00  0.00     0.010 C 
BRANCH  40  42
HETATM   42  C7  UNL     1      -6.930   8.108  14.575  1.00  0.00     0.040 C 
BRANCH  42  43
HETATM   43  C2  UNL     1      -8.321   7.486  14.316  1.00  0.00     0.144 C 
BRANCH  43  44
HETATM   44  O1  UNL     1      -9.187   7.773  15.413  1.00  0.00    -0.387 OA
HETATM   45  C1  UNL     1     -10.552   7.484  15.143  1.00  0.00     0.202 C 
ENDBRANCH  43  44
BRANCH  43  46
HETATM   46  C3  UNL     1      -8.191   5.998  14.072  1.00  0.00     0.007 C 
HETATM   47  C4  UNL     1      -8.375   5.293  12.935  1.00  0.00    -0.089 C 
HETATM   48  C5  UNL     1      -8.838   5.868  11.624  1.00  0.00     0.042 C 
HETATM   49  C6  UNL     1      -8.128   3.806  12.905  1.00  0.00     0.042 C 
ENDBRANCH  43  46
ENDBRANCH  42  43
ENDBRANCH  40  42
ENDBRANCH   1  40
TORSDOF 12
ENDMDL
