MODEL 1
REMARK minimizedAffinity -8.42159081
REMARK CNNscore 0.307817549
REMARK CNNaffinity 7.35441971
REMARK  10 active torsions:
REMARK  status: ('A' for Active; 'I' for Inactive)
REMARK    1  A    between atoms: C12_14  and  C13_15 
REMARK    2  A    between atoms: C13_15  and  C15_17 
REMARK    3  A    between atoms: C15_17  and  C16_18 
REMARK    4  A    between atoms: C16_18  and  C17_19 
REMARK    5  A    between atoms: C18_20  and  C20_22 
REMARK    6  A    between atoms: C20_22  and  O3_23 
REMARK    7  A    between atoms: C26_29  and  C27_30 
REMARK    8  A    between atoms: C27_30  and  C28_31 
REMARK    9  A    between atoms: C28_31  and  C29_32 
REMARK   10  A    between atoms: C29_32  and  O5_34 
ROOT
HETATM    1  C1  UNL     1       2.052   7.013  10.647  1.00  0.00     0.025 C 
HETATM    2  C2  UNL     1       1.815   7.412  11.902  1.00  0.00     0.015 C 
HETATM    3  C3  UNL     1       2.467   8.630  12.446  1.00  0.00     0.289 C 
HETATM    4  O1  UNL     1       3.415   9.222  11.966  1.00  0.00    -0.260 OA
HETATM    5  O2  UNL     1       1.831   8.947  13.610  1.00  0.00    -0.311 OA
HETATM    6  C4  UNL     1       0.651   8.134  13.758  1.00  0.00     0.142 C 
HETATM    7  C5  UNL     1      -0.551   8.928  13.262  1.00  0.00     0.039 C 
HETATM    8  C6  UNL     1      -1.881   8.160  13.233  1.00  0.00     0.006 C 
HETATM    9  C7  UNL     1      -1.750   6.687  12.746  1.00  0.00    -0.027 A 
HETATM   10  C8  UNL     1      -3.064   5.870  12.834  1.00  0.00     0.011 C 
HETATM   11  C9  UNL     1      -3.955   6.121  14.063  1.00  0.00     0.011 C 
HETATM   12  C10 UNL     1      -4.133   7.621  14.328  1.00  0.00    -0.032 C 
HETATM   13  C11 UNL     1      -4.903   8.244  13.127  1.00  0.00     0.016 C 
HETATM   14  C12 UNL     1      -4.854   7.996  15.662  1.00  0.00    -0.002 C 
HETATM   15  C21 UNL     1      -4.307   9.412  15.978  1.00  0.00     0.006 C 
HETATM   16  C22 UNL     1      -3.060   9.624  15.089  1.00  0.00     0.011 C 
HETATM   17  C23 UNL     1      -2.693   8.222  14.566  1.00  0.00    -0.032 C 
HETATM   18  C24 UNL     1      -1.884   7.519  15.702  1.00  0.00     0.016 C 
HETATM   19  C25 UNL     1      -1.092   6.456  11.404  1.00  0.00     0.022 A 
HETATM   20  C26 UNL     1      -0.318   6.042  12.631  1.00  0.00    -0.021 A 
HETATM   21  C31 UNL     1       0.930   6.864  12.976  1.00  0.00     0.063 C 
ENDROOT
BRANCH  14  22
HETATM   22  C13 UNL     1      -6.402   7.806  15.783  1.00  0.00    -0.014 C 
HETATM   23  C14 UNL     1      -7.041   8.178  14.430  1.00  0.00     0.010 C 
BRANCH  22  24
HETATM   24  C15 UNL     1      -6.864   6.387  16.200  1.00  0.00     0.008 C 
BRANCH  24  25
HETATM   25  C16 UNL     1      -7.910   5.747  15.274  1.00  0.00     0.028 C 
BRANCH  25  26
HETATM   26  C17 UNL     1      -7.450   4.516  14.543  1.00  0.00    -0.022 C 
HETATM   27  C18 UNL     1      -7.590   4.259  13.225  1.00  0.00    -0.064 C 
HETATM   28  C19 UNL     1      -8.320   5.146  12.255  1.00  0.00     0.045 C 
BRANCH  27  29
HETATM   29  C20 UNL     1      -7.031   2.999  12.617  1.00  0.00     0.197 C 
BRANCH  29  30
HETATM   30  O3  UNL     1      -8.018   1.981  12.676  1.00  0.00    -0.397 OA
HETATM   31  H29 UNL     1      -8.829   2.363  12.296  1.00  0.00     0.209 HD
ENDBRANCH  29  30
ENDBRANCH  27  29
ENDBRANCH  25  26
ENDBRANCH  24  25
ENDBRANCH  22  24
ENDBRANCH  14  22
BRANCH  20  32
HETATM   32  C27 UNL     1      -0.161   4.550  12.972  1.00  0.00     0.021 C 
BRANCH  32  33
HETATM   33  C28 UNL     1       0.023   3.626  11.765  1.00  0.00     0.112 C 
BRANCH  33  34
HETATM   34  C29 UNL     1      -1.192   2.824  11.369  1.00  0.00     0.258 C 
HETATM   35  O4  UNL     1      -2.254   2.857  11.984  1.00  0.00    -0.265 OA
BRANCH  34  36
HETATM   36  O5  UNL     1      -0.948   2.034  10.291  1.00  0.00    -0.326 OA
HETATM   37  C30 UNL     1      -0.760   0.657  10.614  1.00  0.00     0.213 C 
ENDBRANCH  34  36
ENDBRANCH  33  34
ENDBRANCH  32  33
ENDBRANCH  20  32
TORSDOF 10
ENDMDL
