MODEL 1
REMARK minimizedAffinity -7.47241116
REMARK CNNscore 0.726129591
REMARK CNNaffinity 6.61418676
REMARK  7 active torsions:
REMARK  status: ('A' for Active; 'I' for Inactive)
REMARK    1  A    between atoms: C2_2  and  C30_32 
REMARK    2  A    between atoms: C3_3  and  C4_4 
REMARK    3  A    between atoms: C4_4  and  C5_5 
REMARK    4  A    between atoms: C5_5  and  C6_6 
REMARK    5  A    between atoms: C6_6  and  C8_8 
REMARK    6  A    between atoms: C10_10  and  O1_11 
REMARK    7  A    between atoms: C30_32  and  O4_34 
ROOT
HETATM    1  C8  UNL     1       5.966  55.587  -8.188  1.00  0.00     0.001 C 
HETATM    2  C9  UNL     1       6.796  54.512  -8.935  1.00  0.00     0.038 C 
HETATM    3  C10 UNL     1       5.796  53.638  -9.724  1.00  0.00     0.128 C 
HETATM    4  C11 UNL     1       4.471  54.443  -9.727  1.00  0.00    -0.006 C 
HETATM    5  C12 UNL     1       4.595  55.477 -10.896  1.00  0.00     0.019 C 
HETATM    6  C13 UNL     1       3.162  53.623  -9.903  1.00  0.00     0.006 C 
HETATM    7  C14 UNL     1       2.978  53.048 -11.315  1.00  0.00     0.007 C 
HETATM    8  C15 UNL     1       1.710  52.202 -11.385  1.00  0.00     0.007 C 
HETATM    9  C16 UNL     1       0.466  53.094 -11.253  1.00  0.00     0.010 C 
HETATM   10  C17 UNL     1      -0.913  52.348 -11.309  1.00  0.00     0.018 C 
HETATM   11  C18 UNL     1      -1.508  52.478 -12.725  1.00  0.00     0.023 C 
HETATM   12  C19 UNL     1      -0.801  50.847 -10.972  1.00  0.00     0.023 C 
HETATM   13  C20 UNL     1      -1.940  52.970 -10.342  1.00  0.00     0.135 C 
HETATM   14  O2  UNL     1      -2.836  52.297  -9.824  1.00  0.00    -0.297 OA
HETATM   15  C21 UNL     1      -1.931  54.467 -10.104  1.00  0.00     0.080 C 
HETATM   16  C22 UNL     1      -0.557  55.104 -10.192  1.00  0.00     0.018 C 
HETATM   17  C23 UNL     1       0.535  54.062 -10.073  1.00  0.00    -0.026 A 
HETATM   18  C24 UNL     1       0.862  53.564  -8.693  1.00  0.00     0.021 A 
HETATM   19  C25 UNL     1       1.903  54.405  -9.429  1.00  0.00    -0.027 A 
HETATM   20  C26 UNL     1       2.105  55.840  -8.924  1.00  0.00     0.011 C 
HETATM   21  C27 UNL     1       3.441  56.205  -8.258  1.00  0.00     0.011 C 
HETATM   22  C28 UNL     1       4.490  55.087  -8.289  1.00  0.00    -0.030 C 
HETATM   23  C29 UNL     1       4.158  54.109  -7.134  1.00  0.00     0.016 C 
ENDROOT
BRANCH   1  24
HETATM   24  C6  UNL     1       6.552  56.161  -6.864  1.00  0.00    -0.013 C 
HETATM   25  C7  UNL     1       7.212  55.019  -6.064  1.00  0.00     0.010 C 
BRANCH  24  26
HETATM   26  C5  UNL     1       5.704  57.027  -5.901  1.00  0.00     0.008 C 
BRANCH  26  27
HETATM   27  C4  UNL     1       6.344  58.290  -5.325  1.00  0.00     0.028 C 
BRANCH  27  28
HETATM   28  C3  UNL     1       7.820  58.096  -5.102  1.00  0.00    -0.013 C 
HETATM   29  C2  UNL     1       8.759  59.041  -4.891  1.00  0.00     0.008 C 
HETATM   30  C1  UNL     1       8.527  60.524  -4.858  1.00  0.00     0.055 C 
BRANCH  29  31
HETATM   31  C30 UNL     1      10.181  58.662  -4.672  1.00  0.00     0.171 C 
HETATM   32  O3  UNL     1      11.148  59.283  -5.078  1.00  0.00    -0.646 OA
BRANCH  31  33
HETATM   33  O4  UNL     1      10.346  57.538  -3.954  1.00  0.00    -0.773 OA
HETATM   34  H46 UNL     1      11.320  57.433  -3.910  1.00  0.00     0.167 HD
ENDBRANCH  31  33
ENDBRANCH  29  31
ENDBRANCH  27  28
ENDBRANCH  26  27
ENDBRANCH  24  26
ENDBRANCH   1  24
BRANCH   3  35
HETATM   35  O1  UNL     1       5.654  52.375  -9.085  1.00  0.00    -0.395 OA
HETATM   36  H17 UNL     1       6.528  51.951  -9.067  1.00  0.00     0.210 HD
ENDBRANCH   3  35
TORSDOF 7
ENDMDL
