MODEL 1
REMARK minimizedAffinity -9.63328075
REMARK  6 active torsions:
REMARK  status: ('A' for Active; 'I' for Inactive)
REMARK    1  A    between atoms: O1_2  and  C2_3 
REMARK    2  A    between atoms: C9_12  and  C10_13 
REMARK    3  A    between atoms: C13_16  and  O4_17 
REMARK    4  A    between atoms: O4_17  and  C14_18 
REMARK    5  A    between atoms: C14_18  and  C15_19 
REMARK       I    between atoms: C15_19  and  N1_21 
REMARK    6  A    between atoms: N1_21  and  C16_22 
ROOT
HETATM    1  C10 UNL     1      -6.322   5.749  13.390  1.00  0.00    -0.020 A 
HETATM    2  C11 UNL     1      -6.148   4.394  13.074  1.00  0.00     0.015 A 
HETATM    3  C12 UNL     1      -4.873   3.874  12.818  1.00  0.00     0.037 A 
HETATM    4  C13 UNL     1      -3.753   4.702  12.874  1.00  0.00     0.069 A 
HETATM    5  C23 UNL     1      -3.921   6.052  13.186  1.00  0.00     0.037 A 
HETATM    6  C24 UNL     1      -5.192   6.574  13.442  1.00  0.00     0.015 A 
ENDROOT
BRANCH   4   7
HETATM    7  O4  UNL     1      -2.460   4.326  12.644  1.00  0.00    -0.342 OA
BRANCH   7   8
HETATM    8  C14 UNL     1      -1.480   5.362  12.624  1.00  0.00     0.278 C 
BRANCH   8   9
HETATM    9  C15 UNL     1      -0.426   5.085  11.552  1.00  0.00     0.242 C 
HETATM   10  O5  UNL     1      -0.209   3.954  11.128  1.00  0.00    -0.271 OA
HETATM   11  N1  UNL     1       0.217   6.213  11.085  1.00  0.00    -0.354 N 
HETATM   12  H11 UNL     1       0.097   7.049  11.650  1.00  0.00     0.162 HD
BRANCH  11  13
HETATM   13  C16 UNL     1       1.333   6.139  10.151  1.00  0.00     0.089 C 
HETATM   14  C17 UNL     1       2.651   5.861  10.884  1.00  0.00     0.051 C 
HETATM   15  C18 UNL     1       3.834   6.557  10.224  1.00  0.00     0.171 C 
HETATM   16  O6  UNL     1       3.689   6.547   8.809  1.00  0.00    -0.381 OA
HETATM   17  C19 UNL     1       2.596   7.342   8.319  1.00  0.00     0.055 C 
HETATM   18  C20 UNL     1       2.135   6.667   7.022  1.00  0.00     0.045 C 
HETATM   19  C21 UNL     1       3.119   8.745   7.989  1.00  0.00     0.045 C 
HETATM   20  C22 UNL     1       1.433   7.424   9.330  1.00  0.00     0.062 C 
ENDBRANCH  11  13
ENDBRANCH   8   9
ENDBRANCH   7   8
ENDBRANCH   4   7
BRANCH   1  21
HETATM   21  C9  UNL     1      -7.664   6.299  13.668  1.00  0.00     0.051 A 
HETATM   22  C8  UNL     1      -8.807   6.014  12.750  1.00  0.00     0.299 A 
HETATM   23  O2  UNL     1     -10.033   6.578  13.083  1.00  0.00    -0.271 OA
HETATM   24  O3  UNL     1      -8.682   5.317  11.748  1.00  0.00    -0.259 OA
HETATM   25  C7  UNL     1     -10.211   7.392  14.223  1.00  0.00     0.123 A 
HETATM   26  C2  UNL     1     -11.488   7.914  14.471  1.00  0.00     0.102 A 
HETATM   27  C6  UNL     1      -9.131   7.654  15.061  1.00  0.00     0.002 A 
HETATM   28  C3  UNL     1     -11.667   8.721  15.596  1.00  0.00     0.040 A 
HETATM   29  C4  UNL     1     -10.589   8.993  16.447  1.00  0.00     0.004 A 
HETATM   30  C5  UNL     1      -9.324   8.463  16.182  1.00  0.00     0.014 A 
HETATM   31  C25 UNL     1      -7.831   7.081  14.747  1.00  0.00     0.032 A 
BRANCH  26  32
HETATM   32  O1  UNL     1     -12.463   7.582  13.571  1.00  0.00    -0.353 OA
HETATM   33  C1  UNL     1     -13.375   6.558  13.943  1.00  0.00     0.210 C 
ENDBRANCH  26  32
ENDBRANCH   1  21
TORSDOF 6
ENDMDL
