MODEL 1
REMARK minimizedAffinity -8.48782063
REMARK CNNscore 0.48376742
REMARK CNNaffinity 6.16740084
REMARK  9 active torsions:
REMARK  status: ('A' for Active; 'I' for Inactive)
REMARK    1  A    between atoms: C3_3  and  O1_4 
REMARK    2  A    between atoms: N1_14  and  O2_16 
REMARK    3  A    between atoms: O2_16  and  C13_17 
REMARK    4  A    between atoms: C13_17  and  C14_18 
REMARK       I    between atoms: C14_18  and  N2_20 
REMARK    5  A    between atoms: N2_20  and  C15_21 
REMARK    6  A    between atoms: C15_21  and  C16_22 
REMARK    7  A    between atoms: C15_21  and  C18_26 
REMARK    8  A    between atoms: C16_22  and  C17_23 
REMARK    9  A    between atoms: C17_23  and  O5_25 
ROOT
HETATM    1  C1  UNL     1      -0.061  50.276 -20.615  1.00  0.00     0.015 C 
HETATM    2  C2  UNL     1      -1.122  50.605 -21.074  1.00  0.00    -0.078 C 
HETATM    3  C3  UNL     1      -2.414  50.998 -21.661  1.00  0.00     0.128 C 
HETATM    4  C4  UNL     1      -3.404  51.498 -20.607  1.00  0.00     0.052 C 
HETATM    5  C5  UNL     1      -4.794  51.228 -21.188  1.00  0.00     0.010 C 
HETATM    6  C6  UNL     1      -4.596  50.445 -22.508  1.00  0.00     0.002 C 
HETATM    7  C7  UNL     1      -5.756  49.456 -22.774  1.00  0.00    -0.004 C 
HETATM    8  C8  UNL     1      -5.891  49.137 -24.283  1.00  0.00     0.010 C 
HETATM    9  C9  UNL     1      -6.432  47.746 -24.601  1.00  0.00     0.035 C 
HETATM   10  C10 UNL     1      -7.445  47.339 -23.573  1.00  0.00    -0.069 C 
HETATM   11  C11 UNL     1      -8.734  47.160 -23.911  1.00  0.00     0.030 C 
HETATM   12  C12 UNL     1      -9.767  46.832 -22.897  1.00  0.00     0.032 C 
HETATM   13  N1  UNL     1     -10.944  46.476 -23.330  1.00  0.00    -0.271 N 
ATOM     14  H1  UNL     1     -11.197  46.408 -24.316  1.00  0.00     0.194 HD
HETATM   15  C25 UNL     1      -9.389  46.901 -21.429  1.00  0.00     0.060 C 
HETATM   16  C26 UNL     1      -8.079  47.651 -21.192  1.00  0.00     0.020 C 
HETATM   17  C27 UNL     1      -6.925  47.221 -22.144  1.00  0.00    -0.016 C 
HETATM   18  C28 UNL     1      -6.570  45.743 -21.872  1.00  0.00     0.020 C 
HETATM   19  C29 UNL     1      -5.693  48.185 -21.882  1.00  0.00     0.002 C 
HETATM   20  C30 UNL     1      -4.293  47.547 -21.974  1.00  0.00     0.007 C 
HETATM   21  C31 UNL     1      -3.202  48.532 -21.544  1.00  0.00     0.014 C 
HETATM   22  C32 UNL     1      -3.171  49.836 -22.382  1.00  0.00     0.003 C 
HETATM   23  C33 UNL     1      -2.530  49.540 -23.752  1.00  0.00     0.020 C 
ENDROOT
BRANCH   3  24
HETATM   24  O1  UNL     1      -2.189  52.073 -22.580  1.00  0.00    -0.377 OA
HETATM   25  H2  UNL     1      -1.538  52.669 -22.173  1.00  0.00     0.211 HD
ENDBRANCH   3  24
BRANCH  13  26
HETATM   26  O2  UNL     1     -11.821  46.199 -22.269  1.00  0.00    -0.271 OA
BRANCH  26  27
HETATM   27  C13 UNL     1     -13.056  46.851 -22.526  1.00  0.00     0.303 C 
BRANCH  27  28
HETATM   28  C14 UNL     1     -13.742  47.311 -21.240  1.00  0.00     0.244 C 
HETATM   29  O3  UNL     1     -13.940  48.484 -20.945  1.00  0.00    -0.271 OA
HETATM   30  N2  UNL     1     -14.142  46.258 -20.429  1.00  0.00    -0.354 N 
HETATM   31  H16 UNL     1     -13.637  45.386 -20.555  1.00  0.00     0.162 HD
BRANCH  30  32
HETATM   32  C15 UNL     1     -14.723  46.497 -19.109  1.00  0.00     0.098 C 
BRANCH  32  33
HETATM   33  C16 UNL     1     -13.893  45.876 -17.973  1.00  0.00     0.135 C 
BRANCH  33  34
HETATM   34  C17 UNL     1     -13.781  46.672 -16.705  1.00  0.00     0.141 C 
HETATM   35  O4  UNL     1     -14.258  46.356 -15.627  1.00  0.00    -0.650 OA
BRANCH  34  36
HETATM   36  O5  UNL     1     -13.131  47.844 -16.835  1.00  0.00    -0.776 OA
HETATM   37  H20 UNL     1     -13.235  48.260 -15.949  1.00  0.00     0.167 HD
ENDBRANCH  34  36
ENDBRANCH  33  34
ENDBRANCH  32  33
BRANCH  32  38
HETATM   38  C18 UNL     1     -16.245  46.176 -19.059  1.00  0.00     0.014 C 
HETATM   39  C19 UNL     1     -16.606  44.710 -18.782  1.00  0.00     0.033 C 
HETATM   40  C20 UNL     1     -18.112  44.489 -18.836  1.00  0.00     0.169 C 
HETATM   41  O6  UNL     1     -18.654  44.910 -20.082  1.00  0.00    -0.381 OA
HETATM   42  C21 UNL     1     -18.435  46.289 -20.406  1.00  0.00     0.054 C 
HETATM   43  C22 UNL     1     -18.959  46.471 -21.840  1.00  0.00     0.045 C 
HETATM   44  C23 UNL     1     -19.249  47.205 -19.482  1.00  0.00     0.045 C 
HETATM   45  C24 UNL     1     -16.930  46.611 -20.373  1.00  0.00     0.044 C 
ENDBRANCH  32  38
ENDBRANCH  30  32
ENDBRANCH  27  28
ENDBRANCH  26  27
ENDBRANCH  13  26
TORSDOF 9
ENDMDL
