MODEL 1
REMARK minimizedAffinity -6.67854452
REMARK CNNscore 0.42731899
REMARK CNNaffinity 6.26825571
REMARK  9 active torsions:
REMARK  status: ('A' for Active; 'I' for Inactive)
REMARK    1  A    between atoms: C2_2  and  O1_3 
REMARK    2  A    between atoms: O1_3  and  C3_4 
REMARK    3  A    between atoms: C14_15  and  O2_16 
REMARK    4  A    between atoms: O2_16  and  C15_17 
REMARK    5  A    between atoms: C21_24  and  O4_25 
REMARK    6  A    between atoms: O4_25  and  C22_26 
REMARK    7  A    between atoms: C24_29  and  O6_30 
REMARK    8  A    between atoms: C25_31  and  O7_32 
REMARK    9  A    between atoms: C26_33  and  O8_34 
ROOT
HETATM    1  C3  UNL     1      -6.811  15.855  24.129  1.00  0.00     0.260 C 
HETATM    2  C4  UNL     1      -7.829  16.369  23.096  1.00  0.00     0.065 C 
HETATM    3  C5  UNL     1      -7.732  15.559  21.798  1.00  0.00    -0.007 C 
HETATM    4  C6  UNL     1      -8.835  15.958  20.822  1.00  0.00     0.010 C 
HETATM    5  C7  UNL     1      -6.322  15.781  21.212  1.00  0.00     0.027 C 
HETATM    6  C8  UNL     1      -5.249  15.879  22.336  1.00  0.00     0.130 C 
HETATM    7  C9  UNL     1      -3.982  15.180  21.806  1.00  0.00     0.042 C 
HETATM    8  C10 UNL     1      -4.193  15.081  20.282  1.00  0.00    -0.029 C 
HETATM    9  C11 UNL     1      -3.820  16.472  19.678  1.00  0.00     0.016 C 
HETATM   10  C12 UNL     1      -3.375  13.957  19.596  1.00  0.00     0.006 C 
HETATM   11  C13 UNL     1      -1.883  14.273  19.449  1.00  0.00     0.039 C 
HETATM   12  C14 UNL     1      -1.133  13.061  18.887  1.00  0.00     0.138 C 
HETATM   13  C17 UNL     1      -1.548  12.816  17.416  1.00  0.00     0.035 C 
HETATM   14  C18 UNL     1      -0.901  11.546  16.722  1.00  0.00    -0.015 C 
HETATM   15  C19 UNL     1       0.499  11.927  16.166  1.00  0.00     0.018 C 
HETATM   16  C20 UNL     1      -0.689  10.367  17.697  1.00  0.00     0.018 C 
HETATM   17  C21 UNL     1      -1.774  11.064  15.498  1.00  0.00     0.133 C 
HETATM   18  C27 UNL     1      -2.430  12.257  14.799  1.00  0.00     0.034 C 
HETATM   19  C28 UNL     1      -3.414  12.996  15.706  1.00  0.00     0.013 C 
HETATM   20  C29 UNL     1      -3.064  12.871  17.185  1.00  0.00    -0.025 A 
HETATM   21  C30 UNL     1      -3.990  12.018  18.015  1.00  0.00     0.021 A 
HETATM   22  C31 UNL     1      -3.992  13.517  18.250  1.00  0.00    -0.027 A 
HETATM   23  C32 UNL     1      -5.196  14.309  17.729  1.00  0.00     0.011 C 
HETATM   24  C33 UNL     1      -6.191  14.862  18.765  1.00  0.00     0.011 C 
HETATM   25  C34 UNL     1      -5.726  14.737  20.220  1.00  0.00    -0.030 C 
HETATM   26  C35 UNL     1      -6.082  13.300  20.706  1.00  0.00     0.016 C 
HETATM   27  O9  UNL     1      -5.686  15.221  23.519  1.00  0.00    -0.356 OA
ENDROOT
BRANCH  17  28
HETATM   28  O4  UNL     1      -2.764  10.138  15.956  1.00  0.00    -0.353 OA
BRANCH  28  29
HETATM   29  C22 UNL     1      -3.037   9.057  15.059  1.00  0.00     0.291 C 
HETATM   30  O5  UNL     1      -4.367   9.168  14.537  1.00  0.00    -0.356 OA
HETATM   31  C23 UNL     1      -4.604   8.228  13.476  1.00  0.00     0.205 C 
HETATM   32  C24 UNL     1      -3.960   6.853  13.730  1.00  0.00     0.173 C 
HETATM   33  C25 UNL     1      -3.769   6.622  15.239  1.00  0.00     0.182 C 
HETATM   34  C26 UNL     1      -2.941   7.751  15.886  1.00  0.00     0.204 C 
BRANCH  32  35
HETATM   35  O6  UNL     1      -2.707   6.813  13.038  1.00  0.00    -0.391 OA
HETATM   36  H39 UNL     1      -2.196   6.053  13.374  1.00  0.00     0.210 HD
ENDBRANCH  32  35
BRANCH  33  37
HETATM   37  O7  UNL     1      -5.044   6.505  15.887  1.00  0.00    -0.390 OA
HETATM   38  H41 UNL     1      -5.492   7.374  15.827  1.00  0.00     0.210 HD
ENDBRANCH  33  37
BRANCH  34  39
HETATM   39  O8  UNL     1      -1.570   7.340  16.020  1.00  0.00    -0.388 OA
HETATM   40  H43 UNL     1      -1.499   6.942  16.907  1.00  0.00     0.210 HD
ENDBRANCH  34  39
ENDBRANCH  28  29
ENDBRANCH  17  28
BRANCH  12  41
HETATM   41  O2  UNL     1       0.280  13.352  18.928  1.00  0.00    -0.316 OA
BRANCH  41  42
HETATM   42  C15 UNL     1       0.889  13.200  20.138  1.00  0.00     0.255 C 
HETATM   43  C16 UNL     1       1.164  11.748  20.388  1.00  0.00     0.126 C 
HETATM   44  O3  UNL     1       1.200  14.101  20.905  1.00  0.00    -0.266 OA
ENDBRANCH  41  42
ENDBRANCH  12  41
BRANCH   1  45
HETATM   45  O1  UNL     1      -6.418  16.950  24.960  1.00  0.00    -0.362 OA
BRANCH  45  46
HETATM   46  C2  UNL     1      -6.046  16.569  26.280  1.00  0.00     0.166 C 
HETATM   47  C1  UNL     1      -7.214  16.039  27.096  1.00  0.00     0.033 C 
ENDBRANCH  45  46
ENDBRANCH   1  45
TORSDOF 9
ENDMDL
