MODEL 1
REMARK minimizedAffinity -6.54909945
REMARK CNNscore 0.790054023
REMARK CNNaffinity 6.83951378
REMARK  5 active torsions:
REMARK  status: ('A' for Active; 'I' for Inactive)
REMARK    1  A    between atoms: C2_2  and  C3_3 
REMARK    2  A    between atoms: C2_2  and  C25_27 
REMARK    3  A    between atoms: C3_3  and  C4_4 
REMARK    4  A    between atoms: C4_4  and  C5_5 
REMARK    5  A    between atoms: C15_15  and  O1_16 
ROOT
HETATM    1  C5  UNL     1       3.642  55.857  -7.760  1.00  0.00    -0.023 C 
HETATM    2  C6  UNL     1       2.374  55.750  -8.200  1.00  0.00    -0.075 C 
HETATM    3  C7  UNL     1       1.234  56.618  -7.747  1.00  0.00     0.035 C 
HETATM    4  C8  UNL     1      -0.003  55.920  -8.297  1.00  0.00     0.013 C 
HETATM    5  C9  UNL     1       0.475  55.286  -9.611  1.00  0.00     0.033 C 
HETATM    6  C10 UNL     1      -0.498  54.260 -10.240  1.00  0.00     0.070 C 
HETATM    7  C11 UNL     1      -1.945  54.817 -10.365  1.00  0.00     0.039 C 
HETATM    8  C12 UNL     1      -3.019  53.751 -10.155  1.00  0.00     0.009 C 
HETATM    9  C13 UNL     1      -2.693  52.422 -10.851  1.00  0.00    -0.001 C 
HETATM   10  C14 UNL     1      -3.615  51.307 -10.316  1.00  0.00     0.037 C 
HETATM   11  C15 UNL     1      -2.990  50.556  -9.146  1.00  0.00     0.118 C 
HETATM   12  C16 UNL     1      -1.682  49.872  -9.545  1.00  0.00     0.032 C 
HETATM   13  C17 UNL     1      -0.991  50.536 -10.739  1.00  0.00     0.015 C 
HETATM   14  C18 UNL     1      -1.166  52.062 -10.767  1.00  0.00    -0.009 C 
HETATM   15  C19 UNL     1      -0.446  52.680 -11.983  1.00  0.00     0.179 C 
HETATM   16  O2  UNL     1      -0.080  54.022 -11.615  1.00  0.00    -0.379 OA
HETATM   17  C20 UNL     1      -0.473  52.848  -9.627  1.00  0.00     0.032 C 
HETATM   18  C21 UNL     1       0.952  52.348  -9.324  1.00  0.00     0.009 C 
HETATM   19  C22 UNL     1       1.757  53.355  -8.519  1.00  0.00     0.014 C 
HETATM   20  C23 UNL     1       1.874  54.723  -9.223  1.00  0.00    -0.014 C 
HETATM   21  C24 UNL     1       2.801  54.644 -10.449  1.00  0.00     0.020 C 
ENDROOT
BRANCH   1  22
HETATM   22  C4  UNL     1       4.163  56.873  -6.775  1.00  0.00     0.031 C 
BRANCH  22  23
HETATM   23  C3  UNL     1       5.314  56.286  -5.940  1.00  0.00     0.037 C 
BRANCH  23  24
HETATM   24  C2  UNL     1       6.649  56.072  -6.643  1.00  0.00    -0.086 C 
HETATM   25  C1  UNL     1       6.767  55.595  -7.896  1.00  0.00     0.014 C 
BRANCH  24  26
HETATM   26  C25 UNL     1       7.911  56.419  -5.852  1.00  0.00     0.005 C 
HETATM   27  C26 UNL     1       7.685  57.588  -4.889  1.00  0.00     0.014 C 
HETATM   28  C27 UNL     1       8.486  55.210  -5.109  1.00  0.00     0.014 C 
ENDBRANCH  24  26
ENDBRANCH  23  24
ENDBRANCH  22  23
ENDBRANCH   1  22
BRANCH  11  29
HETATM   29  O1  UNL     1      -3.909  49.592  -8.644  1.00  0.00    -0.396 OA
HETATM   30  H21 UNL     1      -4.067  48.932  -9.341  1.00  0.00     0.210 HD
ENDBRANCH  11  29
TORSDOF 5
ENDMDL
