MODEL 1
REMARK minimizedAffinity -10.2178764
REMARK CNNscore 0.446222812
REMARK CNNaffinity 7.02759743
REMARK  11 active torsions:
REMARK  status: ('A' for Active; 'I' for Inactive)
REMARK    1  A    between atoms: C5_5  and  C7_7 
REMARK    2  A    between atoms: C7_7  and  C9_9 
REMARK    3  A    between atoms: C18_18  and  C20_20 
REMARK    4  A    between atoms: C20_20  and  O2_22 
REMARK    5  A    between atoms: C21_23  and  O3_24 
REMARK    6  A    between atoms: O3_24  and  C22_25 
REMARK    7  A    between atoms: C23_27  and  C24_28 
REMARK    8  A    between atoms: C24_28  and  O5_29 
REMARK    9  A    between atoms: C25_30  and  O6_31 
REMARK   10  A    between atoms: C26_32  and  O7_33 
REMARK   11  A    between atoms: C27_34  and  O8_35 
ROOT
HETATM    1  C9  UNL     1      -9.905  47.088 -19.311  1.00  0.00     0.001 C 
HETATM    2  C10 UNL     1      -9.274  46.691 -17.945  1.00  0.00     0.007 C 
HETATM    3  C11 UNL     1      -7.807  47.143 -17.934  1.00  0.00     0.011 C 
HETATM    4  C12 UNL     1      -7.656  48.048 -19.164  1.00  0.00    -0.032 C 
HETATM    5  C13 UNL     1      -8.118  49.479 -18.746  1.00  0.00     0.016 C 
HETATM    6  C14 UNL     1      -6.212  48.092 -19.730  1.00  0.00     0.004 C 
HETATM    7  C15 UNL     1      -5.212  48.815 -18.817  1.00  0.00     0.007 C 
HETATM    8  C16 UNL     1      -3.817  48.854 -19.439  1.00  0.00     0.007 C 
HETATM    9  C17 UNL     1      -3.843  49.769 -20.675  1.00  0.00     0.016 C 
HETATM   10  C18 UNL     1      -2.459  50.029 -21.347  1.00  0.00     0.072 C 
HETATM   11  C19 UNL     1      -1.884  48.750 -21.995  1.00  0.00     0.030 C 
HETATM   12  C21 UNL     1      -2.604  51.197 -22.387  1.00  0.00     0.143 C 
HETATM   13  C28 UNL     1      -4.054  51.467 -22.822  1.00  0.00     0.034 C 
HETATM   14  C29 UNL     1      -4.873  50.194 -22.982  1.00  0.00     0.013 C 
HETATM   15  C30 UNL     1      -4.880  49.324 -21.721  1.00  0.00    -0.027 A 
HETATM   16  C31 UNL     1      -5.135  47.868 -22.033  1.00  0.00     0.021 A 
HETATM   17  C32 UNL     1      -6.161  48.600 -21.194  1.00  0.00    -0.027 A 
HETATM   18  C33 UNL     1      -7.485  48.982 -21.853  1.00  0.00     0.011 C 
HETATM   19  C34 UNL     1      -8.767  48.259 -21.399  1.00  0.00     0.011 C 
HETATM   20  C35 UNL     1      -8.612  47.331 -20.188  1.00  0.00    -0.032 C 
HETATM   21  C36 UNL     1      -8.062  45.959 -20.687  1.00  0.00     0.016 C 
ENDROOT
BRANCH  12  22
HETATM   22  O3  UNL     1      -1.822  50.930 -23.563  1.00  0.00    -0.352 OA
BRANCH  22  23
HETATM   23  C22 UNL     1      -2.563  51.103 -24.777  1.00  0.00     0.292 C 
HETATM   24  O4  UNL     1      -2.821  49.814 -25.340  1.00  0.00    -0.348 OA
HETATM   25  C23 UNL     1      -3.574  49.882 -26.555  1.00  0.00     0.179 C 
HETATM   26  C25 UNL     1      -2.748  50.605 -27.629  1.00  0.00     0.180 C 
HETATM   27  C26 UNL     1      -2.386  52.005 -27.128  1.00  0.00     0.183 C 
HETATM   28  C27 UNL     1      -1.724  51.965 -25.747  1.00  0.00     0.204 C 
BRANCH  25  29
HETATM   29  C24 UNL     1      -3.936  48.457 -26.995  1.00  0.00     0.198 C 
BRANCH  29  30
HETATM   30  O5  UNL     1      -3.525  48.191 -28.331  1.00  0.00    -0.398 OA
HETATM   31  H37 UNL     1      -2.618  48.555 -28.432  1.00  0.00     0.209 HD
ENDBRANCH  29  30
ENDBRANCH  25  29
BRANCH  26  32
HETATM   32  O6  UNL     1      -3.471  50.703 -28.862  1.00  0.00    -0.390 OA
HETATM   33  H39 UNL     1      -3.060  51.439 -29.365  1.00  0.00     0.210 HD
ENDBRANCH  26  32
BRANCH  27  34
HETATM   34  O7  UNL     1      -1.522  52.654 -28.081  1.00  0.00    -0.390 OA
HETATM   35  H41 UNL     1      -0.686  52.153 -28.131  1.00  0.00     0.210 HD
ENDBRANCH  27  34
BRANCH  28  36
HETATM   36  O8  UNL     1      -1.592  53.314 -25.270  1.00  0.00    -0.388 OA
HETATM   37  H43 UNL     1      -1.233  53.841 -26.010  1.00  0.00     0.210 HD
ENDBRANCH  28  36
ENDBRANCH  22  23
ENDBRANCH  12  22
BRANCH  10  38
HETATM   38  C20 UNL     1      -1.509  50.547 -20.265  1.00  0.00     0.151 C 
HETATM   39  O1  UNL     1      -1.668  51.556 -19.593  1.00  0.00    -0.649 OA
BRANCH  38  40
HETATM   40  O2  UNL     1      -0.441  49.764 -20.030  1.00  0.00    -0.776 OA
HETATM   41  H31 UNL     1       0.054  50.217 -19.315  1.00  0.00     0.167 HD
ENDBRANCH  38  40
ENDBRANCH  10  38
BRANCH   1  42
HETATM   42  C7  UNL     1     -11.032  46.105 -19.824  1.00  0.00     0.021 C 
HETATM   43  C8  UNL     1     -10.828  45.855 -21.339  1.00  0.00     0.013 C 
BRANCH  42  44
HETATM   44  C5  UNL     1     -12.538  46.578 -19.589  1.00  0.00     0.074 C 
HETATM   45  C4  UNL     1     -12.823  47.900 -20.350  1.00  0.00     0.066 C 
HETATM   46  C3  UNL     1     -14.015  48.613 -19.795  1.00  0.00    -0.011 C 
HETATM   47  C2  UNL     1     -14.455  48.397 -18.545  1.00  0.00     0.010 C 
HETATM   48  C1  UNL     1     -15.649  49.091 -17.966  1.00  0.00     0.054 C 
HETATM   49  C37 UNL     1     -13.727  47.479 -17.631  1.00  0.00     0.289 C 
HETATM   50  O9  UNL     1     -12.695  46.773 -18.157  1.00  0.00    -0.306 OA
HETATM   51  O10 UNL     1     -14.029  47.386 -16.448  1.00  0.00    -0.260 OA
HETATM   52  C6  UNL     1     -13.600  45.550 -20.022  1.00  0.00     0.047 C 
ENDBRANCH  42  44
ENDBRANCH   1  42
TORSDOF 11
ENDMDL
