MODEL 1
REMARK minimizedAffinity -9.70351791
REMARK  7 active torsions:
REMARK  status: ('A' for Active; 'I' for Inactive)
REMARK    1  A    between atoms: C2_2  and  C30_33 
REMARK    2  A    between atoms: C3_3  and  C4_4 
REMARK    3  A    between atoms: C4_4  and  C5_5 
REMARK    4  A    between atoms: C5_5  and  C6_6 
REMARK    5  A    between atoms: C6_6  and  C8_8 
REMARK    6  A    between atoms: C15_15  and  O1_16 
REMARK    7  A    between atoms: C30_33  and  O5_35 
ROOT
HETATM    1  C8  UNL     1       1.026   7.044  13.444  1.00  0.00    -0.002 C 
HETATM    2  C9  UNL     1       0.137   8.184  14.003  1.00  0.00     0.007 C 
HETATM    3  C10 UNL     1      -1.326   7.714  13.946  1.00  0.00     0.015 C 
HETATM    4  C11 UNL     1      -1.255   6.197  13.701  1.00  0.00    -0.005 C 
HETATM    5  C12 UNL     1      -1.037   5.520  15.089  1.00  0.00     0.021 C 
HETATM    6  C13 UNL     1      -2.443   5.463  13.085  1.00  0.00     0.002 C 
HETATM    7  C14 UNL     1      -2.274   4.337  12.339  1.00  0.00    -0.032 C 
HETATM    8  C15 UNL     1      -0.851   3.790  12.100  1.00  0.00     0.149 C 
HETATM    9  C16 UNL     1       0.351   4.653  12.559  1.00  0.00     0.047 C 
HETATM   10  C17 UNL     1      -0.022   6.136  12.718  1.00  0.00    -0.026 C 
HETATM   11  C18 UNL     1      -0.334   6.749  11.315  1.00  0.00     0.016 C 
HETATM   12  C19 UNL     1      -3.474   3.517  11.761  1.00  0.00    -0.012 C 
HETATM   13  C20 UNL     1      -3.635   3.875  10.262  1.00  0.00     0.021 C 
HETATM   14  C21 UNL     1      -3.212   1.992  11.914  1.00  0.00     0.021 C 
HETATM   15  C22 UNL     1      -4.432   1.076  11.872  1.00  0.00     0.080 C 
HETATM   16  C23 UNL     1      -5.696   1.752  11.414  1.00  0.00     0.135 C 
HETATM   17  O2  UNL     1      -6.440   1.190  10.607  1.00  0.00    -0.297 OA
HETATM   18  C24 UNL     1      -6.071   3.083  12.078  1.00  0.00     0.018 C 
HETATM   19  C25 UNL     1      -6.952   2.734  13.297  1.00  0.00     0.023 C 
HETATM   20  C26 UNL     1      -6.941   3.901  11.097  1.00  0.00     0.023 C 
HETATM   21  C27 UNL     1      -4.781   3.831  12.568  1.00  0.00     0.020 C 
HETATM   22  C28 UNL     1      -4.990   5.339  12.703  1.00  0.00     0.090 C 
HETATM   23  C29 UNL     1      -3.816   5.982  13.383  1.00  0.00     0.157 C 
HETATM   24  O3  UNL     1      -3.993   6.932  14.143  1.00  0.00    -0.293 OA
ENDROOT
BRANCH   1  25
HETATM   25  C6  UNL     1       2.267   7.574  12.656  1.00  0.00    -0.014 C 
HETATM   26  C7  UNL     1       1.923   8.817  11.822  1.00  0.00     0.010 C 
BRANCH  25  27
HETATM   27  C5  UNL     1       2.867   6.519  11.680  1.00  0.00     0.008 C 
BRANCH  27  28
HETATM   28  C4  UNL     1       3.556   7.028  10.403  1.00  0.00     0.028 C 
BRANCH  28  29
HETATM   29  C3  UNL     1       3.098   6.381   9.123  1.00  0.00    -0.013 C 
HETATM   30  C2  UNL     1       2.637   6.968   7.999  1.00  0.00     0.008 C 
HETATM   31  C1  UNL     1       2.255   6.166   6.791  1.00  0.00     0.055 C 
BRANCH  30  32
HETATM   32  C30 UNL     1       2.460   8.437   7.908  1.00  0.00     0.171 C 
HETATM   33  O4  UNL     1       3.275   9.257   7.529  1.00  0.00    -0.646 OA
BRANCH  32  34
HETATM   34  O5  UNL     1       1.238   8.808   8.326  1.00  0.00    -0.773 OA
HETATM   35  H44 UNL     1       1.248   9.782   8.216  1.00  0.00     0.167 HD
ENDBRANCH  32  34
ENDBRANCH  30  32
ENDBRANCH  28  29
ENDBRANCH  27  28
ENDBRANCH  25  27
ENDBRANCH   1  25
BRANCH   8  36
HETATM   36  O1  UNL     1      -0.671   3.503  10.717  1.00  0.00    -0.391 OA
HETATM   37  H22 UNL     1      -0.594   4.347  10.243  1.00  0.00     0.210 HD
ENDBRANCH   8  36
TORSDOF 7
ENDMDL
