MODEL 1
REMARK minimizedAffinity -6.32683849
REMARK CNNscore 0.729792714
REMARK CNNaffinity 6.755867
REMARK  6 active torsions:
REMARK  status: ('A' for Active; 'I' for Inactive)
REMARK    1  A    between atoms: C15_15  and  C17_17 
REMARK    2  A    between atoms: C17_17  and  O2_19 
REMARK    3  A    between atoms: C26_28  and  C27_29 
REMARK    4  A    between atoms: C27_29  and  O3_30 
REMARK    5  A    between atoms: C28_31  and  O4_32 
REMARK    6  A    between atoms: C30_34  and  O5_35 
ROOT
HETATM    1  C1  UNL     1      -1.140  18.053  14.591  1.00  0.00     0.016 C 
HETATM    2  C2  UNL     1      -1.244  16.521  14.749  1.00  0.00     0.055 C 
HETATM    3  C3  UNL     1      -0.017  15.855  15.448  1.00  0.00     0.002 C 
HETATM    4  C4  UNL     1       0.492  16.667  16.655  1.00  0.00     0.013 C 
HETATM    5  C5  UNL     1       1.627  16.020  17.445  1.00  0.00     0.007 C 
HETATM    6  C6  UNL     1       1.265  14.601  17.937  1.00  0.00     0.003 C 
HETATM    7  C7  UNL     1       0.953  13.647  16.710  1.00  0.00    -0.027 C 
HETATM    8  C8  UNL     1       2.210  13.461  15.803  1.00  0.00     0.016 C 
HETATM    9  C9  UNL     1       0.661  12.200  17.230  1.00  0.00     0.011 C 
HETATM   10  C10 UNL     1       1.617  11.677  18.321  1.00  0.00     0.011 C 
HETATM   11  C11 UNL     1       1.715  12.611  19.566  1.00  0.00    -0.032 C 
HETATM   12  C12 UNL     1       0.276  12.644  20.179  1.00  0.00     0.016 C 
HETATM   13  C13 UNL     1       2.739  12.031  20.645  1.00  0.00     0.004 C 
HETATM   14  C14 UNL     1       2.298  10.628  21.166  1.00  0.00     0.026 C 
HETATM   15  C15 UNL     1       3.136  10.032  22.322  1.00  0.00     0.042 C 
HETATM   16  C16 UNL     1       4.493   9.519  21.805  1.00  0.00     0.026 C 
HETATM   17  C18 UNL     1       3.337  11.070  23.453  1.00  0.00     0.021 C 
HETATM   18  C19 UNL     1       2.660  12.414  23.177  1.00  0.00     0.011 C 
HETATM   19  C20 UNL     1       3.077  13.037  21.817  1.00  0.00    -0.040 C 
HETATM   20  C21 UNL     1       4.603  13.328  21.907  1.00  0.00     0.015 C 
HETATM   21  C22 UNL     1       2.371  14.410  21.693  1.00  0.00     0.010 C 
HETATM   22  C23 UNL     1       2.221  15.015  20.293  1.00  0.00     0.011 C 
HETATM   23  C24 UNL     1       2.219  14.033  19.078  1.00  0.00    -0.032 C 
HETATM   24  C25 UNL     1       3.681  14.000  18.547  1.00  0.00     0.016 C 
HETATM   25  C26 UNL     1      -0.336  14.318  15.869  1.00  0.00     0.025 C 
HETATM   26  C28 UNL     1      -0.691  13.519  14.563  1.00  0.00     0.135 C 
HETATM   27  C29 UNL     1      -1.592  14.282  13.585  1.00  0.00     0.101 C 
HETATM   28  C30 UNL     1      -1.203  15.755  13.419  1.00  0.00     0.168 C 
HETATM   29  O6  UNL     1       0.178  15.811  13.039  1.00  0.00    -0.354 OA
HETATM   30  C31 UNL     1       0.958  15.962  14.244  1.00  0.00     0.182 C 
ENDROOT
BRANCH  15  31
HETATM   31  C17 UNL     1       2.427   8.797  22.895  1.00  0.00     0.148 C 
HETATM   32  O1  UNL     1       1.907   7.891  22.261  1.00  0.00    -0.649 OA
BRANCH  31  33
HETATM   33  O2  UNL     1       2.331   8.798  24.241  1.00  0.00    -0.776 OA
HETATM   34  H26 UNL     1       1.825   7.982  24.443  1.00  0.00     0.167 HD
ENDBRANCH  31  33
ENDBRANCH  15  31
BRANCH  25  35
HETATM   35  C27 UNL     1      -1.609  14.278  16.827  1.00  0.00     0.177 C 
BRANCH  35  36
HETATM   36  O3  UNL     1      -2.431  13.123  16.696  1.00  0.00    -0.400 OA
HETATM   37  H43 UNL     1      -3.041  13.121  17.458  1.00  0.00     0.209 HD
ENDBRANCH  35  36
ENDBRANCH  25  35
BRANCH  26  38
HETATM   38  O4  UNL     1      -1.264  12.251  14.881  1.00  0.00    -0.394 OA
HETATM   39  H45 UNL     1      -1.640  11.881  14.058  1.00  0.00     0.210 HD
ENDBRANCH  26  38
BRANCH  28  40
HETATM   40  O5  UNL     1      -2.010  16.284  12.384  1.00  0.00    -0.365 OA
HETATM   41  H48 UNL     1      -2.329  17.164  12.646  1.00  0.00     0.213 HD
ENDBRANCH  28  40
TORSDOF 6
ENDMDL
