MODEL 1
REMARK minimizedAffinity -9.35112572
REMARK CNNscore 0.650434077
REMARK CNNaffinity 7.59407377
REMARK  12 active torsions:
REMARK  status: ('A' for Active; 'I' for Inactive)
REMARK    1  A    between atoms: O1_2  and  C2_3 
REMARK    2  A    between atoms: C4_5  and  O2_6 
REMARK    3  A    between atoms: O2_6  and  C5_7 
REMARK    4  A    between atoms: C8_10  and  C9_11 
REMARK    5  A    between atoms: N1_12  and  C10_14 
REMARK    6  A    between atoms: C10_14  and  C11_15 
REMARK    7  A    between atoms: C11_15  and  C12_16 
REMARK    8  A    between atoms: C12_16  and  O3_17 
REMARK    9  A    between atoms: C18_23  and  C19_24 
REMARK   10  A    between atoms: C25_32  and  O6_33 
REMARK   11  A    between atoms: C29_37  and  O7_38 
REMARK   12  A    between atoms: C33_43  and  O9_44 
ROOT
HETATM    1  C5  UNL     1      -2.455  49.711 -24.441  1.00  0.00     0.127 C 
HETATM    2  C6  UNL     1      -1.611  50.704 -23.669  1.00  0.00     0.033 C 
HETATM    3  C7  UNL     1      -2.375  51.230 -22.466  1.00  0.00     0.021 C 
HETATM    4  C8  UNL     1      -2.960  50.120 -21.536  1.00  0.00     0.026 C 
HETATM    5  C13 UNL     1      -2.283  50.330 -20.115  1.00  0.00     0.009 C 
HETATM    6  C14 UNL     1      -2.841  51.534 -19.350  1.00  0.00     0.007 C 
HETATM    7  C15 UNL     1      -1.913  51.819 -18.176  1.00  0.00     0.013 C 
HETATM    8  C16 UNL     1      -1.955  50.702 -17.115  1.00  0.00    -0.005 C 
HETATM    9  C17 UNL     1      -3.234  50.945 -16.264  1.00  0.00     0.019 C 
HETATM   10  C18 UNL     1      -0.717  50.773 -16.124  1.00  0.00     0.028 C 
HETATM   11  C23 UNL     1      -0.416  49.294 -15.839  1.00  0.00     0.013 C 
HETATM   12  C24 UNL     1      -0.640  48.605 -17.185  1.00  0.00     0.040 C 
HETATM   13  C25 UNL     1      -1.944  49.228 -17.716  1.00  0.00     0.070 C 
HETATM   14  C26 UNL     1      -2.275  49.058 -19.247  1.00  0.00     0.026 C 
HETATM   15  C27 UNL     1      -1.417  47.981 -19.968  1.00  0.00     0.011 C 
HETATM   16  C28 UNL     1      -1.417  48.080 -21.506  1.00  0.00     0.039 C 
HETATM   17  C29 UNL     1      -2.733  48.649 -22.063  1.00  0.00     0.073 C 
HETATM   18  C30 UNL     1      -2.823  48.494 -23.604  1.00  0.00     0.071 C 
ENDROOT
BRANCH   1  19
HETATM   19  O2  UNL     1      -1.713  49.334 -25.606  1.00  0.00    -0.356 OA
BRANCH  19  20
HETATM   20  C4  UNL     1      -0.968  50.418 -26.162  1.00  0.00     0.263 C 
HETATM   21  C3  UNL     1      -1.958  51.472 -26.649  1.00  0.00     0.095 C 
HETATM   22  C2  UNL     1      -1.185  52.623 -27.294  1.00  0.00     0.156 C 
HETATM   23  C33 UNL     1      -0.152  53.185 -26.304  1.00  0.00     0.175 C 
HETATM   24  C31 UNL     1       0.705  52.084 -25.653  1.00  0.00     0.151 C 
HETATM   25  O8  UNL     1      -0.081  50.977 -25.192  1.00  0.00    -0.354 OA
HETATM   26  C32 UNL     1       1.833  51.582 -26.560  1.00  0.00     0.042 C 
BRANCH  22  27
HETATM   27  O1  UNL     1      -2.046  53.719 -27.656  1.00  0.00    -0.388 OA
HETATM   28  C1  UNL     1      -1.487  54.601 -28.625  1.00  0.00     0.202 C 
ENDBRANCH  22  27
BRANCH  23  29
HETATM   29  O9  UNL     1      -0.851  53.894 -25.265  1.00  0.00    -0.390 OA
HETATM   30  H51 UNL     1      -1.566  54.378 -25.727  1.00  0.00     0.210 HD
ENDBRANCH  23  29
ENDBRANCH  19  20
ENDBRANCH   1  19
BRANCH  17  31
HETATM   31  O7  UNL     1      -3.727  47.758 -21.494  1.00  0.00    -0.389 OA
HETATM   32  H43 UNL     1      -3.977  47.111 -22.178  1.00  0.00     0.210 HD
ENDBRANCH  17  31
BRANCH   4  33
HETATM   33  C9  UNL     1      -4.490  50.254 -21.457  1.00  0.00     0.068 C 
HETATM   34  N1  UNL     1      -5.143  49.809 -20.436  1.00  0.00    -0.401 N 
ATOM     35  H1  UNL     1      -4.707  49.271 -19.688  1.00  0.00     0.158 HD
BRANCH  34  36
HETATM   36  C10 UNL     1      -6.575  50.150 -20.447  1.00  0.00     0.121 C 
BRANCH  36  37
HETATM   37  C11 UNL     1      -7.362  49.014 -21.100  1.00  0.00     0.045 C 
BRANCH  37  38
HETATM   38  C12 UNL     1      -7.702  49.317 -22.552  1.00  0.00     0.165 C 
BRANCH  38  39
HETATM   39  O3  UNL     1      -7.402  50.670 -22.878  1.00  0.00    -0.401 OA
HETATM   40  H20 UNL     1      -6.442  50.797 -22.758  1.00  0.00     0.209 HD
ENDBRANCH  38  39
ENDBRANCH  37  38
ENDBRANCH  36  37
ENDBRANCH  34  36
ENDBRANCH   4  33
BRANCH  13  41
HETATM   41  O6  UNL     1      -2.966  48.444 -17.031  1.00  0.00    -0.389 OA
HETATM   42  H37 UNL     1      -2.942  47.544 -17.400  1.00  0.00     0.210 HD
ENDBRANCH  13  41
BRANCH  10  43
HETATM   43  C19 UNL     1       0.520  51.533 -16.567  1.00  0.00    -0.045 A 
HETATM   44  C20 UNL     1       1.571  51.846 -15.799  1.00  0.00     0.087 A 
HETATM   45  C21 UNL     1       2.534  52.556 -16.643  1.00  0.00     0.283 A 
HETATM   46  O4  UNL     1       3.621  52.976 -16.273  1.00  0.00    -0.260 OA
HETATM   47  O5  UNL     1       2.028  52.664 -17.900  1.00  0.00    -0.314 OA
HETATM   48  C22 UNL     1       0.761  52.011 -17.953  1.00  0.00     0.213 A 
ENDBRANCH  10  43
TORSDOF 12
ENDMDL
