MODEL 1
REMARK minimizedAffinity -11.2043161
REMARK CNNscore 0.730901659
REMARK CNNaffinity 7.94021225
REMARK  9 active torsions:
REMARK  status: ('A' for Active; 'I' for Inactive)
REMARK    1  A    between atoms: C2_2  and  O1_3 
REMARK    2  A    between atoms: O1_3  and  C3_4 
REMARK    3  A    between atoms: C3_4  and  C4_6 
REMARK    4  A    between atoms: C7_9  and  C8_10 
REMARK    5  A    between atoms: C8_10  and  N1_11 
REMARK    6  A    between atoms: C9_12  and  N2_13 
REMARK    7  A    between atoms: C13_22  and  N5_23 
REMARK    8  A    between atoms: C26_40  and  O5_42 
REMARK    9  A    between atoms: C29_44  and  O6_45 
ROOT
HETATM    1  C4  UNL     1      -2.053  50.254 -26.502  1.00  0.00     0.151 C 
HETATM    2  C5  UNL     1      -2.290  50.046 -25.194  1.00  0.00     0.055 C 
HETATM    3  C6  UNL     1      -3.278  49.057 -24.806  1.00  0.00    -0.020 C 
HETATM    4  C7  UNL     1      -3.234  48.419 -23.617  1.00  0.00     0.006 C 
HETATM    5  C17 UNL     1      -4.265  48.653 -25.852  1.00  0.00     0.042 C 
HETATM    6  C18 UNL     1      -3.848  48.859 -27.192  1.00  0.00     0.092 C 
HETATM    7  C19 UNL     1      -4.589  48.376 -28.270  1.00  0.00     0.075 C 
HETATM    8  C20 UNL     1      -5.761  47.713 -27.989  1.00  0.00     0.081 C 
HETATM    9  O4  UNL     1      -6.561  47.152 -28.945  1.00  0.00    -0.341 OA
HETATM   10  C21 UNL     1      -7.461  46.286 -28.186  1.00  0.00     0.171 C 
HETATM   11  C22 UNL     1      -7.585  46.896 -26.767  1.00  0.00     0.057 C 
HETATM   12  C23 UNL     1      -8.786  47.844 -26.619  1.00  0.00     0.012 C 
HETATM   13  C24 UNL     1      -9.205  48.507 -27.928  1.00  0.00     0.004 C 
HETATM   14  C25 UNL     1      -9.509  47.517 -29.058  1.00  0.00     0.040 C 
HETATM   15  C26 UNL     1      -8.808  46.152 -28.927  1.00  0.00     0.081 C 
HETATM   16  C27 UNL     1      -9.708  45.109 -28.249  1.00  0.00     0.049 C 
HETATM   17  C28 UNL     1      -6.263  47.590 -26.703  1.00  0.00     0.016 C 
HETATM   18  C29 UNL     1      -5.541  48.092 -25.625  1.00  0.00     0.091 C 
HETATM   19  O7  UNL     1      -2.703  49.562 -27.516  1.00  0.00    -0.303 OA
ENDROOT
BRANCH   4  20
HETATM   20  C8  UNL     1      -2.244  48.582 -22.511  1.00  0.00     0.175 C 
BRANCH  20  21
HETATM   21  N1  UNL     1      -2.866  49.413 -21.469  1.00  0.00    -0.188 N 
HETATM   22  C9  UNL     1      -2.537  50.662 -21.052  1.00  0.00     0.693 A 
HETATM   23  N7  UNL     1      -3.430  50.948 -20.084  1.00  0.00    -0.200 N 
HETATM   24  C15 UNL     1      -4.318  49.923 -19.865  1.00  0.00     0.124 A 
HETATM   25  H13 UNL     1      -3.463  51.823 -19.556  1.00  0.00     0.183 HD
HETATM   26  C16 UNL     1      -3.971  48.944 -20.740  1.00  0.00     0.127 A 
BRANCH  22  27
HETATM   27  N2  UNL     1      -1.500  51.596 -21.455  1.00  0.00    -0.125 N 
HETATM   28  C10 UNL     1      -1.180  52.046 -22.614  1.00  0.00     0.209 A 
HETATM   29  N3  UNL     1      -0.091  52.920 -22.649  1.00  0.00    -0.344 N 
HETATM   30  C11 UNL     1       0.342  53.050 -21.426  1.00  0.00     0.148 A 
ATOM     31  H3  UNL     1       0.294  53.374 -23.477  1.00  0.00     0.167 HD
HETATM   32  C12 UNL     1       1.419  53.797 -20.767  1.00  0.00     0.290 A 
HETATM   33  C14 UNL     1      -0.478  52.248 -20.541  1.00  0.00     0.177 A 
HETATM   34  O3  UNL     1       2.108  54.522 -21.463  1.00  0.00    -0.265 OA
HETATM   35  N4  UNL     1       1.550  53.614 -19.414  1.00  0.00    -0.154 N 
HETATM   36  C13 UNL     1       0.741  52.852 -18.744  1.00  0.00     0.680 A 
ATOM     37  H4  UNL     1       2.304  54.090 -18.921  1.00  0.00     0.187 HD
HETATM   38  N6  UNL     1      -0.325  52.153 -19.274  1.00  0.00    -0.173 N 
ATOM     39  H6  UNL     1      -0.951  51.596 -18.693  1.00  0.00     0.186 HD
BRANCH  36  40
HETATM   40  N5  UNL     1       0.960  52.707 -17.422  1.00  0.00    -0.234 N 
HETATM   41  H11 UNL     1       0.174  52.543 -16.807  1.00  0.00     0.174 HD
HETATM   42  H12 UNL     1       1.633  53.365 -17.030  1.00  0.00     0.174 HD
ENDBRANCH  36  40
ENDBRANCH  22  27
ENDBRANCH  20  21
ENDBRANCH   4  20
BRANCH   1  43
HETATM   43  C3  UNL     1      -0.996  51.242 -26.859  1.00  0.00     0.317 C 
HETATM   44  O2  UNL     1      -1.241  52.338 -27.348  1.00  0.00    -0.257 OA
BRANCH  43  45
HETATM   45  O1  UNL     1       0.227  50.743 -26.569  1.00  0.00    -0.316 OA
BRANCH  45  46
HETATM   46  C2  UNL     1       1.148  51.696 -26.022  1.00  0.00     0.175 C 
HETATM   47  C1  UNL     1       2.500  51.472 -26.672  1.00  0.00     0.034 C 
ENDBRANCH  45  46
ENDBRANCH  43  45
ENDBRANCH   1  43
BRANCH  18  48
HETATM   48  O6  UNL     1      -6.094  48.024 -24.370  1.00  0.00    -0.354 OA
HETATM   49  C30 UNL     1      -6.722  49.274 -24.054  1.00  0.00     0.210 C 
ENDBRANCH  18  48
BRANCH  15  50
HETATM   50  O5  UNL     1      -8.554  45.639 -30.243  1.00  0.00    -0.388 OA
HETATM   51  H28 UNL     1      -9.377  45.692 -30.762  1.00  0.00     0.210 HD
ENDBRANCH  15  50
TORSDOF 9
ENDMDL
