MODEL 1
REMARK minimizedAffinity -10.5783319
REMARK  6 active torsions:
REMARK  status: ('A' for Active; 'I' for Inactive)
REMARK    1  A    between atoms: C3_3  and  C4_4 
REMARK    2  A    between atoms: C4_4  and  O1_5 
REMARK    3  A    between atoms: C6_9  and  C7_10 
REMARK    4  A    between atoms: C7_10  and  O4_12 
REMARK    5  A    between atoms: C7_10  and  C9_13 
REMARK    6  A    between atoms: C12_16  and  O5_17 
ROOT
HETATM    1  C9  UNL     1      -6.026  49.384 -22.386  1.00  0.00     0.033 C 
HETATM    2  C10 UNL     1      -6.595  49.155 -20.959  1.00  0.00     0.011 C 
HETATM    3  C11 UNL     1      -5.500  49.620 -19.966  1.00  0.00     0.039 C 
HETATM    4  C12 UNL     1      -4.498  50.371 -20.845  1.00  0.00     0.070 C 
HETATM    5  C13 UNL     1      -3.089  50.627 -20.280  1.00  0.00     0.030 C 
HETATM    6  C14 UNL     1      -3.142  51.484 -19.005  1.00  0.00     0.035 C 
HETATM    7  C15 UNL     1      -1.791  51.945 -18.561  1.00  0.00    -0.022 C 
HETATM    8  C16 UNL     1      -0.689  51.935 -19.331  1.00  0.00    -0.068 C 
HETATM    9  C17 UNL     1       0.620  52.441 -18.754  1.00  0.00     0.035 C 
HETATM   10  C18 UNL     1       1.438  53.262 -19.750  1.00  0.00     0.012 C 
HETATM   11  C19 UNL     1       0.586  53.788 -20.890  1.00  0.00     0.080 C 
HETATM   12  C20 UNL     1      -0.008  52.612 -21.636  1.00  0.00     0.139 C 
HETATM   13  O6  UNL     1       0.075  52.563 -22.864  1.00  0.00    -0.297 OA
HETATM   14  C21 UNL     1      -0.699  51.494 -20.805  1.00  0.00     0.044 C 
HETATM   15  C22 UNL     1       0.150  50.215 -20.939  1.00  0.00     0.029 C 
HETATM   16  C23 UNL     1      -2.174  51.307 -21.350  1.00  0.00     0.013 C 
HETATM   17  C24 UNL     1      -2.261  50.587 -22.731  1.00  0.00     0.007 C 
HETATM   18  C25 UNL     1      -3.687  50.260 -23.218  1.00  0.00     0.013 C 
HETATM   19  C26 UNL     1      -4.486  49.504 -22.145  1.00  0.00    -0.006 C 
HETATM   20  C27 UNL     1      -3.823  48.119 -21.925  1.00  0.00     0.019 C 
ENDROOT
BRANCH   1  21
HETATM   21  C7  UNL     1      -6.644  48.560 -23.554  1.00  0.00     0.085 C 
HETATM   22  C8  UNL     1      -6.735  47.078 -23.124  1.00  0.00     0.049 C 
BRANCH  21  23
HETATM   23  C6  UNL     1      -6.062  48.677 -24.996  1.00  0.00     0.170 C 
HETATM   24  O3  UNL     1      -6.902  47.844 -25.849  1.00  0.00    -0.309 OA
HETATM   25  C5  UNL     1      -6.588  47.673 -27.154  1.00  0.00     0.292 C 
HETATM   26  C3  UNL     1      -5.220  48.062 -27.587  1.00  0.00     0.042 C 
HETATM   27  O2  UNL     1      -7.385  47.181 -27.944  1.00  0.00    -0.260 OA
HETATM   28  C2  UNL     1      -4.263  48.291 -26.663  1.00  0.00    -0.067 C 
HETATM   29  C1  UNL     1      -2.815  48.562 -26.965  1.00  0.00     0.044 C 
HETATM   30  C28 UNL     1      -4.607  48.265 -25.193  1.00  0.00     0.070 C 
BRANCH  26  31
HETATM   31  C4  UNL     1      -5.058  48.109 -29.080  1.00  0.00     0.209 C 
BRANCH  31  32
HETATM   32  O1  UNL     1      -4.583  49.387 -29.480  1.00  0.00    -0.396 OA
HETATM   33  H6  UNL     1      -3.692  49.480 -29.087  1.00  0.00     0.209 HD
ENDBRANCH  31  32
ENDBRANCH  26  31
ENDBRANCH  21  23
BRANCH  21  34
HETATM   34  O4  UNL     1      -8.016  49.016 -23.652  1.00  0.00    -0.387 OA
HETATM   35  H11 UNL     1      -8.424  48.521 -24.389  1.00  0.00     0.210 HD
ENDBRANCH  21  34
ENDBRANCH   1  21
BRANCH   4  36
HETATM   36  O5  UNL     1      -5.120  51.654 -21.067  1.00  0.00    -0.389 OA
HETATM   37  H17 UNL     1      -4.660  52.124 -21.780  1.00  0.00     0.210 HD
ENDBRANCH   4  36
TORSDOF 6
ENDMDL
