MODEL 1
REMARK minimizedAffinity -7.01176643
REMARK CNNscore 0.626223683
REMARK CNNaffinity 6.81678057
REMARK  6 active torsions:
REMARK  status: ('A' for Active; 'I' for Inactive)
REMARK    1  A    between atoms: C2_2  and  C3_3 
REMARK    2  A    between atoms: C5_5  and  C6_6 
REMARK    3  A    between atoms: C6_6  and  C7_7 
REMARK    4  A    between atoms: C8_8  and  C9_9 
REMARK       I    between atoms: C9_9  and  N1_11 
REMARK    5  A    between atoms: N1_11  and  C10_12 
REMARK    6  A    between atoms: C10_12  and  C12_14 
ROOT
HETATM    1  C7  UNL     1       2.013  54.077 -10.273  1.00  0.00     0.036 C 
HETATM    2  C8  UNL     1       2.500  52.847 -11.025  1.00  0.00     0.011 C 
HETATM    3  C18 UNL     1       3.497  52.103 -10.518  1.00  0.00    -0.013 C 
HETATM    4  C19 UNL     1       4.161  52.552  -9.260  1.00  0.00     0.034 C 
HETATM    5  C20 UNL     1       4.489  54.063  -9.329  1.00  0.00     0.005 C 
HETATM    6  C21 UNL     1       5.229  54.572  -8.038  1.00  0.00    -0.043 C 
HETATM    7  C22 UNL     1       6.677  54.018  -8.010  1.00  0.00     0.015 C 
HETATM    8  C23 UNL     1       4.557  54.121  -6.723  1.00  0.00     0.015 C 
HETATM    9  C24 UNL     1       5.331  56.105  -8.087  1.00  0.00     0.009 C 
HETATM   10  C25 UNL     1       3.988  56.815  -8.148  1.00  0.00     0.002 C 
HETATM   11  C26 UNL     1       2.857  56.009  -8.782  1.00  0.00     0.010 C 
HETATM   12  C27 UNL     1       3.270  54.972  -9.852  1.00  0.00    -0.031 C 
HETATM   13  C28 UNL     1       3.770  55.758 -11.099  1.00  0.00     0.016 C 
ENDROOT
BRANCH   2  14
HETATM   14  C9  UNL     1       1.909  52.398 -12.309  1.00  0.00     0.248 C 
HETATM   15  O1  UNL     1       0.747  52.028 -12.392  1.00  0.00    -0.268 OA
HETATM   16  N1  UNL     1       2.808  52.452 -13.344  1.00  0.00    -0.349 N 
HETATM   17  H11 UNL     1       3.778  52.623 -13.113  1.00  0.00     0.163 HD
BRANCH  16  18
HETATM   18  C10 UNL     1       2.522  51.848 -14.631  1.00  0.00     0.114 C 
HETATM   19  C11 UNL     1       3.612  52.219 -15.640  1.00  0.00     0.037 C 
BRANCH  18  20
HETATM   20  C12 UNL     1       2.358  50.347 -14.466  1.00  0.00    -0.036 A 
HETATM   21  C13 UNL     1       1.213  49.716 -14.981  1.00  0.00     0.009 A 
HETATM   22  C14 UNL     1       1.026  48.342 -14.833  1.00  0.00     0.001 A 
HETATM   23  C15 UNL     1       1.975  47.577 -14.159  1.00  0.00     0.000 A 
HETATM   24  C16 UNL     1       3.106  48.189 -13.621  1.00  0.00     0.001 A 
HETATM   25  C17 UNL     1       3.293  49.565 -13.769  1.00  0.00     0.009 A 
ENDBRANCH  18  20
ENDBRANCH  16  18
ENDBRANCH   2  14
BRANCH   1  26
HETATM   26  C6  UNL     1       0.842  54.796 -11.015  1.00  0.00     0.038 C 
BRANCH  26  27
HETATM   27  C5  UNL     1      -0.538  54.258 -10.736  1.00  0.00    -0.019 C 
HETATM   28  C3  UNL     1      -1.186  54.168  -9.556  1.00  0.00    -0.067 C 
HETATM   29  C4  UNL     1      -0.605  54.602  -8.235  1.00  0.00     0.048 C 
BRANCH  28  30
HETATM   30  C2  UNL     1      -2.539  53.615  -9.550  1.00  0.00    -0.004 C 
HETATM   31  C1  UNL     1      -3.523  53.899 -10.415  1.00  0.00     0.012 C 
ENDBRANCH  28  30
ENDBRANCH  26  27
ENDBRANCH   1  26
TORSDOF 6
ENDMDL
