MODEL 1
REMARK minimizedAffinity -6.17413568
REMARK CNNscore 0.311348438
REMARK CNNaffinity 5.55738211
REMARK  8 active torsions:
REMARK  status: ('A' for Active; 'I' for Inactive)
REMARK    1  A    between atoms: C5_5  and  C6_6 
REMARK    2  A    between atoms: C6_6  and  O1_9 
REMARK    3  A    between atoms: C11_12  and  C12_13 
REMARK    4  A    between atoms: C12_13  and  C13_14 
REMARK    5  A    between atoms: C17_18  and  O2_19 
REMARK    6  A    between atoms: C18_20  and  C19_21 
REMARK    7  A    between atoms: C20_23  and  O4_24 
REMARK    8  A    between atoms: C21_25  and  C22_26 
ROOT
HETATM    1  C1  UNL     1       5.498  18.372  21.900  1.00  0.00     0.019 C 
HETATM    2  C2  UNL     1       5.699  17.228  21.224  1.00  0.00    -0.068 C 
HETATM    3  C3  UNL     1       6.989  16.592  21.308  1.00  0.00     0.003 C 
HETATM    4  C4  UNL     1       7.391  15.447  21.878  1.00  0.00    -0.019 C 
HETATM    5  C5  UNL     1       6.789  14.274  22.657  1.00  0.00     0.042 C 
HETATM    6  C9  UNL     1       5.293  14.352  23.125  1.00  0.00     0.020 C 
HETATM    7  C10 UNL     1       4.088  14.006  22.200  1.00  0.00     0.030 C 
HETATM    8  C11 UNL     1       3.695  12.496  22.071  1.00  0.00     0.031 C 
HETATM    9  C16 UNL     1       2.694  12.428  20.931  1.00  0.00     0.015 A 
HETATM   10  C17 UNL     1       2.707  11.458  19.912  1.00  0.00     0.091 A 
HETATM   11  C18 UNL     1       1.715  11.453  18.914  1.00  0.00     0.069 A 
HETATM   12  C20 UNL     1       0.715  12.437  18.902  1.00  0.00     0.097 A 
HETATM   13  C21 UNL     1       0.705  13.419  19.897  1.00  0.00     0.070 A 
HETATM   14  C23 UNL     1       1.687  13.406  20.904  1.00  0.00     0.095 A 
HETATM   15  O6  UNL     1       1.598  14.357  21.883  1.00  0.00    -0.338 OA
HETATM   16  C24 UNL     1       2.799  14.852  22.517  1.00  0.00     0.068 C 
HETATM   17  C25 UNL     1       2.453  14.902  24.030  1.00  0.00     0.047 C 
HETATM   18  C26 UNL     1       2.893  16.342  22.085  1.00  0.00     0.039 C 
HETATM   19  C27 UNL     1       3.234  16.657  20.622  1.00  0.00     0.007 C 
HETATM   20  C28 UNL     1       4.715  16.663  20.228  1.00  0.00     0.038 C 
ENDROOT
BRANCH   5  21
HETATM   21  C6  UNL     1       7.339  12.917  22.068  1.00  0.00     0.057 C 
HETATM   22  C7  UNL     1       6.692  12.523  20.735  1.00  0.00     0.046 C 
HETATM   23  C8  UNL     1       7.340  11.774  23.089  1.00  0.00     0.046 C 
BRANCH  21  24
HETATM   24  O1  UNL     1       8.738  13.090  21.728  1.00  0.00    -0.390 OA
HETATM   25  H12 UNL     1       9.234  13.283  22.543  1.00  0.00     0.210 HD
ENDBRANCH  21  24
ENDBRANCH   5  21
BRANCH   8  26
HETATM   26  C12 UNL     1       3.164  11.793  23.347  1.00  0.00     0.014 C 
BRANCH  26  27
HETATM   27  C13 UNL     1       3.639  10.327  23.517  1.00  0.00    -0.022 C 
HETATM   28  C14 UNL     1       2.557   9.356  23.033  1.00  0.00     0.009 C 
HETATM   29  C15 UNL     1       4.928  10.053  22.737  1.00  0.00     0.009 C 
ENDBRANCH  26  27
ENDBRANCH   8  26
BRANCH  10  30
HETATM   30  O2  UNL     1       3.654  10.471  19.851  1.00  0.00    -0.359 OA
HETATM   31  H26 UNL     1       4.364  10.609  20.495  1.00  0.00     0.217 HD
ENDBRANCH  10  30
BRANCH  11  32
HETATM   32  C19 UNL     1       1.720  10.382  17.893  1.00  0.00     0.275 C 
HETATM   33  O3  UNL     1       2.438   9.392  18.016  1.00  0.00    -0.301 OA
ENDBRANCH  11  32
BRANCH  13  34
HETATM   34  C22 UNL     1      -0.304  14.510  19.918  1.00  0.00     0.275 C 
HETATM   35  O5  UNL     1      -0.481  15.269  20.863  1.00  0.00    -0.301 OA
ENDBRANCH  13  34
BRANCH  12  36
HETATM   36  O4  UNL     1      -0.278  12.431  17.958  1.00  0.00    -0.359 OA
HETATM   37  H28 UNL     1      -0.119  11.702  17.313  1.00  0.00     0.217 HD
ENDBRANCH  12  36
TORSDOF 8
ENDMDL
