MODEL 1
REMARK minimizedAffinity -9.72663021
REMARK  9 active torsions:
REMARK  status: ('A' for Active; 'I' for Inactive)
REMARK    1  A    between atoms: C2_2  and  C3_3 
REMARK    2  A    between atoms: C2_2  and  C9_12 
REMARK    3  A    between atoms: C3_3  and  C4_4 
REMARK    4  A    between atoms: C4_4  and  C5_5 
REMARK    5  A    between atoms: C5_5  and  O1_6 
REMARK    6  A    between atoms: C5_5  and  C6_7 
REMARK    7  A    between atoms: C6_7  and  O2_9 
REMARK    8  A    between atoms: C6_7  and  C8_10 
REMARK    9  A    between atoms: C8_10  and  O3_11 
ROOT
HETATM    1  C9  UNL     1      -0.109  50.936 -21.326  1.00  0.00    -0.002 C 
HETATM    2  C10 UNL     1       0.016  51.000 -19.779  1.00  0.00     0.007 C 
HETATM    3  C11 UNL     1      -1.227  50.302 -19.196  1.00  0.00     0.015 C 
HETATM    4  C12 UNL     1      -1.813  49.486 -20.364  1.00  0.00    -0.005 C 
HETATM    5  C13 UNL     1      -0.983  48.165 -20.459  1.00  0.00     0.021 C 
HETATM    6  C14 UNL     1      -3.264  49.019 -20.340  1.00  0.00    -0.000 C 
HETATM    7  C15 UNL     1      -3.971  48.854 -21.491  1.00  0.00    -0.060 C 
HETATM    8  C16 UNL     1      -3.329  49.182 -22.852  1.00  0.00     0.036 C 
HETATM    9  C17 UNL     1      -1.895  49.756 -22.852  1.00  0.00     0.015 C 
HETATM   10  C18 UNL     1      -1.591  50.507 -21.551  1.00  0.00    -0.028 C 
HETATM   11  C19 UNL     1      -2.527  51.748 -21.466  1.00  0.00     0.016 C 
HETATM   12  C20 UNL     1      -5.436  48.338 -21.528  1.00  0.00    -0.014 C 
HETATM   13  C21 UNL     1      -5.380  46.865 -21.995  1.00  0.00     0.020 C 
HETATM   14  C22 UNL     1      -6.281  49.169 -22.537  1.00  0.00     0.021 C 
HETATM   15  C23 UNL     1      -7.793  49.161 -22.328  1.00  0.00     0.080 C 
HETATM   16  C24 UNL     1      -8.259  48.067 -21.404  1.00  0.00     0.135 C 
HETATM   17  O4  UNL     1      -9.195  47.336 -21.730  1.00  0.00    -0.297 OA
HETATM   18  C25 UNL     1      -7.584  47.979 -20.031  1.00  0.00     0.018 C 
HETATM   19  C26 UNL     1      -7.705  46.534 -19.503  1.00  0.00     0.023 C 
HETATM   20  C27 UNL     1      -8.394  48.887 -19.083  1.00  0.00     0.023 C 
HETATM   21  C28 UNL     1      -6.107  48.501 -20.124  1.00  0.00     0.020 C 
HETATM   22  C29 UNL     1      -5.209  47.952 -19.016  1.00  0.00     0.090 C 
HETATM   23  C30 UNL     1      -3.858  48.618 -19.025  1.00  0.00     0.157 C 
HETATM   24  O5  UNL     1      -3.239  48.760 -17.972  1.00  0.00    -0.293 OA
ENDROOT
BRANCH   1  25
HETATM   25  C2  UNL     1       0.556  52.147 -22.052  1.00  0.00    -0.014 C 
HETATM   26  C1  UNL     1       0.776  53.416 -21.217  1.00  0.00     0.010 C 
BRANCH  25  27
HETATM   27  C3  UNL     1      -0.170  52.478 -23.375  1.00  0.00     0.007 C 
BRANCH  27  28
HETATM   28  C4  UNL     1       0.688  53.076 -24.502  1.00  0.00     0.035 C 
BRANCH  28  29
HETATM   29  C5  UNL     1       0.258  52.844 -25.964  1.00  0.00     0.154 C 
BRANCH  29  30
HETATM   30  O1  UNL     1       0.449  54.045 -26.724  1.00  0.00    -0.392 OA
HETATM   31  H10 UNL     1       1.411  54.086 -26.901  1.00  0.00     0.210 HD
ENDBRANCH  29  30
BRANCH  29  32
HETATM   32  C6  UNL     1       0.905  51.655 -26.733  1.00  0.00     0.101 C 
HETATM   33  C7  UNL     1       0.857  51.837 -28.249  1.00  0.00     0.051 C 
BRANCH  32  34
HETATM   34  O2  UNL     1       0.187  50.451 -26.392  1.00  0.00    -0.385 OA
HETATM   35  H14 UNL     1       0.776  49.936 -25.802  1.00  0.00     0.210 HD
ENDBRANCH  32  34
BRANCH  32  36
HETATM   36  C8  UNL     1       2.376  51.464 -26.284  1.00  0.00     0.204 C 
BRANCH  36  37
HETATM   37  O3  UNL     1       3.250  51.505 -27.414  1.00  0.00    -0.398 OA
HETATM   38  H17 UNL     1       2.936  50.820 -28.041  1.00  0.00     0.209 HD
ENDBRANCH  36  37
ENDBRANCH  32  36
ENDBRANCH  29  32
ENDBRANCH  28  29
ENDBRANCH  27  28
ENDBRANCH  25  27
ENDBRANCH   1  25
TORSDOF 9
ENDMDL
