MODEL 1
REMARK minimizedAffinity -7.69985199
REMARK CNNscore 0.74227351
REMARK CNNaffinity 6.88020468
REMARK  7 active torsions:
REMARK  status: ('A' for Active; 'I' for Inactive)
REMARK    1  A    between atoms: C2_2  and  C30_33 
REMARK    2  A    between atoms: C3_3  and  C4_4 
REMARK    3  A    between atoms: C4_4  and  C5_5 
REMARK    4  A    between atoms: C5_5  and  C6_6 
REMARK    5  A    between atoms: C6_6  and  C8_8 
REMARK    6  A    between atoms: C15_15  and  O1_16 
REMARK    7  A    between atoms: C30_33  and  O5_35 
ROOT
HETATM    1  C8  UNL     1       4.022  56.245  -8.250  1.00  0.00    -0.002 C 
HETATM    2  C9  UNL     1       5.071  55.456  -9.067  1.00  0.00     0.007 C 
HETATM    3  C10 UNL     1       4.284  54.432  -9.921  1.00  0.00     0.015 C 
HETATM    4  C11 UNL     1       2.812  54.896  -9.862  1.00  0.00    -0.005 C 
HETATM    5  C12 UNL     1       2.645  56.020 -10.931  1.00  0.00     0.021 C 
HETATM    6  C13 UNL     1       1.660  53.938 -10.145  1.00  0.00     0.002 C 
HETATM    7  C14 UNL     1       0.451  54.085  -9.528  1.00  0.00    -0.032 C 
HETATM    8  C15 UNL     1       0.216  55.211  -8.520  1.00  0.00     0.149 C 
HETATM    9  C16 UNL     1       1.425  56.097  -8.136  1.00  0.00     0.047 C 
HETATM   10  C17 UNL     1       2.748  55.362  -8.351  1.00  0.00    -0.026 C 
HETATM   11  C18 UNL     1       2.815  54.165  -7.357  1.00  0.00     0.016 C 
HETATM   12  C19 UNL     1      -0.679  53.038  -9.741  1.00  0.00    -0.012 C 
HETATM   13  C20 UNL     1      -0.312  51.856  -8.802  1.00  0.00     0.021 C 
HETATM   14  C21 UNL     1      -2.129  53.461  -9.355  1.00  0.00     0.021 C 
HETATM   15  C22 UNL     1      -2.918  54.043 -10.517  1.00  0.00     0.080 C 
HETATM   16  C23 UNL     1      -3.113  52.966 -11.565  1.00  0.00     0.135 C 
HETATM   17  O2  UNL     1      -4.192  52.851 -12.148  1.00  0.00    -0.297 OA
HETATM   18  C24 UNL     1      -1.915  52.046 -11.875  1.00  0.00     0.018 C 
HETATM   19  C25 UNL     1      -2.234  50.648 -11.334  1.00  0.00     0.023 C 
HETATM   20  C26 UNL     1      -1.798  51.954 -13.412  1.00  0.00     0.023 C 
HETATM   21  C27 UNL     1      -0.631  52.700 -11.273  1.00  0.00     0.020 C 
HETATM   22  C28 UNL     1       0.690  52.010 -11.615  1.00  0.00     0.090 C 
HETATM   23  C29 UNL     1       1.874  52.834 -11.145  1.00  0.00     0.157 C 
HETATM   24  O3  UNL     1       2.995  52.589 -11.587  1.00  0.00    -0.293 OA
ENDROOT
BRANCH   1  25
HETATM   25  C6  UNL     1       4.472  56.885  -6.908  1.00  0.00    -0.014 C 
HETATM   26  C7  UNL     1       3.442  57.944  -6.470  1.00  0.00     0.010 C 
BRANCH  25  27
HETATM   27  C5  UNL     1       5.916  57.398  -6.691  1.00  0.00     0.008 C 
BRANCH  27  28
HETATM   28  C4  UNL     1       6.472  57.656  -5.287  1.00  0.00     0.028 C 
BRANCH  28  29
HETATM   29  C3  UNL     1       7.880  58.168  -5.234  1.00  0.00    -0.013 C 
HETATM   30  C2  UNL     1       8.980  57.485  -4.857  1.00  0.00     0.008 C 
HETATM   31  C1  UNL     1       9.004  56.071  -4.363  1.00  0.00     0.055 C 
BRANCH  30  32
HETATM   32  C30 UNL     1      10.271  58.220  -4.920  1.00  0.00     0.171 C 
HETATM   33  O4  UNL     1      10.435  59.380  -5.254  1.00  0.00    -0.646 OA
BRANCH  32  34
HETATM   34  O5  UNL     1      11.312  57.451  -4.562  1.00  0.00    -0.773 OA
HETATM   35  H44 UNL     1      12.080  58.053  -4.653  1.00  0.00     0.167 HD
ENDBRANCH  32  34
ENDBRANCH  30  32
ENDBRANCH  28  29
ENDBRANCH  27  28
ENDBRANCH  25  27
ENDBRANCH   1  25
BRANCH   8  36
HETATM   36  O1  UNL     1      -0.797  56.069  -9.037  1.00  0.00    -0.391 OA
HETATM   37  H22 UNL     1      -0.444  56.485  -9.841  1.00  0.00     0.210 HD
ENDBRANCH   8  36
TORSDOF 7
ENDMDL
