MODEL 1
REMARK minimizedAffinity -8.00621605
REMARK CNNscore 0.365301847
REMARK CNNaffinity 6.68848801
REMARK  14 active torsions:
REMARK  status: ('A' for Active; 'I' for Inactive)
REMARK    1  A    between atoms: C2_2  and  C4_4 
REMARK    2  A    between atoms: C7_7  and  C8_8 
REMARK    3  A    between atoms: C8_8  and  O2_10 
REMARK    4  A    between atoms: C21_23  and  O3_24 
REMARK    5  A    between atoms: O3_24  and  C22_25 
REMARK    6  A    between atoms: C22_25  and  C23_27 
REMARK    7  A    between atoms: C23_27  and  N1_28 
REMARK    8  A    between atoms: N1_28  and  O5_29 
REMARK    9  A    between atoms: N1_28  and  C25_31 
REMARK   10  A    between atoms: C26_33  and  C27_34 
REMARK   11  A    between atoms: C27_34  and  O7_35 
REMARK   12  A    between atoms: C28_36  and  O8_37 
REMARK   13  A    between atoms: C29_38  and  O9_39 
REMARK   14  A    between atoms: C30_40  and  O10_41 
ROOT
HETATM    1  C4  UNL     1     -17.696  43.212 -22.833  1.00  0.00     0.019 C 
HETATM    2  C5  UNL     1     -19.184  43.288 -22.432  1.00  0.00     0.011 C 
HETATM    3  C6  UNL     1     -19.927  43.653 -23.714  1.00  0.00     0.021 C 
HETATM    4  C7  UNL     1     -18.988  44.608 -24.489  1.00  0.00     0.050 C 
HETATM    5  C9  UNL     1     -19.085  44.314 -25.999  1.00  0.00     0.022 C 
HETATM    6  C10 UNL     1     -17.830  44.674 -26.805  1.00  0.00     0.011 C 
HETATM    7  C11 UNL     1     -16.510  44.025 -26.273  1.00  0.00    -0.032 C 
HETATM    8  C12 UNL     1     -16.732  42.495 -26.311  1.00  0.00     0.016 C 
HETATM    9  C13 UNL     1     -16.351  44.545 -24.798  1.00  0.00     0.000 C 
HETATM   10  C14 UNL     1     -15.970  46.066 -24.773  1.00  0.00     0.006 C 
HETATM   11  C15 UNL     1     -15.032  46.549 -25.875  1.00  0.00     0.006 C 
HETATM   12  C16 UNL     1     -14.216  45.380 -26.411  1.00  0.00     0.003 C 
HETATM   13  C17 UNL     1     -12.830  45.773 -27.078  1.00  0.00    -0.035 C 
HETATM   14  C18 UNL     1     -13.035  46.696 -28.299  1.00  0.00     0.016 C 
HETATM   15  C19 UNL     1     -11.973  46.560 -26.024  1.00  0.00     0.012 C 
HETATM   16  C20 UNL     1     -10.489  46.183 -25.957  1.00  0.00     0.034 C 
HETATM   17  C21 UNL     1      -9.870  45.828 -27.309  1.00  0.00     0.140 C 
HETATM   18  C31 UNL     1     -10.605  44.618 -27.985  1.00  0.00    -0.017 C 
HETATM   19  C32 UNL     1     -10.559  44.705 -29.526  1.00  0.00     0.018 C 
HETATM   20  C33 UNL     1      -9.802  43.336 -27.611  1.00  0.00     0.018 C 
HETATM   21  C34 UNL     1     -12.072  44.445 -27.419  1.00  0.00     0.004 C 
HETATM   22  C35 UNL     1     -12.947  43.459 -28.214  1.00  0.00     0.007 C 
HETATM   23  C36 UNL     1     -14.268  43.144 -27.496  1.00  0.00     0.011 C 
HETATM   24  C37 UNL     1     -15.165  44.390 -27.193  1.00  0.00    -0.032 C 
HETATM   25  C38 UNL     1     -15.643  44.926 -28.567  1.00  0.00     0.016 C 
HETATM   26  C39 UNL     1     -17.582  44.396 -23.849  1.00  0.00     0.017 C 
ENDROOT
BRANCH  17  27
HETATM   27  O3  UNL     1      -9.903  47.021 -28.117  1.00  0.00    -0.314 OA
BRANCH  27  28
HETATM   28  C22 UNL     1      -8.707  47.475 -28.614  1.00  0.00     0.274 C 
HETATM   29  O4  UNL     1      -8.536  48.589 -29.086  1.00  0.00    -0.264 OA
BRANCH  28  30
HETATM   30  C23 UNL     1      -7.644  46.400 -28.351  1.00  0.00     0.234 C 
BRANCH  30  31
HETATM   31  N1  UNL     1      -6.243  46.778 -28.649  1.00  0.00    -0.156 NA
BRANCH  31  32
HETATM   32  O5  UNL     1      -6.068  48.157 -28.220  1.00  0.00    -0.305 OA
HETATM   33  C24 UNL     1      -5.189  48.180 -27.095  1.00  0.00     0.230 C 
ENDBRANCH  31  32
BRANCH  31  34
HETATM   34  C25 UNL     1      -5.899  46.621 -30.082  1.00  0.00     0.253 C 
HETATM   35  O6  UNL     1      -6.977  46.066 -30.839  1.00  0.00    -0.356 OA
HETATM   36  C26 UNL     1      -6.640  45.719 -32.197  1.00  0.00     0.178 C 
HETATM   37  C28 UNL     1      -6.056  46.916 -32.980  1.00  0.00     0.180 C 
HETATM   38  C29 UNL     1      -4.955  47.648 -32.189  1.00  0.00     0.182 C 
HETATM   39  C30 UNL     1      -5.423  47.939 -30.755  1.00  0.00     0.195 C 
BRANCH  36  40
HETATM   40  C27 UNL     1      -5.759  44.456 -32.246  1.00  0.00     0.198 C 
BRANCH  40  41
HETATM   41  O7  UNL     1      -4.822  44.520 -33.313  1.00  0.00    -0.398 OA
HETATM   42  H42 UNL     1      -4.277  43.714 -33.266  1.00  0.00     0.209 HD
ENDBRANCH  40  41
ENDBRANCH  36  40
BRANCH  37  43
HETATM   43  O8  UNL     1      -7.111  47.841 -33.289  1.00  0.00    -0.390 OA
HETATM   44  H44 UNL     1      -7.321  48.322 -32.461  1.00  0.00     0.210 HD
ENDBRANCH  37  43
BRANCH  38  45
HETATM   45  O9  UNL     1      -3.746  46.886 -32.165  1.00  0.00    -0.390 OA
HETATM   46  H46 UNL     1      -3.420  46.848 -33.084  1.00  0.00     0.210 HD
ENDBRANCH  38  45
BRANCH  39  47
HETATM   47  O10 UNL     1      -6.502  48.899 -30.834  1.00  0.00    -0.389 OA
HETATM   48  H48 UNL     1      -7.152  48.604 -30.158  1.00  0.00     0.210 HD
ENDBRANCH  39  47
ENDBRANCH  31  34
ENDBRANCH  30  31
ENDBRANCH  28  30
ENDBRANCH  27  28
ENDBRANCH  17  27
BRANCH   1  49
HETATM   49  C2  UNL     1     -17.177  41.817 -23.161  1.00  0.00    -0.088 C 
HETATM   50  C1  UNL     1     -15.883  41.451 -23.142  1.00  0.00     0.014 C 
HETATM   51  C3  UNL     1     -18.199  40.837 -23.690  1.00  0.00     0.043 C 
ENDBRANCH   1  49
BRANCH   4  52
HETATM   52  C8  UNL     1     -19.447  46.058 -24.260  1.00  0.00     0.149 C 
HETATM   53  O1  UNL     1     -19.970  46.799 -25.077  1.00  0.00    -0.649 OA
BRANCH  52  54
HETATM   54  O2  UNL     1     -19.184  46.528 -23.025  1.00  0.00    -0.776 OA
HETATM   55  H11 UNL     1     -19.507  47.451 -23.054  1.00  0.00     0.167 HD
ENDBRANCH  52  54
ENDBRANCH   4  52
TORSDOF 14
ENDMDL
