MODEL 1
REMARK minimizedAffinity -9.01862812
REMARK  7 active torsions:
REMARK  status: ('A' for Active; 'I' for Inactive)
REMARK    1  A    between atoms: C2_2  and  C4_4 
REMARK    2  A    between atoms: C7_7  and  C8_8 
REMARK    3  A    between atoms: C8_8  and  O2_10 
REMARK    4  A    between atoms: C15_17  and  O3_18 
REMARK    5  A    between atoms: C21_24  and  O4_25 
REMARK    6  A    between atoms: C22_26  and  C24_28 
REMARK    7  A    between atoms: C24_28  and  O5_29 
ROOT
HETATM    1  C4  UNL     1      -6.548   4.073  12.154  1.00  0.00     0.019 C 
HETATM    2  C5  UNL     1      -7.101   2.738  11.583  1.00  0.00     0.011 C 
HETATM    3  C6  UNL     1      -5.902   1.782  11.453  1.00  0.00     0.021 C 
HETATM    4  C7  UNL     1      -4.691   2.717  11.377  1.00  0.00     0.050 C 
HETATM    5  C9  UNL     1      -3.347   2.087  11.751  1.00  0.00     0.022 C 
HETATM    6  C10 UNL     1      -2.263   3.178  11.831  1.00  0.00     0.011 C 
HETATM    7  C11 UNL     1      -2.569   4.365  12.822  1.00  0.00    -0.032 C 
HETATM    8  C12 UNL     1      -2.469   3.721  14.244  1.00  0.00     0.016 C 
HETATM    9  C13 UNL     1      -4.028   4.896  12.575  1.00  0.00     0.003 C 
HETATM   10  C14 UNL     1      -4.423   5.914  13.651  1.00  0.00     0.038 C 
HETATM   11  C15 UNL     1      -3.353   6.969  13.957  1.00  0.00     0.124 C 
HETATM   12  C16 UNL     1      -2.210   7.053  12.914  1.00  0.00     0.032 C 
HETATM   13  C17 UNL     1      -1.192   8.298  13.155  1.00  0.00    -0.033 C 
HETATM   14  C18 UNL     1      -0.684   8.780  11.761  1.00  0.00     0.016 C 
HETATM   15  C19 UNL     1      -1.931   9.524  13.782  1.00  0.00     0.012 C 
HETATM   16  C20 UNL     1      -1.018  10.681  14.198  1.00  0.00     0.033 C 
HETATM   17  C21 UNL     1       0.096  10.230  15.139  1.00  0.00     0.128 C 
HETATM   18  C22 UNL     1       0.949   9.042  14.596  1.00  0.00     0.007 C 
HETATM   19  C23 UNL     1       1.880   9.554  13.476  1.00  0.00     0.020 C 
HETATM   20  C25 UNL     1      -0.019   7.878  14.121  1.00  0.00     0.007 C 
HETATM   21  C26 UNL     1       0.691   6.617  13.601  1.00  0.00     0.007 C 
HETATM   22  C27 UNL     1      -0.278   5.438  13.551  1.00  0.00     0.011 C 
HETATM   23  C28 UNL     1      -1.519   5.629  12.642  1.00  0.00    -0.030 C 
HETATM   24  C29 UNL     1      -1.000   5.641  11.172  1.00  0.00     0.016 C 
HETATM   25  C30 UNL     1      -5.065   3.747  12.465  1.00  0.00     0.017 C 
ENDROOT
BRANCH   4  26
HETATM   26  C8  UNL     1      -4.622   3.268   9.944  1.00  0.00     0.149 C 
HETATM   27  O1  UNL     1      -5.550   3.503   9.189  1.00  0.00    -0.649 OA
BRANCH  26  28
HETATM   28  O2  UNL     1      -3.357   3.479   9.524  1.00  0.00    -0.776 OA
HETATM   29  H11 UNL     1      -3.465   3.819   8.611  1.00  0.00     0.167 HD
ENDBRANCH  26  28
ENDBRANCH   4  26
BRANCH   1  30
HETATM   30  C2  UNL     1      -7.447   4.585  13.268  1.00  0.00    -0.088 C 
HETATM   31  C1  UNL     1      -7.499   4.069  14.509  1.00  0.00     0.014 C 
HETATM   32  C3  UNL     1      -8.341   5.736  12.884  1.00  0.00     0.043 C 
ENDBRANCH   1  30
BRANCH  11  33
HETATM   33  O3  UNL     1      -2.829   6.793  15.269  1.00  0.00    -0.395 OA
HETATM   34  H23 UNL     1      -3.582   6.738  15.882  1.00  0.00     0.210 HD
ENDBRANCH  11  33
BRANCH  18  35
HETATM   35  C24 UNL     1       1.849   8.559  15.784  1.00  0.00     0.176 C 
BRANCH  35  36
HETATM   36  O5  UNL     1       1.276   7.497  16.539  1.00  0.00    -0.400 OA
HETATM   37  H39 UNL     1       1.401   6.676  16.034  1.00  0.00     0.209 HD
ENDBRANCH  35  36
ENDBRANCH  18  35
BRANCH  17  38
HETATM   38  O4  UNL     1      -0.486   9.915  16.409  1.00  0.00    -0.395 OA
HETATM   39  H33 UNL     1      -1.074   9.145  16.302  1.00  0.00     0.210 HD
ENDBRANCH  17  38
TORSDOF 7
ENDMDL
