MODEL 1
REMARK minimizedAffinity -8.66154385
REMARK  13 active torsions:
REMARK  status: ('A' for Active; 'I' for Inactive)
REMARK    1  A    between atoms: C4_4  and  C5_5 
REMARK    2  A    between atoms: C5_5  and  C6_6 
REMARK    3  A    between atoms: C6_6  and  C7_7 
REMARK    4  A    between atoms: C9_9  and  C10_10 
REMARK    5  A    between atoms: C11_11  and  C12_12 
REMARK    6  A    between atoms: C14_14  and  C15_15 
REMARK    7  A    between atoms: C18_18  and  O1_19 
REMARK    8  A    between atoms: C19_21  and  C20_22 
REMARK    9  A    between atoms: C20_22  and  C21_23 
REMARK   10  A    between atoms: C21_23  and  C22_24 
REMARK   11  A    between atoms: C22_24  and  O3_25 
REMARK   12  A    between atoms: C24_27  and  C26_29 
REMARK   13  A    between atoms: C29_33  and  O5_35 
ROOT
HETATM    1  C15 UNL     1       0.446   5.571  11.483  1.00  0.00     0.149 C 
HETATM    2  C16 UNL     1       0.376   5.935   9.986  1.00  0.00     0.054 C 
HETATM    3  C17 UNL     1       1.347   7.136   9.868  1.00  0.00     0.050 C 
HETATM    4  C18 UNL     1       0.992   7.789  11.215  1.00  0.00     0.270 C 
HETATM    5  O2  UNL     1       0.961   6.732  12.164  1.00  0.00    -0.351 OA
HETATM    6  C19 UNL     1       2.831   6.547   9.799  1.00  0.00     0.032 C 
HETATM    7  C23 UNL     1       3.081   5.886   8.422  1.00  0.00    -0.066 C 
HETATM    8  C24 UNL     1       3.479   4.594   8.288  1.00  0.00    -0.021 C 
HETATM    9  C25 UNL     1       3.774   3.653   9.428  1.00  0.00     0.052 C 
HETATM   10  C27 UNL     1       2.806   6.846   7.279  1.00  0.00     0.038 C 
HETATM   11  C28 UNL     1       1.373   7.370   7.328  1.00  0.00     0.042 C 
HETATM   12  C29 UNL     1       1.055   8.081   8.654  1.00  0.00     0.067 C 
HETATM   13  C30 UNL     1      -0.380   8.631   8.569  1.00  0.00     0.047 C 
ENDROOT
BRANCH   4  14
HETATM   14  O1  UNL     1       1.878   8.805  11.604  1.00  0.00    -0.370 OA
HETATM   15  H26 UNL     1       1.609   9.024  12.515  1.00  0.00     0.212 HD
ENDBRANCH   4  14
BRANCH   6  16
HETATM   16  C20 UNL     1       4.018   7.493  10.124  1.00  0.00     0.012 C 
BRANCH  16  17
HETATM   17  C21 UNL     1       4.857   6.989  11.306  1.00  0.00     0.027 C 
BRANCH  17  18
HETATM   18  C22 UNL     1       6.307   6.758  10.904  1.00  0.00     0.164 C 
BRANCH  18  19
HETATM   19  O3  UNL     1       6.546   5.367  10.729  1.00  0.00    -0.401 OA
HETATM   20  H34 UNL     1       5.924   5.046  10.054  1.00  0.00     0.209 HD
ENDBRANCH  18  19
ENDBRANCH  17  18
ENDBRANCH  16  17
ENDBRANCH   6  16
BRANCH  12  21
HETATM   21  O5  UNL     1       1.892   9.245   8.710  1.00  0.00    -0.389 OA
HETATM   22  H46 UNL     1       1.910   9.569   9.631  1.00  0.00     0.210 HD
ENDBRANCH  12  21
BRANCH   1  23
HETATM   23  C14 UNL     1      -0.894   5.238  12.076  1.00  0.00     0.011 C 
HETATM   24  C12 UNL     1      -1.521   4.042  12.101  1.00  0.00    -0.063 C 
HETATM   25  C13 UNL     1      -0.930   2.769  11.551  1.00  0.00     0.048 C 
BRANCH  24  26
HETATM   26  C11 UNL     1      -2.849   3.965  12.720  1.00  0.00     0.006 C 
HETATM   27  C10 UNL     1      -3.817   4.896  12.652  1.00  0.00     0.001 C 
BRANCH  27  28
HETATM   28  C9  UNL     1      -5.103   4.728  13.300  1.00  0.00     0.002 C 
HETATM   29  C7  UNL     1      -6.098   3.896  12.931  1.00  0.00    -0.084 C 
HETATM   30  C8  UNL     1      -6.080   2.966  11.745  1.00  0.00     0.043 C 
BRANCH  29  31
HETATM   31  C6  UNL     1      -7.386   3.858  13.738  1.00  0.00     0.037 C 
BRANCH  31  32
HETATM   32  C5  UNL     1      -8.466   4.778  13.160  1.00  0.00     0.031 C 
BRANCH  32  33
HETATM   33  C4  UNL     1      -8.263   6.205  13.597  1.00  0.00    -0.024 C 
HETATM   34  C2  UNL     1      -7.952   6.657  14.827  1.00  0.00    -0.091 C 
HETATM   35  C1  UNL     1      -7.783   5.800  16.051  1.00  0.00     0.042 C 
HETATM   36  C3  UNL     1      -7.751   8.131  15.072  1.00  0.00     0.042 C 
ENDBRANCH  32  33
ENDBRANCH  31  32
ENDBRANCH  29  31
ENDBRANCH  27  28
ENDBRANCH  24  26
ENDBRANCH   1  23
BRANCH   8  37
HETATM   37  C26 UNL     1       3.685   3.952   6.948  1.00  0.00     0.265 C 
HETATM   38  O4  UNL     1       4.793   3.620   6.537  1.00  0.00    -0.302 OA
ENDBRANCH   8  37
TORSDOF 13
ENDMDL
