MODEL 1
REMARK minimizedAffinity -9.21220779
REMARK CNNscore 0.673348069
REMARK CNNaffinity 7.24466324
REMARK  7 active torsions:
REMARK  status: ('A' for Active; 'I' for Inactive)
REMARK    1  A    between atoms: C2_2  and  C30_32 
REMARK    2  A    between atoms: C3_3  and  C4_4 
REMARK    3  A    between atoms: C4_4  and  C5_5 
REMARK    4  A    between atoms: C5_5  and  C6_6 
REMARK    5  A    between atoms: C6_6  and  C8_8 
REMARK    6  A    between atoms: C29_30  and  O2_31 
REMARK    7  A    between atoms: C30_32  and  O3_33 
ROOT
HETATM    1  C8  UNL     1      -2.973   8.382  15.243  1.00  0.00    -0.002 C 
HETATM    2  C9  UNL     1      -1.873   8.111  16.310  1.00  0.00     0.007 C 
HETATM    3  C10 UNL     1      -0.525   7.996  15.574  1.00  0.00     0.015 C 
HETATM    4  C11 UNL     1      -0.790   8.563  14.171  1.00  0.00    -0.010 C 
HETATM    5  C12 UNL     1      -0.703  10.120  14.277  1.00  0.00     0.021 C 
HETATM    6  C13 UNL     1       0.138   8.165  13.019  1.00  0.00    -0.039 C 
HETATM    7  C14 UNL     1      -0.342   8.144  11.746  1.00  0.00    -0.066 C 
HETATM    8  C15 UNL     1      -1.812   8.458  11.442  1.00  0.00     0.036 C 
HETATM    9  C16 UNL     1      -2.764   8.684  12.634  1.00  0.00     0.015 C 
HETATM   10  C17 UNL     1      -2.248   8.007  13.910  1.00  0.00    -0.029 C 
HETATM   11  C18 UNL     1      -2.295   6.460  13.714  1.00  0.00     0.016 C 
HETATM   12  C19 UNL     1       0.546   7.723  10.541  1.00  0.00    -0.015 C 
HETATM   13  C20 UNL     1       0.211   6.235  10.282  1.00  0.00     0.020 C 
HETATM   14  C21 UNL     1       0.226   8.552   9.273  1.00  0.00     0.021 C 
HETATM   15  C22 UNL     1       1.131   8.215   8.096  1.00  0.00     0.080 C 
HETATM   16  C23 UNL     1       2.586   8.410   8.437  1.00  0.00     0.135 C 
HETATM   17  O1  UNL     1       3.337   8.931   7.607  1.00  0.00    -0.297 OA
HETATM   18  C24 UNL     1       3.112   7.815   9.753  1.00  0.00     0.018 C 
HETATM   19  C25 UNL     1       4.394   8.607  10.131  1.00  0.00     0.023 C 
HETATM   20  C26 UNL     1       3.544   6.365   9.484  1.00  0.00     0.023 C 
HETATM   21  C27 UNL     1       2.053   7.998  10.894  1.00  0.00     0.016 C 
HETATM   22  C28 UNL     1       2.412   7.275  12.206  1.00  0.00     0.043 C 
HETATM   23  C29 UNL     1       1.572   7.814  13.369  1.00  0.00     0.148 C 
ENDROOT
BRANCH   1  24
HETATM   24  C6  UNL     1      -4.327   7.708  15.608  1.00  0.00    -0.014 C 
HETATM   25  C7  UNL     1      -4.224   6.185  15.728  1.00  0.00     0.010 C 
BRANCH  24  26
HETATM   26  C5  UNL     1      -5.499   8.091  14.657  1.00  0.00     0.008 C 
BRANCH  26  27
HETATM   27  C4  UNL     1      -5.712   7.261  13.382  1.00  0.00     0.028 C 
BRANCH  27  28
HETATM   28  C3  UNL     1      -6.051   5.816  13.609  1.00  0.00    -0.022 C 
HETATM   29  C2  UNL     1      -7.172   5.170  13.229  1.00  0.00    -0.064 C 
HETATM   30  C1  UNL     1      -8.317   5.812  12.492  1.00  0.00     0.045 C 
BRANCH  29  31
HETATM   31  C30 UNL     1      -7.352   3.705  13.522  1.00  0.00     0.197 C 
BRANCH  31  32
HETATM   32  O3  UNL     1      -8.697   3.348  13.241  1.00  0.00    -0.397 OA
HETATM   33  H48 UNL     1      -8.773   2.393  13.399  1.00  0.00     0.209 HD
ENDBRANCH  31  32
ENDBRANCH  29  31
ENDBRANCH  27  28
ENDBRANCH  26  27
ENDBRANCH  24  26
ENDBRANCH   1  24
BRANCH  23  34
HETATM   34  O2  UNL     1       2.229   8.982  13.858  1.00  0.00    -0.391 OA
HETATM   35  H45 UNL     1       1.902   9.732  13.335  1.00  0.00     0.210 HD
ENDBRANCH  23  34
TORSDOF 7
ENDMDL
