MODEL 1
REMARK minimizedAffinity -9.22010899
REMARK CNNscore 0.537467659
REMARK CNNaffinity 7.35983467
REMARK  11 active torsions:
REMARK  status: ('A' for Active; 'I' for Inactive)
REMARK    1  A    between atoms: C2_2  and  C4_4 
REMARK    2  A    between atoms: C4_4  and  C6_6 
REMARK    3  A    between atoms: C7_7  and  C8_8 
REMARK    4  A    between atoms: C8_8  and  C10_10 
REMARK    5  A    between atoms: C24_24  and  O1_25 
REMARK    6  A    between atoms: O1_25  and  C25_26 
REMARK    7  A    between atoms: C26_28  and  C27_29 
REMARK    8  A    between atoms: C27_29  and  O3_30 
REMARK    9  A    between atoms: C28_31  and  O4_32 
REMARK   10  A    between atoms: C29_33  and  O5_34 
REMARK   11  A    between atoms: C30_35  and  O6_36 
ROOT
HETATM    1  C10 UNL     1      -2.112   6.407  12.958  1.00  0.00     0.001 C 
HETATM    2  C11 UNL     1      -2.478   5.145  12.119  1.00  0.00     0.006 C 
HETATM    3  C12 UNL     1      -3.965   4.848  12.375  1.00  0.00     0.009 C 
HETATM    4  C13 UNL     1      -4.438   6.063  13.162  1.00  0.00     0.032 C 
HETATM    5  C14 UNL     1      -3.227   6.436  14.054  1.00  0.00    -0.033 C 
HETATM    6  C15 UNL     1      -2.901   5.426  15.174  1.00  0.00     0.016 C 
HETATM    7  C16 UNL     1      -3.517   7.823  14.662  1.00  0.00     0.010 C 
HETATM    8  C17 UNL     1      -4.868   7.864  15.399  1.00  0.00     0.009 C 
HETATM    9  C18 UNL     1      -6.050   7.427  14.513  1.00  0.00     0.035 C 
HETATM   10  C19 UNL     1      -5.828   6.052  13.814  1.00  0.00     0.105 C 
HETATM   11  C20 UNL     1      -6.164   4.871  14.729  1.00  0.00     0.045 C 
HETATM   12  C21 UNL     1      -7.676   4.876  14.985  1.00  0.00     0.045 C 
HETATM   13  C22 UNL     1      -8.256   6.246  14.585  1.00  0.00     0.106 C 
HETATM   14  C23 UNL     1      -9.757   6.296  14.900  1.00  0.00     0.074 C 
HETATM   15  C24 UNL     1     -10.399   7.641  14.541  1.00  0.00     0.127 C 
HETATM   16  C31 UNL     1      -9.652   8.799  15.206  1.00  0.00     0.033 C 
HETATM   17  C32 UNL     1      -8.166   8.782  14.855  1.00  0.00     0.015 C 
HETATM   18  C33 UNL     1      -7.463   7.438  15.207  1.00  0.00    -0.003 C 
HETATM   19  C34 UNL     1      -7.388   7.322  16.747  1.00  0.00     0.019 C 
HETATM   20  O7  UNL     1      -8.115   6.390  13.152  1.00  0.00    -0.228 OA
HETATM   21  O8  UNL     1      -6.780   5.924  12.725  1.00  0.00    -0.228 OA
ENDROOT
BRANCH  15  22
HETATM   22  O1  UNL     1     -11.773   7.567  14.954  1.00  0.00    -0.353 OA
BRANCH  22  23
HETATM   23  C25 UNL     1     -12.575   6.718  14.138  1.00  0.00     0.292 C 
HETATM   24  O2  UNL     1     -12.883   7.348  12.897  1.00  0.00    -0.348 OA
HETATM   25  C26 UNL     1     -13.614   8.590  13.003  1.00  0.00     0.179 C 
HETATM   26  C28 UNL     1     -14.478   8.689  14.274  1.00  0.00     0.180 C 
HETATM   27  C29 UNL     1     -15.022   7.303  14.592  1.00  0.00     0.183 C 
HETATM   28  C30 UNL     1     -13.875   6.329  14.888  1.00  0.00     0.204 C 
BRANCH  25  29
HETATM   29  C27 UNL     1     -12.694   9.816  12.876  1.00  0.00     0.198 C 
BRANCH  29  30
HETATM   30  O3  UNL     1     -12.614  10.242  11.515  1.00  0.00    -0.398 OA
HETATM   31  H43 UNL     1     -12.371  11.184  11.524  1.00  0.00     0.209 HD
ENDBRANCH  29  30
ENDBRANCH  25  29
BRANCH  26  32
HETATM   32  O4  UNL     1     -15.564   9.602  14.077  1.00  0.00    -0.390 OA
HETATM   33  H45 UNL     1     -16.210   9.380  14.783  1.00  0.00     0.210 HD
ENDBRANCH  26  32
BRANCH  27  34
HETATM   34  O5  UNL     1     -15.922   7.387  15.712  1.00  0.00    -0.390 OA
HETATM   35  H47 UNL     1     -16.171   6.466  15.921  1.00  0.00     0.210 HD
ENDBRANCH  27  34
BRANCH  28  36
HETATM   36  O6  UNL     1     -14.329   5.012  14.511  1.00  0.00    -0.388 OA
HETATM   37  H49 UNL     1     -14.291   4.961  13.538  1.00  0.00     0.210 HD
ENDBRANCH  28  36
ENDBRANCH  22  23
ENDBRANCH  15  22
BRANCH   1  38
HETATM   38  C8  UNL     1      -0.617   6.414  13.372  1.00  0.00     0.008 C 
HETATM   39  C9  UNL     1      -0.236   7.620  14.233  1.00  0.00     0.014 C 
BRANCH  38  40
HETATM   40  C7  UNL     1       0.264   6.425  12.136  1.00  0.00    -0.026 C 
HETATM   41  C6  UNL     1       0.779   7.541  11.595  1.00  0.00    -0.026 C 
BRANCH  41  42
HETATM   42  C4  UNL     1       1.672   7.642  10.371  1.00  0.00     0.007 C 
HETATM   43  C5  UNL     1       0.912   8.079   9.108  1.00  0.00     0.014 C 
BRANCH  42  44
HETATM   44  C2  UNL     1       2.470   6.324  10.142  1.00  0.00    -0.015 C 
HETATM   45  C1  UNL     1       2.636   6.003   8.652  1.00  0.00     0.010 C 
HETATM   46  C3  UNL     1       3.861   6.361  10.790  1.00  0.00     0.010 C 
ENDBRANCH  42  44
ENDBRANCH  41  42
ENDBRANCH  38  40
ENDBRANCH   1  38
TORSDOF 11
ENDMDL
