MODEL 1
REMARK minimizedAffinity -9.72525311
REMARK  6 active torsions:
REMARK  status: ('A' for Active; 'I' for Inactive)
REMARK    1  A    between atoms: C2_2  and  O2_4 
REMARK    2  A    between atoms: O2_4  and  C3_5 
REMARK    3  A    between atoms: C13_15  and  C14_16 
REMARK    4  A    between atoms: C14_16  and  C16_18 
REMARK    5  A    between atoms: C17_19  and  C18_20 
REMARK    6  A    between atoms: C18_20  and  C20_22 
ROOT
HETATM    1  C3  UNL     1       2.573   7.149  10.430  1.00  0.00     0.135 C 
HETATM    2  C4  UNL     1       2.447   5.805  11.153  1.00  0.00     0.034 C 
HETATM    3  C5  UNL     1       1.090   5.634  11.842  1.00  0.00     0.015 C 
HETATM    4  C6  UNL     1       0.766   6.784  12.830  1.00  0.00     0.001 C 
HETATM    5  C7  UNL     1       1.744   6.705  14.030  1.00  0.00     0.019 C 
HETATM    6  C8  UNL     1      -0.730   6.670  13.308  1.00  0.00     0.039 C 
HETATM    7  C9  UNL     1      -1.021   5.912  14.609  1.00  0.00     0.010 C 
HETATM    8  C10 UNL     1      -2.541   5.711  14.831  1.00  0.00     0.010 C 
HETATM    9  C11 UNL     1      -3.437   6.857  14.285  1.00  0.00    -0.033 C 
HETATM   10  C12 UNL     1      -4.045   6.467  12.917  1.00  0.00     0.016 C 
HETATM   11  C13 UNL     1      -4.559   7.327  15.271  1.00  0.00     0.001 C 
HETATM   12  C23 UNL     1      -4.845   8.788  14.815  1.00  0.00     0.006 C 
HETATM   13  C24 UNL     1      -3.600   9.279  14.061  1.00  0.00     0.009 C 
HETATM   14  C25 UNL     1      -2.591   8.150  14.233  1.00  0.00     0.036 C 
HETATM   15  C26 UNL     1      -1.352   8.106  13.325  1.00  0.00     0.123 C 
HETATM   16  C27 UNL     1      -1.482   8.507  11.873  1.00  0.00     0.014 C 
HETATM   17  C28 UNL     1      -0.316   8.473  11.206  1.00  0.00     0.014 C 
HETATM   18  C29 UNL     1       0.889   8.169  12.086  1.00  0.00     0.124 C 
HETATM   19  C30 UNL     1       2.224   8.330  11.342  1.00  0.00     0.079 C 
HETATM   20  O3  UNL     1       0.818   9.209  13.091  1.00  0.00    -0.223 OA
HETATM   21  O4  UNL     1      -0.383   8.998  13.954  1.00  0.00    -0.224 OA
ENDROOT
BRANCH  11  22
HETATM   22  C14 UNL     1      -5.851   6.476  15.401  1.00  0.00     0.008 C 
HETATM   23  C15 UNL     1      -7.040   7.275  15.950  1.00  0.00     0.014 C 
BRANCH  22  24
HETATM   24  C16 UNL     1      -6.176   5.798  14.078  1.00  0.00    -0.026 C 
HETATM   25  C17 UNL     1      -6.330   4.481  13.859  1.00  0.00    -0.026 C 
BRANCH  25  26
HETATM   26  C18 UNL     1      -6.637   3.881  12.502  1.00  0.00     0.007 C 
HETATM   27  C19 UNL     1      -8.011   3.207  12.580  1.00  0.00     0.014 C 
BRANCH  26  28
HETATM   28  C20 UNL     1      -5.514   2.901  12.056  1.00  0.00    -0.015 C 
HETATM   29  C21 UNL     1      -4.567   3.549  11.036  1.00  0.00     0.010 C 
HETATM   30  C22 UNL     1      -6.076   1.608  11.452  1.00  0.00     0.010 C 
ENDBRANCH  26  28
ENDBRANCH  25  26
ENDBRANCH  22  24
ENDBRANCH  11  22
BRANCH   1  31
HETATM   31  O2  UNL     1       1.700   7.104   9.284  1.00  0.00    -0.316 OA
BRANCH  31  32
HETATM   32  C2  UNL     1       2.229   6.582   8.142  1.00  0.00     0.255 C 
HETATM   33  C1  UNL     1       1.926   7.478   6.981  1.00  0.00     0.126 C 
HETATM   34  O1  UNL     1       2.844   5.530   8.059  1.00  0.00    -0.266 OA
ENDBRANCH  31  32
ENDBRANCH   1  31
TORSDOF 6
ENDMDL
