MODEL 1
REMARK minimizedAffinity -7.89457178
REMARK  11 active torsions:
REMARK  status: ('A' for Active; 'I' for Inactive)
REMARK    1  A    between atoms: C4_4  and  O1_5 
REMARK    2  A    between atoms: O1_5  and  C5_6 
REMARK    3  A    between atoms: C6_8  and  C7_9 
REMARK    4  A    between atoms: C7_9  and  O3_10 
REMARK    5  A    between atoms: C8_11  and  O4_12 
REMARK    6  A    between atoms: C9_13  and  O5_14 
REMARK    7  A    between atoms: C10_15  and  O6_16 
REMARK    8  A    between atoms: C15_21  and  O7_22 
REMARK    9  A    between atoms: C15_21  and  C16_23 
REMARK   10  A    between atoms: C17_24  and  C18_25 
REMARK   11  A    between atoms: C18_25  and  O8_27 
ROOT
HETATM    1  C1  UNL     1      -2.953   5.775  15.576  1.00  0.00     0.013 C 
HETATM    2  C2  UNL     1      -4.009   5.730  14.464  1.00  0.00     0.023 C 
HETATM    3  C3  UNL     1      -3.440   6.219  13.117  1.00  0.00     0.039 C 
HETATM    4  C4  UNL     1      -3.404   7.741  12.953  1.00  0.00     0.126 C 
HETATM    5  C11 UNL     1      -4.777   8.361  13.254  1.00  0.00     0.044 C 
HETATM    6  C12 UNL     1      -5.412   7.957  14.615  1.00  0.00    -0.010 C 
HETATM    7  C13 UNL     1      -4.714   8.699  15.782  1.00  0.00     0.018 C 
HETATM    8  C14 UNL     1      -6.868   8.509  14.622  1.00  0.00     0.018 C 
HETATM    9  C15 UNL     1      -5.386   6.387  14.801  1.00  0.00     0.086 C 
ENDROOT
BRANCH   4  10
HETATM   10  O1  UNL     1      -2.445   8.372  13.800  1.00  0.00    -0.353 OA
BRANCH  10  11
HETATM   11  C5  UNL     1      -1.108   8.398  13.276  1.00  0.00     0.292 C 
HETATM   12  O2  UNL     1      -1.074   7.816  11.976  1.00  0.00    -0.348 OA
HETATM   13  C6  UNL     1       0.212   7.325  11.538  1.00  0.00     0.179 C 
HETATM   14  C8  UNL     1       1.404   7.853  12.353  1.00  0.00     0.180 C 
HETATM   15  C9  UNL     1       1.220   7.641  13.862  1.00  0.00     0.183 C 
HETATM   16  C10 UNL     1      -0.256   7.593  14.268  1.00  0.00     0.204 C 
BRANCH  13  17
HETATM   17  C7  UNL     1       0.158   5.791  11.494  1.00  0.00     0.198 C 
BRANCH  17  18
HETATM   18  O3  UNL     1       0.991   5.319  10.432  1.00  0.00    -0.398 OA
HETATM   19  H12 UNL     1       0.772   5.872   9.657  1.00  0.00     0.209 HD
ENDBRANCH  17  18
ENDBRANCH  13  17
BRANCH  14  20
HETATM   20  O4  UNL     1       1.527   9.267  12.116  1.00  0.00    -0.390 OA
HETATM   21  H14 UNL     1       1.754   9.389  11.175  1.00  0.00     0.210 HD
ENDBRANCH  14  20
BRANCH  15  22
HETATM   22  O5  UNL     1       1.852   6.418  14.266  1.00  0.00    -0.390 OA
HETATM   23  H16 UNL     1       1.769   6.389  15.240  1.00  0.00     0.210 HD
ENDBRANCH  15  22
BRANCH  16  24
HETATM   24  O6  UNL     1      -0.398   8.071  15.615  1.00  0.00    -0.388 OA
HETATM   25  H18 UNL     1      -1.362   8.192  15.737  1.00  0.00     0.210 HD
ENDBRANCH  16  24
ENDBRANCH  10  11
ENDBRANCH   4  10
BRANCH   9  26
HETATM   26  O7  UNL     1      -5.711   6.064  16.157  1.00  0.00    -0.385 OA
HETATM   27  H27 UNL     1      -6.604   6.405  16.331  1.00  0.00     0.211 HD
ENDBRANCH   9  26
BRANCH   9  28
HETATM   28  C16 UNL     1      -6.427   5.703  13.908  1.00  0.00     0.010 C 
HETATM   29  C17 UNL     1      -6.536   4.381  13.668  1.00  0.00     0.003 C 
BRANCH  29  30
HETATM   30  C18 UNL     1      -7.580   3.772  12.781  1.00  0.00     0.136 C 
HETATM   31  C19 UNL     1      -7.410   2.265  12.655  1.00  0.00     0.043 C 
BRANCH  30  32
HETATM   32  O8  UNL     1      -8.855   4.062  13.344  1.00  0.00    -0.392 OA
HETATM   33  H34 UNL     1      -8.912   3.595  14.194  1.00  0.00     0.210 HD
ENDBRANCH  30  32
ENDBRANCH  29  30
ENDBRANCH   9  28
TORSDOF 11
ENDMDL
