MODEL 1
REMARK minimizedAffinity -7.44875574
REMARK CNNscore 0.59600246
REMARK CNNaffinity 6.92693663
REMARK  9 active torsions:
REMARK  status: ('A' for Active; 'I' for Inactive)
REMARK    1  A    between atoms: C2_2  and  O1_3 
REMARK    2  A    between atoms: O1_3  and  C3_4 
REMARK    3  A    between atoms: C3_4  and  C4_6 
REMARK    4  A    between atoms: C5_7  and  C6_8 
REMARK    5  A    between atoms: C22_26  and  C23_27 
REMARK    6  A    between atoms: C23_27  and  O5_28 
REMARK    7  A    between atoms: C28_34  and  C29_35 
REMARK    8  A    between atoms: C29_35  and  O7_36 
REMARK    9  A    between atoms: C37_46  and  O10_48 
ROOT
HETATM    1  C4  UNL     1     -16.535  45.286 -23.397  1.00  0.00     0.165 C 
HETATM    2  C5  UNL     1     -15.683  45.881 -24.250  1.00  0.00     0.053 C 
HETATM    3  C7  UNL     1     -15.492  45.312 -25.620  1.00  0.00    -0.002 C 
HETATM    4  C8  UNL     1     -14.379  45.695 -26.325  1.00  0.00    -0.066 C 
HETATM    5  C9  UNL     1     -14.286  45.807 -27.836  1.00  0.00     0.042 C 
HETATM    6  C10 UNL     1     -13.148  46.706 -28.321  1.00  0.00     0.083 C 
HETATM    7  C11 UNL     1     -11.828  46.162 -27.805  1.00  0.00     0.136 C 
HETATM    8  O4  UNL     1     -10.836  46.124 -28.532  1.00  0.00    -0.297 OA
HETATM    9  C12 UNL     1     -11.788  45.722 -26.356  1.00  0.00     0.092 C 
HETATM   10  C13 UNL     1     -13.089  46.174 -25.648  1.00  0.00     0.052 C 
HETATM   11  C14 UNL     1     -11.359  44.292 -26.010  1.00  0.00    -0.039 A 
HETATM   12  C15 UNL     1     -10.839  44.176 -24.688  1.00  0.00     0.022 A 
HETATM   13  C16 UNL     1     -10.362  42.960 -24.176  1.00  0.00    -0.008 A 
HETATM   14  C17 UNL     1     -10.390  41.848 -25.001  1.00  0.00     0.042 A 
HETATM   15  C18 UNL     1     -10.887  41.906 -26.305  1.00  0.00     0.038 A 
HETATM   16  C19 UNL     1     -11.401  43.127 -26.814  1.00  0.00    -0.049 A 
HETATM   17  C20 UNL     1     -11.901  43.066 -28.244  1.00  0.00     0.040 C 
HETATM   18  C21 UNL     1     -12.983  42.018 -28.568  1.00  0.00     0.013 C 
HETATM   19  C22 UNL     1     -14.222  42.039 -27.637  1.00  0.00     0.034 C 
HETATM   20  C24 UNL     1     -15.530  42.318 -28.415  1.00  0.00     0.182 C 
HETATM   21  O6  UNL     1     -15.925  43.709 -28.319  1.00  0.00    -0.349 OA
HETATM   22  C25 UNL     1     -16.910  43.895 -27.384  1.00  0.00     0.092 C 
HETATM   23  C26 UNL     1     -18.180  43.410 -27.686  1.00  0.00     0.021 C 
HETATM   24  C27 UNL     1     -19.113  43.174 -26.674  1.00  0.00     0.090 C 
HETATM   25  C28 UNL     1     -18.835  43.426 -25.356  1.00  0.00     0.034 C 
HETATM   26  C30 UNL     1     -17.601  44.062 -25.099  1.00  0.00     0.101 C 
HETATM   27  C31 UNL     1     -16.656  44.443 -26.109  1.00  0.00     0.044 C 
HETATM   28  O8  UNL     1     -17.319  44.214 -23.757  1.00  0.00    -0.302 OA
HETATM   29  O9  UNL     1     -20.292  42.616 -27.138  1.00  0.00    -0.341 OA
HETATM   30  C32 UNL     1     -20.234  43.016 -28.521  1.00  0.00     0.175 C 
HETATM   31  C33 UNL     1     -18.764  42.873 -28.948  1.00  0.00     0.079 C 
HETATM   32  C34 UNL     1     -18.580  43.553 -30.264  1.00  0.00    -0.019 C 
HETATM   33  C35 UNL     1     -19.588  43.576 -31.156  1.00  0.00    -0.027 C 
HETATM   34  C36 UNL     1     -20.964  42.968 -30.904  1.00  0.00     0.067 C 
HETATM   35  C37 UNL     1     -21.134  42.271 -29.517  1.00  0.00     0.085 C 
HETATM   36  C38 UNL     1     -22.593  42.279 -29.060  1.00  0.00     0.049 C 
HETATM   37  N1  UNL     1      -9.858  40.799 -24.287  1.00  0.00    -0.365 N 
HETATM   38  C39 UNL     1      -9.506  41.214 -23.030  1.00  0.00     0.089 A 
HETATM   39  C40 UNL     1      -9.808  42.554 -22.931  1.00  0.00     0.030 A 
HETATM   40  H39 UNL     1      -9.749  39.857 -24.641  1.00  0.00     0.165 HD
ENDROOT
BRANCH   1  41
HETATM   41  C3  UNL     1     -16.830  45.807 -22.043  1.00  0.00     0.318 C 
HETATM   42  O2  UNL     1     -16.043  45.747 -21.113  1.00  0.00    -0.257 OA
BRANCH  41  43
HETATM   43  O1  UNL     1     -18.076  46.349 -22.030  1.00  0.00    -0.316 OA
BRANCH  43  44
HETATM   44  C2  UNL     1     -18.847  46.087 -20.845  1.00  0.00     0.175 C 
HETATM   45  C1  UNL     1     -18.861  47.303 -19.934  1.00  0.00     0.034 C 
ENDBRANCH  43  44
ENDBRANCH  41  43
ENDBRANCH   1  41
BRANCH   2  46
HETATM   46  C6  UNL     1     -15.245  47.268 -23.871  1.00  0.00     0.273 C 
HETATM   47  O3  UNL     1     -15.718  48.288 -24.368  1.00  0.00    -0.301 OA
ENDBRANCH   2  46
BRANCH  25  48
HETATM   48  C29 UNL     1     -19.782  43.032 -24.263  1.00  0.00     0.208 C 
BRANCH  48  49
HETATM   49  O7  UNL     1     -20.240  44.200 -23.598  1.00  0.00    -0.396 OA
HETATM   50  H28 UNL     1     -19.471  44.563 -23.125  1.00  0.00     0.209 HD
ENDBRANCH  48  49
ENDBRANCH  25  48
BRANCH  19  51
HETATM   51  C23 UNL     1     -14.331  40.684 -26.912  1.00  0.00     0.170 C 
BRANCH  51  52
HETATM   52  O5  UNL     1     -14.182  40.851 -25.507  1.00  0.00    -0.400 OA
HETATM   53  H23 UNL     1     -13.300  41.238 -25.348  1.00  0.00     0.209 HD
ENDBRANCH  51  52
ENDBRANCH  19  51
BRANCH  35  54
HETATM   54  O10 UNL     1     -20.727  40.894 -29.631  1.00  0.00    -0.387 OA
HETATM   55  H38 UNL     1     -21.405  40.425 -30.138  1.00  0.00     0.210 HD
ENDBRANCH  35  54
TORSDOF 9
ENDMDL
