MODEL 1
REMARK minimizedAffinity -7.24067593
REMARK CNNscore 0.563362837
REMARK CNNaffinity 6.48808098
REMARK  6 active torsions:
REMARK  status: ('A' for Active; 'I' for Inactive)
REMARK    1  A    between atoms: C2_2  and  C3_3 
REMARK    2  A    between atoms: C3_3  and  C4_4 
REMARK    3  A    between atoms: C3_3  and  C27_28 
REMARK    4  A    between atoms: C5_5  and  C6_6 
REMARK    5  A    between atoms: C6_6  and  C8_8 
REMARK    6  A    between atoms: C16_16  and  O1_17 
ROOT
HETATM    1  C8  UNL     1       2.001  55.642  -8.927  1.00  0.00    -0.002 C 
HETATM    2  C9  UNL     1       0.952  55.360 -10.024  1.00  0.00     0.040 C 
HETATM    3  C10 UNL     1       0.355  54.066  -9.554  1.00  0.00    -0.068 C 
HETATM    4  C11 UNL     1      -0.954  53.779  -9.444  1.00  0.00    -0.072 C 
HETATM    5  C12 UNL     1      -2.059  54.536 -10.136  1.00  0.00     0.035 C 
HETATM    6  C13 UNL     1      -2.903  53.571 -10.981  1.00  0.00     0.010 C 
HETATM    7  C14 UNL     1      -3.390  52.364 -10.159  1.00  0.00    -0.003 C 
HETATM    8  C15 UNL     1      -4.311  51.452 -10.978  1.00  0.00     0.037 C 
HETATM    9  C16 UNL     1      -4.883  50.332 -10.110  1.00  0.00     0.118 C 
HETATM   10  C17 UNL     1      -3.796  49.550  -9.377  1.00  0.00     0.032 C 
HETATM   11  C18 UNL     1      -2.842  50.459  -8.599  1.00  0.00     0.012 C 
HETATM   12  C19 UNL     1      -2.212  51.580  -9.469  1.00  0.00    -0.033 C 
HETATM   13  C20 UNL     1      -1.269  50.928 -10.508  1.00  0.00     0.016 C 
HETATM   14  C21 UNL     1      -1.451  52.627  -8.583  1.00  0.00     0.023 C 
HETATM   15  C22 UNL     1      -0.373  52.135  -7.594  1.00  0.00     0.011 C 
HETATM   16  C23 UNL     1       1.028  52.003  -8.178  1.00  0.00     0.014 C 
HETATM   17  C24 UNL     1       1.480  53.217  -9.009  1.00  0.00    -0.020 C 
HETATM   18  C25 UNL     1       2.383  52.686 -10.148  1.00  0.00     0.020 C 
HETATM   19  C26 UNL     1       2.243  54.283  -8.207  1.00  0.00     0.019 C 
ENDROOT
BRANCH   1  20
HETATM   20  C6  UNL     1       3.286  56.324  -9.456  1.00  0.00     0.008 C 
HETATM   21  C7  UNL     1       3.378  56.223 -10.986  1.00  0.00     0.014 C 
BRANCH  20  22
HETATM   22  C5  UNL     1       4.527  55.685  -8.867  1.00  0.00    -0.026 C 
HETATM   23  C4  UNL     1       5.287  56.124  -7.847  1.00  0.00    -0.025 C 
BRANCH  23  24
HETATM   24  C3  UNL     1       5.089  57.357  -6.988  1.00  0.00     0.011 C 
BRANCH  24  25
HETATM   25  C2  UNL     1       3.811  57.218  -6.125  1.00  0.00     0.004 C 
HETATM   26  C1  UNL     1       2.753  58.273  -6.426  1.00  0.00     0.006 C 
ENDBRANCH  24  25
BRANCH  24  27
HETATM   27  C27 UNL     1       6.325  57.673  -6.093  1.00  0.00    -0.015 C 
HETATM   28  C28 UNL     1       7.273  56.474  -5.983  1.00  0.00     0.010 C 
HETATM   29  C29 UNL     1       5.975  58.178  -4.688  1.00  0.00     0.010 C 
ENDBRANCH  24  27
ENDBRANCH  23  24
ENDBRANCH  20  22
ENDBRANCH   1  20
BRANCH   9  30
HETATM   30  O1  UNL     1      -5.631  49.451 -10.941  1.00  0.00    -0.396 OA
HETATM   31  H24 UNL     1      -5.992  48.747 -10.374  1.00  0.00     0.210 HD
ENDBRANCH   9  30
TORSDOF 6
ENDMDL
