MODEL 1
REMARK minimizedAffinity -8.10369778
REMARK CNNscore 0.700445652
REMARK CNNaffinity 6.47547531
REMARK  12 active torsions:
REMARK  status: ('A' for Active; 'I' for Inactive)
REMARK    1  A    between atoms: C2_2  and  C3_3 
REMARK    2  A    between atoms: C2_2  and  C9_11 
REMARK    3  A    between atoms: C3_3  and  C4_4 
REMARK    4  A    between atoms: C4_4  and  C5_6 
REMARK    5  A    between atoms: C5_6  and  C6_7 
REMARK    6  A    between atoms: C6_7  and  O2_10 
REMARK    7  A    between atoms: C25_28  and  O4_29 
REMARK    8  A    between atoms: C27_31  and  O5_32 
REMARK    9  A    between atoms: O5_32  and  C28_33 
REMARK   10  A    between atoms: C30_36  and  O7_37 
REMARK   11  A    between atoms: C31_38  and  O8_39 
REMARK   12  A    between atoms: C32_40  and  O9_41 
ROOT
HETATM    1  C9  UNL     1       1.926  54.147 -10.053  1.00  0.00     0.068 C 
HETATM    2  C10 UNL     1       2.992  53.387 -10.871  1.00  0.00     0.133 C 
HETATM    3  O3  UNL     1       2.752  52.650 -11.821  1.00  0.00    -0.298 OA
HETATM    4  C11 UNL     1       4.414  53.655 -10.403  1.00  0.00     0.089 C 
HETATM    5  C12 UNL     1       4.177  54.459  -9.117  1.00  0.00    -0.022 C 
HETATM    6  C13 UNL     1       3.986  53.418  -7.968  1.00  0.00     0.017 C 
HETATM    7  C14 UNL     1       5.316  55.475  -8.763  1.00  0.00     0.024 C 
HETATM    8  C15 UNL     1       6.662  54.859  -8.333  1.00  0.00     0.014 C 
HETATM    9  C16 UNL     1       6.886  54.563  -6.841  1.00  0.00     0.036 C 
HETATM   10  C17 UNL     1       7.057  55.696  -5.824  1.00  0.00    -0.064 C 
HETATM   11  C18 UNL     1       6.582  56.959  -5.998  1.00  0.00    -0.044 C 
HETATM   12  C19 UNL     1       5.880  57.457  -7.248  1.00  0.00     0.071 C 
HETATM   13  C20 UNL     1       4.821  56.525  -7.786  1.00  0.00    -0.075 C 
HETATM   14  C21 UNL     1       3.514  56.698  -7.493  1.00  0.00    -0.022 C 
HETATM   15  C22 UNL     1       2.381  55.949  -8.160  1.00  0.00     0.038 C 
HETATM   16  C23 UNL     1       2.851  55.264  -9.462  1.00  0.00    -0.022 C 
HETATM   17  C24 UNL     1       3.078  56.372 -10.549  1.00  0.00     0.017 C 
HETATM   18  C25 UNL     1       6.741  58.052  -4.950  1.00  0.00     0.150 C 
HETATM   19  C26 UNL     1       7.203  57.581  -3.580  1.00  0.00     0.069 C 
HETATM   20  C27 UNL     1       8.303  56.542  -3.704  1.00  0.00     0.139 C 
HETATM   21  C33 UNL     1       7.801  55.291  -4.509  1.00  0.00     0.003 C 
HETATM   22  C34 UNL     1       6.818  54.480  -3.633  1.00  0.00     0.022 C 
HETATM   23  C35 UNL     1       9.041  54.397  -4.765  1.00  0.00     0.022 C 
ENDROOT
BRANCH  20  24
HETATM   24  O5  UNL     1       9.462  57.083  -4.357  1.00  0.00    -0.352 OA
BRANCH  24  25
HETATM   25  C28 UNL     1      10.557  57.385  -3.488  1.00  0.00     0.291 C 
HETATM   26  O6  UNL     1      10.169  58.404  -2.569  1.00  0.00    -0.356 OA
HETATM   27  C29 UNL     1      11.165  58.630  -1.569  1.00  0.00     0.205 C 
HETATM   28  C30 UNL     1      12.599  58.639  -2.118  1.00  0.00     0.173 C 
HETATM   29  C31 UNL     1      12.626  58.879  -3.636  1.00  0.00     0.182 C 
HETATM   30  C32 UNL     1      11.719  57.886  -4.379  1.00  0.00     0.204 C 
BRANCH  28  31
HETATM   31  O7  UNL     1      13.361  59.620  -1.410  1.00  0.00    -0.391 OA
HETATM   32  H44 UNL     1      14.035  59.969  -2.027  1.00  0.00     0.210 HD
ENDBRANCH  28  31
BRANCH  29  33
HETATM   33  O8  UNL     1      12.247  60.232  -3.935  1.00  0.00    -0.390 OA
HETATM   34  H46 UNL     1      11.373  60.398  -3.529  1.00  0.00     0.210 HD
ENDBRANCH  29  33
BRANCH  30  35
HETATM   35  O9  UNL     1      12.499  56.752  -4.805  1.00  0.00    -0.388 OA
HETATM   36  H48 UNL     1      12.848  56.971  -5.686  1.00  0.00     0.210 HD
ENDBRANCH  30  35
ENDBRANCH  24  25
ENDBRANCH  20  24
BRANCH  18  37
HETATM   37  O4  UNL     1       5.485  58.710  -4.754  1.00  0.00    -0.391 OA
HETATM   38  H36 UNL     1       5.653  59.470  -4.174  1.00  0.00     0.210 HD
ENDBRANCH  18  37
BRANCH   1  39
HETATM   39  C2  UNL     1       0.675  54.528 -10.895  1.00  0.00     0.000 C 
HETATM   40  C1  UNL     1      -0.474  55.063 -10.031  1.00  0.00     0.011 C 
BRANCH  39  41
HETATM   41  C3  UNL     1       0.146  53.297 -11.676  1.00  0.00     0.083 C 
BRANCH  41  42
HETATM   42  C4  UNL     1      -1.034  52.577 -11.032  1.00  0.00     0.130 C 
HETATM   43  O1  UNL     1      -0.988  52.303  -9.828  1.00  0.00    -0.298 OA
BRANCH  42  44
HETATM   44  C5  UNL     1      -2.252  52.215 -11.871  1.00  0.00     0.115 C 
BRANCH  44  45
HETATM   45  C6  UNL     1      -3.573  52.903 -11.490  1.00  0.00     0.057 C 
HETATM   46  C7  UNL     1      -3.409  54.040 -10.484  1.00  0.00     0.045 C 
HETATM   47  C8  UNL     1      -4.524  51.847 -10.907  1.00  0.00     0.045 C 
BRANCH  45  48
HETATM   48  O2  UNL     1      -4.191  53.420 -12.667  1.00  0.00    -0.390 OA
HETATM   49  H15 UNL     1      -4.995  53.903 -12.410  1.00  0.00     0.210 HD
ENDBRANCH  45  48
ENDBRANCH  44  45
ENDBRANCH  42  44
ENDBRANCH  41  42
ENDBRANCH  39  41
ENDBRANCH   1  39
TORSDOF 12
ENDMDL
