MODEL 1
REMARK minimizedAffinity -9.76087952
REMARK  7 active torsions:
REMARK  status: ('A' for Active; 'I' for Inactive)
REMARK    1  A    between atoms: C2_2  and  C4_4 
REMARK    2  A    between atoms: C4_4  and  C6_6 
REMARK    3  A    between atoms: C6_6  and  O1_7 
REMARK    4  A    between atoms: C6_6  and  C7_8 
REMARK    5  A    between atoms: C7_8  and  C8_9 
REMARK    6  A    between atoms: C8_9  and  C10_11 
REMARK    7  A    between atoms: C16_17  and  O2_18 
ROOT
HETATM    1  C10 UNL     1      -1.005  49.415 -17.957  1.00  0.00    -0.002 C 
HETATM    2  C11 UNL     1      -2.154  48.373 -18.070  1.00  0.00     0.006 C 
HETATM    3  C12 UNL     1      -2.643  48.373 -19.525  1.00  0.00     0.011 C 
HETATM    4  C13 UNL     1      -1.579  49.160 -20.315  1.00  0.00    -0.030 C 
HETATM    5  C14 UNL     1      -0.437  48.154 -20.656  1.00  0.00     0.016 C 
HETATM    6  C15 UNL     1      -2.100  49.842 -21.617  1.00  0.00     0.032 C 
HETATM    7  C16 UNL     1      -2.430  48.872 -22.770  1.00  0.00     0.124 C 
HETATM    8  C17 UNL     1      -2.957  49.629 -23.989  1.00  0.00     0.038 C 
HETATM    9  C18 UNL     1      -1.847  50.481 -24.610  1.00  0.00     0.012 C 
HETATM   10  C19 UNL     1      -2.271  51.258 -25.898  1.00  0.00     0.018 C 
HETATM   11  C20 UNL     1      -2.716  50.270 -26.997  1.00  0.00     0.023 C 
HETATM   12  C21 UNL     1      -3.412  52.261 -25.673  1.00  0.00     0.023 C 
HETATM   13  C22 UNL     1      -1.047  52.039 -26.414  1.00  0.00     0.135 C 
HETATM   14  O3  UNL     1      -0.734  52.068 -27.606  1.00  0.00    -0.297 OA
HETATM   15  C23 UNL     1      -0.277  52.870 -25.413  1.00  0.00     0.080 C 
HETATM   16  C24 UNL     1       0.093  52.034 -24.199  1.00  0.00     0.018 C 
HETATM   17  C25 UNL     1      -1.147  51.392 -23.591  1.00  0.00    -0.026 A 
HETATM   18  C26 UNL     1      -1.920  52.227 -22.605  1.00  0.00     0.021 A 
HETATM   19  C27 UNL     1      -1.178  51.004 -22.084  1.00  0.00    -0.025 A 
HETATM   20  C28 UNL     1       0.102  51.250 -21.279  1.00  0.00     0.011 C 
HETATM   21  C29 UNL     1       0.074  50.975 -19.767  1.00  0.00     0.011 C 
HETATM   22  C30 UNL     1      -1.183  50.261 -19.263  1.00  0.00    -0.032 C 
HETATM   23  C31 UNL     1      -2.291  51.334 -19.031  1.00  0.00     0.016 C 
ENDROOT
BRANCH   1  24
HETATM   24  C8  UNL     1      -0.985  50.121 -16.567  1.00  0.00    -0.011 C 
HETATM   25  C9  UNL     1      -2.364  50.684 -16.198  1.00  0.00     0.010 C 
BRANCH  24  26
HETATM   26  C7  UNL     1       0.062  51.278 -16.541  1.00  0.00     0.037 C 
BRANCH  26  27
HETATM   27  C6  UNL     1       0.796  51.404 -15.192  1.00  0.00     0.126 C 
BRANCH  27  28
HETATM   28  C4  UNL     1       2.333  51.169 -15.255  1.00  0.00     0.038 C 
HETATM   29  C5  UNL     1       2.977  51.064 -13.865  1.00  0.00     0.017 C 
BRANCH  28  30
HETATM   30  C2  UNL     1       3.054  52.137 -16.192  1.00  0.00    -0.087 C 
HETATM   31  C1  UNL     1       4.372  52.368 -16.054  1.00  0.00     0.014 C 
HETATM   32  C3  UNL     1       2.265  52.856 -17.255  1.00  0.00     0.043 C 
ENDBRANCH  28  30
ENDBRANCH  27  28
BRANCH  27  33
HETATM   33  O1  UNL     1       0.539  52.695 -14.634  1.00  0.00    -0.395 OA
HETATM   34  H11 UNL     1       0.929  52.712 -13.743  1.00  0.00     0.210 HD
ENDBRANCH  27  33
ENDBRANCH  26  27
ENDBRANCH  24  26
ENDBRANCH   1  24
BRANCH   7  35
HETATM   35  O2  UNL     1      -3.427  47.931 -22.376  1.00  0.00    -0.395 OA
HETATM   36  H28 UNL     1      -4.225  48.426 -22.126  1.00  0.00     0.210 HD
ENDBRANCH   7  35
TORSDOF 7
ENDMDL
