MODEL 1
REMARK minimizedAffinity -8.26781273
REMARK CNNscore 0.613547862
REMARK CNNaffinity 6.51391935
REMARK  11 active torsions:
REMARK  status: ('A' for Active; 'I' for Inactive)
REMARK    1  A    between atoms: C3_4  and  O2_5 
REMARK    2  A    between atoms: O2_5  and  C4_6 
REMARK    3  A    between atoms: C7_9  and  C8_10 
REMARK    4  A    between atoms: N1_11  and  C9_13 
REMARK    5  A    between atoms: C9_13  and  C10_14 
REMARK    6  A    between atoms: C10_14  and  C11_15 
REMARK    7  A    between atoms: C22_26  and  C23_27 
REMARK    8  A    between atoms: C29_35  and  O5_36 
REMARK    9  A    between atoms: C33_40  and  O6_41 
REMARK   10  A    between atoms: C36_44  and  O7_45 
REMARK   11  A    between atoms: C37_46  and  O8_47 
ROOT
HETATM    1  C4  UNL     1      -0.360  53.944 -10.742  1.00  0.00     0.127 C 
HETATM    2  C5  UNL     1      -0.878  55.184  -9.995  1.00  0.00     0.033 C 
HETATM    3  C6  UNL     1       0.212  55.879  -9.189  1.00  0.00     0.021 C 
HETATM    4  C7  UNL     1       0.873  54.966  -8.093  1.00  0.00     0.026 C 
HETATM    5  C17 UNL     1       2.405  55.360  -8.001  1.00  0.00     0.009 C 
HETATM    6  C18 UNL     1       2.650  56.807  -7.523  1.00  0.00     0.007 C 
HETATM    7  C19 UNL     1       4.130  57.176  -7.536  1.00  0.00     0.013 C 
HETATM    8  C20 UNL     1       5.005  56.235  -6.660  1.00  0.00    -0.005 C 
HETATM    9  C21 UNL     1       4.700  56.515  -5.174  1.00  0.00     0.019 C 
HETATM   10  C22 UNL     1       6.512  56.463  -7.039  1.00  0.00     0.028 C 
HETATM   11  C27 UNL     1       6.719  55.585  -8.294  1.00  0.00     0.013 C 
HETATM   12  C28 UNL     1       5.545  54.603  -8.375  1.00  0.00     0.040 C 
HETATM   13  C29 UNL     1       4.753  54.757  -7.064  1.00  0.00     0.070 C 
HETATM   14  C30 UNL     1       3.251  54.366  -7.172  1.00  0.00     0.026 C 
HETATM   15  C31 UNL     1       3.088  52.944  -7.733  1.00  0.00     0.011 C 
HETATM   16  C32 UNL     1       1.637  52.509  -7.702  1.00  0.00     0.039 C 
HETATM   17  C33 UNL     1       0.681  53.443  -8.459  1.00  0.00     0.073 C 
HETATM   18  C34 UNL     1       0.802  53.267  -9.990  1.00  0.00     0.071 C 
ENDROOT
BRANCH   1  19
HETATM   19  O2  UNL     1      -1.479  53.066 -10.859  1.00  0.00    -0.356 OA
BRANCH  19  20
HETATM   20  C3  UNL     1      -2.716  53.510 -10.321  1.00  0.00     0.263 C 
HETATM   21  O1  UNL     1      -3.184  52.534  -9.388  1.00  0.00    -0.354 OA
HETATM   22  C2  UNL     1      -3.754  51.344  -9.961  1.00  0.00     0.151 C 
HETATM   23  C1  UNL     1      -3.226  50.154  -9.163  1.00  0.00     0.042 C 
HETATM   24  C37 UNL     1      -3.496  51.172 -11.469  1.00  0.00     0.175 C 
HETATM   25  C36 UNL     1      -3.936  52.435 -12.231  1.00  0.00     0.154 C 
HETATM   26  C35 UNL     1      -3.768  53.711 -11.408  1.00  0.00     0.095 C 
BRANCH  24  27
HETATM   27  O8  UNL     1      -4.210  50.046 -11.995  1.00  0.00    -0.390 OA
HETATM   28  H51 UNL     1      -3.924  49.964 -12.925  1.00  0.00     0.210 HD
ENDBRANCH  24  27
BRANCH  25  29
HETATM   29  O7  UNL     1      -3.176  52.524 -13.450  1.00  0.00    -0.393 OA
HETATM   30  H49 UNL     1      -3.616  53.186 -14.013  1.00  0.00     0.210 HD
ENDBRANCH  25  29
ENDBRANCH  19  20
ENDBRANCH   1  19
BRANCH  17  31
HETATM   31  O6  UNL     1      -0.631  53.002  -8.065  1.00  0.00    -0.389 OA
HETATM   32  H43 UNL     1      -0.863  52.190  -8.569  1.00  0.00     0.210 HD
ENDBRANCH  17  31
BRANCH   4  33
HETATM   33  C8  UNL     1       0.188  55.205  -6.737  1.00  0.00     0.068 C 
HETATM   34  N1  UNL     1       0.495  56.208  -5.984  1.00  0.00    -0.401 N 
ATOM     35  H1  UNL     1       1.206  56.894  -6.236  1.00  0.00     0.158 HD
BRANCH  34  36
HETATM   36  C9  UNL     1      -0.270  56.273  -4.732  1.00  0.00     0.123 C 
BRANCH  36  37
HETATM   37  C10 UNL     1       0.414  57.238  -3.757  1.00  0.00     0.058 C 
BRANCH  37  38
HETATM   38  C11 UNL     1      -0.505  58.309  -3.220  1.00  0.00    -0.057 A 
HETATM   39  C12 UNL     1      -1.892  58.212  -3.391  1.00  0.00     0.007 A 
HETATM   40  C13 UNL     1      -2.736  59.208  -2.897  1.00  0.00     0.001 A 
HETATM   41  C14 UNL     1      -2.204  60.311  -2.231  1.00  0.00     0.000 A 
HETATM   42  C15 UNL     1      -0.825  60.421  -2.064  1.00  0.00     0.001 A 
HETATM   43  C16 UNL     1       0.022  59.428  -2.558  1.00  0.00     0.007 A 
ENDBRANCH  37  38
ENDBRANCH  36  37
ENDBRANCH  34  36
ENDBRANCH   4  33
BRANCH  13  44
HETATM   44  O5  UNL     1       5.369  53.867  -6.125  1.00  0.00    -0.389 OA
HETATM   45  H37 UNL     1       4.860  53.890  -5.296  1.00  0.00     0.210 HD
ENDBRANCH  13  44
BRANCH  10  46
HETATM   46  C23 UNL     1       7.539  56.209  -5.963  1.00  0.00    -0.045 A 
HETATM   47  C24 UNL     1       8.162  55.076  -5.637  1.00  0.00     0.087 A 
HETATM   48  C25 UNL     1       9.057  55.379  -4.524  1.00  0.00     0.283 A 
HETATM   49  O3  UNL     1       9.753  54.567  -3.946  1.00  0.00    -0.260 OA
HETATM   50  O4  UNL     1       8.976  56.704  -4.235  1.00  0.00    -0.314 OA
HETATM   51  C26 UNL     1       8.030  57.316  -5.107  1.00  0.00     0.213 A 
ENDBRANCH  10  46
TORSDOF 11
ENDMDL
