MODEL 1
REMARK minimizedAffinity -8.36377907
REMARK  11 active torsions:
REMARK  status: ('A' for Active; 'I' for Inactive)
REMARK    1  A    between atoms: C5_5  and  C6_6 
REMARK    2  A    between atoms: C6_6  and  C8_8 
REMARK    3  A    between atoms: C8_8  and  O1_9 
REMARK    4  A    between atoms: O1_9  and  C9_10 
REMARK    5  A    between atoms: C9_10  and  C10_12 
REMARK    6  A    between atoms: C10_12  and  C11_13 
REMARK    7  A    between atoms: C17_20  and  O4_22 
REMARK    8  A    between atoms: C22_26  and  O5_28 
REMARK    9  A    between atoms: O5_28  and  C24_29 
REMARK   10  A    between atoms: C24_29  and  C25_31 
REMARK   11  A    between atoms: C25_31  and  C26_32 
ROOT
HETATM    1  C1  UNL     1      -3.432  48.447 -25.913  1.00  0.00     0.015 C 
HETATM    2  C2  UNL     1      -3.715  49.214 -24.847  1.00  0.00    -0.077 C 
HETATM    3  C3  UNL     1      -4.173  50.643 -25.009  1.00  0.00     0.034 C 
HETATM    4  C4  UNL     1      -3.748  51.543 -23.842  1.00  0.00     0.010 C 
HETATM    5  C5  UNL     1      -2.409  51.127 -23.200  1.00  0.00    -0.001 C 
HETATM    6  C13 UNL     1      -2.583  49.707 -22.573  1.00  0.00     0.037 C 
HETATM    7  C14 UNL     1      -3.531  48.727 -23.425  1.00  0.00     0.090 C 
HETATM    8  C15 UNL     1      -4.957  48.394 -22.821  1.00  0.00     0.138 C 
HETATM    9  O3  UNL     1      -5.876  49.219 -22.835  1.00  0.00    -0.297 OA
HETATM   10  C16 UNL     1      -5.173  47.009 -22.150  1.00  0.00     0.119 C 
HETATM   11  C17 UNL     1      -5.166  46.983 -20.569  1.00  0.00     0.087 C 
HETATM   12  C18 UNL     1      -4.518  45.677 -20.094  1.00  0.00     0.049 C 
HETATM   13  C19 UNL     1      -4.444  48.230 -20.035  1.00  0.00     0.156 C 
HETATM   14  C20 UNL     1      -3.880  48.420 -18.633  1.00  0.00     0.038 C 
HETATM   15  C21 UNL     1      -2.535  49.221 -18.671  1.00  0.00     0.043 C 
HETATM   16  C22 UNL     1      -2.321  50.245 -19.868  1.00  0.00     0.093 C 
HETATM   17  C23 UNL     1      -2.834  51.642 -19.479  1.00  0.00     0.049 C 
HETATM   18  C28 UNL     1      -3.101  49.747 -21.121  1.00  0.00     0.162 C 
HETATM   19  O7  UNL     1      -3.316  48.360 -20.882  1.00  0.00    -0.374 OA
ENDROOT
BRANCH   5  20
HETATM   20  C6  UNL     1      -1.191  51.215 -24.182  1.00  0.00     0.010 C 
HETATM   21  C7  UNL     1      -1.446  50.468 -25.503  1.00  0.00     0.012 C 
BRANCH  20  22
HETATM   22  C8  UNL     1      -0.832  52.678 -24.527  1.00  0.00     0.183 C 
BRANCH  22  23
HETATM   23  O1  UNL     1      -1.098  52.906 -25.924  1.00  0.00    -0.321 OA
BRANCH  23  24
HETATM   24  C9  UNL     1      -0.237  53.755 -26.549  1.00  0.00     0.258 C 
HETATM   25  O2  UNL     1       0.292  54.730 -26.033  1.00  0.00    -0.265 OA
BRANCH  24  26
HETATM   26  C10 UNL     1      -0.014  53.290 -27.968  1.00  0.00     0.111 C 
BRANCH  26  27
HETATM   27  C11 UNL     1       0.582  51.884 -28.017  1.00  0.00     0.005 C 
HETATM   28  C12 UNL     1       1.915  51.820 -27.291  1.00  0.00     0.005 C 
ENDBRANCH  26  27
ENDBRANCH  24  26
ENDBRANCH  23  24
ENDBRANCH  22  23
ENDBRANCH  20  22
ENDBRANCH   5  20
BRANCH  16  29
HETATM   29  O5  UNL     1      -0.916  50.317 -20.237  1.00  0.00    -0.308 OA
BRANCH  29  30
HETATM   30  C24 UNL     1      -0.134  51.336 -19.774  1.00  0.00     0.259 C 
HETATM   31  O6  UNL     1       0.185  51.515 -18.607  1.00  0.00    -0.265 OA
BRANCH  30  32
HETATM   32  C25 UNL     1       0.240  52.239 -20.924  1.00  0.00     0.111 C 
BRANCH  32  33
HETATM   33  C26 UNL     1       0.700  53.625 -20.482  1.00  0.00     0.005 C 
HETATM   34  C27 UNL     1       1.587  54.303 -21.517  1.00  0.00     0.005 C 
ENDBRANCH  32  33
ENDBRANCH  30  32
ENDBRANCH  29  30
ENDBRANCH  16  29
BRANCH  11  35
HETATM   35  O4  UNL     1      -6.507  46.990 -20.068  1.00  0.00    -0.387 OA
HETATM   36  H28 UNL     1      -6.995  46.255 -20.482  1.00  0.00     0.210 HD
ENDBRANCH  11  35
TORSDOF 11
ENDMDL
