MODEL 1
REMARK minimizedAffinity -6.22311926
REMARK CNNscore 0.578220248
REMARK CNNaffinity 5.08785439
REMARK  6 active torsions:
REMARK  status: ('A' for Active; 'I' for Inactive)
REMARK    1  A    between atoms: C2_2  and  C30_31 
REMARK    2  A    between atoms: C3_3  and  C4_4 
REMARK    3  A    between atoms: C4_4  and  C5_5 
REMARK    4  A    between atoms: C5_5  and  C6_6 
REMARK    5  A    between atoms: C6_6  and  C8_8 
REMARK    6  A    between atoms: C30_31  and  O3_33 
ROOT
HETATM    1  C8  UNL     1      10.721  12.254  17.358  1.00  0.00    -0.002 C 
HETATM    2  C9  UNL     1      10.628  11.045  18.326  1.00  0.00     0.007 C 
HETATM    3  C10 UNL     1       9.619  10.049  17.706  1.00  0.00     0.015 C 
HETATM    4  C11 UNL     1       8.959  10.817  16.539  1.00  0.00    -0.013 C 
HETATM    5  C12 UNL     1       7.793  11.646  17.171  1.00  0.00     0.021 C 
HETATM    6  C13 UNL     1       8.331  10.025  15.399  1.00  0.00    -0.070 C 
HETATM    7  C14 UNL     1       7.722   8.841  15.600  1.00  0.00    -0.022 C 
HETATM    8  C15 UNL     1       6.969   8.084  14.547  1.00  0.00     0.034 C 
HETATM    9  C16 UNL     1       7.148   8.637  13.116  1.00  0.00     0.013 C 
HETATM   10  C17 UNL     1       6.264   7.941  12.009  1.00  0.00     0.018 C 
HETATM   11  C18 UNL     1       7.171   7.090  11.093  1.00  0.00     0.023 C 
HETATM   12  C19 UNL     1       5.186   6.999  12.589  1.00  0.00     0.023 C 
HETATM   13  C20 UNL     1       5.559   8.948  11.087  1.00  0.00     0.135 C 
HETATM   14  O1  UNL     1       4.451   8.711  10.594  1.00  0.00    -0.297 OA
HETATM   15  C21 UNL     1       6.277  10.212  10.684  1.00  0.00     0.080 C 
HETATM   16  C22 UNL     1       7.362  10.655  11.650  1.00  0.00     0.017 C 
HETATM   17  C23 UNL     1       7.133  10.206  13.111  1.00  0.00    -0.031 C 
HETATM   18  C24 UNL     1       5.799  10.783  13.644  1.00  0.00     0.016 C 
HETATM   19  C25 UNL     1       8.345  10.680  14.012  1.00  0.00     0.024 C 
HETATM   20  C26 UNL     1       8.550  12.216  14.070  1.00  0.00     0.010 C 
HETATM   21  C27 UNL     1       9.679  12.712  15.006  1.00  0.00     0.011 C 
HETATM   22  C28 UNL     1      10.172  11.662  16.020  1.00  0.00    -0.029 C 
HETATM   23  C29 UNL     1      11.292  10.807  15.350  1.00  0.00     0.016 C 
ENDROOT
BRANCH   1  24
HETATM   24  C6  UNL     1      12.066  13.037  17.292  1.00  0.00    -0.014 C 
HETATM   25  C7  UNL     1      12.381  13.723  15.960  1.00  0.00     0.010 C 
BRANCH  24  26
HETATM   26  C5  UNL     1      13.264  12.173  17.780  1.00  0.00     0.008 C 
BRANCH  26  27
HETATM   27  C4  UNL     1      14.015  12.637  19.038  1.00  0.00     0.028 C 
BRANCH  27  28
HETATM   28  C3  UNL     1      15.508  12.489  18.929  1.00  0.00    -0.013 C 
HETATM   29  C2  UNL     1      16.441  12.658  19.886  1.00  0.00     0.008 C 
HETATM   30  C1  UNL     1      17.901  12.434  19.619  1.00  0.00     0.055 C 
BRANCH  29  31
HETATM   31  C30 UNL     1      16.088  13.100  21.254  1.00  0.00     0.171 C 
HETATM   32  O2  UNL     1      15.901  12.399  22.231  1.00  0.00    -0.646 OA
BRANCH  31  33
HETATM   33  O3  UNL     1      15.978  14.438  21.320  1.00  0.00    -0.773 OA
HETATM   34  H46 UNL     1      15.751  14.605  22.258  1.00  0.00     0.167 HD
ENDBRANCH  31  33
ENDBRANCH  29  31
ENDBRANCH  27  28
ENDBRANCH  26  27
ENDBRANCH  24  26
ENDBRANCH   1  24
TORSDOF 6
ENDMDL
