MODEL 1
REMARK minimizedAffinity -9.21857357
REMARK CNNscore 0.700355172
REMARK CNNaffinity 6.75038481
REMARK  14 active torsions:
REMARK  status: ('A' for Active; 'I' for Inactive)
REMARK    1  A    between atoms: C19_20  and  O2_21 
REMARK    2  A    between atoms: C19_20  and  C20_22 
REMARK    3  A    between atoms: C20_22  and  C21_24 
REMARK    4  A    between atoms: C21_24  and  O4_25 
REMARK    5  A    between atoms: O4_25  and  C22_26 
REMARK    6  A    between atoms: C22_26  and  C23_28 
REMARK    7  A    between atoms: C23_28  and  C24_29 
REMARK    8  A    between atoms: C24_29  and  C25_30 
REMARK       I    between atoms: C25_30  and  N1_32 
REMARK    9  A    between atoms: N1_32  and  C26_33 
REMARK   10  A    between atoms: C26_33  and  C27_34 
REMARK   11  A    between atoms: C26_33  and  C36_45 
REMARK   12  A    between atoms: C27_34  and  C28_35 
REMARK   13  A    between atoms: C33_41  and  O7_42 
REMARK   14  A    between atoms: C36_45  and  O9_47 
ROOT
HETATM    1  O4  UNL     1      -0.239  52.214 -13.332  1.00  0.00    -0.314 OA
ENDROOT
BRANCH   1   2
HETATM    2  C21 UNL     1      -0.550  51.658 -12.060  1.00  0.00     0.260 C 
BRANCH   2   3
HETATM    3  C20 UNL     1      -1.211  52.681 -11.144  1.00  0.00     0.185 C 
HETATM    4  O3  UNL     1      -2.371  52.502 -10.756  1.00  0.00    -0.292 OA
BRANCH   3   5
HETATM    5  C19 UNL     1      -0.400  53.929 -10.707  1.00  0.00     0.128 C 
HETATM    6  C14 UNL     1       0.595  53.730  -9.520  1.00  0.00    -0.002 C 
HETATM    7  C13 UNL     1       1.958  53.088  -9.847  1.00  0.00     0.013 C 
HETATM    8  C15 UNL     1      -0.087  52.926  -8.377  1.00  0.00     0.019 C 
HETATM    9  C16 UNL     1       0.858  55.221  -9.147  1.00  0.00     0.002 C 
HETATM   10  C12 UNL     1       2.987  53.263  -8.711  1.00  0.00     0.007 C 
HETATM   11  C11 UNL     1       3.164  54.743  -8.303  1.00  0.00     0.002 C 
HETATM   12  C2  UNL     1       4.236  55.020  -7.197  1.00  0.00    -0.016 C 
HETATM   13  C10 UNL     1       1.786  55.380  -7.935  1.00  0.00    -0.004 C 
HETATM   14  C1  UNL     1       3.788  54.474  -5.820  1.00  0.00     0.020 C 
HETATM   15  C3  UNL     1       5.600  54.383  -7.573  1.00  0.00     0.022 C 
HETATM   16  C7  UNL     1       4.435  56.536  -7.110  1.00  0.00    -0.068 C 
HETATM   17  C4  UNL     1       6.736  54.781  -6.630  1.00  0.00     0.084 C 
HETATM   18  C5  UNL     1       6.774  56.267  -6.361  1.00  0.00     0.149 C 
HETATM   19  O1  UNL     1       7.752  56.809  -5.849  1.00  0.00    -0.293 OA
HETATM   20  C6  UNL     1       5.593  57.093  -6.711  1.00  0.00     0.053 C 
HETATM   21  C8  UNL     1       3.316  57.425  -7.605  1.00  0.00     0.035 C 
HETATM   22  C9  UNL     1       1.923  56.828  -7.425  1.00  0.00     0.010 C 
HETATM   23  C17 UNL     1      -0.541  55.822  -9.091  1.00  0.00     0.009 C 
HETATM   24  C18 UNL     1      -1.329  55.066 -10.179  1.00  0.00     0.047 C 
BRANCH   5  25
HETATM   25  O2  UNL     1       0.295  54.458 -11.844  1.00  0.00    -0.381 OA
HETATM   26  H27 UNL     1      -0.377  54.695 -12.509  1.00  0.00     0.211 HD
ENDBRANCH   5  25
ENDBRANCH   3   5
ENDBRANCH   2   3
ENDBRANCH   1   2
BRANCH   1  27
HETATM   27  C22 UNL     1       0.884  51.710 -13.908  1.00  0.00     0.259 C 
HETATM   28  O5  UNL     1       1.704  51.008 -13.332  1.00  0.00    -0.265 OA
BRANCH  27  29
HETATM   29  C23 UNL     1       1.082  52.226 -15.314  1.00  0.00     0.120 C 
BRANCH  29  30
HETATM   30  C24 UNL     1       1.022  51.164 -16.406  1.00  0.00     0.112 C 
BRANCH  30  31
HETATM   31  C25 UNL     1       0.481  51.720 -17.707  1.00  0.00     0.218 C 
HETATM   32  O6  UNL     1       0.743  52.839 -18.122  1.00  0.00    -0.274 OA
HETATM   33  N1  UNL     1      -0.328  50.830 -18.380  1.00  0.00    -0.346 N 
HETATM   34  H34 UNL     1      -0.773  50.119 -17.813  1.00  0.00     0.163 HD
BRANCH  33  35
HETATM   35  C26 UNL     1      -1.097  51.281 -19.553  1.00  0.00     0.186 C 
BRANCH  35  36
HETATM   36  C27 UNL     1      -0.982  50.259 -20.690  1.00  0.00     0.077 C 
BRANCH  36  37
HETATM   37  C28 UNL     1      -0.902  50.874 -22.052  1.00  0.00    -0.028 A 
HETATM   38  C29 UNL     1      -1.533  50.421 -23.194  1.00  0.00     0.096 A 
HETATM   39  N2  UNL     1      -1.213  51.262 -24.225  1.00  0.00    -0.365 N 
HETATM   40  C30 UNL     1      -0.374  52.258 -23.784  1.00  0.00     0.043 A 
HETATM   41  H39 UNL     1      -1.540  51.170 -25.177  1.00  0.00     0.165 HD
HETATM   42  C31 UNL     1       0.201  53.328 -24.484  1.00  0.00     0.033 A 
HETATM   43  C35 UNL     1      -0.157  52.040 -22.423  1.00  0.00     0.001 A 
HETATM   44  C32 UNL     1       1.027  54.203 -23.769  1.00  0.00     0.039 A 
HETATM   45  C33 UNL     1       1.260  53.999 -22.413  1.00  0.00     0.066 A 
HETATM   46  C34 UNL     1       0.680  52.934 -21.724  1.00  0.00     0.050 A 
BRANCH  45  47
HETATM   47  O7  UNL     1       2.069  54.840 -21.704  1.00  0.00    -0.361 OA
HETATM   48  H42 UNL     1       2.378  55.546 -22.294  1.00  0.00     0.217 HD
ENDBRANCH  45  47
ENDBRANCH  36  37
ENDBRANCH  35  36
BRANCH  35  49
HETATM   49  C36 UNL     1      -2.553  51.393 -19.108  1.00  0.00     0.163 C 
HETATM   50  O8  UNL     1      -2.940  51.454 -17.948  1.00  0.00    -0.648 OA
BRANCH  49  51
HETATM   51  O9  UNL     1      -3.432  51.428 -20.125  1.00  0.00    -0.775 OA
HETATM   52  H44 UNL     1      -4.306  51.542 -19.701  1.00  0.00     0.167 HD
ENDBRANCH  49  51
ENDBRANCH  35  49
ENDBRANCH  33  35
ENDBRANCH  30  31
ENDBRANCH  29  30
ENDBRANCH  27  29
ENDBRANCH   1  27
TORSDOF 14
ENDMDL
