MODEL 1
REMARK minimizedAffinity -8.36953259
REMARK CNNscore 0.505837917
REMARK CNNaffinity 6.80130148
REMARK  16 active torsions:
REMARK  status: ('A' for Active; 'I' for Inactive)
REMARK    1  A    between atoms: C4_4  and  C5_5 
REMARK    2  A    between atoms: C5_5  and  C6_6 
REMARK    3  A    between atoms: C6_6  and  C7_7 
REMARK    4  A    between atoms: C9_9  and  C10_10 
REMARK    5  A    between atoms: C10_10  and  O1_11 
REMARK    6  A    between atoms: C10_10  and  C11_12 
REMARK    7  A    between atoms: C11_12  and  C12_13 
REMARK    8  A    between atoms: C14_15  and  C15_16 
REMARK    9  A    between atoms: C15_16  and  C16_17 
REMARK   10  A    between atoms: C16_17  and  C17_18 
REMARK   11  A    between atoms: C19_20  and  C20_21 
REMARK   12  A    between atoms: C20_21  and  C21_22 
REMARK   13  A    between atoms: C21_22  and  C22_23 
REMARK   14  A    between atoms: C22_23  and  O2_24 
REMARK   15  A    between atoms: C24_26  and  C26_28 
REMARK   16  A    between atoms: C29_32  and  O4_34 
ROOT
HETATM    1  C17 UNL     1       0.516   6.508  11.635  1.00  0.00    -0.006 C 
HETATM    2  C18 UNL     1       1.261   5.919  12.866  1.00  0.00     0.019 C 
HETATM    3  C19 UNL     1       1.313   6.226  10.271  1.00  0.00     0.026 C 
HETATM    4  C23 UNL     1       2.213   7.386   9.807  1.00  0.00    -0.066 C 
HETATM    5  C24 UNL     1       2.430   7.708   8.506  1.00  0.00    -0.021 C 
HETATM    6  C25 UNL     1       3.298   8.851   8.056  1.00  0.00     0.052 C 
HETATM    7  C27 UNL     1       2.816   8.165  10.944  1.00  0.00     0.038 C 
HETATM    8  C28 UNL     1       1.752   8.769  11.859  1.00  0.00     0.042 C 
HETATM    9  C29 UNL     1       0.370   8.070  11.821  1.00  0.00     0.062 C 
HETATM   10  C30 UNL     1      -0.524   8.740  10.758  1.00  0.00     0.046 C 
ENDROOT
BRANCH   1  11
HETATM   11  C16 UNL     1      -0.872   5.761  11.524  1.00  0.00     0.016 C 
BRANCH  11  12
HETATM   12  C15 UNL     1      -1.451   5.015  12.741  1.00  0.00     0.028 C 
BRANCH  12  13
HETATM   13  C14 UNL     1      -2.599   4.090  12.448  1.00  0.00    -0.024 C 
HETATM   14  C12 UNL     1      -2.570   2.906  11.804  1.00  0.00    -0.085 C 
HETATM   15  C13 UNL     1      -1.332   2.284  11.218  1.00  0.00     0.043 C 
BRANCH  14  16
HETATM   16  C11 UNL     1      -3.845   2.083  11.673  1.00  0.00     0.069 C 
BRANCH  16  17
HETATM   17  C10 UNL     1      -4.998   2.845  10.994  1.00  0.00     0.145 C 
BRANCH  17  18
HETATM   18  C9  UNL     1      -5.808   3.649  11.978  1.00  0.00     0.007 C 
HETATM   19  C7  UNL     1      -6.866   3.280  12.731  1.00  0.00    -0.085 C 
HETATM   20  C8  UNL     1      -7.475   1.903  12.743  1.00  0.00     0.043 C 
BRANCH  19  21
HETATM   21  C6  UNL     1      -7.559   4.296  13.622  1.00  0.00     0.037 C 
BRANCH  21  22
HETATM   22  C5  UNL     1      -7.779   5.672  12.976  1.00  0.00     0.031 C 
BRANCH  22  23
HETATM   23  C4  UNL     1      -9.222   6.101  12.934  1.00  0.00    -0.024 C 
HETATM   24  C2  UNL     1      -9.922   6.732  13.898  1.00  0.00    -0.091 C 
HETATM   25  C1  UNL     1      -9.359   7.186  15.214  1.00  0.00     0.042 C 
HETATM   26  C3  UNL     1     -11.380   7.057  13.701  1.00  0.00     0.042 C 
ENDBRANCH  22  23
ENDBRANCH  21  22
ENDBRANCH  19  21
ENDBRANCH  17  18
BRANCH  17  27
HETATM   27  O1  UNL     1      -5.859   1.966  10.278  1.00  0.00    -0.391 OA
HETATM   28  H17 UNL     1      -5.327   1.593   9.554  1.00  0.00     0.210 HD
ENDBRANCH  17  27
ENDBRANCH  16  17
ENDBRANCH  14  16
ENDBRANCH  12  13
ENDBRANCH  11  12
ENDBRANCH   1  11
BRANCH   3  29
HETATM   29  C20 UNL     1       2.167   4.926  10.223  1.00  0.00     0.012 C 
BRANCH  29  30
HETATM   30  C21 UNL     1       3.636   5.167   9.850  1.00  0.00     0.027 C 
BRANCH  30  31
HETATM   31  C22 UNL     1       4.235   3.999   9.073  1.00  0.00     0.164 C 
BRANCH  31  32
HETATM   32  O2  UNL     1       4.159   2.780   9.798  1.00  0.00    -0.401 OA
HETATM   33  H38 UNL     1       4.091   2.985  10.757  1.00  0.00     0.209 HD
ENDBRANCH  31  32
ENDBRANCH  30  31
ENDBRANCH  29  30
ENDBRANCH   3  29
BRANCH   9  34
HETATM   34  O4  UNL     1      -0.242   8.352  13.088  1.00  0.00    -0.389 OA
HETATM   35  H50 UNL     1      -0.254   9.319  13.212  1.00  0.00     0.210 HD
ENDBRANCH   9  34
BRANCH   5  36
HETATM   36  C26 UNL     1       1.829   6.944   7.360  1.00  0.00     0.265 C 
HETATM   37  O3  UNL     1       2.375   6.025   6.761  1.00  0.00    -0.302 OA
ENDBRANCH   5  36
TORSDOF 16
ENDMDL
