MODEL 1
REMARK minimizedAffinity -7.17886066
REMARK CNNscore 0.763508976
REMARK CNNaffinity 7.05064726
REMARK  8 active torsions:
REMARK  status: ('A' for Active; 'I' for Inactive)
REMARK    1  A    between atoms: C2_2  and  C3_3 
REMARK    2  A    between atoms: C2_2  and  C9_12 
REMARK    3  A    between atoms: C3_3  and  C4_4 
REMARK    4  A    between atoms: C4_4  and  C5_5 
REMARK    5  A    between atoms: C6_6  and  C7_7 
REMARK    6  A    between atoms: C6_6  and  C8_9 
REMARK    7  A    between atoms: C7_7  and  O1_8 
REMARK    8  A    between atoms: C8_9  and  O3_11 
ROOT
HETATM    1  C9  UNL     1      -1.055  53.273  -9.815  1.00  0.00    -0.002 C 
HETATM    2  C10 UNL     1      -0.626  53.212 -11.315  1.00  0.00     0.006 C 
HETATM    3  C11 UNL     1       0.660  54.057 -11.455  1.00  0.00     0.011 C 
HETATM    4  C12 UNL     1       1.159  54.242 -10.013  1.00  0.00    -0.032 C 
HETATM    5  C13 UNL     1       1.895  52.916  -9.639  1.00  0.00     0.016 C 
HETATM    6  C14 UNL     1       2.109  55.449  -9.744  1.00  0.00     0.004 C 
HETATM    7  C15 UNL     1       3.373  55.502 -10.605  1.00  0.00     0.007 C 
HETATM    8  C16 UNL     1       4.660  54.888 -10.063  1.00  0.00     0.007 C 
HETATM    9  C17 UNL     1       4.710  54.432  -8.595  1.00  0.00     0.010 C 
HETATM   10  C18 UNL     1       6.168  54.411  -8.021  1.00  0.00     0.018 C 
HETATM   11  C19 UNL     1       7.068  53.484  -8.866  1.00  0.00     0.023 C 
HETATM   12  C20 UNL     1       6.835  55.798  -7.956  1.00  0.00     0.023 C 
HETATM   13  C21 UNL     1       6.105  53.861  -6.588  1.00  0.00     0.135 C 
HETATM   14  O4  UNL     1       6.842  52.960  -6.185  1.00  0.00    -0.297 OA
HETATM   15  C22 UNL     1       5.136  54.529  -5.647  1.00  0.00     0.080 C 
HETATM   16  C23 UNL     1       3.744  54.526  -6.249  1.00  0.00     0.018 C 
HETATM   17  C24 UNL     1       3.721  55.126  -7.651  1.00  0.00    -0.026 A 
HETATM   18  C25 UNL     1       3.425  56.599  -7.790  1.00  0.00     0.021 A 
HETATM   19  C26 UNL     1       2.371  55.594  -8.232  1.00  0.00    -0.027 A 
HETATM   20  C27 UNL     1       1.086  55.598  -7.388  1.00  0.00     0.011 C 
HETATM   21  C28 UNL     1       0.080  54.488  -7.749  1.00  0.00     0.011 C 
HETATM   22  C29 UNL     1      -0.218  54.467  -9.258  1.00  0.00    -0.032 C 
HETATM   23  C30 UNL     1      -0.937  55.801  -9.618  1.00  0.00     0.016 C 
ENDROOT
BRANCH   1  24
HETATM   24  C2  UNL     1      -2.593  53.118  -9.593  1.00  0.00    -0.014 C 
HETATM   25  C1  UNL     1      -3.101  51.702  -9.299  1.00  0.00     0.010 C 
BRANCH  24  26
HETATM   26  C3  UNL     1      -3.388  53.784 -10.742  1.00  0.00     0.008 C 
BRANCH  26  27
HETATM   27  C4  UNL     1      -4.210  52.831 -11.626  1.00  0.00     0.028 C 
BRANCH  27  28
HETATM   28  C5  UNL     1      -3.572  52.473 -12.938  1.00  0.00    -0.011 C 
HETATM   29  C6  UNL     1      -3.179  51.239 -13.321  1.00  0.00     0.035 C 
BRANCH  29  30
HETATM   30  C7  UNL     1      -3.398  49.987 -12.526  1.00  0.00     0.209 C 
BRANCH  30  31
HETATM   31  O1  UNL     1      -2.786  48.896 -13.204  1.00  0.00    -0.396 OA
HETATM   32  H12 UNL     1      -3.098  48.086 -12.767  1.00  0.00     0.209 HD
ENDBRANCH  30  31
ENDBRANCH  29  30
BRANCH  29  33
HETATM   33  C8  UNL     1      -2.541  51.025 -14.644  1.00  0.00     0.173 C 
HETATM   34  O2  UNL     1      -1.346  51.093 -14.876  1.00  0.00    -0.646 OA
BRANCH  33  35
HETATM   35  O3  UNL     1      -3.409  50.729 -15.627  1.00  0.00    -0.773 OA
HETATM   36  H13 UNL     1      -2.839  50.643 -16.419  1.00  0.00     0.167 HD
ENDBRANCH  33  35
ENDBRANCH  29  33
ENDBRANCH  27  28
ENDBRANCH  26  27
ENDBRANCH  24  26
ENDBRANCH   1  24
TORSDOF 8
ENDMDL
