MODEL 1
REMARK minimizedAffinity -7.41122627
REMARK CNNscore 0.849743247
REMARK CNNaffinity 7.17099524
REMARK  9 active torsions:
REMARK  status: ('A' for Active; 'I' for Inactive)
REMARK    1  A    between atoms: C2_2  and  C3_3 
REMARK    2  A    between atoms: C2_2  and  C9_12 
REMARK    3  A    between atoms: C3_3  and  C4_4 
REMARK    4  A    between atoms: C4_4  and  C5_5 
REMARK    5  A    between atoms: C5_5  and  O1_6 
REMARK    6  A    between atoms: C5_5  and  C6_7 
REMARK    7  A    between atoms: C6_7  and  O2_9 
REMARK    8  A    between atoms: C6_7  and  C8_10 
REMARK    9  A    between atoms: C8_10  and  O3_11 
ROOT
HETATM    1  C9  UNL     1       4.686  55.341  -8.822  1.00  0.00    -0.002 C 
HETATM    2  C10 UNL     1       3.937  56.550  -8.188  1.00  0.00     0.007 C 
HETATM    3  C11 UNL     1       2.433  56.354  -8.445  1.00  0.00     0.015 C 
HETATM    4  C12 UNL     1       2.353  55.264  -9.527  1.00  0.00    -0.005 C 
HETATM    5  C13 UNL     1       2.580  55.970 -10.901  1.00  0.00     0.021 C 
HETATM    6  C14 UNL     1       1.077  54.458  -9.722  1.00  0.00    -0.000 C 
HETATM    7  C15 UNL     1       1.087  53.173 -10.158  1.00  0.00    -0.060 C 
HETATM    8  C16 UNL     1       2.440  52.493 -10.453  1.00  0.00     0.036 C 
HETATM    9  C17 UNL     1       3.736  53.281 -10.158  1.00  0.00     0.015 C 
HETATM   10  C18 UNL     1       3.528  54.321  -9.054  1.00  0.00    -0.028 C 
HETATM   11  C19 UNL     1       3.221  53.580  -7.714  1.00  0.00     0.016 C 
HETATM   12  C20 UNL     1      -0.196  52.285 -10.290  1.00  0.00    -0.014 C 
HETATM   13  C21 UNL     1      -0.063  51.198  -9.184  1.00  0.00     0.020 C 
HETATM   14  C22 UNL     1      -0.250  51.561 -11.667  1.00  0.00     0.021 C 
HETATM   15  C23 UNL     1      -1.037  52.323 -12.717  1.00  0.00     0.080 C 
HETATM   16  C24 UNL     1      -2.488  52.425 -12.311  1.00  0.00     0.135 C 
HETATM   17  O4  UNL     1      -3.372  52.440 -13.169  1.00  0.00    -0.297 OA
HETATM   18  C25 UNL     1      -2.811  52.517 -10.812  1.00  0.00     0.018 C 
HETATM   19  C26 UNL     1      -3.252  51.122 -10.329  1.00  0.00     0.023 C 
HETATM   20  C27 UNL     1      -4.043  53.438 -10.639  1.00  0.00     0.023 C 
HETATM   21  C28 UNL     1      -1.556  53.069 -10.024  1.00  0.00     0.020 C 
HETATM   22  C29 UNL     1      -1.400  54.579 -10.256  1.00  0.00     0.090 C 
HETATM   23  C30 UNL     1      -0.227  55.133  -9.510  1.00  0.00     0.157 C 
HETATM   24  O5  UNL     1      -0.336  56.146  -8.826  1.00  0.00    -0.293 OA
ENDROOT
BRANCH   1  25
HETATM   25  C2  UNL     1       5.940  54.931  -7.987  1.00  0.00    -0.014 C 
HETATM   26  C1  UNL     1       7.059  54.365  -8.866  1.00  0.00     0.010 C 
BRANCH  25  27
HETATM   27  C3  UNL     1       6.466  56.153  -7.178  1.00  0.00     0.007 C 
BRANCH  27  28
HETATM   28  C4  UNL     1       7.752  55.864  -6.386  1.00  0.00     0.035 C 
BRANCH  28  29
HETATM   29  C5  UNL     1       7.807  56.470  -4.970  1.00  0.00     0.154 C 
BRANCH  29  30
HETATM   30  O1  UNL     1       6.868  57.555  -4.918  1.00  0.00    -0.392 OA
HETATM   31  H10 UNL     1       7.374  58.342  -5.206  1.00  0.00     0.210 HD
ENDBRANCH  29  30
BRANCH  29  32
HETATM   32  C6  UNL     1       9.187  56.967  -4.460  1.00  0.00     0.101 C 
HETATM   33  C7  UNL     1      10.316  56.358  -5.309  1.00  0.00     0.051 C 
BRANCH  32  34
HETATM   34  O2  UNL     1       9.389  56.476  -3.119  1.00  0.00    -0.385 OA
HETATM   35  H14 UNL     1      10.169  56.968  -2.788  1.00  0.00     0.210 HD
ENDBRANCH  32  34
BRANCH  32  36
HETATM   36  C8  UNL     1       9.293  58.504  -4.439  1.00  0.00     0.204 C 
BRANCH  36  37
HETATM   37  O3  UNL     1      10.321  58.922  -5.344  1.00  0.00    -0.398 OA
HETATM   38  H17 UNL     1      10.342  59.895  -5.322  1.00  0.00     0.209 HD
ENDBRANCH  36  37
ENDBRANCH  32  36
ENDBRANCH  29  32
ENDBRANCH  28  29
ENDBRANCH  27  28
ENDBRANCH  25  27
ENDBRANCH   1  25
TORSDOF 9
ENDMDL
