MODEL 1
REMARK minimizedAffinity -8.57875061
REMARK CNNscore 0.730439723
REMARK CNNaffinity 6.60420609
REMARK  12 active torsions:
REMARK  status: ('A' for Active; 'I' for Inactive)
REMARK    1  A    between atoms: C19_20  and  O2_21 
REMARK    2  A    between atoms: C19_20  and  C20_22 
REMARK    3  A    between atoms: C20_22  and  C21_24 
REMARK    4  A    between atoms: C21_24  and  O4_25 
REMARK    5  A    between atoms: O4_25  and  C22_26 
REMARK    6  A    between atoms: C22_26  and  C23_28 
REMARK    7  A    between atoms: C23_28  and  C24_29 
REMARK    8  A    between atoms: C24_29  and  C25_30 
REMARK       I    between atoms: C25_30  and  N1_32 
REMARK    9  A    between atoms: N1_32  and  C26_33 
REMARK   10  A    between atoms: C26_33  and  C27_34 
REMARK   11  A    between atoms: C30_37  and  C31_38 
REMARK   12  A    between atoms: C31_38  and  O8_40 
ROOT
HETATM    1  C20 UNL     1      -6.819  47.732 -23.904  1.00  0.00     0.185 C 
HETATM    2  O3  UNL     1      -7.196  46.728 -23.291  1.00  0.00    -0.292 OA
ENDROOT
BRANCH   1   3
HETATM    3  C19 UNL     1      -6.344  49.012 -23.162  1.00  0.00     0.128 C 
HETATM    4  C14 UNL     1      -4.856  48.972 -22.685  1.00  0.00    -0.002 C 
HETATM    5  C13 UNL     1      -3.785  49.364 -23.721  1.00  0.00     0.013 C 
HETATM    6  C15 UNL     1      -4.518  47.579 -22.090  1.00  0.00     0.019 C 
HETATM    7  C16 UNL     1      -4.884  50.101 -21.623  1.00  0.00     0.002 C 
HETATM    8  C12 UNL     1      -2.408  49.602 -23.074  1.00  0.00     0.007 C 
HETATM    9  C11 UNL     1      -2.443  50.627 -21.913  1.00  0.00     0.002 C 
HETATM   10  C2  UNL     1      -1.038  50.888 -21.246  1.00  0.00    -0.016 C 
HETATM   11  C10 UNL     1      -3.555  50.279 -20.877  1.00  0.00    -0.004 C 
HETATM   12  C1  UNL     1      -0.410  49.590 -20.692  1.00  0.00     0.020 C 
HETATM   13  C3  UNL     1      -0.086  51.486 -22.325  1.00  0.00     0.022 C 
HETATM   14  C7  UNL     1      -1.204  51.876 -20.083  1.00  0.00    -0.068 C 
HETATM   15  C4  UNL     1       1.154  52.152 -21.748  1.00  0.00     0.084 C 
HETATM   16  C5  UNL     1       0.759  53.211 -20.755  1.00  0.00     0.149 C 
HETATM   17  O1  UNL     1       1.411  54.239 -20.593  1.00  0.00    -0.293 OA
HETATM   18  C6  UNL     1      -0.416  52.949 -19.894  1.00  0.00     0.053 C 
HETATM   19  C8  UNL     1      -2.321  51.589 -19.106  1.00  0.00     0.035 C 
HETATM   20  C9  UNL     1      -3.654  51.383 -19.815  1.00  0.00     0.010 C 
HETATM   21  C17 UNL     1      -6.132  49.795 -20.807  1.00  0.00     0.009 C 
HETATM   22  C18 UNL     1      -7.132  49.235 -21.833  1.00  0.00     0.047 C 
BRANCH   3  23
HETATM   23  O2  UNL     1      -6.559  50.176 -23.966  1.00  0.00    -0.381 OA
HETATM   24  H27 UNL     1      -7.512  50.231 -24.150  1.00  0.00     0.211 HD
ENDBRANCH   3  23
ENDBRANCH   1   3
BRANCH   1  25
HETATM   25  C21 UNL     1      -6.752  47.718 -25.423  1.00  0.00     0.260 C 
BRANCH  25  26
HETATM   26  O4  UNL     1      -7.751  48.571 -25.977  1.00  0.00    -0.314 OA
BRANCH  26  27
HETATM   27  C22 UNL     1      -9.011  48.067 -25.897  1.00  0.00     0.259 C 
HETATM   28  O5  UNL     1      -9.880  48.488 -25.143  1.00  0.00    -0.265 OA
BRANCH  27  29
HETATM   29  C23 UNL     1      -9.203  46.851 -26.776  1.00  0.00     0.120 C 
BRANCH  29  30
HETATM   30  C24 UNL     1     -10.298  45.891 -26.325  1.00  0.00     0.112 C 
BRANCH  30  31
HETATM   31  C25 UNL     1     -11.459  45.852 -27.295  1.00  0.00     0.218 C 
HETATM   32  O6  UNL     1     -11.449  46.419 -28.381  1.00  0.00    -0.274 OA
HETATM   33  N1  UNL     1     -12.516  45.099 -26.835  1.00  0.00    -0.357 N 
HETATM   34  H34 UNL     1     -12.539  44.839 -25.859  1.00  0.00     0.162 HD
BRANCH  33  35
HETATM   35  C26 UNL     1     -13.759  45.013 -27.572  1.00  0.00     0.161 C 
BRANCH  35  36
HETATM   36  C27 UNL     1     -14.920  45.467 -26.723  1.00  0.00    -0.040 A 
HETATM   37  C28 UNL     1     -14.719  46.322 -25.630  1.00  0.00     0.010 A 
HETATM   38  C29 UNL     1     -15.802  46.746 -24.854  1.00  0.00     0.019 A 
HETATM   39  C30 UNL     1     -17.101  46.327 -25.169  1.00  0.00     0.037 A 
HETATM   40  C32 UNL     1     -17.308  45.486 -26.267  1.00  0.00     0.019 A 
HETATM   41  C33 UNL     1     -16.224  45.062 -27.041  1.00  0.00     0.010 A 
BRANCH  39  42
HETATM   42  C31 UNL     1     -18.279  46.748 -24.373  1.00  0.00     0.176 C 
HETATM   43  O7  UNL     1     -19.192  47.451 -24.765  1.00  0.00    -0.646 OA
BRANCH  42  44
HETATM   44  O8  UNL     1     -18.260  46.267 -23.117  1.00  0.00    -0.773 OA
HETATM   45  H39 UNL     1     -19.087  46.616 -22.725  1.00  0.00     0.167 HD
ENDBRANCH  42  44
ENDBRANCH  39  42
ENDBRANCH  35  36
ENDBRANCH  33  35
ENDBRANCH  30  31
ENDBRANCH  29  30
ENDBRANCH  27  29
ENDBRANCH  26  27
ENDBRANCH  25  26
ENDBRANCH   1  25
TORSDOF 12
ENDMDL
