MODEL 1
REMARK minimizedAffinity -7.74656391
REMARK  7 active torsions:
REMARK  status: ('A' for Active; 'I' for Inactive)
REMARK       I    between atoms: C1_2  and  N1_3 
REMARK    1  A    between atoms: C1_2  and  C8_12 
REMARK    2  A    between atoms: N1_3  and  C2_4 
REMARK    3  A    between atoms: C2_4  and  C3_5 
REMARK    4  A    between atoms: C14_19  and  C15_20 
REMARK    5  A    between atoms: C15_20  and  N4_21 
REMARK    6  A    between atoms: C17_23  and  C18_24 
REMARK    7  A    between atoms: C18_24  and  C19_25 
ROOT
HETATM    1  C8  UNL     1      17.895  36.523  13.604  1.00  0.00     0.110 C 
HETATM    2  C9  UNL     1      18.077  36.860  15.097  1.00  0.00     0.287 C 
HETATM    3  N3  UNL     1      17.797  35.685  15.968  1.00  0.00     0.095 N 
HETATM    4  C10 UNL     1      18.541  34.516  15.432  1.00  0.00     0.273 C 
HETATM    5  C11 UNL     1      18.004  34.092  14.052  1.00  0.00     0.036 C 
HETATM    6  C12 UNL     1      17.091  35.207  13.505  1.00  0.00     0.004 C 
HETATM    7  C13 UNL     1      15.864  35.295  14.439  1.00  0.00     0.043 C 
HETATM    8  C14 UNL     1      16.336  35.357  15.913  1.00  0.00     0.242 C 
ENDROOT
BRANCH   8   9
HETATM    9  C15 UNL     1      15.491  36.314  16.775  1.00  0.00     0.181 C 
BRANCH   9  10
HETATM   10  N4  UNL     1      14.168  35.791  17.043  1.00  0.00    -0.283 N 
HETATM   11  C16 UNL     1      12.976  36.443  16.946  1.00  0.00     0.134 A 
HETATM   12  C17 UNL     1      12.048  35.491  17.308  1.00  0.00     0.041 A 
HETATM   13  N5  UNL     1      12.699  34.319  17.592  1.00  0.00    -0.287 N 
HETATM   14  N6  UNL     1      13.999  34.515  17.422  1.00  0.00    -0.020 NA
ATOM     15  H5  UNL     1      12.258  33.447  17.884  1.00  0.00     0.184 HD
BRANCH  12  16
HETATM   16  C18 UNL     1      10.569  35.593  17.408  1.00  0.00     0.064 C 
BRANCH  16  17
HETATM   17  C19 UNL     1      10.085  36.125  18.773  1.00  0.00    -0.009 C 
HETATM   18  C20 UNL     1       8.785  36.942  18.616  1.00  0.00     0.005 C 
HETATM   19  C21 UNL     1       7.540  36.111  18.904  1.00  0.00     0.000 C 
HETATM   20  C22 UNL     1       7.536  35.574  20.336  1.00  0.00     0.000 C 
HETATM   21  C23 UNL     1       8.937  35.335  20.900  1.00  0.00     0.000 C 
HETATM   22  C24 UNL     1       9.930  34.981  19.800  1.00  0.00     0.005 C 
ENDBRANCH  16  17
ENDBRANCH  12  16
ENDBRANCH   9  10
ENDBRANCH   8   9
BRANCH   1  23
HETATM   23  C1  UNL     1      17.276  37.681  12.830  1.00  0.00     0.224 C 
HETATM   24  O1  UNL     1      17.266  37.743  11.607  1.00  0.00    -0.273 OA
HETATM   25  N1  UNL     1      16.755  38.672  13.637  1.00  0.00    -0.356 N 
HETATM   26  H1  UNL     1      16.995  38.678  14.619  1.00  0.00     0.162 HD
BRANCH  25  27
HETATM   27  C2  UNL     1      16.228  39.900  13.080  1.00  0.00     0.162 C 
BRANCH  27  28
HETATM   28  C3  UNL     1      16.562  41.075  13.950  1.00  0.00    -0.025 A 
HETATM   29  C4  UNL     1      16.270  41.075  15.317  1.00  0.00     0.011 A 
HETATM   30  C5  UNL     1      16.577  42.192  16.089  1.00  0.00     0.018 A 
HETATM   31  C6  UNL     1      17.165  43.279  15.466  1.00  0.00     0.087 A 
HETATM   32  N2  UNL     1      17.457  43.320  14.148  1.00  0.00    -0.375 N 
HETATM   33  C7  UNL     1      17.152  42.220  13.424  1.00  0.00     0.096 A 
ATOM     34  H2  UNL     1      17.886  44.140  13.720  1.00  0.00     0.164 HD
ENDBRANCH  27  28
ENDBRANCH  25  27
ENDBRANCH   1  23
TORSDOF 7
ENDMDL
