MODEL 1
REMARK minimizedAffinity -6.66152096
REMARK CNNscore 0.629523873
REMARK CNNaffinity 6.20461893
REMARK  6 active torsions:
REMARK  status: ('A' for Active; 'I' for Inactive)
REMARK    1  A    between atoms: C2_2  and  C30_31 
REMARK    2  A    between atoms: C3_3  and  C4_4 
REMARK    3  A    between atoms: C4_4  and  C5_5 
REMARK    4  A    between atoms: C5_5  and  C6_6 
REMARK    5  A    between atoms: C6_6  and  C8_8 
REMARK    6  A    between atoms: C30_31  and  O3_33 
ROOT
HETATM    1  C8  UNL     1      18.728  -3.804   9.195  1.00  0.00    -0.002 C 
HETATM    2  C9  UNL     1      18.792  -2.673   8.120  1.00  0.00     0.007 C 
HETATM    3  C10 UNL     1      17.913  -3.106   6.932  1.00  0.00     0.015 C 
HETATM    4  C11 UNL     1      17.665  -4.608   7.162  1.00  0.00    -0.013 C 
HETATM    5  C12 UNL     1      18.934  -5.345   6.619  1.00  0.00     0.021 C 
HETATM    6  C13 UNL     1      16.485  -5.279   6.461  1.00  0.00    -0.070 C 
HETATM    7  C14 UNL     1      15.997  -4.811   5.301  1.00  0.00    -0.022 C 
HETATM    8  C15 UNL     1      15.073  -5.617   4.460  1.00  0.00     0.034 C 
HETATM    9  C16 UNL     1      13.997  -6.339   5.286  1.00  0.00     0.013 C 
HETATM   10  C17 UNL     1      12.801  -5.417   5.759  1.00  0.00     0.018 C 
HETATM   11  C18 UNL     1      11.448  -6.111   5.455  1.00  0.00     0.023 C 
HETATM   12  C19 UNL     1      12.720  -4.044   5.051  1.00  0.00     0.023 C 
HETATM   13  C20 UNL     1      12.863  -5.183   7.265  1.00  0.00     0.135 C 
HETATM   14  O1  UNL     1      12.764  -4.059   7.764  1.00  0.00    -0.297 OA
HETATM   15  C21 UNL     1      12.922  -6.396   8.157  1.00  0.00     0.080 C 
HETATM   16  C22 UNL     1      13.614  -7.583   7.501  1.00  0.00     0.017 C 
HETATM   17  C23 UNL     1      14.672  -7.236   6.417  1.00  0.00    -0.031 C 
HETATM   18  C24 UNL     1      15.038  -8.606   5.757  1.00  0.00     0.016 C 
HETATM   19  C25 UNL     1      16.065  -6.655   6.985  1.00  0.00     0.024 C 
HETATM   20  C26 UNL     1      16.274  -6.860   8.514  1.00  0.00     0.010 C 
HETATM   21  C27 UNL     1      17.464  -6.123   9.150  1.00  0.00     0.011 C 
HETATM   22  C28 UNL     1      17.497  -4.643   8.722  1.00  0.00    -0.029 C 
HETATM   23  C29 UNL     1      16.186  -3.942   9.194  1.00  0.00     0.016 C 
ENDROOT
BRANCH   1  24
HETATM   24  C6  UNL     1      18.772  -3.225  10.646  1.00  0.00    -0.014 C 
HETATM   25  C7  UNL     1      19.633  -4.091  11.574  1.00  0.00     0.010 C 
BRANCH  24  26
HETATM   26  C5  UNL     1      19.316  -1.767  10.635  1.00  0.00     0.008 C 
BRANCH  26  27
HETATM   27  C4  UNL     1      18.284  -0.686  10.998  1.00  0.00     0.028 C 
BRANCH  27  28
HETATM   28  C3  UNL     1      18.790   0.729  10.944  1.00  0.00    -0.013 C 
HETATM   29  C2  UNL     1      18.608   1.720  11.842  1.00  0.00     0.008 C 
HETATM   30  C1  UNL     1      19.207   3.082  11.624  1.00  0.00     0.055 C 
BRANCH  29  31
HETATM   31  C30 UNL     1      17.775   1.537  13.059  1.00  0.00     0.171 C 
HETATM   32  O2  UNL     1      16.564   1.627  13.154  1.00  0.00    -0.646 OA
BRANCH  31  33
HETATM   33  O3  UNL     1      18.525   1.261  14.142  1.00  0.00    -0.773 OA
HETATM   34  H46 UNL     1      17.859   1.185  14.857  1.00  0.00     0.167 HD
ENDBRANCH  31  33
ENDBRANCH  29  31
ENDBRANCH  27  28
ENDBRANCH  26  27
ENDBRANCH  24  26
ENDBRANCH   1  24
TORSDOF 6
ENDMDL
