MODEL 1
REMARK minimizedAffinity -10.5703888
REMARK  4 active torsions:
REMARK  status: ('A' for Active; 'I' for Inactive)
REMARK    1  A    between atoms: C10_14  and  C11_15 
REMARK    2  A    between atoms: C11_15  and  C12_16 
REMARK    3  A    between atoms: C12_16  and  N3_17 
REMARK    4  A    between atoms: C15_20  and  C16_21 
ROOT
HETATM    1  N3  UNL     1      -2.711   8.180  13.961  1.00  0.00     0.088 N 
HETATM    2  C13 UNL     1      -2.854   6.932  14.709  1.00  0.00     0.273 C 
HETATM    3  C14 UNL     1      -4.191   6.883  15.439  1.00  0.00     0.041 C 
HETATM    4  C15 UNL     1      -5.401   7.196  14.552  1.00  0.00     0.042 C 
HETATM    5  C23 UNL     1      -5.144   8.361  13.589  1.00  0.00     0.041 C 
HETATM    6  C24 UNL     1      -3.756   8.358  12.953  1.00  0.00     0.273 C 
ENDROOT
BRANCH   1   7
HETATM    7  C12 UNL     1      -1.358   8.384  13.416  1.00  0.00     0.277 C 
BRANCH   7   8
HETATM    8  C11 UNL     1      -1.263   8.844  11.949  1.00  0.00     0.076 C 
BRANCH   8   9
HETATM    9  C10 UNL     1      -0.207   8.075  11.195  1.00  0.00     0.034 A 
HETATM   10  C2  UNL     1       0.605   7.129  11.699  1.00  0.00     0.018 A 
HETATM   11  C1  UNL     1       0.619   6.738  13.156  1.00  0.00     0.069 C 
HETATM   12  N1  UNL     1       1.521   6.438  10.951  1.00  0.00    -0.345 N 
HETATM   13  C3  UNL     1       1.626   6.700   9.685  1.00  0.00     0.120 A 
ATOM     14  H1  UNL     1       2.112   5.728  11.383  1.00  0.00     0.167 HD
HETATM   15  C4  UNL     1       2.631   5.948   8.855  1.00  0.00    -0.017 A 
HETATM   16  N2  UNL     1       0.854   7.652   9.033  1.00  0.00    -0.274 N 
HETATM   17  C5  UNL     1       3.469   4.919   9.546  1.00  0.00     0.052 C 
HETATM   18  C6  UNL     1       2.732   6.227   7.546  1.00  0.00     0.012 A 
HETATM   19  C7  UNL     1       1.902   7.226   6.935  1.00  0.00     0.018 A 
HETATM   20  C8  UNL     1       1.009   7.894   7.673  1.00  0.00     0.102 A 
HETATM   21  C9  UNL     1      -0.091   8.380   9.740  1.00  0.00     0.261 A 
HETATM   22  O1  UNL     1      -0.818   9.242   9.245  1.00  0.00    -0.267 OA
ENDBRANCH   8   9
ENDBRANCH   7   8
ENDBRANCH   1   7
BRANCH   4  23
HETATM   23  C16 UNL     1      -6.038   5.984  13.917  1.00  0.00     0.050 A 
HETATM   24  N4  UNL     1      -7.375   5.878  14.029  1.00  0.00    -0.264 N 
HETATM   25  O2  UNL     1      -7.734   4.715  13.388  1.00  0.00    -0.237 OA
ATOM     26  H4  UNL     1      -8.001   6.532  14.498  1.00  0.00     0.194 HD
HETATM   27  C17 UNL     1      -6.630   4.112  12.889  1.00  0.00     0.114 A 
HETATM   28  C18 UNL     1      -6.619   2.914  12.180  1.00  0.00     0.082 A 
HETATM   29  C22 UNL     1      -5.507   4.873  13.193  1.00  0.00     0.025 A 
HETATM   30  C19 UNL     1      -5.371   2.473  11.758  1.00  0.00     0.119 A 
HETATM   31  F1  UNL     1      -5.284   1.327  11.070  1.00  0.00    -0.206 F 
HETATM   32  C20 UNL     1      -4.208   3.186  12.031  1.00  0.00     0.043 A 
HETATM   33  C21 UNL     1      -4.259   4.392  12.749  1.00  0.00     0.019 A 
ENDBRANCH   4  23
TORSDOF 4
ENDMDL
