MODEL 1
REMARK minimizedAffinity -7.56721687
REMARK CNNscore 0.676362276
REMARK CNNaffinity 7.05638075
REMARK  4 active torsions:
REMARK  status: ('A' for Active; 'I' for Inactive)
REMARK    1  A    between atoms: C14_16  and  C15_17 
REMARK    2  A    between atoms: C15_17  and  C17_19 
REMARK    3  A    between atoms: C17_19  and  C18_20 
REMARK    4  A    between atoms: C18_20  and  C19_22 
ROOT
HETATM    1  C1  UNL     1       3.691  57.780  -8.186  1.00  0.00     0.017 C 
HETATM    2  C2  UNL     1       3.796  56.445  -8.028  1.00  0.00    -0.060 C 
HETATM    3  C3  UNL     1       5.023  55.858  -7.367  1.00  0.00     0.212 C 
HETATM    4  O1  UNL     1       5.541  54.647  -7.945  1.00  0.00    -0.317 OA
HETATM    5  C4  UNL     1       6.012  54.565  -9.212  1.00  0.00     0.259 C 
HETATM    6  O2  UNL     1       6.870  53.741  -9.517  1.00  0.00    -0.265 OA
HETATM    7  C5  UNL     1       5.375  55.449 -10.248  1.00  0.00     0.112 C 
HETATM    8  C6  UNL     1       3.983  54.961 -10.665  1.00  0.00     0.020 C 
HETATM    9  C7  UNL     1       3.076  54.456  -9.537  1.00  0.00    -0.024 A 
HETATM   10  C8  UNL     1       3.272  53.020  -9.099  1.00  0.00     0.022 A 
HETATM   11  C9  UNL     1       1.995  53.374  -9.833  1.00  0.00    -0.027 A 
HETATM   12  C10 UNL     1       1.907  52.618 -11.182  1.00  0.00     0.011 C 
HETATM   13  C11 UNL     1       0.578  52.708 -11.947  1.00  0.00     0.011 C 
HETATM   14  C12 UNL     1      -0.622  52.475 -11.021  1.00  0.00    -0.032 C 
HETATM   15  C13 UNL     1      -0.550  51.020 -10.482  1.00  0.00     0.016 C 
HETATM   16  C14 UNL     1      -2.035  52.738 -11.631  1.00  0.00    -0.002 C 
HETATM   17  C23 UNL     1      -2.896  53.129 -10.394  1.00  0.00     0.006 C 
HETATM   18  C24 UNL     1      -1.925  53.416  -9.234  1.00  0.00     0.011 C 
HETATM   19  C25 UNL     1      -0.549  53.585  -9.899  1.00  0.00    -0.032 C 
HETATM   20  C26 UNL     1      -0.485  55.050 -10.462  1.00  0.00     0.016 C 
HETATM   21  C27 UNL     1       0.691  53.348  -8.978  1.00  0.00     0.004 C 
HETATM   22  C28 UNL     1       0.655  54.255  -7.720  1.00  0.00     0.007 C 
HETATM   23  C29 UNL     1       1.951  54.931  -7.302  1.00  0.00     0.010 C 
HETATM   24  C30 UNL     1       2.681  55.529  -8.510  1.00  0.00     0.025 C 
ENDROOT
BRANCH  16  25
HETATM   25  C15 UNL     1      -2.753  51.746 -12.595  1.00  0.00    -0.007 C 
HETATM   26  C16 UNL     1      -3.529  50.580 -11.966  1.00  0.00     0.011 C 
BRANCH  25  27
HETATM   27  C17 UNL     1      -1.798  51.217 -13.684  1.00  0.00     0.087 C 
BRANCH  27  28
HETATM   28  C18 UNL     1      -2.519  50.931 -14.992  1.00  0.00     0.149 C 
HETATM   29  O3  UNL     1      -3.540  51.527 -15.324  1.00  0.00    -0.293 OA
BRANCH  28  30
HETATM   30  C19 UNL     1      -1.893  49.908 -15.882  1.00  0.00     0.052 C 
HETATM   31  C20 UNL     1      -1.646  50.078 -17.194  1.00  0.00    -0.084 C 
HETATM   32  C21 UNL     1      -1.992  51.309 -17.994  1.00  0.00     0.043 C 
HETATM   33  C22 UNL     1      -0.988  48.984 -17.995  1.00  0.00     0.043 C 
ENDBRANCH  28  30
ENDBRANCH  27  28
ENDBRANCH  25  27
ENDBRANCH  16  25
TORSDOF 4
ENDMDL
