MODEL 1
REMARK minimizedAffinity -8.26207829
REMARK CNNscore 0.447981983
REMARK CNNaffinity 6.42179298
REMARK  19 active torsions:
REMARK  status: ('A' for Active; 'I' for Inactive)
REMARK    1  A    between atoms: O1_2  and  C2_3 
REMARK    2  A    between atoms: C2_3  and  C3_4 
REMARK    3  A    between atoms: C2_3  and  C28_36 
REMARK    4  A    between atoms: C3_4  and  C4_5 
REMARK    5  A    between atoms: C4_5  and  C6_7 
REMARK    6  A    between atoms: C6_7  and  O2_8 
REMARK    7  A    between atoms: C6_7  and  C7_9 
REMARK    8  A    between atoms: C8_10  and  C9_11 
REMARK    9  A    between atoms: C10_12  and  C11_13 
REMARK   10  A    between atoms: C11_13  and  N1_14 
REMARK       I    between atoms: N1_14  and  C12_15 
REMARK   11  A    between atoms: C12_15  and  C13_17 
REMARK   12  A    between atoms: C13_17  and  C16_20 
REMARK   13  A    between atoms: C16_20  and  O4_21 
REMARK   14  A    between atoms: C16_20  and  C17_22 
REMARK   15  A    between atoms: C19_24  and  C20_25 
REMARK   16  A    between atoms: C21_26  and  C22_27 
REMARK   17  A    between atoms: C23_28  and  C24_29 
REMARK   18  A    between atoms: C26_31  and  N2_33 
REMARK   19  A    between atoms: C28_36  and  O7_37 
ROOT
HETATM    1  C9  UNL     1      -5.201  47.762 -27.761  1.00  0.00    -0.003 C 
HETATM    2  C10 UNL     1      -6.384  47.467 -28.313  1.00  0.00    -0.007 C 
ENDROOT
BRANCH   1   3
HETATM    3  C8  UNL     1      -5.079  48.471 -26.507  1.00  0.00    -0.002 C 
HETATM    4  C7  UNL     1      -3.950  48.453 -25.782  1.00  0.00     0.005 C 
BRANCH   4   5
HETATM    5  C6  UNL     1      -3.653  49.251 -24.536  1.00  0.00     0.144 C 
BRANCH   5   6
HETATM    6  C4  UNL     1      -4.377  50.611 -24.607  1.00  0.00     0.016 C 
HETATM    7  C5  UNL     1      -4.796  51.122 -23.215  1.00  0.00     0.013 C 
BRANCH   6   8
HETATM    8  C3  UNL     1      -3.526  51.700 -25.311  1.00  0.00     0.042 C 
BRANCH   8   9
HETATM    9  C2  UNL     1      -2.034  51.554 -24.915  1.00  0.00     0.159 C 
BRANCH   9  10
HETATM   10  O1  UNL     1      -1.895  50.577 -23.890  1.00  0.00    -0.388 OA
HETATM   11  C1  UNL     1      -1.411  51.091 -22.657  1.00  0.00     0.202 C 
ENDBRANCH   9  10
BRANCH   9  12
HETATM   12  C28 UNL     1      -1.096  51.190 -26.126  1.00  0.00     0.133 C 
HETATM   13  C29 UNL     1      -1.716  51.559 -27.511  1.00  0.00     0.114 C 
HETATM   14  C30 UNL     1      -3.166  51.169 -27.753  1.00  0.00     0.023 C 
HETATM   15  C31 UNL     1      -1.439  53.039 -27.633  1.00  0.00     0.227 C 
HETATM   16  O8  UNL     1      -2.133  53.853 -28.223  1.00  0.00    -0.273 OA
HETATM   17  N3  UNL     1      -0.234  53.261 -26.967  1.00  0.00    -0.332 N 
HETATM   18  C32 UNL     1       0.138  54.606 -26.607  1.00  0.00     0.154 C 
HETATM   19  C33 UNL     1       0.189  52.051 -26.176  1.00  0.00     0.183 A 
HETATM   20  C34 UNL     1       1.037  52.203 -24.874  1.00  0.00     0.294 A 
HETATM   21  C35 UNL     1       1.499  51.376 -26.699  1.00  0.00     0.169 A 
HETATM   22  O9  UNL     1       0.948  52.680 -23.763  1.00  0.00    -0.262 OA
HETATM   23  O10 UNL     1       2.101  51.526 -25.380  1.00  0.00    -0.311 OA
HETATM   24  C36 UNL     1       2.364  52.042 -27.757  1.00  0.00     0.043 C 
BRANCH  12  25
HETATM   25  O7  UNL     1      -0.815  49.783 -26.166  1.00  0.00    -0.383 OA
HETATM   26  H42 UNL     1      -0.179  49.555 -25.460  1.00  0.00     0.210 HD
ENDBRANCH  12  25
ENDBRANCH   9  12
ENDBRANCH   8   9
ENDBRANCH   6   8
ENDBRANCH   5   6
BRANCH   5  27
HETATM   27  O2  UNL     1      -4.038  48.524 -23.378  1.00  0.00    -0.391 OA
HETATM   28  H12 UNL     1      -3.820  49.072 -22.604  1.00  0.00     0.210 HD
ENDBRANCH   5  27
ENDBRANCH   4   5
ENDBRANCH   1   3
BRANCH   2  29
HETATM   29  C11 UNL     1      -6.523  46.869 -29.680  1.00  0.00     0.149 C 
BRANCH  29  30
HETATM   30  N1  UNL     1      -7.871  47.088 -30.149  1.00  0.00    -0.357 N 
HETATM   31  C12 UNL     1      -8.823  46.093 -30.084  1.00  0.00     0.228 C 
HETATM   32  O3  UNL     1      -8.580  45.006 -29.564  1.00  0.00    -0.273 OA
HETATM   33  H19 UNL     1      -8.026  47.881 -30.760  1.00  0.00     0.162 HD
BRANCH  31  34
HETATM   34  C13 UNL     1     -10.216  46.444 -30.641  1.00  0.00     0.063 C 
HETATM   35  C14 UNL     1     -10.955  45.134 -30.987  1.00  0.00     0.028 C 
HETATM   36  C15 UNL     1     -10.049  47.214 -31.974  1.00  0.00     0.028 C 
BRANCH  34  37
HETATM   37  C16 UNL     1     -10.983  47.309 -29.596  1.00  0.00     0.164 C 
BRANCH  37  38
HETATM   38  O4  UNL     1     -12.314  47.592 -30.047  1.00  0.00    -0.390 OA
HETATM   39  H27 UNL     1     -12.770  48.011 -29.299  1.00  0.00     0.210 HD
ENDBRANCH  37  38
BRANCH  37  40
HETATM   40  C17 UNL     1     -11.029  46.786 -28.158  1.00  0.00    -0.054 C 
HETATM   41  C18 UNL     1     -10.086  47.510 -27.218  1.00  0.00     0.046 C 
HETATM   42  C19 UNL     1     -11.815  45.813 -27.644  1.00  0.00     0.005 C 
BRANCH  42  43
HETATM   43  C20 UNL     1     -12.793  44.992 -28.334  1.00  0.00     0.000 C 
HETATM   44  C21 UNL     1     -14.131  45.014 -28.197  1.00  0.00     0.000 C 
BRANCH  44  45
HETATM   45  C22 UNL     1     -14.919  45.843 -27.308  1.00  0.00     0.001 C 
HETATM   46  C23 UNL     1     -15.676  45.326 -26.323  1.00  0.00     0.009 C 
BRANCH  46  47
HETATM   47  C24 UNL     1     -16.495  46.082 -25.359  1.00  0.00    -0.034 C 
HETATM   48  C25 UNL     1     -15.737  47.035 -24.449  1.00  0.00     0.050 C 
HETATM   49  C26 UNL     1     -17.839  45.919 -25.325  1.00  0.00     0.082 C 
HETATM   50  C27 UNL     1     -18.751  45.041 -26.113  1.00  0.00     0.075 C 
BRANCH  49  51
HETATM   51  N2  UNL     1     -18.595  46.723 -24.386  1.00  0.00    -0.120 N 
HETATM   52  O5  UNL     1     -19.102  47.763 -24.826  1.00  0.00    -0.532 OA
HETATM   53  O6  UNL     1     -18.693  46.290 -23.231  1.00  0.00    -0.532 OA
ENDBRANCH  49  51
ENDBRANCH  46  47
ENDBRANCH  44  45
ENDBRANCH  42  43
ENDBRANCH  37  40
ENDBRANCH  34  37
ENDBRANCH  31  34
ENDBRANCH  29  30
ENDBRANCH   2  29
TORSDOF 19
ENDMDL
