MODEL 1
REMARK minimizedAffinity -9.74010372
REMARK  11 active torsions:
REMARK  status: ('A' for Active; 'I' for Inactive)
REMARK    1  A    between atoms: C6_6  and  C8_8 
REMARK    2  A    between atoms: C8_8  and  O1_9 
REMARK    3  A    between atoms: O1_9  and  C9_10 
REMARK    4  A    between atoms: C10_12  and  C11_13 
REMARK    5  A    between atoms: C11_13  and  O3_14 
REMARK    6  A    between atoms: C12_15  and  O4_16 
REMARK    7  A    between atoms: C13_17  and  O5_18 
REMARK    8  A    between atoms: C14_19  and  O6_20 
REMARK    9  A    between atoms: C20_26  and  C21_27 
REMARK   10  A    between atoms: C21_27  and  C22_28 
REMARK   11  A    between atoms: C26_34  and  O9_35 
ROOT
HETATM    1  C1  UNL     1       0.027  52.136 -20.920  1.00  0.00     0.015 C 
HETATM    2  C2  UNL     1      -0.401  51.264 -21.850  1.00  0.00    -0.084 C 
HETATM    3  C3  UNL     1      -0.978  49.945 -21.402  1.00  0.00     0.034 C 
HETATM    4  C4  UNL     1      -1.831  49.283 -22.482  1.00  0.00     0.010 C 
HETATM    5  C5  UNL     1      -2.752  50.295 -23.201  1.00  0.00     0.005 C 
HETATM    6  C6  UNL     1      -3.807  49.563 -24.129  1.00  0.00    -0.018 C 
HETATM    7  C7  UNL     1      -3.206  48.367 -24.911  1.00  0.00     0.018 C 
HETATM    8  C15 UNL     1      -4.397  50.574 -25.127  1.00  0.00     0.012 C 
HETATM    9  C16 UNL     1      -3.363  51.222 -26.033  1.00  0.00     0.002 C 
HETATM   10  C17 UNL     1      -1.973  51.374 -25.418  1.00  0.00     0.010 C 
HETATM   11  C18 UNL     1      -1.924  51.491 -23.877  1.00  0.00    -0.032 C 
HETATM   12  C19 UNL     1      -2.593  52.835 -23.477  1.00  0.00     0.016 C 
HETATM   13  C20 UNL     1      -0.408  51.491 -23.368  1.00  0.00     0.025 C 
ENDROOT
BRANCH   6  14
HETATM   14  C8  UNL     1      -4.977  48.970 -23.276  1.00  0.00     0.180 C 
BRANCH  14  15
HETATM   15  O1  UNL     1      -6.230  49.559 -23.616  1.00  0.00    -0.358 OA
BRANCH  15  16
HETATM   16  C9  UNL     1      -7.255  48.610 -23.910  1.00  0.00     0.291 C 
HETATM   17  O2  UNL     1      -8.442  49.262 -24.370  1.00  0.00    -0.348 OA
HETATM   18  C10 UNL     1      -9.474  48.403 -24.878  1.00  0.00     0.179 C 
HETATM   19  C12 UNL     1      -9.174  46.893 -24.772  1.00  0.00     0.180 C 
HETATM   20  C13 UNL     1      -7.743  46.497 -25.181  1.00  0.00     0.183 C 
HETATM   21  C14 UNL     1      -6.727  47.624 -24.970  1.00  0.00     0.204 C 
BRANCH  18  22
HETATM   22  C11 UNL     1      -9.894  48.897 -26.274  1.00  0.00     0.198 C 
BRANCH  22  23
HETATM   23  O3  UNL     1     -11.291  48.809 -26.498  1.00  0.00    -0.398 OA
HETATM   24  H17 UNL     1     -11.565  47.896 -26.251  1.00  0.00     0.209 HD
ENDBRANCH  22  23
ENDBRANCH  18  22
BRANCH  19  25
HETATM   25  O4  UNL     1     -10.108  46.064 -25.466  1.00  0.00    -0.390 OA
HETATM   26  H19 UNL     1     -10.996  46.199 -25.081  1.00  0.00     0.210 HD
ENDBRANCH  19  25
BRANCH  20  27
HETATM   27  O5  UNL     1      -7.676  46.036 -26.539  1.00  0.00    -0.390 OA
HETATM   28  H21 UNL     1      -8.594  45.772 -26.766  1.00  0.00     0.210 HD
ENDBRANCH  20  27
BRANCH  21  29
HETATM   29  O6  UNL     1      -6.495  48.288 -26.231  1.00  0.00    -0.388 OA
HETATM   30  H23 UNL     1      -6.580  47.568 -26.899  1.00  0.00     0.210 HD
ENDBRANCH  21  29
ENDBRANCH  15  16
ENDBRANCH  14  15
ENDBRANCH   6  14
BRANCH  13  31
HETATM   31  C21 UNL     1       0.497  52.688 -23.792  1.00  0.00     0.037 C 
BRANCH  31  32
HETATM   32  C22 UNL     1       0.131  53.386 -25.074  1.00  0.00    -0.010 C 
HETATM   33  C23 UNL     1       0.552  53.031 -26.301  1.00  0.00     0.044 C 
HETATM   34  C24 UNL     1       0.154  53.779 -27.513  1.00  0.00     0.291 C 
HETATM   35  C26 UNL     1       1.371  51.879 -26.729  1.00  0.00     0.181 C 
HETATM   36  O7  UNL     1      -0.434  54.846 -27.543  1.00  0.00    -0.260 OA
HETATM   37  O8  UNL     1       0.515  53.048 -28.603  1.00  0.00    -0.315 OA
HETATM   38  C25 UNL     1       0.971  51.755 -28.186  1.00  0.00     0.215 C 
BRANCH  35  39
HETATM   39  O9  UNL     1       2.745  52.221 -26.594  1.00  0.00    -0.389 OA
HETATM   40  H40 UNL     1       3.270  51.435 -26.819  1.00  0.00     0.210 HD
ENDBRANCH  35  39
ENDBRANCH  31  32
ENDBRANCH  13  31
TORSDOF 11
ENDMDL
