MODEL 1
REMARK minimizedAffinity -9.81414509
REMARK CNNscore 0.872061849
REMARK CNNaffinity 7.42778254
REMARK  10 active torsions:
REMARK  status: ('A' for Active; 'I' for Inactive)
REMARK    1  A    between atoms: N1_6  and  O1_8 
REMARK    2  A    between atoms: O1_8  and  C6_9 
REMARK    3  A    between atoms: C6_9  and  C7_10 
REMARK       I    between atoms: C7_10  and  N2_12 
REMARK    4  A    between atoms: N2_12  and  C8_13 
REMARK    5  A    between atoms: C8_13  and  C9_14 
REMARK    6  A    between atoms: C20_27  and  O3_28 
REMARK    7  A    between atoms: C27_35  and  O4_36 
REMARK    8  A    between atoms: C27_35  and  C28_37 
REMARK    9  A    between atoms: C28_37  and  C29_39 
REMARK   10  A    between atoms: C29_39  and  O6_40 
ROOT
HETATM    1  C1  UNL     1      -3.937   3.898   9.882  1.00  0.00     0.020 C 
HETATM    2  C2  UNL     1      -3.610   3.844  11.395  1.00  0.00    -0.014 C 
HETATM    3  C3  UNL     1      -3.539   2.367  11.851  1.00  0.00     0.020 C 
HETATM    4  C4  UNL     1      -4.861   1.607  11.699  1.00  0.00     0.060 C 
HETATM    5  C5  UNL     1      -6.075   2.371  12.189  1.00  0.00     0.032 C 
HETATM    6  N1  UNL     1      -7.180   1.701  12.320  1.00  0.00    -0.271 N 
ATOM      7  H1  UNL     1      -7.270   0.701  12.139  1.00  0.00     0.194 HD
HETATM    8  C14 UNL     1      -5.903   3.815  12.495  1.00  0.00     0.030 C 
HETATM    9  C15 UNL     1      -4.777   4.476  12.165  1.00  0.00    -0.069 C 
HETATM   10  C16 UNL     1      -4.542   5.844  12.745  1.00  0.00     0.035 C 
HETATM   11  C17 UNL     1      -3.396   5.694  13.738  1.00  0.00     0.010 C 
HETATM   12  C18 UNL     1      -2.086   5.215  13.067  1.00  0.00    -0.002 C 
HETATM   13  C19 UNL     1      -2.290   4.695  11.622  1.00  0.00     0.031 C 
HETATM   14  C20 UNL     1      -0.950   4.136  11.065  1.00  0.00     0.124 C 
HETATM   15  C21 UNL     1       0.303   4.803  11.667  1.00  0.00     0.045 C 
HETATM   16  C22 UNL     1       0.128   6.281  12.083  1.00  0.00     0.001 C 
HETATM   17  C23 UNL     1      -0.099   7.119  10.806  1.00  0.00     0.019 C 
HETATM   18  C24 UNL     1      -1.051   6.382  13.096  1.00  0.00     0.002 C 
HETATM   19  C25 UNL     1      -0.417   6.494  14.501  1.00  0.00     0.009 C 
HETATM   20  C26 UNL     1       1.086   6.362  14.320  1.00  0.00     0.047 C 
HETATM   21  C27 UNL     1       1.360   6.808  12.890  1.00  0.00     0.128 C 
ENDROOT
BRANCH   6  22
HETATM   22  O1  UNL     1      -8.235   2.526  12.740  1.00  0.00    -0.271 OA
BRANCH  22  23
HETATM   23  C6  UNL     1      -7.710   3.764  13.186  1.00  0.00     0.303 C 
BRANCH  23  24
HETATM   24  C7  UNL     1      -8.579   4.923  12.698  1.00  0.00     0.244 C 
HETATM   25  O2  UNL     1      -8.627   5.304  11.531  1.00  0.00    -0.271 OA
HETATM   26  N2  UNL     1      -9.313   5.519  13.709  1.00  0.00    -0.355 N 
HETATM   27  H10 UNL     1      -9.139   5.248  14.670  1.00  0.00     0.162 HD
BRANCH  26  28
HETATM   28  C8  UNL     1     -10.091   6.712  13.479  1.00  0.00     0.161 C 
BRANCH  28  29
HETATM   29  C9  UNL     1     -10.267   7.479  14.762  1.00  0.00    -0.038 A 
HETATM   30  C10 UNL     1     -11.371   8.320  14.941  1.00  0.00     0.025 A 
HETATM   31  C11 UNL     1     -11.474   9.040  16.117  1.00  0.00     0.088 A 
HETATM   32  N3  UNL     1     -10.565   8.982  17.114  1.00  0.00    -0.375 N 
HETATM   33  C12 UNL     1      -9.507   8.167  16.923  1.00  0.00     0.088 A 
ATOM     34  H3  UNL     1     -10.673   9.527  17.969  1.00  0.00     0.164 HD
HETATM   35  C13 UNL     1      -9.314   7.406  15.781  1.00  0.00     0.025 A 
ENDBRANCH  28  29
ENDBRANCH  26  28
ENDBRANCH  23  24
ENDBRANCH  22  23
ENDBRANCH   6  22
BRANCH  14  36
HETATM   36  O3  UNL     1      -0.804   2.743  11.300  1.00  0.00    -0.395 OA
HETATM   37  H25 UNL     1       0.070   2.471  10.971  1.00  0.00     0.210 HD
ENDBRANCH  14  36
BRANCH  21  38
HETATM   38  O4  UNL     1       2.559   6.142  12.450  1.00  0.00    -0.381 OA
HETATM   39  H36 UNL     1       2.908   6.672  11.704  1.00  0.00     0.211 HD
ENDBRANCH  21  38
BRANCH  21  40
HETATM   40  C28 UNL     1       1.688   8.318  12.745  1.00  0.00     0.184 C 
HETATM   41  O5  UNL     1       2.319   8.707  11.750  1.00  0.00    -0.292 OA
BRANCH  40  42
HETATM   42  C29 UNL     1       1.210   9.324  13.783  1.00  0.00     0.245 C 
BRANCH  42  43
HETATM   43  O6  UNL     1       0.075  10.054  13.378  1.00  0.00    -0.393 OA
HETATM   44  H39 UNL     1       0.385  10.740  12.757  1.00  0.00     0.209 HD
ENDBRANCH  42  43
ENDBRANCH  40  42
ENDBRANCH  21  40
TORSDOF 10
ENDMDL
