MODEL 1
REMARK minimizedAffinity -8.18400192
REMARK CNNscore 0.705827177
REMARK CNNaffinity 7.3466506
REMARK  10 active torsions:
REMARK  status: ('A' for Active; 'I' for Inactive)
REMARK    1  A    between atoms: C3_3  and  O1_4 
REMARK    2  A    between atoms: N1_14  and  O2_16 
REMARK    3  A    between atoms: O2_16  and  C13_17 
REMARK    4  A    between atoms: C13_17  and  C14_18 
REMARK       I    between atoms: C14_18  and  N2_20 
REMARK    5  A    between atoms: N2_20  and  C15_21 
REMARK    6  A    between atoms: C15_21  and  C16_22 
REMARK       I    between atoms: C16_22  and  N3_24 
REMARK    7  A    between atoms: N3_24  and  C17_25 
REMARK    8  A    between atoms: C17_25  and  C18_26 
REMARK    9  A    between atoms: C17_25  and  C19_29 
REMARK   10  A    between atoms: C18_26  and  O6_28 
ROOT
HETATM    1  C1  UNL     1      -3.578   6.540  15.659  1.00  0.00     0.015 C 
HETATM    2  C2  UNL     1      -4.684   6.247  15.293  1.00  0.00    -0.078 C 
HETATM    3  C3  UNL     1      -6.041   5.857  14.842  1.00  0.00     0.128 C 
HETATM    4  C4  UNL     1      -6.899   5.515  16.061  1.00  0.00     0.052 C 
HETATM    5  C5  UNL     1      -7.428   6.858  16.544  1.00  0.00     0.010 C 
HETATM    6  C6  UNL     1      -7.523   7.772  15.303  1.00  0.00     0.002 C 
HETATM    7  C7  UNL     1      -8.954   8.227  14.942  1.00  0.00    -0.004 C 
HETATM    8  C8  UNL     1      -9.576   9.105  16.036  1.00  0.00     0.010 C 
HETATM    9  C9  UNL     1     -10.938   9.631  15.598  1.00  0.00     0.035 C 
HETATM   10  C10 UNL     1     -11.875   8.521  15.181  1.00  0.00    -0.069 C 
HETATM   11  C11 UNL     1     -13.129   8.497  15.668  1.00  0.00     0.030 C 
HETATM   12  C12 UNL     1     -14.145   7.526  15.189  1.00  0.00     0.032 C 
HETATM   13  N1  UNL     1     -15.343   7.604  15.696  1.00  0.00    -0.271 N 
ATOM     14  H1  UNL     1     -15.607   8.251  16.440  1.00  0.00     0.194 HD
HETATM   15  C22 UNL     1     -13.743   6.568  14.089  1.00  0.00     0.060 C 
HETATM   16  C23 UNL     1     -12.258   6.240  14.169  1.00  0.00     0.020 C 
HETATM   17  C24 UNL     1     -11.333   7.492  14.179  1.00  0.00    -0.016 C 
HETATM   18  C25 UNL     1     -11.332   8.141  12.776  1.00  0.00     0.020 C 
HETATM   19  C26 UNL     1      -9.888   7.032  14.619  1.00  0.00     0.002 C 
HETATM   20  C27 UNL     1      -9.217   6.019  13.663  1.00  0.00     0.007 C 
HETATM   21  C28 UNL     1      -7.885   6.495  13.090  1.00  0.00     0.014 C 
HETATM   22  C29 UNL     1      -6.836   7.004  14.129  1.00  0.00     0.003 C 
HETATM   23  C30 UNL     1      -5.905   7.956  13.336  1.00  0.00     0.020 C 
ENDROOT
BRANCH   3  24
HETATM   24  O1  UNL     1      -5.912   4.710  14.014  1.00  0.00    -0.377 OA
HETATM   25  H2  UNL     1      -5.363   4.070  14.498  1.00  0.00     0.211 HD
ENDBRANCH   3  24
BRANCH  13  26
HETATM   26  O2  UNL     1     -16.224   6.693  15.098  1.00  0.00    -0.271 OA
BRANCH  26  27
HETATM   27  C13 UNL     1     -16.437   5.608  15.995  1.00  0.00     0.303 C 
BRANCH  27  28
HETATM   28  C14 UNL     1     -16.566   4.276  15.259  1.00  0.00     0.244 C 
HETATM   29  O3  UNL     1     -16.493   4.194  14.034  1.00  0.00    -0.271 OA
HETATM   30  N2  UNL     1     -16.737   3.174  16.070  1.00  0.00    -0.350 N 
HETATM   31  H16 UNL     1     -17.104   3.367  16.997  1.00  0.00     0.163 HD
BRANCH  30  32
HETATM   32  C15 UNL     1     -17.018   1.873  15.500  1.00  0.00     0.225 C 
BRANCH  32  33
HETATM   33  C16 UNL     1     -16.096   0.806  16.097  1.00  0.00     0.236 C 
HETATM   34  O4  UNL     1     -14.916   1.023  16.370  1.00  0.00    -0.272 OA
HETATM   35  N3  UNL     1     -16.689  -0.431  16.228  1.00  0.00    -0.345 N 
HETATM   36  H19 UNL     1     -17.705  -0.465  16.263  1.00  0.00     0.163 HD
BRANCH  35  37
HETATM   37  C17 UNL     1     -16.016  -1.557  16.883  1.00  0.00     0.185 C 
BRANCH  37  38
HETATM   38  C18 UNL     1     -16.833  -2.016  18.101  1.00  0.00     0.163 C 
HETATM   39  O5  UNL     1     -18.050  -2.031  18.200  1.00  0.00    -0.648 OA
BRANCH  38  40
HETATM   40  O6  UNL     1     -16.065  -2.398  19.150  1.00  0.00    -0.775 OA
HETATM   41  H21 UNL     1     -16.719  -2.674  19.829  1.00  0.00     0.167 HD
ENDBRANCH  38  40
ENDBRANCH  37  38
BRANCH  37  42
HETATM   42  C19 UNL     1     -15.778  -2.743  15.923  1.00  0.00     0.010 C 
HETATM   43  C20 UNL     1     -16.827  -2.829  14.806  1.00  0.00     0.012 C 
HETATM   44  C21 UNL     1     -14.373  -2.708  15.314  1.00  0.00     0.012 C 
ENDBRANCH  37  42
ENDBRANCH  35  37
ENDBRANCH  32  33
ENDBRANCH  30  32
ENDBRANCH  27  28
ENDBRANCH  26  27
ENDBRANCH  13  26
TORSDOF 10
ENDMDL
