MODEL 1
REMARK minimizedAffinity -8.78093433
REMARK CNNscore 0.198199436
REMARK CNNaffinity 6.59026718
REMARK  13 active torsions:
REMARK  status: ('A' for Active; 'I' for Inactive)
REMARK    1  A    between atoms: C2_2  and  O1_3 
REMARK    2  A    between atoms: O1_3  and  C3_4 
REMARK       I    between atoms: C3_4  and  N1_6 
REMARK       I    between atoms: N2_9  and  C6_10 
REMARK    3  A    between atoms: C6_10  and  C7_12 
REMARK    4  A    between atoms: C7_12  and  C8_13 
REMARK    5  A    between atoms: C7_12  and  N5_24 
REMARK    6  A    between atoms: C8_13  and  C9_14 
REMARK    7  A    between atoms: C13_18  and  C14_19 
REMARK    8  A    between atoms: C14_19  and  N4_22 
REMARK    9  A    between atoms: N5_24  and  S1_25 
REMARK   10  A    between atoms: S1_25  and  C16_28 
REMARK   11  A    between atoms: C17_29  and  C18_30 
REMARK   12  A    between atoms: C22_34  and  C23_35 
REMARK   13  A    between atoms: C27_39  and  C28_40 
ROOT
HETATM    1  C7  UNL     1      -1.910  51.213 -21.600  1.00  0.00     0.189 C 
ENDROOT
BRANCH   1   2
HETATM    2  C6  UNL     1      -3.435  51.006 -21.515  1.00  0.00     0.243 C 
HETATM    3  N2  UNL     1      -4.088  50.247 -22.483  1.00  0.00    -0.347 N 
HETATM    4  C5  UNL     1      -3.418  49.436 -23.508  1.00  0.00     0.146 C 
HETATM    5  C31 UNL     1      -5.459  49.824 -22.173  1.00  0.00     0.146 C 
HETATM    6  C4  UNL     1      -4.283  49.202 -24.755  1.00  0.00     0.148 C 
HETATM    7  N1  UNL     1      -5.644  48.794 -24.428  1.00  0.00    -0.325 N 
HETATM    8  C3  UNL     1      -6.347  48.060 -25.368  1.00  0.00     0.362 C 
HETATM    9  C32 UNL     1      -6.321  49.607 -23.419  1.00  0.00     0.148 C 
HETATM   10  O2  UNL     1      -5.847  47.607 -26.392  1.00  0.00    -0.238 OA
HETATM   11  O3  UNL     1      -4.060  51.524 -20.580  1.00  0.00    -0.271 OA
BRANCH   8  12
HETATM   12  O1  UNL     1      -7.655  47.901 -25.029  1.00  0.00    -0.304 OA
BRANCH  12  13
HETATM   13  C2  UNL     1      -8.029  46.607 -24.537  1.00  0.00     0.176 C 
HETATM   14  C1  UNL     1      -8.724  45.823 -25.634  1.00  0.00     0.034 C 
ENDBRANCH  12  13
ENDBRANCH   8  12
ENDBRANCH   1   2
BRANCH   1  15
HETATM   15  C8  UNL     1      -1.265  50.427 -22.759  1.00  0.00     0.074 C 
BRANCH  15  16
HETATM   16  C9  UNL     1      -0.800  51.265 -23.931  1.00  0.00    -0.055 A 
HETATM   17  C10 UNL     1      -0.909  50.784 -25.242  1.00  0.00     0.007 A 
HETATM   18  C11 UNL     1      -0.489  51.566 -26.320  1.00  0.00     0.002 A 
HETATM   19  C12 UNL     1       0.038  52.841 -26.102  1.00  0.00     0.014 A 
HETATM   20  C13 UNL     1       0.139  53.341 -24.800  1.00  0.00     0.002 A 
HETATM   21  C15 UNL     1      -0.269  52.546 -23.721  1.00  0.00     0.022 A 
BRANCH  20  22
HETATM   22  C14 UNL     1       0.685  54.709 -24.536  1.00  0.00     0.081 C 
HETATM   23  N3  UNL     1       0.380  55.681 -25.336  1.00  0.00    -0.389 N 
HETATM   24  H16 UNL     1       0.796  56.549 -24.996  1.00  0.00     0.157 HD
ATOM     25  H3  UNL     1      -0.190  55.593 -26.177  1.00  0.00     0.157 HD
BRANCH  22  26
HETATM   26  N4  UNL     1       1.513  54.943 -23.474  1.00  0.00    -0.288 NA
HETATM   27  H17 UNL     1       2.066  54.149 -23.166  1.00  0.00     0.125 HD
HETATM   28  H18 UNL     1       2.080  55.779 -23.539  1.00  0.00     0.125 HD
ENDBRANCH  22  26
ENDBRANCH  20  22
ENDBRANCH  15  16
ENDBRANCH   1  15
BRANCH   1  29
HETATM   29  N5  UNL     1      -1.299  50.753 -20.325  1.00  0.00    -0.301 N 
HETATM   30  H20 UNL     1      -1.142  49.741 -20.322  1.00  0.00     0.173 HD
BRANCH  29  31
HETATM   31  S1  UNL     1      -1.837  51.345 -18.853  1.00  0.00     0.260 S 
HETATM   32  O4  UNL     1      -2.369  52.663 -19.103  1.00  0.00    -0.200 OA
HETATM   33  O5  UNL     1      -2.730  50.347 -18.308  1.00  0.00    -0.200 OA
BRANCH  31  34
HETATM   34  C16 UNL     1      -0.333  51.495 -17.844  1.00  0.00     0.092 A 
HETATM   35  C17 UNL     1       0.776  52.278 -18.302  1.00  0.00    -0.030 A 
HETATM   36  C21 UNL     1       1.901  52.404 -17.439  1.00  0.00     0.016 A 
HETATM   37  C22 UNL     1       1.970  51.824 -16.176  1.00  0.00    -0.054 A 
HETATM   38  C26 UNL     1       0.873  51.090 -15.742  1.00  0.00     0.016 A 
HETATM   39  C27 UNL     1      -0.279  50.890 -16.538  1.00  0.00    -0.030 A 
BRANCH  35  40
HETATM   40  C18 UNL     1       0.953  53.094 -19.595  1.00  0.00     0.012 C 
HETATM   41  C19 UNL     1       1.271  52.368 -20.901  1.00  0.00     0.015 C 
HETATM   42  C20 UNL     1      -0.108  54.191 -19.749  1.00  0.00     0.015 C 
ENDBRANCH  35  40
BRANCH  37  43
HETATM   43  C23 UNL     1       3.179  51.993 -15.275  1.00  0.00     0.010 C 
HETATM   44  C24 UNL     1       4.450  52.263 -16.084  1.00  0.00     0.015 C 
HETATM   45  C25 UNL     1       3.367  50.788 -14.350  1.00  0.00     0.015 C 
ENDBRANCH  37  43
BRANCH  39  46
HETATM   46  C28 UNL     1      -1.403  50.083 -15.877  1.00  0.00     0.012 C 
HETATM   47  C29 UNL     1      -1.605  48.751 -16.607  1.00  0.00     0.015 C 
HETATM   48  C30 UNL     1      -2.752  50.820 -15.772  1.00  0.00     0.015 C 
ENDBRANCH  39  46
ENDBRANCH  31  34
ENDBRANCH  29  31
ENDBRANCH   1  29
TORSDOF 13
ENDMDL
