MODEL 1
REMARK minimizedAffinity -11.901248
REMARK  5 active torsions:
REMARK  status: ('A' for Active; 'I' for Inactive)
REMARK    1  A    between atoms: N1_2  and  C2_3 
REMARK    2  A    between atoms: C4_5  and  N3_29 
REMARK    3  A    between atoms: C5_7  and  N2_12 
REMARK    4  A    between atoms: C7_9  and  O2_10 
REMARK    5  A    between atoms: C28_35  and  O4_36 
ROOT
HETATM    1  C2  UNL     1      -2.854  47.562 -20.799  1.00  0.00     0.257 C 
HETATM    2  C3  UNL     1      -1.701  48.322 -21.577  1.00  0.00     0.092 C 
HETATM    3  C4  UNL     1      -1.963  49.779 -21.302  1.00  0.00     0.234 C 
HETATM    4  O1  UNL     1      -2.205  49.833 -19.889  1.00  0.00    -0.333 OA
HETATM    5  C5  UNL     1      -3.626  49.771 -19.661  1.00  0.00     0.168 C 
HETATM    6  C6  UNL     1      -3.697  49.469 -18.151  1.00  0.00     0.074 C 
HETATM    7  C7  UNL     1      -4.145  48.495 -20.491  1.00  0.00     0.209 C 
ENDROOT
BRANCH   1   8
HETATM    8  N1  UNL     1      -3.093  46.213 -21.350  1.00  0.00     0.086 N 
HETATM    9  C1  UNL     1      -4.002  45.381 -20.575  1.00  0.00     0.307 C 
HETATM   10  H4  UNL     1      -3.457  46.302 -22.300  1.00  0.00     0.316 HD
ENDBRANCH   1   8
BRANCH   7  11
HETATM   11  O2  UNL     1      -4.726  48.844 -21.762  1.00  0.00    -0.384 OA
HETATM   12  C8  UNL     1      -5.734  49.843 -21.693  1.00  0.00     0.202 C 
ENDBRANCH   7  11
BRANCH   3  13
HETATM   13  N3  UNL     1      -1.288  50.998 -21.578  1.00  0.00    -0.316 N 
HETATM   14  C24 UNL     1      -0.470  51.831 -20.879  1.00  0.00     0.048 A 
HETATM   15  C19 UNL     1       0.036  52.768 -21.812  1.00  0.00     0.004 A 
HETATM   16  C23 UNL     1      -0.112  51.852 -19.523  1.00  0.00     0.030 A 
HETATM   17  C18 UNL     1      -0.503  52.451 -23.107  1.00  0.00     0.022 A 
HETATM   18  C20 UNL     1       0.930  53.753 -21.339  1.00  0.00     0.014 A 
HETATM   19  C17 UNL     1      -0.447  52.849 -24.449  1.00  0.00     0.057 A 
HETATM   20  C25 UNL     1      -1.334  51.381 -22.894  1.00  0.00     0.077 A 
HETATM   21  C16 UNL     1      -1.152  52.213 -25.531  1.00  0.00     0.020 A 
HETATM   22  C27 UNL     1       0.359  53.926 -25.036  1.00  0.00     0.255 C 
HETATM   23  C15 UNL     1      -2.014  51.111 -25.340  1.00  0.00     0.017 A 
HETATM   24  C28 UNL     1      -0.755  52.897 -26.807  1.00  0.00     0.257 C 
HETATM   25  C14 UNL     1      -2.825  50.250 -26.136  1.00  0.00     0.004 A 
HETATM   26  C26 UNL     1      -2.157  50.669 -24.043  1.00  0.00     0.077 A 
HETATM   27  C9  UNL     1      -3.455  49.322 -25.282  1.00  0.00     0.049 A 
HETATM   28  C13 UNL     1      -3.084  50.183 -27.523  1.00  0.00     0.014 A 
HETATM   29  N2  UNL     1      -3.070  49.620 -23.975  1.00  0.00    -0.308 N 
HETATM   30  C10 UNL     1      -4.318  48.336 -25.798  1.00  0.00     0.030 A 
HETATM   31  C11 UNL     1      -4.546  48.290 -27.176  1.00  0.00     0.002 A 
HETATM   32  C12 UNL     1      -3.942  49.204 -28.030  1.00  0.00     0.001 A 
HETATM   33  N4  UNL     1       0.068  53.979 -26.383  1.00  0.00    -0.326 N 
HETATM   34  H24 UNL     1       0.679  54.498 -26.997  1.00  0.00     0.165 HD
HETATM   35  O3  UNL     1       1.163  54.642 -24.472  1.00  0.00    -0.268 OA
HETATM   36  C21 UNL     1       1.286  53.782 -19.986  1.00  0.00     0.001 A 
HETATM   37  C22 UNL     1       0.773  52.845 -19.095  1.00  0.00     0.002 A 
BRANCH  24  38
HETATM   38  O4  UNL     1      -1.849  53.466 -27.470  1.00  0.00    -0.372 OA
HETATM   39  H26 UNL     1      -1.811  54.408 -27.221  1.00  0.00     0.212 HD
ENDBRANCH  24  38
ENDBRANCH   3  13
TORSDOF 5
ENDMDL
