MODEL 1
REMARK minimizedAffinity -8.46535873
REMARK CNNscore 0.753411293
REMARK CNNaffinity 6.27491617
REMARK  4 active torsions:
REMARK  status: ('A' for Active; 'I' for Inactive)
REMARK    1  A    between atoms: C4_4  and  O1_5 
REMARK    2  A    between atoms: C5_6  and  O2_7 
REMARK    3  A    between atoms: C8_11  and  C9_12 
REMARK    4  A    between atoms: C19_23  and  C20_24 
ROOT
HETATM    1  C1  UNL     1      -3.304  49.968  -9.144  1.00  0.00     0.040 C 
HETATM    2  C2  UNL     1      -4.305  50.570 -10.126  1.00  0.00     0.123 C 
HETATM    3  C3  UNL     1      -4.241  49.940 -11.517  1.00  0.00     0.069 C 
HETATM    4  C4  UNL     1      -2.986  50.325 -12.295  1.00  0.00     0.188 C 
HETATM    5  C5  UNL     1      -2.541  51.791 -12.045  1.00  0.00     0.240 C 
HETATM    6  O3  UNL     1      -1.335  51.769 -11.243  1.00  0.00    -0.341 OA
HETATM    7  C6  UNL     1      -0.917  53.099 -10.898  1.00  0.00     0.156 C 
HETATM    8  C7  UNL     1       0.296  53.000  -9.977  1.00  0.00     0.056 C 
HETATM    9  C8  UNL     1       0.855  54.377  -9.510  1.00  0.00     0.043 C 
HETATM   10  C10 UNL     1      -0.270  55.350  -9.158  1.00  0.00    -0.065 C 
HETATM   11  C11 UNL     1      -0.078  56.331  -8.260  1.00  0.00    -0.022 C 
HETATM   12  C12 UNL     1       1.257  56.610  -7.651  1.00  0.00     0.035 C 
HETATM   13  C13 UNL     1       2.121  55.371  -7.381  1.00  0.00     0.030 C 
HETATM   14  C14 UNL     1       1.823  54.126  -8.286  1.00  0.00     0.012 C 
HETATM   15  C15 UNL     1       3.015  53.200  -8.669  1.00  0.00     0.007 C 
HETATM   16  C16 UNL     1       4.266  53.343  -7.813  1.00  0.00     0.016 C 
HETATM   17  C17 UNL     1       4.730  54.804  -7.846  1.00  0.00     0.023 C 
HETATM   18  C18 UNL     1       5.358  55.169  -9.192  1.00  0.00     0.022 C 
HETATM   19  C19 UNL     1       5.425  55.402  -6.554  1.00  0.00     0.098 C 
HETATM   20  C24 UNL     1       5.513  56.925  -6.690  1.00  0.00     0.047 C 
HETATM   21  C25 UNL     1       4.094  57.172  -7.220  1.00  0.00     0.042 C 
HETATM   22  C26 UNL     1       3.601  55.718  -7.232  1.00  0.00     0.077 C 
HETATM   23  O7  UNL     1       4.104  55.195  -5.890  1.00  0.00    -0.362 OA
HETATM   24  C27 UNL     1      -1.572  55.292  -9.927  1.00  0.00     0.069 C 
HETATM   25  C28 UNL     1      -2.046  53.871 -10.205  1.00  0.00     0.158 C 
HETATM   26  O8  UNL     1      -3.206  53.919 -11.056  1.00  0.00    -0.347 OA
HETATM   27  C29 UNL     1      -3.678  52.582 -11.326  1.00  0.00     0.325 C 
HETATM   28  O9  UNL     1      -4.150  51.990 -10.119  1.00  0.00    -0.351 OA
ENDROOT
BRANCH  19  29
HETATM   29  C20 UNL     1       6.557  54.713  -5.951  1.00  0.00    -0.015 A 
HETATM   30  C21 UNL     1       6.626  53.409  -5.706  1.00  0.00     0.090 A 
HETATM   31  C22 UNL     1       7.935  53.180  -5.098  1.00  0.00     0.283 A 
HETATM   32  O5  UNL     1       8.343  52.095  -4.728  1.00  0.00    -0.260 OA
HETATM   33  O6  UNL     1       8.609  54.359  -5.017  1.00  0.00    -0.314 OA
HETATM   34  C23 UNL     1       7.793  55.407  -5.546  1.00  0.00     0.216 A 
ENDBRANCH  19  29
BRANCH   9  35
HETATM   35  C9  UNL     1       1.649  55.010 -10.668  1.00  0.00     0.245 C 
HETATM   36  O4  UNL     1       2.428  55.953 -10.552  1.00  0.00    -0.306 OA
ENDBRANCH   9  35
BRANCH   5  37
HETATM   37  O2  UNL     1      -2.218  52.378 -13.311  1.00  0.00    -0.360 OA
HETATM   38  H9  UNL     1      -2.442  53.323 -13.249  1.00  0.00     0.213 HD
ENDBRANCH   5  37
BRANCH   4  39
HETATM   39  O1  UNL     1      -1.938  49.387 -11.995  1.00  0.00    -0.390 OA
HETATM   40  H8  UNL     1      -1.187  49.924 -11.670  1.00  0.00     0.210 HD
ENDBRANCH   4  39
TORSDOF 4
ENDMDL
