MODEL 1
REMARK minimizedAffinity -9.65665245
REMARK CNNscore 0.426262677
REMARK CNNaffinity 7.1289115
REMARK  13 active torsions:
REMARK  status: ('A' for Active; 'I' for Inactive)
REMARK    1  A    between atoms: O1_2  and  C2_3 
REMARK    2  A    between atoms: C2_3  and  C3_5 
REMARK    3  A    between atoms: C3_5  and  C4_6 
REMARK    4  A    between atoms: C3_5  and  N2_16 
REMARK    5  A    between atoms: C4_6  and  C5_7 
REMARK       I    between atoms: N2_16  and  C13_17 
REMARK    6  A    between atoms: C13_17  and  C14_19 
REMARK    7  A    between atoms: C14_19  and  C15_20 
REMARK    8  A    between atoms: C15_20  and  C16_21 
REMARK    9  A    between atoms: C16_21  and  O5_23 
REMARK   10  A    between atoms: O5_23  and  C17_24 
REMARK   11  A    between atoms: C17_24  and  C18_25 
REMARK   12  A    between atoms: C18_25  and  C19_27 
REMARK   13  A    between atoms: C19_27  and  O7_28 
ROOT
HETATM    1  C17 UNL     1      -5.312  48.110 -28.474  1.00  0.00     0.260 C 
ENDROOT
BRANCH   1   2
HETATM    2  O5  UNL     1      -3.914  48.393 -28.537  1.00  0.00    -0.314 OA
BRANCH   2   3
HETATM    3  C16 UNL     1      -3.526  49.473 -27.799  1.00  0.00     0.259 C 
HETATM    4  O4  UNL     1      -2.995  50.478 -28.256  1.00  0.00    -0.265 OA
BRANCH   3   5
HETATM    5  C15 UNL     1      -3.887  49.268 -26.348  1.00  0.00     0.120 C 
BRANCH   5   6
HETATM    6  C14 UNL     1      -2.634  48.940 -25.545  1.00  0.00     0.112 C 
BRANCH   6   7
HETATM    7  C13 UNL     1      -1.910  50.187 -25.083  1.00  0.00     0.218 C 
HETATM    8  N2  UNL     1      -0.829  50.515 -25.861  1.00  0.00    -0.347 N 
HETATM    9  H13 UNL     1      -0.534  49.908 -26.621  1.00  0.00     0.163 HD
HETATM   10  O3  UNL     1      -2.296  50.883 -24.152  1.00  0.00    -0.274 OA
BRANCH   8  11
HETATM   11  C3  UNL     1       0.007  51.690 -25.582  1.00  0.00     0.188 C 
BRANCH  11  12
HETATM   12  C2  UNL     1       0.344  52.324 -26.930  1.00  0.00     0.281 C 
HETATM   13  O2  UNL     1      -0.503  52.734 -27.720  1.00  0.00    -0.263 OA
BRANCH  12  14
HETATM   14  O1  UNL     1       1.688  52.355 -27.139  1.00  0.00    -0.325 OA
HETATM   15  C1  UNL     1       2.425  51.422 -26.349  1.00  0.00     0.213 C 
ENDBRANCH  12  14
ENDBRANCH  11  12
BRANCH  11  16
HETATM   16  C4  UNL     1      -0.732  52.699 -24.694  1.00  0.00     0.076 C 
BRANCH  16  17
HETATM   17  C5  UNL     1       0.148  53.345 -23.670  1.00  0.00    -0.028 A 
HETATM   18  C6  UNL     1       1.043  54.376 -23.880  1.00  0.00     0.096 A 
HETATM   19  N1  UNL     1       1.658  54.657 -22.691  1.00  0.00    -0.365 N 
HETATM   20  C7  UNL     1       1.186  53.831 -21.700  1.00  0.00     0.042 A 
HETATM   21  H8  UNL     1       2.363  55.368 -22.554  1.00  0.00     0.165 HD
HETATM   22  C8  UNL     1       1.532  53.757 -20.345  1.00  0.00     0.030 A 
HETATM   23  C12 UNL     1       0.228  53.002 -22.281  1.00  0.00    -0.002 A 
HETATM   24  C9  UNL     1       0.871  52.808 -19.561  1.00  0.00     0.002 A 
HETATM   25  C10 UNL     1      -0.096  51.971 -20.111  1.00  0.00     0.001 A 
HETATM   26  C11 UNL     1      -0.428  52.056 -21.468  1.00  0.00     0.014 A 
ENDBRANCH  16  17
ENDBRANCH  11  16
ENDBRANCH   8  11
ENDBRANCH   6   7
ENDBRANCH   5   6
ENDBRANCH   3   5
ENDBRANCH   2   3
ENDBRANCH   1   2
BRANCH   1  27
HETATM   27  C18 UNL     1      -5.875  47.593 -29.798  1.00  0.00     0.185 C 
HETATM   28  O6  UNL     1      -5.135  47.109 -30.658  1.00  0.00    -0.292 OA
BRANCH  27  29
HETATM   29  C19 UNL     1      -7.408  47.678 -29.987  1.00  0.00     0.128 C 
HETATM   30  C20 UNL     1      -7.879  47.070 -31.341  1.00  0.00     0.047 C 
HETATM   31  C21 UNL     1      -9.243  46.400 -31.085  1.00  0.00     0.009 C 
HETATM   32  C22 UNL     1      -9.621  46.834 -29.674  1.00  0.00     0.002 C 
HETATM   33  C23 UNL     1     -10.673  46.020 -28.897  1.00  0.00     0.003 C 
HETATM   34  C36 UNL     1      -8.246  46.891 -28.936  1.00  0.00     0.005 C 
HETATM   35  C24 UNL     1     -11.978  45.748 -29.669  1.00  0.00     0.010 C 
HETATM   36  C33 UNL     1     -10.920  46.744 -27.537  1.00  0.00     0.072 C 
HETATM   37  C25 UNL     1     -13.196  46.464 -29.097  1.00  0.00     0.035 C 
HETATM   38  C26 UNL     1     -13.370  46.294 -27.604  1.00  0.00    -0.067 C 
HETATM   39  C27 UNL     1     -14.602  46.390 -27.072  1.00  0.00     0.053 C 
HETATM   40  C31 UNL     1     -12.109  46.130 -26.741  1.00  0.00    -0.009 C 
HETATM   41  C28 UNL     1     -14.824  46.389 -25.607  1.00  0.00     0.149 C 
HETATM   42  O8  UNL     1     -15.975  46.326 -25.179  1.00  0.00    -0.293 OA
HETATM   43  C29 UNL     1     -13.628  46.450 -24.688  1.00  0.00     0.084 C 
HETATM   44  C30 UNL     1     -12.358  46.898 -25.413  1.00  0.00     0.022 C 
HETATM   45  C32 UNL     1     -11.888  44.628 -26.447  1.00  0.00     0.021 C 
HETATM   46  C34 UNL     1      -9.572  46.858 -26.811  1.00  0.00     0.133 C 
HETATM   47  O9  UNL     1      -9.365  46.435 -25.678  1.00  0.00    -0.297 OA
HETATM   48  C35 UNL     1      -8.471  47.582 -27.581  1.00  0.00     0.091 C 
HETATM   49  C37 UNL     1      -7.620  45.490 -28.690  1.00  0.00     0.019 C 
BRANCH  29  50
HETATM   50  O7  UNL     1      -7.797  49.056 -29.971  1.00  0.00    -0.381 OA
HETATM   51  H20 UNL     1      -7.333  49.504 -30.706  1.00  0.00     0.211 HD
ENDBRANCH  29  50
ENDBRANCH  27  29
ENDBRANCH   1  27
TORSDOF 13
ENDMDL
