MODEL 1
REMARK minimizedAffinity -6.36252594
REMARK CNNscore 0.803452075
REMARK CNNaffinity 7.13842964
REMARK  8 active torsions:
REMARK  status: ('A' for Active; 'I' for Inactive)
REMARK    1  A    between atoms: C12_14  and  C13_15 
REMARK    2  A    between atoms: C13_15  and  C15_17 
REMARK    3  A    between atoms: C15_17  and  C16_18 
REMARK    4  A    between atoms: C16_18  and  C17_19 
REMARK    5  A    between atoms: C26_28  and  C27_29 
REMARK    6  A    between atoms: C27_29  and  C28_30 
REMARK    7  A    between atoms: C28_30  and  C29_31 
REMARK    8  A    between atoms: C29_31  and  O4_33 
ROOT
HETATM    1  C1  UNL     1       6.367  12.406  23.003  1.00  0.00     0.025 C 
HETATM    2  C2  UNL     1       6.229  12.425  21.673  1.00  0.00     0.015 C 
HETATM    3  C3  UNL     1       7.060  13.323  20.834  1.00  0.00     0.289 C 
HETATM    4  O1  UNL     1       8.038  13.953  21.190  1.00  0.00    -0.260 OA
HETATM    5  O2  UNL     1       6.544  13.306  19.576  1.00  0.00    -0.311 OA
HETATM    6  C4  UNL     1       5.286  12.606  19.565  1.00  0.00     0.142 C 
HETATM    7  C5  UNL     1       4.164  13.638  19.587  1.00  0.00     0.039 C 
HETATM    8  C6  UNL     1       2.742  13.074  19.732  1.00  0.00     0.006 C 
HETATM    9  C7  UNL     1       2.628  11.931  20.771  1.00  0.00    -0.027 A 
HETATM   10  C8  UNL     1       1.213  11.325  20.874  1.00  0.00     0.011 C 
HETATM   11  C9  UNL     1       0.509  11.058  19.536  1.00  0.00     0.011 C 
HETATM   12  C10 UNL     1       0.531  12.306  18.641  1.00  0.00    -0.032 C 
HETATM   13  C11 UNL     1      -0.279  13.447  19.336  1.00  0.00     0.016 C 
HETATM   14  C12 UNL     1      -0.005  12.151  17.181  1.00  0.00    -0.002 C 
HETATM   15  C21 UNL     1       0.759  13.286  16.429  1.00  0.00     0.006 C 
HETATM   16  C22 UNL     1       1.922  13.751  17.327  1.00  0.00     0.011 C 
HETATM   17  C23 UNL     1       2.056  12.651  18.390  1.00  0.00    -0.032 C 
HETATM   18  C24 UNL     1       2.859  11.487  17.728  1.00  0.00     0.016 C 
HETATM   19  C25 UNL     1       3.193  12.148  22.155  1.00  0.00     0.022 A 
HETATM   20  C26 UNL     1       3.935  11.198  21.239  1.00  0.00    -0.021 A 
HETATM   21  C31 UNL     1       5.318  11.667  20.760  1.00  0.00     0.063 C 
ENDROOT
BRANCH  14  22
HETATM   22  C13 UNL     1      -1.540  12.190  16.891  1.00  0.00    -0.014 C 
HETATM   23  C14 UNL     1      -2.075  13.622  16.799  1.00  0.00     0.010 C 
BRANCH  22  24
HETATM   24  C15 UNL     1      -2.307  11.402  17.993  1.00  0.00     0.008 C 
BRANCH  24  25
HETATM   25  C16 UNL     1      -3.257  10.295  17.515  1.00  0.00     0.028 C 
BRANCH  25  26
HETATM   26  C17 UNL     1      -3.222  10.064  16.029  1.00  0.00    -0.025 C 
HETATM   27  C18 UNL     1      -2.921   8.919  15.385  1.00  0.00    -0.091 C 
HETATM   28  C19 UNL     1      -2.515   7.637  16.059  1.00  0.00     0.042 C 
HETATM   29  C20 UNL     1      -2.952   8.853  13.879  1.00  0.00     0.042 C 
ENDBRANCH  25  26
ENDBRANCH  24  25
ENDBRANCH  22  24
ENDBRANCH  14  22
BRANCH  20  30
HETATM   30  C27 UNL     1       3.857   9.677  21.415  1.00  0.00     0.021 C 
BRANCH  30  31
HETATM   31  C28 UNL     1       3.713   9.202  22.857  1.00  0.00     0.112 C 
BRANCH  31  32
HETATM   32  C29 UNL     1       2.417   8.470  23.095  1.00  0.00     0.258 C 
HETATM   33  O3  UNL     1       1.825   7.821  22.244  1.00  0.00    -0.265 OA
BRANCH  32  34
HETATM   34  O4  UNL     1       1.999   8.640  24.381  1.00  0.00    -0.326 OA
HETATM   35  C30 UNL     1       2.446   9.856  24.980  1.00  0.00     0.213 C 
ENDBRANCH  32  34
ENDBRANCH  31  32
ENDBRANCH  30  31
ENDBRANCH  20  30
TORSDOF 8
ENDMDL
