MODEL 1
REMARK minimizedAffinity -8.9587183
REMARK CNNscore 0.544142783
REMARK CNNaffinity 7.01335001
REMARK  9 active torsions:
REMARK  status: ('A' for Active; 'I' for Inactive)
REMARK    1  A    between atoms: C11_11  and  C13_13 
REMARK    2  A    between atoms: C13_13  and  O2_15 
REMARK    3  A    between atoms: C15_17  and  C16_18 
REMARK    4  A    between atoms: C16_18  and  C17_19 
REMARK    5  A    between atoms: C17_19  and  C18_20 
REMARK    6  A    between atoms: C19_21  and  C20_22 
REMARK    7  A    between atoms: C20_22  and  O3_23 
REMARK    8  A    between atoms: O3_23  and  C21_24 
REMARK    9  A    between atoms: C21_24  and  C22_26 
ROOT
HETATM    1  C16 UNL     1      -1.866  51.351 -22.129  1.00  0.00     0.014 C 
ENDROOT
BRANCH   1   2
HETATM    2  C15 UNL     1      -2.253  50.383 -23.280  1.00  0.00     0.022 C 
HETATM    3  C2  UNL     1      -2.828  49.073 -22.764  1.00  0.00    -0.084 C 
HETATM    4  C1  UNL     1      -2.054  48.039 -22.391  1.00  0.00     0.014 C 
HETATM    5  C3  UNL     1      -4.316  48.941 -22.816  1.00  0.00     0.034 C 
HETATM    6  C4  UNL     1      -4.776  48.988 -24.269  1.00  0.00     0.011 C 
HETATM    7  C5  UNL     1      -4.081  50.049 -25.168  1.00  0.00     0.012 C 
HETATM    8  C6  UNL     1      -3.172  51.074 -24.380  1.00  0.00    -0.032 C 
HETATM    9  C11 UNL     1      -3.431  49.449 -26.469  1.00  0.00     0.049 C 
HETATM   10  C7  UNL     1      -4.140  52.128 -23.752  1.00  0.00     0.016 C 
HETATM   11  C8  UNL     1      -2.249  51.862 -25.363  1.00  0.00     0.010 C 
HETATM   12  C9  UNL     1      -2.828  51.952 -26.767  1.00  0.00     0.002 C 
HETATM   13  C10 UNL     1      -2.898  50.570 -27.412  1.00  0.00     0.020 C 
HETATM   14  C12 UNL     1      -2.270  48.482 -26.153  1.00  0.00     0.026 C 
BRANCH   9  15
HETATM   15  C13 UNL     1      -4.493  48.657 -27.263  1.00  0.00     0.267 C 
HETATM   16  O1  UNL     1      -5.383  47.979 -26.762  1.00  0.00    -0.264 OA
BRANCH  15  17
HETATM   17  O2  UNL     1      -4.308  48.797 -28.609  1.00  0.00    -0.326 OA
HETATM   18  C14 UNL     1      -5.303  48.153 -29.406  1.00  0.00     0.213 C 
ENDBRANCH  15  17
ENDBRANCH   9  15
ENDBRANCH   1   2
BRANCH   1  19
HETATM   19  C17 UNL     1      -0.432  51.181 -21.609  1.00  0.00     0.042 C 
BRANCH  19  20
HETATM   20  C18 UNL     1       0.279  52.492 -21.493  1.00  0.00    -0.024 A 
HETATM   21  C19 UNL     1       0.349  53.325 -20.387  1.00  0.00     0.083 A 
HETATM   22  O5  UNL     1       1.096  54.430 -20.676  1.00  0.00    -0.324 OA
HETATM   23  C28 UNL     1       1.500  54.314 -21.965  1.00  0.00     0.143 A 
HETATM   24  C29 UNL     1       1.030  53.145 -22.512  1.00  0.00     0.034 A 
BRANCH  21  25
HETATM   25  C20 UNL     1      -0.199  53.247 -19.009  1.00  0.00     0.244 C 
BRANCH  25  26
HETATM   26  O3  UNL     1       0.784  52.599 -18.191  1.00  0.00    -0.311 OA
BRANCH  26  27
HETATM   27  C21 UNL     1       0.366  51.503 -17.519  1.00  0.00     0.293 C 
HETATM   28  O4  UNL     1      -0.591  50.800 -17.803  1.00  0.00    -0.259 OA
BRANCH  27  29
HETATM   29  C22 UNL     1       1.252  51.246 -16.348  1.00  0.00     0.039 A 
HETATM   30  C23 UNL     1       0.933  50.178 -15.497  1.00  0.00     0.019 A 
HETATM   31  C24 UNL     1       1.733  49.895 -14.387  1.00  0.00     0.025 A 
HETATM   32  C25 UNL     1       2.856  50.680 -14.125  1.00  0.00     0.034 A 
HETATM   33 CL1  UNL     1       3.842  50.334 -12.759  1.00  0.00    -0.084 Cl
HETATM   34  C26 UNL     1       3.183  51.746 -14.962  1.00  0.00     0.025 A 
HETATM   35  C27 UNL     1       2.382  52.032 -16.073  1.00  0.00     0.019 A 
ENDBRANCH  27  29
ENDBRANCH  26  27
ENDBRANCH  25  26
ENDBRANCH  21  25
ENDBRANCH  19  20
ENDBRANCH   1  19
TORSDOF 9
ENDMDL
