MODEL 1
REMARK minimizedAffinity -9.35501575
REMARK  6 active torsions:
REMARK  status: ('A' for Active; 'I' for Inactive)
REMARK    1  A    between atoms: C2_2  and  C3_3 
REMARK    2  A    between atoms: C4_5  and  C5_6 
REMARK    3  A    between atoms: C5_6  and  C6_7 
REMARK    4  A    between atoms: C6_7  and  C7_8 
REMARK    5  A    between atoms: C7_8  and  C9_10 
REMARK    6  A    between atoms: C30_32  and  O3_33 
ROOT
HETATM    1  C9  UNL     1      -0.642  50.138 -20.687  1.00  0.00    -0.002 C 
HETATM    2  C10 UNL     1      -0.986  49.352 -19.390  1.00  0.00     0.007 C 
HETATM    3  C11 UNL     1      -2.267  48.541 -19.665  1.00  0.00     0.015 C 
HETATM    4  C12 UNL     1      -2.440  48.574 -21.194  1.00  0.00    -0.010 C 
HETATM    5  C13 UNL     1      -1.514  47.463 -21.786  1.00  0.00     0.021 C 
HETATM    6  C14 UNL     1      -3.825  48.324 -21.794  1.00  0.00    -0.039 C 
HETATM    7  C15 UNL     1      -4.136  48.860 -23.007  1.00  0.00    -0.066 C 
HETATM    8  C16 UNL     1      -3.148  49.775 -23.746  1.00  0.00     0.036 C 
HETATM    9  C17 UNL     1      -1.843  50.174 -23.026  1.00  0.00     0.015 C 
HETATM   10  C18 UNL     1      -1.970  50.048 -21.503  1.00  0.00    -0.029 C 
HETATM   11  C19 UNL     1      -2.967  51.133 -20.994  1.00  0.00     0.016 C 
HETATM   12  C20 UNL     1      -5.499  48.600 -23.707  1.00  0.00    -0.015 C 
HETATM   13  C21 UNL     1      -6.330  49.900 -23.583  1.00  0.00     0.020 C 
HETATM   14  C22 UNL     1      -5.275  48.263 -25.204  1.00  0.00     0.021 C 
HETATM   15  C23 UNL     1      -6.470  47.671 -25.945  1.00  0.00     0.080 C 
HETATM   16  C24 UNL     1      -7.732  47.533 -25.129  1.00  0.00     0.135 C 
HETATM   17  O2  UNL     1      -8.827  47.740 -25.661  1.00  0.00    -0.297 OA
HETATM   18  C25 UNL     1      -7.627  47.035 -23.684  1.00  0.00     0.018 C 
HETATM   19  C26 UNL     1      -8.796  47.641 -22.876  1.00  0.00     0.023 C 
HETATM   20  C27 UNL     1      -7.836  45.509 -23.729  1.00  0.00     0.023 C 
HETATM   21  C28 UNL     1      -6.216  47.354 -23.083  1.00  0.00     0.016 C 
HETATM   22  C29 UNL     1      -6.204  47.434 -21.549  1.00  0.00     0.043 C 
HETATM   23  C30 UNL     1      -4.777  47.457 -21.006  1.00  0.00     0.148 C 
ENDROOT
BRANCH   1  24
HETATM   24  C7  UNL     1      -0.015  51.531 -20.385  1.00  0.00    -0.014 C 
HETATM   25  C8  UNL     1      -0.567  52.164 -19.104  1.00  0.00     0.010 C 
BRANCH  24  26
HETATM   26  C6  UNL     1      -0.166  52.532 -21.562  1.00  0.00     0.008 C 
BRANCH  26  27
HETATM   27  C5  UNL     1       0.767  52.292 -22.757  1.00  0.00     0.028 C 
BRANCH  27  28
HETATM   28  C4  UNL     1       0.295  53.062 -23.960  1.00  0.00    -0.017 C 
HETATM   29  C2  UNL     1       0.622  52.859 -25.251  1.00  0.00    -0.028 C 
HETATM   30  C1  UNL     1       1.534  51.809 -25.806  1.00  0.00     0.051 C 
BRANCH  29  31
HETATM   31  C3  UNL     1       0.009  53.763 -26.275  1.00  0.00     0.265 C 
HETATM   32  O1  UNL     1       0.189  54.975 -26.317  1.00  0.00    -0.302 OA
ENDBRANCH  29  31
ENDBRANCH  27  28
ENDBRANCH  26  27
ENDBRANCH  24  26
ENDBRANCH   1  24
BRANCH  23  33
HETATM   33  O3  UNL     1      -4.266  46.127 -21.011  1.00  0.00    -0.391 OA
HETATM   34  H46 UNL     1      -4.815  45.604 -20.404  1.00  0.00     0.210 HD
ENDBRANCH  23  33
TORSDOF 6
ENDMDL
