MODEL 1
REMARK minimizedAffinity -9.72034454
REMARK  4 active torsions:
REMARK  status: ('A' for Active; 'I' for Inactive)
REMARK    1  A    between atoms: C4_5  and  C5_6 
REMARK    2  A    between atoms: C8_11  and  C9_12 
REMARK    3  A    between atoms: C9_12  and  N2_13 
REMARK    4  A    between atoms: N3_16  and  C12_17 
ROOT
HETATM    1  N2  UNL     1      -1.487   7.783  13.749  1.00  0.00     0.095 N 
HETATM    2  C10 UNL     1      -1.902   8.411  12.480  1.00  0.00     0.287 C 
HETATM    3  C11 UNL     1      -0.738   8.532  11.462  1.00  0.00     0.126 C 
HETATM    4  N3  UNL     1      -0.120   7.206  11.237  1.00  0.00    -0.278 NA
HETATM    5  C20 UNL     1       0.333   6.592  12.499  1.00  0.00     0.126 C 
HETATM    6  C21 UNL     1      -0.861   6.471  13.480  1.00  0.00     0.287 C 
ENDROOT
BRANCH   1   7
HETATM    7  C9  UNL     1      -2.536   7.746  14.772  1.00  0.00     0.312 C 
BRANCH   7   8
HETATM    8  C8  UNL     1      -3.912   7.303  14.343  1.00  0.00    -0.014 A 
HETATM    9  C7  UNL     1      -5.015   8.133  14.505  1.00  0.00     0.096 A 
HETATM   10  N1  UNL     1      -6.273   7.802  14.142  1.00  0.00    -0.374 N 
HETATM   11  C6  UNL     1      -6.443   6.577  13.590  1.00  0.00     0.100 A 
ATOM     12  H1  UNL     1      -7.056   8.442  14.277  1.00  0.00     0.164 HD
HETATM   13  C5  UNL     1      -5.421   5.653  13.370  1.00  0.00    -0.010 A 
HETATM   14  C22 UNL     1      -4.133   6.049  13.759  1.00  0.00     0.024 A 
BRANCH  13  15
HETATM   15  C4  UNL     1      -5.678   4.337  12.768  1.00  0.00    -0.024 A 
HETATM   16  C3  UNL     1      -4.762   3.762  11.870  1.00  0.00     0.015 A 
HETATM   17  C2  UNL     1      -5.008   2.511  11.295  1.00  0.00     0.043 A 
HETATM   18  C1  UNL     1      -6.172   1.827  11.616  1.00  0.00     0.116 A 
HETATM   19  F1  UNL     1      -6.408   0.629  11.066  1.00  0.00    -0.206 F 
HETATM   20  C24 UNL     1      -7.096   2.369  12.500  1.00  0.00     0.043 A 
HETATM   21  C23 UNL     1      -6.850   3.620  13.073  1.00  0.00     0.015 A 
ENDBRANCH  13  15
ENDBRANCH   7   8
ENDBRANCH   1   7
BRANCH   4  22
HETATM   22  C12 UNL     1       0.728   7.173  10.114  1.00  0.00     0.047 A 
HETATM   23  C13 UNL     1       0.586   8.229   9.186  1.00  0.00     0.027 A 
HETATM   24  C14 UNL     1       1.352   8.308   8.022  1.00  0.00     0.005 A 
HETATM   25  C15 UNL     1       2.300   7.329   7.754  1.00  0.00     0.040 A 
HETATM   26  C16 UNL     1       2.477   6.280   8.651  1.00  0.00     0.103 A 
HETATM   27  C17 UNL     1       1.685   6.178   9.815  1.00  0.00     0.123 A 
HETATM   28  O2  UNL     1       3.458   5.377   8.311  1.00  0.00    -0.346 OA
HETATM   29  O1  UNL     1       1.859   5.135  10.696  1.00  0.00    -0.344 OA
HETATM   30  C18 UNL     1       2.563   4.039  10.110  1.00  0.00     0.202 C 
HETATM   31  C19 UNL     1       3.811   4.540   9.413  1.00  0.00     0.202 C 
ENDBRANCH   4  22
TORSDOF 4
ENDMDL
