MODEL 1
REMARK minimizedAffinity -7.6215744
REMARK CNNscore 0.490763575
REMARK CNNaffinity 6.15940285
REMARK  13 active torsions:
REMARK  status: ('A' for Active; 'I' for Inactive)
REMARK    1  A    between atoms: C3_3  and  O1_4 
REMARK    2  A    between atoms: N1_14  and  O2_16 
REMARK    3  A    between atoms: O2_16  and  C13_17 
REMARK    4  A    between atoms: C13_17  and  C14_18 
REMARK       I    between atoms: C14_18  and  N2_20 
REMARK    5  A    between atoms: N2_20  and  C15_21 
REMARK    6  A    between atoms: C15_21  and  C16_22 
REMARK    7  A    between atoms: C15_21  and  C21_33 
REMARK       I    between atoms: C16_22  and  N3_24 
REMARK    8  A    between atoms: N3_24  and  C17_25 
REMARK    9  A    between atoms: C17_25  and  C18_26 
REMARK   10  A    between atoms: C17_25  and  C20_30 
REMARK   11  A    between atoms: C18_26  and  C19_27 
REMARK   12  A    between atoms: C19_27  and  O6_29 
REMARK   13  A    between atoms: C20_30  and  O8_32 
ROOT
HETATM    1  C1  UNL     1       0.537  50.812 -17.296  1.00  0.00     0.015 C 
HETATM    2  C2  UNL     1      -0.058  50.961 -18.331  1.00  0.00    -0.078 C 
HETATM    3  C3  UNL     1      -0.782  51.145 -19.610  1.00  0.00     0.128 C 
HETATM    4  C4  UNL     1      -0.191  50.209 -20.674  1.00  0.00     0.052 C 
HETATM    5  C5  UNL     1      -1.105  48.977 -20.710  1.00  0.00     0.010 C 
HETATM    6  C6  UNL     1      -2.195  49.193 -19.633  1.00  0.00     0.002 C 
HETATM    7  C7  UNL     1      -3.544  48.441 -19.833  1.00  0.00    -0.004 C 
HETATM    8  C8  UNL     1      -3.341  47.137 -20.623  1.00  0.00     0.010 C 
HETATM    9  C9  UNL     1      -4.618  46.332 -20.749  1.00  0.00     0.035 C 
HETATM   10  C10 UNL     1      -5.684  47.140 -21.437  1.00  0.00    -0.069 C 
HETATM   11  C11 UNL     1      -6.357  46.606 -22.472  1.00  0.00     0.030 C 
HETATM   12  C12 UNL     1      -7.547  47.270 -23.067  1.00  0.00     0.032 C 
HETATM   13  N1  UNL     1      -8.146  46.672 -24.056  1.00  0.00    -0.271 N 
ATOM     14  H1  UNL     1      -7.830  45.796 -24.474  1.00  0.00     0.194 HD
HETATM   15  C24 UNL     1      -8.024  48.561 -22.431  1.00  0.00     0.060 C 
HETATM   16  C25 UNL     1      -6.843  49.329 -21.853  1.00  0.00     0.020 C 
HETATM   17  C26 UNL     1      -5.988  48.513 -20.843  1.00  0.00    -0.016 C 
HETATM   18  C27 UNL     1      -6.839  48.268 -19.565  1.00  0.00     0.020 C 
HETATM   19  C28 UNL     1      -4.693  49.325 -20.406  1.00  0.00     0.002 C 
HETATM   20  C29 UNL     1      -4.103  50.321 -21.415  1.00  0.00     0.007 C 
HETATM   21  C30 UNL     1      -3.082  51.284 -20.777  1.00  0.00     0.014 C 
HETATM   22  C31 UNL     1      -2.291  50.731 -19.551  1.00  0.00     0.003 C 
HETATM   23  C32 UNL     1      -2.953  51.228 -18.248  1.00  0.00     0.020 C 
ENDROOT
BRANCH   3  24
HETATM   24  O1  UNL     1      -0.638  52.502 -20.007  1.00  0.00    -0.377 OA
HETATM   25  H2  UNL     1       0.313  52.706 -19.974  1.00  0.00     0.211 HD
ENDBRANCH   3  24
BRANCH  13  26
HETATM   26  O2  UNL     1      -9.280  47.381 -24.472  1.00  0.00    -0.271 OA
BRANCH  26  27
HETATM   27  C13 UNL     1     -10.397  46.499 -24.489  1.00  0.00     0.303 C 
BRANCH  27  28
HETATM   28  C14 UNL     1     -11.447  46.988 -25.482  1.00  0.00     0.244 C 
HETATM   29  O3  UNL     1     -11.456  48.136 -25.921  1.00  0.00    -0.271 OA
HETATM   30  N2  UNL     1     -12.410  46.051 -25.808  1.00  0.00    -0.346 N 
HETATM   31  H16 UNL     1     -12.503  45.292 -25.139  1.00  0.00     0.163 HD
BRANCH  30  32
HETATM   32  C15 UNL     1     -13.616  46.441 -26.528  1.00  0.00     0.180 C 
BRANCH  32  33
HETATM   33  C16 UNL     1     -14.840  45.821 -25.812  1.00  0.00     0.241 C 
HETATM   34  O4  UNL     1     -15.077  44.614 -25.827  1.00  0.00    -0.271 OA
HETATM   35  N3  UNL     1     -15.675  46.746 -25.212  1.00  0.00    -0.344 N 
HETATM   36  H18 UNL     1     -15.212  47.596 -24.910  1.00  0.00     0.163 HD
BRANCH  35  37
HETATM   37  C17 UNL     1     -16.752  46.290 -24.315  1.00  0.00     0.192 C 
BRANCH  37  38
HETATM   38  C18 UNL     1     -18.024  47.072 -24.610  1.00  0.00     0.146 C 
BRANCH  38  39
HETATM   39  C19 UNL     1     -19.227  46.183 -24.729  1.00  0.00     0.141 C 
HETATM   40  O5  UNL     1     -20.303  46.511 -25.200  1.00  0.00    -0.650 OA
BRANCH  39  41
HETATM   41  O6  UNL     1     -19.004  44.918 -24.334  1.00  0.00    -0.776 OA
HETATM   42  H22 UNL     1     -19.867  44.467 -24.461  1.00  0.00     0.167 HD
ENDBRANCH  39  41
ENDBRANCH  38  39
ENDBRANCH  37  38
BRANCH  37  43
HETATM   43  C20 UNL     1     -16.340  46.525 -22.856  1.00  0.00     0.164 C 
HETATM   44  O7  UNL     1     -15.385  47.181 -22.471  1.00  0.00    -0.648 OA
BRANCH  43  45
HETATM   45  O8  UNL     1     -17.095  45.840 -21.965  1.00  0.00    -0.775 OA
HETATM   46  H23 UNL     1     -16.740  46.107 -21.089  1.00  0.00     0.167 HD
ENDBRANCH  43  45
ENDBRANCH  37  43
ENDBRANCH  35  37
ENDBRANCH  32  33
BRANCH  32  47
HETATM   47  C21 UNL     1     -13.577  46.036 -28.019  1.00  0.00     0.009 C 
HETATM   48  C22 UNL     1     -13.088  47.199 -28.886  1.00  0.00     0.012 C 
HETATM   49  C23 UNL     1     -12.723  44.791 -28.291  1.00  0.00     0.012 C 
ENDBRANCH  32  47
ENDBRANCH  30  32
ENDBRANCH  27  28
ENDBRANCH  26  27
ENDBRANCH  13  26
TORSDOF 13
ENDMDL
