MODEL 1
REMARK minimizedAffinity -7.4701767
REMARK CNNscore 0.514795363
REMARK CNNaffinity 6.60624456
REMARK  8 active torsions:
REMARK  status: ('A' for Active; 'I' for Inactive)
REMARK    1  A    between atoms: C2_2  and  C3_3 
REMARK    2  A    between atoms: C2_2  and  C28_31 
REMARK    3  A    between atoms: C3_3  and  C4_4 
REMARK    4  A    between atoms: C4_4  and  O1_5 
REMARK    5  A    between atoms: C4_4  and  C5_6 
REMARK    6  A    between atoms: C5_6  and  C7_8 
REMARK    7  A    between atoms: C21_22  and  C23_24 
REMARK    8  A    between atoms: C23_24  and  O3_26 
ROOT
HETATM    1  C7  UNL     1      -2.770   8.459  15.606  1.00  0.00     0.001 C 
HETATM    2  C8  UNL     1      -3.264   6.989  15.809  1.00  0.00     0.007 C 
HETATM    3  C9  UNL     1      -2.471   6.097  14.837  1.00  0.00     0.015 C 
HETATM    4  C10 UNL     1      -1.264   6.954  14.430  1.00  0.00    -0.013 C 
HETATM    5  C11 UNL     1      -0.210   6.841  15.579  1.00  0.00     0.021 C 
HETATM    6  C12 UNL     1      -0.495   6.592  13.167  1.00  0.00    -0.068 C 
HETATM    7  C13 UNL     1       0.164   7.569  12.488  1.00  0.00    -0.068 C 
HETATM    8  C14 UNL     1       0.075   9.042  12.871  1.00  0.00     0.036 C 
HETATM    9  C15 UNL     1      -0.821   9.396  14.079  1.00  0.00     0.015 C 
HETATM   10  C16 UNL     1      -1.951   8.374  14.278  1.00  0.00    -0.029 C 
HETATM   11  C17 UNL     1      -2.902   8.453  13.049  1.00  0.00     0.016 C 
HETATM   12  C18 UNL     1       0.969   7.222  11.241  1.00  0.00    -0.015 C 
HETATM   13  C19 UNL     1       0.028   7.419  10.027  1.00  0.00     0.020 C 
HETATM   14  C20 UNL     1       2.298   7.979  11.003  1.00  0.00     0.034 C 
HETATM   15  C21 UNL     1       3.210   7.002  10.199  1.00  0.00     0.043 C 
HETATM   16  C22 UNL     1       3.397   7.460   8.746  1.00  0.00     0.027 C 
HETATM   17  C24 UNL     1       2.494   5.626  10.244  1.00  0.00     0.025 C 
HETATM   18  C25 UNL     1       1.511   5.787  11.398  1.00  0.00    -0.001 C 
HETATM   19  C26 UNL     1       0.391   4.776  11.532  1.00  0.00     0.010 C 
HETATM   20  C27 UNL     1      -0.450   5.119  12.774  1.00  0.00     0.036 C 
ENDROOT
BRANCH   1  21
HETATM   21  C5  UNL     1      -3.902   9.498  15.902  1.00  0.00     0.015 C 
HETATM   22  C6  UNL     1      -5.293   9.177  15.331  1.00  0.00     0.013 C 
BRANCH  21  23
HETATM   23  C4  UNL     1      -3.567  10.988  15.617  1.00  0.00     0.126 C 
BRANCH  23  24
HETATM   24  C3  UNL     1      -4.616  11.979  16.160  1.00  0.00     0.065 C 
BRANCH  24  25
HETATM   25  C2  UNL     1      -4.018  13.023  17.097  1.00  0.00    -0.083 C 
HETATM   26  C1  UNL     1      -3.696  14.243  16.632  1.00  0.00     0.015 C 
BRANCH  25  27
HETATM   27  C28 UNL     1      -3.790  12.576  18.538  1.00  0.00     0.005 C 
HETATM   28  C29 UNL     1      -2.416  13.039  19.029  1.00  0.00     0.014 C 
HETATM   29  C30 UNL     1      -4.879  13.028  19.519  1.00  0.00     0.014 C 
ENDBRANCH  25  27
ENDBRANCH  24  25
ENDBRANCH  23  24
BRANCH  23  30
HETATM   30  O1  UNL     1      -2.273  11.301  16.127  1.00  0.00    -0.395 OA
HETATM   31  H6  UNL     1      -2.087  12.224  15.878  1.00  0.00     0.210 HD
ENDBRANCH  23  30
ENDBRANCH  21  23
ENDBRANCH   1  21
BRANCH  15  32
HETATM   32  C23 UNL     1       4.587   6.941  10.857  1.00  0.00     0.148 C 
HETATM   33  O2  UNL     1       5.549   6.297  10.471  1.00  0.00    -0.649 OA
BRANCH  32  34
HETATM   34  O3  UNL     1       4.709   7.723  11.947  1.00  0.00    -0.776 OA
HETATM   35  H34 UNL     1       5.636   7.586  12.234  1.00  0.00     0.167 HD
ENDBRANCH  32  34
ENDBRANCH  15  32
TORSDOF 8
ENDMDL
