MODEL 1
REMARK minimizedAffinity -5.73089933
REMARK CNNscore 0.613225222
REMARK CNNaffinity 5.69246054
REMARK  5 active torsions:
REMARK  status: ('A' for Active; 'I' for Inactive)
REMARK    1  A    between atoms: C2_2  and  C11_13 
REMARK    2  A    between atoms: C3_3  and  C4_4 
REMARK    3  A    between atoms: C7_7  and  C8_8 
REMARK    4  A    between atoms: C8_8  and  O2_10 
REMARK    5  A    between atoms: C14_16  and  C15_17 
ROOT
HETATM    1  C1  UNL     1       2.724  53.269 -11.262  1.00  0.00     0.049 C 
HETATM    2  C2  UNL     1       2.705  54.219 -10.078  1.00  0.00    -0.044 C 
HETATM    3  C3  UNL     1       1.544  54.661  -9.541  1.00  0.00     0.019 C 
ENDROOT
BRANCH   3   4
HETATM    4  C4  UNL     1       0.200  54.277  -9.978  1.00  0.00    -0.036 A 
HETATM    5  C5  UNL     1      -0.804  55.246 -10.074  1.00  0.00     0.012 A 
HETATM    6  C6  UNL     1      -2.091  54.889 -10.488  1.00  0.00     0.019 A 
HETATM    7  C7  UNL     1      -2.382  53.557 -10.807  1.00  0.00     0.037 A 
HETATM    8  C9  UNL     1      -1.377  52.586 -10.708  1.00  0.00     0.019 A 
HETATM    9  C10 UNL     1      -0.091  52.945 -10.294  1.00  0.00     0.012 A 
BRANCH   7  10
HETATM   10  C8  UNL     1      -3.731  53.130 -11.252  1.00  0.00     0.176 C 
HETATM   11  O1  UNL     1      -4.467  52.362 -10.660  1.00  0.00    -0.646 OA
BRANCH  10  12
HETATM   12  O2  UNL     1      -4.096  53.686 -12.421  1.00  0.00    -0.773 OA
HETATM   13  H7  UNL     1      -4.990  53.319 -12.584  1.00  0.00     0.167 HD
ENDBRANCH  10  12
ENDBRANCH   7  10
ENDBRANCH   3   4
BRANCH   2  14
HETATM   14  C11 UNL     1       3.917  54.713  -9.469  1.00  0.00     0.011 A 
HETATM   15  C12 UNL     1       5.242  54.468  -9.794  1.00  0.00     0.020 A 
HETATM   16  C13 UNL     1       6.165  55.148  -8.948  1.00  0.00     0.016 A 
HETATM   17  C14 UNL     1       5.533  55.903  -7.981  1.00  0.00    -0.013 A 
HETATM   18  S1  UNL     1       3.831  55.772  -8.111  1.00  0.00    -0.094 SA
BRANCH  17  19
HETATM   19  C15 UNL     1       6.143  56.764  -6.900  1.00  0.00     0.017 C 
HETATM   20  C16 UNL     1       7.285  56.029  -6.194  1.00  0.00     0.015 C 
HETATM   21  C17 UNL     1       5.082  57.211  -5.893  1.00  0.00     0.015 C 
ENDBRANCH  17  19
ENDBRANCH   2  14
TORSDOF 5
ENDMDL
