MODEL 1
REMARK minimizedAffinity -7.1496439
REMARK CNNscore 0.556224883
REMARK CNNaffinity 6.80848169
REMARK  16 active torsions:
REMARK  status: ('A' for Active; 'I' for Inactive)
REMARK    1  A    between atoms: C2_2  and  C3_3 
REMARK    2  A    between atoms: C2_2  and  C4_5 
REMARK    3  A    between atoms: C12_13  and  O2_14 
REMARK    4  A    between atoms: O2_14  and  C13_15 
REMARK    5  A    between atoms: C13_15  and  C14_17 
REMARK    6  A    between atoms: C14_17  and  C16_19 
REMARK    7  A    between atoms: C16_19  and  O4_20 
REMARK    8  A    between atoms: C16_19  and  C17_21 
REMARK    9  A    between atoms: C19_23  and  C20_24 
REMARK   10  A    between atoms: C20_24  and  C21_25 
REMARK   11  A    between atoms: C20_24  and  C22_27 
REMARK   12  A    between atoms: C21_25  and  O5_26 
REMARK   13  A    between atoms: C22_27  and  C23_28 
REMARK   14  A    between atoms: C23_28  and  C24_29 
REMARK   15  A    between atoms: C24_29  and  C25_30 
REMARK   16  A    between atoms: C25_30  and  C26_31 
ROOT
HETATM    1  C13 UNL     1      -4.452  48.347 -27.253  1.00  0.00     0.266 C 
HETATM    2  O3  UNL     1      -3.423  48.092 -27.864  1.00  0.00    -0.265 OA
ENDROOT
BRANCH   1   3
HETATM    3  O2  UNL     1      -5.673  48.526 -27.830  1.00  0.00    -0.312 OA
BRANCH   3   4
HETATM    4  C12 UNL     1      -5.913  47.774 -29.037  1.00  0.00     0.170 C 
HETATM    5  C11 UNL     1      -5.324  48.547 -30.213  1.00  0.00     0.036 C 
HETATM    6  C10 UNL     1      -5.711  47.983 -31.579  1.00  0.00     0.007 C 
HETATM    7  C8  UNL     1      -7.079  47.265 -31.628  1.00  0.00    -0.007 C 
HETATM    8  C6  UNL     1      -8.074  47.783 -30.540  1.00  0.00    -0.003 C 
HETATM    9  C9  UNL     1      -7.616  47.300 -33.062  1.00  0.00     0.011 C 
HETATM   10  C5  UNL     1      -9.413  46.977 -30.585  1.00  0.00     0.030 C 
HETATM   11  C7  UNL     1      -8.411  49.281 -30.737  1.00  0.00     0.019 C 
HETATM   12  C28 UNL     1      -7.413  47.547 -29.173  1.00  0.00     0.129 A 
HETATM   13  C4  UNL     1     -10.415  47.371 -29.473  1.00  0.00     0.094 C 
HETATM   14  C30 UNL     1      -9.789  47.526 -28.085  1.00  0.00     0.167 C 
HETATM   15  C29 UNL     1      -8.317  47.424 -27.957  1.00  0.00     0.230 A 
HETATM   16  O7  UNL     1     -10.453  47.803 -27.090  1.00  0.00    -0.294 OA
HETATM   17  O6  UNL     1      -7.761  46.267 -28.579  1.00  0.00    -0.358 OA
BRANCH  13  18
HETATM   18  C2  UNL     1     -11.625  46.465 -29.362  1.00  0.00    -0.018 C 
HETATM   19  C1  UNL     1     -12.918  46.830 -29.399  1.00  0.00     0.022 C 
BRANCH  18  20
HETATM   20  C3  UNL     1     -11.339  45.007 -29.173  1.00  0.00     0.265 C 
HETATM   21  O1  UNL     1     -12.188  44.132 -29.296  1.00  0.00    -0.302 OA
ENDBRANCH  18  20
ENDBRANCH  13  18
ENDBRANCH   3   4
ENDBRANCH   1   3
BRANCH   1  22
HETATM   22  C14 UNL     1      -4.530  48.436 -25.742  1.00  0.00     0.114 C 
HETATM   23  C15 UNL     1      -5.913  47.967 -25.290  1.00  0.00     0.023 C 
BRANCH  22  24
HETATM   24  C16 UNL     1      -4.180  49.857 -25.272  1.00  0.00     0.159 C 
BRANCH  24  25
HETATM   25  O4  UNL     1      -3.808  50.650 -26.400  1.00  0.00    -0.390 OA
HETATM   26  H24 UNL     1      -3.446  51.485 -26.056  1.00  0.00     0.210 HD
ENDBRANCH  24  25
BRANCH  24  27
HETATM   27  C17 UNL     1      -3.034  49.933 -24.269  1.00  0.00    -0.058 C 
HETATM   28  C18 UNL     1      -2.666  48.636 -23.592  1.00  0.00     0.046 C 
HETATM   29  C19 UNL     1      -2.390  51.101 -24.062  1.00  0.00    -0.015 C 
BRANCH  29  30
HETATM   30  C20 UNL     1      -1.218  51.356 -23.128  1.00  0.00     0.032 C 
BRANCH  30  31
HETATM   31  C21 UNL     1      -1.700  51.676 -21.698  1.00  0.00     0.172 C 
BRANCH  31  32
HETATM   32  O5  UNL     1      -1.042  50.851 -20.740  1.00  0.00    -0.400 OA
HETATM   33  H32 UNL     1      -1.115  49.929 -21.038  1.00  0.00     0.209 HD
ENDBRANCH  31  32
ENDBRANCH  30  31
BRANCH  30  34
HETATM   34  C22 UNL     1      -0.259  52.439 -23.671  1.00  0.00     0.010 C 
BRANCH  34  35
HETATM   35  C23 UNL     1       0.811  52.020 -24.693  1.00  0.00     0.001 C 
BRANCH  35  36
HETATM   36  C24 UNL     1       0.299  51.118 -25.819  1.00  0.00     0.000 C 
BRANCH  36  37
HETATM   37  C25 UNL     1       0.060  51.863 -27.138  1.00  0.00    -0.000 C 
BRANCH  37  38
HETATM   38  C26 UNL     1       1.202  51.770 -28.153  1.00  0.00    -0.005 C 
HETATM   39  C27 UNL     1       2.591  51.727 -27.542  1.00  0.00     0.005 C 
ENDBRANCH  37  38
ENDBRANCH  36  37
ENDBRANCH  35  36
ENDBRANCH  34  35
ENDBRANCH  30  34
ENDBRANCH  29  30
ENDBRANCH  24  27
ENDBRANCH  22  24
ENDBRANCH   1  22
TORSDOF 16
ENDMDL
