MODEL 1
REMARK minimizedAffinity -9.19239235
REMARK  6 active torsions:
REMARK  status: ('A' for Active; 'I' for Inactive)
REMARK    1  A    between atoms: C2_2  and  C30_31 
REMARK    2  A    between atoms: C3_3  and  C4_4 
REMARK    3  A    between atoms: C4_4  and  C5_5 
REMARK    4  A    between atoms: C5_5  and  C6_6 
REMARK    5  A    between atoms: C6_6  and  C8_8 
REMARK    6  A    between atoms: C30_31  and  O3_33 
ROOT
HETATM    1  C8  UNL     1      -2.831  49.710 -23.556  1.00  0.00    -0.002 C 
HETATM    2  C9  UNL     1      -3.979  50.649 -23.101  1.00  0.00     0.007 C 
HETATM    3  C10 UNL     1      -3.981  50.640 -21.571  1.00  0.00     0.015 C 
HETATM    4  C11 UNL     1      -3.476  49.230 -21.186  1.00  0.00    -0.013 C 
HETATM    5  C12 UNL     1      -4.660  48.250 -21.421  1.00  0.00     0.021 C 
HETATM    6  C13 UNL     1      -2.947  49.138 -19.732  1.00  0.00    -0.070 C 
HETATM    7  C14 UNL     1      -3.384  48.240 -18.828  1.00  0.00    -0.022 C 
HETATM    8  C15 UNL     1      -2.804  48.026 -17.466  1.00  0.00     0.034 C 
HETATM    9  C16 UNL     1      -1.430  48.699 -17.208  1.00  0.00     0.013 C 
HETATM   10  C17 UNL     1      -1.035  48.676 -15.683  1.00  0.00     0.018 C 
HETATM   11  C18 UNL     1       0.492  48.492 -15.522  1.00  0.00     0.023 C 
HETATM   12  C19 UNL     1      -1.683  47.519 -14.889  1.00  0.00     0.023 C 
HETATM   13  C20 UNL     1      -1.454  49.982 -14.994  1.00  0.00     0.135 C 
HETATM   14  O1  UNL     1      -0.967  50.326 -13.912  1.00  0.00    -0.297 OA
HETATM   15  C21 UNL     1      -2.582  50.786 -15.602  1.00  0.00     0.080 C 
HETATM   16  C22 UNL     1      -2.483  51.000 -17.112  1.00  0.00     0.017 C 
HETATM   17  C23 UNL     1      -1.419  50.127 -17.842  1.00  0.00    -0.031 C 
HETATM   18  C24 UNL     1      -0.058  50.851 -17.691  1.00  0.00     0.016 C 
HETATM   19  C25 UNL     1      -1.777  50.052 -19.384  1.00  0.00     0.024 C 
HETATM   20  C26 UNL     1      -0.626  49.625 -20.313  1.00  0.00     0.010 C 
HETATM   21  C27 UNL     1      -1.028  49.811 -21.780  1.00  0.00     0.011 C 
HETATM   22  C28 UNL     1      -2.310  49.012 -22.232  1.00  0.00    -0.029 C 
HETATM   23  C29 UNL     1      -1.876  47.544 -22.343  1.00  0.00     0.016 C 
ENDROOT
BRANCH   1  24
HETATM   24  C6  UNL     1      -3.101  48.994 -24.922  1.00  0.00    -0.014 C 
HETATM   25  C7  UNL     1      -4.546  48.509 -25.084  1.00  0.00     0.010 C 
BRANCH  24  26
HETATM   26  C5  UNL     1      -2.512  49.554 -26.243  1.00  0.00     0.008 C 
BRANCH  26  27
HETATM   27  C4  UNL     1      -1.129  50.207 -26.205  1.00  0.00     0.028 C 
BRANCH  27  28
HETATM   28  C3  UNL     1      -1.212  51.665 -26.577  1.00  0.00    -0.013 C 
HETATM   29  C2  UNL     1      -0.431  52.337 -27.446  1.00  0.00     0.008 C 
HETATM   30  C1  UNL     1       0.741  51.775 -28.192  1.00  0.00     0.055 C 
BRANCH  29  31
HETATM   31  C30 UNL     1      -0.766  53.770 -27.662  1.00  0.00     0.171 C 
HETATM   32  O2  UNL     1      -0.130  54.736 -27.277  1.00  0.00    -0.646 OA
BRANCH  31  33
HETATM   33  O3  UNL     1      -1.911  53.927 -28.351  1.00  0.00    -0.773 OA
HETATM   34  H46 UNL     1      -2.006  54.900 -28.409  1.00  0.00     0.167 HD
ENDBRANCH  31  33
ENDBRANCH  29  31
ENDBRANCH  27  28
ENDBRANCH  26  27
ENDBRANCH  24  26
ENDBRANCH   1  24
TORSDOF 6
ENDMDL
