MODEL 1
REMARK minimizedAffinity -8.08796406
REMARK CNNscore 0.597242057
REMARK CNNaffinity 7.1662426
REMARK  19 active torsions:
REMARK  status: ('A' for Active; 'I' for Inactive)
REMARK    1  A    between atoms: C3_3  and  C4_4 
REMARK    2  A    between atoms: C5_5  and  C6_6 
REMARK    3  A    between atoms: C7_8  and  O2_9 
REMARK    4  A    between atoms: C7_8  and  C8_10 
REMARK    5  A    between atoms: C8_10  and  C10_12 
REMARK       I    between atoms: C10_12  and  N1_14 
REMARK    6  A    between atoms: N1_14  and  C11_15 
REMARK    7  A    between atoms: C11_15  and  C12_16 
REMARK    8  A    between atoms: C13_17  and  C14_18 
REMARK    9  A    between atoms: C15_19  and  C17_21 
REMARK   10  A    between atoms: C17_21  and  O4_22 
REMARK   11  A    between atoms: C17_21  and  C19_24 
REMARK   12  A    between atoms: C19_24  and  C21_26 
REMARK   13  A    between atoms: C23_28  and  O5_29 
REMARK   14  A    between atoms: C24_30  and  C25_31 
REMARK   15  A    between atoms: C26_32  and  C27_33 
REMARK   16  A    between atoms: C28_34  and  C29_35 
REMARK   17  A    between atoms: C30_36  and  C31_37 
REMARK   18  A    between atoms: C31_37  and  O7_39 
REMARK   19  A    between atoms: C33_42  and  O9_43 
ROOT
HETATM    1  C12 UNL     1     -11.614   9.751  19.258  1.00  0.00    -0.007 C 
HETATM    2  C13 UNL     1     -10.910  10.002  18.143  1.00  0.00    -0.002 C 
ENDROOT
BRANCH   2   3
HETATM    3  C14 UNL     1     -11.183   9.353  16.882  1.00  0.00     0.005 C 
HETATM    4  C15 UNL     1     -10.633   9.636  15.684  1.00  0.00    -0.055 C 
HETATM    5  C16 UNL     1      -9.684  10.784  15.427  1.00  0.00     0.046 C 
BRANCH   4   6
HETATM    6  C17 UNL     1     -10.873   8.753  14.453  1.00  0.00     0.155 C 
BRANCH   6   7
HETATM    7  O4  UNL     1     -11.319   9.548  13.334  1.00  0.00    -0.386 OA
HETATM    8  C18 UNL     1     -12.625  10.080  13.529  1.00  0.00     0.202 C 
ENDBRANCH   6   7
BRANCH   6   9
HETATM    9  C19 UNL     1      -9.618   7.950  13.999  1.00  0.00     0.044 C 
HETATM   10  C20 UNL     1      -9.986   6.563  13.455  1.00  0.00     0.015 C 
BRANCH   9  11
HETATM   11  C21 UNL     1      -8.627   7.835  15.177  1.00  0.00     0.131 C 
HETATM   12  C22 UNL     1      -8.890   6.687  16.161  1.00  0.00     0.067 C 
HETATM   13  C23 UNL     1      -7.578   5.931  16.245  1.00  0.00     0.153 C 
HETATM   14  C24 UNL     1      -6.564   6.923  15.668  1.00  0.00     0.173 C 
HETATM   15  O8  UNL     1      -7.292   7.649  14.670  1.00  0.00    -0.374 OA
BRANCH  13  16
HETATM   16  O5  UNL     1      -7.720   4.740  15.463  1.00  0.00    -0.393 OA
HETATM   17  H35 UNL     1      -6.873   4.263  15.523  1.00  0.00     0.210 HD
ENDBRANCH  13  16
BRANCH  14  18
HETATM   18  C25 UNL     1      -5.356   6.321  15.013  1.00  0.00     0.007 C 
HETATM   19  C26 UNL     1      -5.394   5.525  13.932  1.00  0.00    -0.001 C 
BRANCH  19  20
HETATM   20  C27 UNL     1      -4.207   4.929  13.358  1.00  0.00    -0.000 C 
HETATM   21  C28 UNL     1      -3.259   5.645  12.732  1.00  0.00     0.000 C 
BRANCH  21  22
HETATM   22  C29 UNL     1      -2.084   5.036  12.147  1.00  0.00     0.007 C 
HETATM   23  C30 UNL     1      -2.032   3.980  11.321  1.00  0.00     0.081 C 
BRANCH  23  24
HETATM   24  C31 UNL     1      -3.169   3.194  10.821  1.00  0.00     0.165 C 
HETATM   25  O6  UNL     1      -3.837   2.366  11.406  1.00  0.00    -0.647 OA
BRANCH  24  26
HETATM   26  O7  UNL     1      -3.412   3.520   9.540  1.00  0.00    -0.773 OA
HETATM   27  H43 UNL     1      -4.169   2.949   9.295  1.00  0.00     0.167 HD
ENDBRANCH  24  26
ENDBRANCH  23  24
ENDBRANCH  21  22
ENDBRANCH  19  20
ENDBRANCH  14  18
ENDBRANCH   9  11
ENDBRANCH   6   9
ENDBRANCH   4   6
ENDBRANCH   2   3
BRANCH   1  28
HETATM   28  C11 UNL     1     -11.252  10.298  20.604  1.00  0.00     0.149 C 
BRANCH  28  29
HETATM   29  N1  UNL     1     -11.381   9.255  21.587  1.00  0.00    -0.357 N 
HETATM   30  C10 UNL     1     -11.564   9.519  22.921  1.00  0.00     0.227 C 
HETATM   31  O3  UNL     1     -11.591  10.659  23.377  1.00  0.00    -0.273 OA
HETATM   32  H14 UNL     1     -11.590   8.308  21.274  1.00  0.00     0.162 HD
BRANCH  30  33
HETATM   33  C8  UNL     1     -11.688   8.274  23.794  1.00  0.00     0.136 C 
HETATM   34  C9  UNL     1     -11.448   8.641  25.263  1.00  0.00     0.026 C 
BRANCH  33  35
HETATM   35  C7  UNL     1     -13.012   7.506  23.538  1.00  0.00     0.176 C 
HETATM   36  O1  UNL     1     -12.837   6.212  24.133  1.00  0.00    -0.344 OA
HETATM   37  C6  UNL     1     -14.056   5.502  24.343  1.00  0.00     0.158 C 
HETATM   38  C34 UNL     1     -14.846   6.156  25.517  1.00  0.00     0.008 C 
HETATM   39  C33 UNL     1     -14.665   7.704  25.455  1.00  0.00     0.134 C 
HETATM   40  C35 UNL     1     -16.328   5.735  25.417  1.00  0.00     0.020 C 
HETATM   41  C36 UNL     1     -14.327   5.697  26.901  1.00  0.00     0.020 C 
HETATM   42  C32 UNL     1     -14.282   8.202  24.064  1.00  0.00     0.101 C 
BRANCH  37  43
HETATM   43  C5  UNL     1     -13.668   4.061  24.539  1.00  0.00     0.006 C 
HETATM   44  C4  UNL     1     -12.476   3.537  24.210  1.00  0.00    -0.002 C 
BRANCH  44  45
HETATM   45  C3  UNL     1     -12.144   2.154  24.457  1.00  0.00    -0.005 C 
HETATM   46  C2  UNL     1     -12.153   1.529  25.644  1.00  0.00    -0.031 C 
HETATM   47  C1  UNL     1     -12.479   2.086  26.990  1.00  0.00     0.036 C 
ENDBRANCH  44  45
ENDBRANCH  37  43
BRANCH  39  48
HETATM   48  O9  UNL     1     -15.845   8.396  25.866  1.00  0.00    -0.395 OA
HETATM   49  H47 UNL     1     -15.968   8.233  26.818  1.00  0.00     0.210 HD
ENDBRANCH  39  48
BRANCH  35  50
HETATM   50  O2  UNL     1     -13.108   7.311  22.118  1.00  0.00    -0.364 OA
HETATM   51  H9  UNL     1     -14.027   7.067  21.917  1.00  0.00     0.213 HD
ENDBRANCH  35  50
ENDBRANCH  33  35
ENDBRANCH  30  33
ENDBRANCH  28  29
ENDBRANCH   1  28
TORSDOF 19
ENDMDL
