MODEL 1
REMARK minimizedAffinity -9.27623463
REMARK  9 active torsions:
REMARK  status: ('A' for Active; 'I' for Inactive)
REMARK    1  A    between atoms: C3_3  and  O1_4 
REMARK    2  A    between atoms: N1_14  and  O2_16 
REMARK    3  A    between atoms: O2_16  and  C13_17 
REMARK    4  A    between atoms: C13_17  and  C14_18 
REMARK       I    between atoms: C14_18  and  N2_20 
REMARK    5  A    between atoms: N2_20  and  C15_21 
REMARK    6  A    between atoms: C15_21  and  C16_22 
REMARK    7  A    between atoms: C15_21  and  C17_25 
REMARK    8  A    between atoms: C16_22  and  O5_24 
REMARK    9  A    between atoms: C17_25  and  C19_27 
ROOT
HETATM    1  C1  UNL     1      -7.929   5.180  15.895  1.00  0.00     0.015 C 
HETATM    2  C2  UNL     1      -7.247   5.818  15.140  1.00  0.00    -0.078 C 
HETATM    3  C3  UNL     1      -6.424   6.597  14.203  1.00  0.00     0.128 C 
HETATM    4  C4  UNL     1      -6.466   8.116  14.499  1.00  0.00     0.052 C 
HETATM    5  C5  UNL     1      -5.075   8.671  14.124  1.00  0.00     0.010 C 
HETATM    6  C6  UNL     1      -4.353   7.493  13.473  1.00  0.00     0.002 C 
HETATM    7  C7  UNL     1      -2.821   7.520  13.393  1.00  0.00    -0.004 C 
HETATM    8  C8  UNL     1      -2.322   8.765  12.649  1.00  0.00     0.010 C 
HETATM    9  C9  UNL     1      -0.802   8.771  12.544  1.00  0.00     0.035 C 
HETATM   10  C10 UNL     1      -0.270   7.508  11.906  1.00  0.00    -0.069 C 
HETATM   11  C11 UNL     1       0.608   7.598  10.892  1.00  0.00     0.030 C 
HETATM   12  C12 UNL     1       1.261   6.400  10.307  1.00  0.00     0.032 C 
HETATM   13  N1  UNL     1       2.063   6.576   9.296  1.00  0.00    -0.271 N 
ATOM     14  H1  UNL     1       2.241   7.480   8.858  1.00  0.00     0.194 HD
HETATM   15  C21 UNL     1       0.998   5.065  10.970  1.00  0.00     0.060 C 
HETATM   16  C22 UNL     1      -0.419   5.013  11.521  1.00  0.00     0.020 C 
HETATM   17  C23 UNL     1      -0.765   6.180  12.491  1.00  0.00    -0.016 C 
HETATM   18  C24 UNL     1      -0.041   5.945  13.836  1.00  0.00     0.020 C 
HETATM   19  C25 UNL     1      -2.332   6.230  12.664  1.00  0.00     0.002 C 
HETATM   20  C26 UNL     1      -2.937   4.946  13.292  1.00  0.00     0.007 C 
HETATM   21  C27 UNL     1      -4.466   5.009  13.463  1.00  0.00     0.014 C 
HETATM   22  C28 UNL     1      -4.904   6.266  14.237  1.00  0.00     0.003 C 
HETATM   23  C29 UNL     1      -4.389   6.177  15.703  1.00  0.00     0.020 C 
ENDROOT
BRANCH   3  24
HETATM   24  O1  UNL     1      -6.941   6.395  12.885  1.00  0.00    -0.377 OA
HETATM   25  H2  UNL     1      -7.904   6.519  12.938  1.00  0.00     0.211 HD
ENDBRANCH   3  24
BRANCH  13  26
HETATM   26  O2  UNL     1       2.651   5.374   8.882  1.00  0.00    -0.271 OA
BRANCH  26  27
HETATM   27  C13 UNL     1       3.775   5.101   9.714  1.00  0.00     0.303 C 
BRANCH  27  28
HETATM   28  C14 UNL     1       4.372   6.391  10.275  1.00  0.00     0.244 C 
HETATM   29  O3  UNL     1       4.456   7.411   9.597  1.00  0.00    -0.271 OA
HETATM   30  N2  UNL     1       4.789   6.302  11.588  1.00  0.00    -0.344 N 
HETATM   31  H16 UNL     1       4.508   5.459  12.075  1.00  0.00     0.163 HD
BRANCH  30  32
HETATM   32  C15 UNL     1       5.238   7.440  12.395  1.00  0.00     0.186 C 
BRANCH  32  33
HETATM   33  C16 UNL     1       4.036   8.382  12.601  1.00  0.00     0.163 C 
HETATM   34  O4  UNL     1       3.863   9.499  12.143  1.00  0.00    -0.648 OA
BRANCH  33  35
HETATM   35  O5  UNL     1       3.064   7.822  13.358  1.00  0.00    -0.775 OA
HETATM   36  H18 UNL     1       2.380   8.524  13.400  1.00  0.00     0.167 HD
ENDBRANCH  33  35
ENDBRANCH  32  33
BRANCH  32  37
HETATM   37  C17 UNL     1       6.539   8.132  11.905  1.00  0.00     0.014 C 
HETATM   38  C18 UNL     1       6.245   9.392  11.073  1.00  0.00     0.012 C 
BRANCH  37  39
HETATM   39  C19 UNL     1       7.468   8.554  13.072  1.00  0.00     0.002 C 
HETATM   40  C20 UNL     1       7.538   7.579  14.238  1.00  0.00     0.005 C 
ENDBRANCH  37  39
ENDBRANCH  32  37
ENDBRANCH  30  32
ENDBRANCH  27  28
ENDBRANCH  26  27
ENDBRANCH  13  26
TORSDOF 9
ENDMDL
