MODEL 1
REMARK minimizedAffinity -8.58848381
REMARK CNNscore 0.529626131
REMARK CNNaffinity 7.53373718
REMARK  8 active torsions:
REMARK  status: ('A' for Active; 'I' for Inactive)
REMARK    1  A    between atoms: C3_3  and  O1_4 
REMARK    2  A    between atoms: N1_14  and  O2_16 
REMARK    3  A    between atoms: O2_16  and  C13_17 
REMARK    4  A    between atoms: C13_17  and  C14_18 
REMARK       I    between atoms: C14_18  and  N2_20 
REMARK    5  A    between atoms: N2_20  and  C15_21 
REMARK    6  A    between atoms: C15_21  and  C16_22 
REMARK    7  A    between atoms: C16_22  and  O4_23 
REMARK    8  A    between atoms: C16_22  and  C17_24 
ROOT
HETATM    1  C1  UNL     1      -4.633  48.309  -8.770  1.00  0.00     0.015 C 
HETATM    2  C2  UNL     1      -4.307  48.968  -9.720  1.00  0.00    -0.078 C 
HETATM    3  C3  UNL     1      -3.933  49.767 -10.901  1.00  0.00     0.128 C 
HETATM    4  C4  UNL     1      -4.383  51.225 -10.748  1.00  0.00     0.052 C 
HETATM    5  C5  UNL     1      -3.531  51.956 -11.773  1.00  0.00     0.010 C 
HETATM    6  C6  UNL     1      -2.137  51.365 -11.537  1.00  0.00     0.002 C 
HETATM    7  C7  UNL     1      -1.155  51.673 -12.688  1.00  0.00    -0.004 C 
HETATM    8  C8  UNL     1       0.299  51.640 -12.212  1.00  0.00     0.010 C 
HETATM    9  C9  UNL     1       1.247  52.191 -13.276  1.00  0.00     0.035 C 
HETATM   10  C10 UNL     1       0.861  51.839 -14.695  1.00  0.00    -0.069 C 
HETATM   11  C11 UNL     1       1.367  52.568 -15.706  1.00  0.00     0.030 C 
HETATM   12  C12 UNL     1       1.143  52.195 -17.126  1.00  0.00     0.032 C 
HETATM   13  N1  UNL     1       1.529  53.036 -18.043  1.00  0.00    -0.271 N 
ATOM     14  H1  UNL     1       1.922  53.956 -17.844  1.00  0.00     0.194 HD
HETATM   15  C23 UNL     1       0.529  50.838 -17.394  1.00  0.00     0.060 C 
HETATM   16  C24 UNL     1      -0.569  50.573 -16.371  1.00  0.00     0.020 C 
HETATM   17  C25 UNL     1      -0.081  50.650 -14.889  1.00  0.00    -0.016 C 
HETATM   18  C26 UNL     1       0.730  49.365 -14.590  1.00  0.00     0.020 C 
HETATM   19  C27 UNL     1      -1.370  50.829 -13.977  1.00  0.00     0.002 C 
HETATM   20  C28 UNL     1      -2.153  49.522 -13.734  1.00  0.00     0.007 C 
HETATM   21  C29 UNL     1      -1.924  48.929 -12.346  1.00  0.00     0.014 C 
HETATM   22  C30 UNL     1      -2.378  49.856 -11.194  1.00  0.00     0.003 C 
HETATM   23  C31 UNL     1      -1.531  49.507  -9.945  1.00  0.00     0.020 C 
ENDROOT
BRANCH   3  24
HETATM   24  O1  UNL     1      -4.641  49.228 -12.018  1.00  0.00    -0.377 OA
HETATM   25  H2  UNL     1      -5.569  49.129 -11.744  1.00  0.00     0.211 HD
ENDBRANCH   3  24
BRANCH  13  26
HETATM   26  O2  UNL     1       1.339  52.528 -19.335  1.00  0.00    -0.271 OA
BRANCH  26  27
HETATM   27  C13 UNL     1       0.209  53.166 -19.920  1.00  0.00     0.303 C 
BRANCH  27  28
HETATM   28  C14 UNL     1      -0.713  52.120 -20.520  1.00  0.00     0.243 C 
HETATM   29  O3  UNL     1      -1.769  51.775 -19.994  1.00  0.00    -0.271 OA
HETATM   30  N2  UNL     1      -0.294  51.610 -21.729  1.00  0.00    -0.356 N 
HETATM   31  H16 UNL     1       0.607  51.922 -22.082  1.00  0.00     0.162 HD
BRANCH  30  32
HETATM   32  C15 UNL     1      -1.120  50.742 -22.559  1.00  0.00     0.159 C 
BRANCH  32  33
HETATM   33  C16 UNL     1      -1.710  51.431 -23.814  1.00  0.00     0.170 C 
BRANCH  33  34
HETATM   34  O4  UNL     1      -2.164  52.755 -23.523  1.00  0.00    -0.389 OA
HETATM   35  H20 UNL     1      -2.577  52.733 -22.631  1.00  0.00     0.210 HD
ENDBRANCH  33  34
BRANCH  33  36
HETATM   36  C17 UNL     1      -0.665  51.512 -24.902  1.00  0.00    -0.013 A 
HETATM   37  C18 UNL     1      -0.648  50.638 -25.991  1.00  0.00     0.013 A 
HETATM   38  C19 UNL     1       0.310  50.790 -26.991  1.00  0.00     0.025 A 
HETATM   39  C20 UNL     1       1.229  51.829 -26.886  1.00  0.00     0.005 A 
HETATM   40  C21 UNL     1       2.278  52.010 -27.944  1.00  0.00     0.068 C 
HETATM   41  N3  UNL     1       1.237  52.693 -25.844  1.00  0.00    -0.369 N 
HETATM   42  C22 UNL     1       0.303  52.512 -24.881  1.00  0.00     0.097 A 
ATOM     43  H3  UNL     1       1.919  53.449 -25.786  1.00  0.00     0.165 HD
ENDBRANCH  33  36
ENDBRANCH  32  33
ENDBRANCH  30  32
ENDBRANCH  27  28
ENDBRANCH  26  27
ENDBRANCH  13  26
TORSDOF 8
ENDMDL
