MODEL 1
REMARK minimizedAffinity -10.0203609
REMARK CNNscore 0.493862033
REMARK CNNaffinity 7.31100988
REMARK  7 active torsions:
REMARK  status: ('A' for Active; 'I' for Inactive)
REMARK    1  A    between atoms: C4_4  and  C5_5 
REMARK    2  A    between atoms: C5_5  and  C6_6 
REMARK    3  A    between atoms: C6_6  and  C7_7 
REMARK    4  A    between atoms: C7_7  and  C9_9 
REMARK    5  A    between atoms: C18_18  and  O1_19 
REMARK    6  A    between atoms: O1_19  and  C19_20 
REMARK    7  A    between atoms: C19_20  and  C20_22 
ROOT
HETATM    1  C9  UNL     1       1.995   6.967  12.350  1.00  0.00    -0.002 C 
HETATM    2  C10 UNL     1       1.947   8.491  12.062  1.00  0.00     0.006 C 
HETATM    3  C11 UNL     1       0.501   8.957  12.280  1.00  0.00     0.010 C 
HETATM    4  C12 UNL     1      -0.206   7.735  12.856  1.00  0.00     0.023 C 
HETATM    5  C13 UNL     1      -1.710   7.642  12.823  1.00  0.00    -0.070 C 
HETATM    6  C14 UNL     1      -2.534   8.690  12.664  1.00  0.00     0.004 C 
HETATM    7  C15 UNL     1      -3.964   8.557  12.782  1.00  0.00     0.004 C 
HETATM    8  C16 UNL     1      -4.534   7.453  13.297  1.00  0.00    -0.069 C 
HETATM    9  C17 UNL     1      -5.963   7.474  13.778  1.00  0.00     0.067 C 
HETATM   10  C18 UNL     1      -5.990   7.345  15.310  1.00  0.00     0.136 C 
HETATM   11  C26 UNL     1      -5.131   6.172  15.811  1.00  0.00     0.034 C 
HETATM   12  C27 UNL     1      -3.721   6.134  15.196  1.00  0.00     0.017 C 
HETATM   13  C28 UNL     1      -3.727   6.197  13.647  1.00  0.00    -0.013 C 
HETATM   14  C29 UNL     1      -4.416   4.928  13.078  1.00  0.00     0.021 C 
HETATM   15  C30 UNL     1      -2.281   6.241  13.009  1.00  0.00     0.027 C 
HETATM   16  C31 UNL     1      -1.240   5.331  13.696  1.00  0.00     0.011 C 
HETATM   17  C32 UNL     1       0.099   5.238  12.927  1.00  0.00     0.011 C 
HETATM   18  C33 UNL     1       0.499   6.533  12.172  1.00  0.00    -0.033 C 
HETATM   19  C34 UNL     1       0.144   6.404  10.667  1.00  0.00     0.016 C 
ENDROOT
BRANCH  10  20
HETATM   20  O1  UNL     1      -7.365   7.134  15.692  1.00  0.00    -0.312 OA
BRANCH  20  21
HETATM   21  C19 UNL     1      -8.104   6.334  14.883  1.00  0.00     0.293 C 
HETATM   22  O2  UNL     1      -7.854   5.175  14.594  1.00  0.00    -0.259 OA
BRANCH  21  23
HETATM   23  C20 UNL     1      -9.285   7.074  14.364  1.00  0.00     0.039 A 
HETATM   24  C21 UNL     1      -9.639   8.280  14.987  1.00  0.00     0.017 A 
HETATM   25  C22 UNL     1     -10.742   9.009  14.536  1.00  0.00     0.001 A 
HETATM   26  C23 UNL     1     -11.495   8.540  13.459  1.00  0.00     0.000 A 
HETATM   27  C24 UNL     1     -11.149   7.342  12.832  1.00  0.00     0.001 A 
HETATM   28  C25 UNL     1     -10.047   6.610  13.282  1.00  0.00     0.017 A 
ENDBRANCH  21  23
ENDBRANCH  20  21
ENDBRANCH  10  20
BRANCH   1  29
HETATM   29  C7  UNL     1       3.094   6.224  11.533  1.00  0.00    -0.014 C 
HETATM   30  C8  UNL     1       4.196   7.184  11.057  1.00  0.00     0.010 C 
BRANCH  29  31
HETATM   31  C6  UNL     1       2.532   5.505  10.272  1.00  0.00     0.008 C 
BRANCH  31  32
HETATM   32  C5  UNL     1       3.428   5.587   9.027  1.00  0.00     0.028 C 
BRANCH  32  33
HETATM   33  C4  UNL     1       2.619   5.958   7.812  1.00  0.00    -0.025 C 
HETATM   34  C2  UNL     1       2.256   7.188   7.395  1.00  0.00    -0.091 C 
HETATM   35  C1  UNL     1       1.415   7.358   6.156  1.00  0.00     0.042 C 
HETATM   36  C3  UNL     1       2.613   8.482   8.072  1.00  0.00     0.042 C 
ENDBRANCH  32  33
ENDBRANCH  31  32
ENDBRANCH  29  31
ENDBRANCH   1  29
TORSDOF 7
ENDMDL
