MODEL 1
REMARK minimizedAffinity -6.90821934
REMARK CNNscore 0.557213366
REMARK CNNaffinity 6.82553101
REMARK  10 active torsions:
REMARK  status: ('A' for Active; 'I' for Inactive)
REMARK    1  A    between atoms: C2_2  and  O2_4 
REMARK    2  A    between atoms: O2_4  and  C3_5 
REMARK    3  A    between atoms: C10_12  and  O3_13 
REMARK    4  A    between atoms: O3_13  and  C11_14 
REMARK    5  A    between atoms: C13_17  and  O5_18 
REMARK    6  A    between atoms: C14_19  and  O6_20 
REMARK    7  A    between atoms: C15_21  and  O7_22 
REMARK    8  A    between atoms: C27_35  and  O9_36 
REMARK    9  A    between atoms: C27_35  and  C28_37 
REMARK   10  A    between atoms: C28_37  and  C29_39 
ROOT
HETATM    1  C3  UNL     1       0.522  17.024   8.130  1.00  0.00     0.142 C 
HETATM    2  C4  UNL     1       0.900  16.894   6.649  1.00  0.00     0.044 C 
HETATM    3  C5  UNL     1      -0.191  16.176   5.870  1.00  0.00    -0.025 A 
HETATM    4  C6  UNL     1       0.175  14.738   5.536  1.00  0.00     0.021 A 
HETATM    5  C7  UNL     1       0.027  15.735   4.411  1.00  0.00    -0.027 A 
HETATM    6  C8  UNL     1       1.276  16.227   3.703  1.00  0.00     0.013 C 
HETATM    7  C9  UNL     1       1.597  15.378   2.484  1.00  0.00     0.034 C 
HETATM    8  C10 UNL     1       0.405  15.305   1.528  1.00  0.00     0.133 C 
HETATM    9  C16 UNL     1      -0.876  14.734   2.220  1.00  0.00    -0.017 C 
HETATM   10  C17 UNL     1      -0.705  13.240   2.577  1.00  0.00     0.018 C 
HETATM   11  C18 UNL     1      -2.041  14.819   1.205  1.00  0.00     0.018 C 
HETATM   12  C19 UNL     1      -1.187  15.622   3.478  1.00  0.00     0.005 C 
HETATM   13  C20 UNL     1      -2.453  15.216   4.248  1.00  0.00     0.007 C 
HETATM   14  C21 UNL     1      -2.745  16.227   5.347  1.00  0.00     0.007 C 
HETATM   15  C22 UNL     1      -1.616  16.461   6.382  1.00  0.00     0.004 C 
HETATM   16  C23 UNL     1      -1.720  17.888   7.073  1.00  0.00    -0.027 C 
HETATM   17  C24 UNL     1      -1.595  19.023   6.022  1.00  0.00     0.016 C 
HETATM   18  C25 UNL     1      -3.124  18.012   7.762  1.00  0.00     0.042 C 
HETATM   19  C26 UNL     1      -2.828  18.518   9.158  1.00  0.00     0.131 C 
HETATM   20  O8  UNL     1      -3.863  18.282  10.091  1.00  0.00    -0.343 OA
HETATM   21  C27 UNL     1      -3.586  18.915  11.346  1.00  0.00     0.225 C 
HETATM   22  C32 UNL     1      -2.065  19.066  11.633  1.00  0.00     0.081 C 
HETATM   23  C33 UNL     1      -1.252  17.904  11.033  1.00  0.00    -0.006 C 
HETATM   24  C34 UNL     1       0.199  17.938  11.482  1.00  0.00     0.010 C 
HETATM   25  C35 UNL     1      -1.563  17.729   9.527  1.00  0.00     0.030 C 
HETATM   26  C36 UNL     1      -0.646  18.049   8.295  1.00  0.00    -0.003 C 
HETATM   27  C37 UNL     1      -0.063  19.486   8.388  1.00  0.00     0.019 C 
ENDROOT
BRANCH   8  28
HETATM   28  O3  UNL     1       0.780  14.480   0.415  1.00  0.00    -0.353 OA
BRANCH  28  29
HETATM   29  C11 UNL     1       1.060  15.238  -0.773  1.00  0.00     0.291 C 
HETATM   30  O4  UNL     1       2.411  15.055  -1.219  1.00  0.00    -0.356 OA
HETATM   31  C12 UNL     1       2.559  13.963  -2.117  1.00  0.00     0.205 C 
HETATM   32  C13 UNL     1       1.811  14.211  -3.437  1.00  0.00     0.173 C 
HETATM   33  C14 UNL     1       0.561  15.101  -3.232  1.00  0.00     0.182 C 
HETATM   34  C15 UNL     1      -0.002  14.842  -1.836  1.00  0.00     0.204 C 
BRANCH  32  35
HETATM   35  O5  UNL     1       1.434  12.945  -3.989  1.00  0.00    -0.391 OA
HETATM   36  H18 UNL     1       0.702  12.607  -3.432  1.00  0.00     0.210 HD
ENDBRANCH  32  35
BRANCH  33  37
HETATM   37  O6  UNL     1       0.826  16.499  -3.383  1.00  0.00    -0.390 OA
HETATM   38  H20 UNL     1       1.739  16.618  -3.702  1.00  0.00     0.210 HD
ENDBRANCH  33  37
BRANCH  34  39
HETATM   39  O7  UNL     1      -0.343  13.442  -1.719  1.00  0.00    -0.388 OA
HETATM   40  H22 UNL     1      -0.289  13.260  -0.757  1.00  0.00     0.210 HD
ENDBRANCH  34  39
ENDBRANCH  28  29
ENDBRANCH   8  28
BRANCH   1  41
HETATM   41  O2  UNL     1       1.687  17.461   8.861  1.00  0.00    -0.315 OA
BRANCH  41  42
HETATM   42  C2  UNL     1       2.498  16.484   9.351  1.00  0.00     0.255 C 
HETATM   43  C1  UNL     1       3.876  16.635   8.778  1.00  0.00     0.126 C 
HETATM   44  O1  UNL     1       2.171  15.614  10.147  1.00  0.00    -0.266 OA
ENDBRANCH  41  42
ENDBRANCH   1  41
BRANCH  21  45
HETATM   45  O9  UNL     1      -4.112  20.233  11.271  1.00  0.00    -0.359 OA
HETATM   46  H41 UNL     1      -4.966  20.133  10.817  1.00  0.00     0.213 HD
ENDBRANCH  21  45
BRANCH  21  47
HETATM   47  C28 UNL     1      -4.273  18.082  12.482  1.00  0.00     0.192 C 
HETATM   48  O10 UNL     1      -3.811  17.002  12.870  1.00  0.00    -0.292 OA
BRANCH  47  49
HETATM   49  C29 UNL     1      -5.566  18.644  13.087  1.00  0.00     0.053 C 
HETATM   50  C30 UNL     1      -6.730  18.526  12.110  1.00  0.00     0.017 C 
HETATM   51  C31 UNL     1      -5.911  17.932  14.397  1.00  0.00     0.017 C 
ENDBRANCH  47  49
ENDBRANCH  21  47
TORSDOF 10
ENDMDL
