MODEL 1
REMARK minimizedAffinity -7.30451059
REMARK CNNscore 0.412536561
REMARK CNNaffinity 6.7939229
REMARK  6 active torsions:
REMARK  status: ('A' for Active; 'I' for Inactive)
REMARK    1  A    between atoms: C13_15  and  O3_16 
REMARK    2  A    between atoms: C22_26  and  O5_27 
REMARK    3  A    between atoms: C23_28  and  O6_29 
REMARK    4  A    between atoms: C29_36  and  C30_37 
REMARK    5  A    between atoms: C30_37  and  C32_39 
REMARK    6  A    between atoms: C32_39  and  O8_40 
ROOT
HETATM    1  C1  UNL     1      -3.172  -9.489  10.949  1.00  0.00     0.046 C 
HETATM    2  C2  UNL     1      -4.569  -9.493  10.395  1.00  0.00    -0.056 C 
HETATM    3  C3  UNL     1      -4.795  -9.504   9.067  1.00  0.00    -0.004 C 
HETATM    4  C4  UNL     1      -6.185  -9.386   8.509  1.00  0.00     0.150 C 
HETATM    5  C5  UNL     1      -6.298  -9.794   7.045  1.00  0.00     0.270 C 
HETATM    6  O1  UNL     1      -6.299  -8.950   6.145  1.00  0.00    -0.264 OA
HETATM    7  O2  UNL     1      -6.357 -11.139   6.832  1.00  0.00    -0.315 OA
HETATM    8  C6  UNL     1      -6.651 -11.613   5.487  1.00  0.00     0.139 C 
HETATM    9  C7  UNL     1      -8.089 -11.269   5.104  1.00  0.00     0.065 C 
HETATM   10  C8  UNL     1      -8.317 -11.518   3.623  1.00  0.00     0.131 C 
HETATM   11  C9  UNL     1      -9.781 -11.272   3.177  1.00  0.00     0.059 C 
HETATM   12  C10 UNL     1     -10.338  -9.923   3.574  1.00  0.00    -0.019 C 
HETATM   13  C11 UNL     1     -11.471  -9.660   4.265  1.00  0.00    -0.059 C 
HETATM   14  C12 UNL     1     -12.449 -10.716   4.711  1.00  0.00     0.046 C 
HETATM   15  C13 UNL     1     -11.800  -8.212   4.642  1.00  0.00     0.153 C 
HETATM   16  C14 UNL     1     -11.904  -7.867   6.170  1.00  0.00     0.037 C 
HETATM   17  C15 UNL     1     -13.273  -8.170   6.792  1.00  0.00     0.017 C 
HETATM   18  C16 UNL     1     -10.725  -8.439   6.928  1.00  0.00    -0.020 C 
HETATM   19  C17 UNL     1     -10.746  -9.451   7.812  1.00  0.00    -0.003 C 
HETATM   20  C18 UNL     1      -9.529 -10.039   8.298  1.00  0.00     0.008 C 
HETATM   21  C19 UNL     1      -8.620  -9.429   9.071  1.00  0.00    -0.019 C 
HETATM   22  C20 UNL     1      -8.769  -8.110   9.778  1.00  0.00     0.206 C 
HETATM   23  O4  UNL     1      -7.633  -8.011  10.673  1.00  0.00    -0.375 OA
HETATM   24  C21 UNL     1      -7.138  -9.358  10.840  1.00  0.00     0.194 C 
HETATM   25  C22 UNL     1      -5.699  -9.425  11.410  1.00  0.00     0.179 C 
HETATM   26  C23 UNL     1      -7.270  -9.971   9.444  1.00  0.00     0.128 C 
HETATM   27  O7  UNL     1      -7.438 -10.654   2.898  1.00  0.00    -0.349 OA
HETATM   28  C24 UNL     1      -6.065 -11.040   2.998  1.00  0.00     0.167 C 
HETATM   29  C25 UNL     1      -5.241  -9.915   2.327  1.00  0.00     0.069 C 
HETATM   30  C26 UNL     1      -4.013 -10.504   1.637  1.00  0.00     0.012 C 
HETATM   31  C27 UNL     1      -4.467 -11.439   0.498  1.00  0.00     0.011 C 
HETATM   32  C28 UNL     1      -4.624 -10.619  -0.792  1.00  0.00     0.012 C 
HETATM   33  C29 UNL     1      -5.781 -12.178   0.883  1.00  0.00     0.134 C 
HETATM   34  O9  UNL     1      -5.860 -12.295   2.318  1.00  0.00    -0.349 OA
HETATM   35  C33 UNL     1      -5.573 -11.228   4.458  1.00  0.00     0.101 C 
ENDROOT
BRANCH  33  36
HETATM   36  C30 UNL     1      -5.881 -13.628   0.325  1.00  0.00     0.035 C 
HETATM   37  C31 UNL     1      -6.939 -13.695  -0.788  1.00  0.00     0.015 C 
BRANCH  36  38
HETATM   38  C32 UNL     1      -4.547 -14.199  -0.177  1.00  0.00     0.170 C 
BRANCH  38  39
HETATM   39  O8  UNL     1      -4.518 -14.250  -1.604  1.00  0.00    -0.400 OA
HETATM   40  H46 UNL     1      -3.638 -14.584  -1.860  1.00  0.00     0.209 HD
ENDBRANCH  38  39
ENDBRANCH  36  38
ENDBRANCH  33  36
BRANCH  15  41
HETATM   41  O3  UNL     1     -12.988  -7.800   3.972  1.00  0.00    -0.391 OA
HETATM   42  H17 UNL     1     -13.162  -8.447   3.259  1.00  0.00     0.210 HD
ENDBRANCH  15  41
BRANCH  26  43
HETATM   43  O6  UNL     1      -7.255 -11.392   9.529  1.00  0.00    -0.381 OA
HETATM   44  H30 UNL     1      -8.083 -11.679   9.957  1.00  0.00     0.211 HD
ENDBRANCH  26  43
BRANCH  25  45
HETATM   45  O5  UNL     1      -5.587 -10.593  12.230  1.00  0.00    -0.389 OA
HETATM   46  H29 UNL     1      -5.554 -11.361  11.626  1.00  0.00     0.210 HD
ENDBRANCH  25  45
TORSDOF 6
ENDMDL
