MODEL 1
REMARK minimizedAffinity -8.99921322
REMARK  5 active torsions:
REMARK  status: ('A' for Active; 'I' for Inactive)
REMARK    1  A    between atoms: C2_2  and  C3_3 
REMARK    2  A    between atoms: C4_5  and  C5_6 
REMARK    3  A    between atoms: C5_6  and  C6_7 
REMARK    4  A    between atoms: C6_7  and  C7_8 
REMARK    5  A    between atoms: C7_8  and  C9_10 
ROOT
HETATM    1  C9  UNL     1       1.173   6.917  13.105  1.00  0.00    -0.002 C 
HETATM    2  C10 UNL     1       0.349   8.079  13.729  1.00  0.00     0.007 C 
HETATM    3  C11 UNL     1      -1.119   7.618  13.801  1.00  0.00     0.015 C 
HETATM    4  C12 UNL     1      -1.077   6.100  13.546  1.00  0.00    -0.005 C 
HETATM    5  C13 UNL     1      -0.739   5.415  14.906  1.00  0.00     0.021 C 
HETATM    6  C14 UNL     1      -2.316   5.376  13.039  1.00  0.00    -0.000 C 
HETATM    7  C15 UNL     1      -2.221   4.268  12.260  1.00  0.00    -0.060 C 
HETATM    8  C16 UNL     1      -0.843   3.739  11.830  1.00  0.00     0.036 C 
HETATM    9  C17 UNL     1       0.403   4.556  12.236  1.00  0.00     0.015 C 
HETATM   10  C18 UNL     1       0.064   6.035  12.456  1.00  0.00    -0.028 C 
HETATM   11  C19 UNL     1      -0.353   6.660  11.085  1.00  0.00     0.016 C 
HETATM   12  C20 UNL     1      -3.454   3.482  11.731  1.00  0.00    -0.014 C 
HETATM   13  C21 UNL     1      -3.626   3.848  10.240  1.00  0.00     0.020 C 
HETATM   14  C22 UNL     1      -3.226   1.957  11.880  1.00  0.00     0.021 C 
HETATM   15  C23 UNL     1      -4.447   1.071  11.660  1.00  0.00     0.080 C 
HETATM   16  C24 UNL     1      -5.743   1.794  11.388  1.00  0.00     0.135 C 
HETATM   17  O2  UNL     1      -6.577   1.275  10.641  1.00  0.00    -0.297 OA
HETATM   18  C25 UNL     1      -6.038   3.101  12.132  1.00  0.00     0.018 C 
HETATM   19  C26 UNL     1      -6.925   3.982  11.223  1.00  0.00     0.023 C 
HETATM   20  C27 UNL     1      -6.871   2.721  13.371  1.00  0.00     0.023 C 
HETATM   21  C28 UNL     1      -4.718   3.812  12.589  1.00  0.00     0.020 C 
HETATM   22  C29 UNL     1      -4.873   5.322  12.774  1.00  0.00     0.090 C 
HETATM   23  C30 UNL     1      -3.658   5.883  13.462  1.00  0.00     0.157 C 
HETATM   24  O3  UNL     1      -3.777   6.740  14.331  1.00  0.00    -0.293 OA
ENDROOT
BRANCH   1  25
HETATM   25  C7  UNL     1       2.354   7.439  12.242  1.00  0.00    -0.014 C 
HETATM   26  C8  UNL     1       2.076   8.811  11.619  1.00  0.00     0.010 C 
BRANCH  25  27
HETATM   27  C6  UNL     1       2.777   6.440  11.130  1.00  0.00     0.008 C 
BRANCH  27  28
HETATM   28  C5  UNL     1       2.529   6.918   9.694  1.00  0.00     0.028 C 
BRANCH  28  29
HETATM   29  C4  UNL     1       2.921   5.858   8.703  1.00  0.00    -0.017 C 
HETATM   30  C2  UNL     1       2.689   5.852   7.377  1.00  0.00    -0.028 C 
HETATM   31  C1  UNL     1       2.012   6.911   6.566  1.00  0.00     0.051 C 
BRANCH  30  32
HETATM   32  C3  UNL     1       3.170   4.673   6.594  1.00  0.00     0.265 C 
HETATM   33  O1  UNL     1       4.090   3.945   6.945  1.00  0.00    -0.302 OA
ENDBRANCH  30  32
ENDBRANCH  28  29
ENDBRANCH  27  28
ENDBRANCH  25  27
ENDBRANCH   1  25
TORSDOF 5
ENDMDL
