MODEL 1
REMARK minimizedAffinity -9.92964554
REMARK  7 active torsions:
REMARK  status: ('A' for Active; 'I' for Inactive)
REMARK    1  A    between atoms: C2_2  and  C30_32 
REMARK    2  A    between atoms: C3_3  and  C4_4 
REMARK    3  A    between atoms: C4_4  and  O1_5 
REMARK    4  A    between atoms: C4_4  and  C5_6 
REMARK    5  A    between atoms: C5_6  and  C6_7 
REMARK    6  A    between atoms: C6_7  and  C8_9 
REMARK    7  A    between atoms: C30_32  and  O3_33 
ROOT
HETATM    1  C8  UNL     1      -4.295  50.373 -24.558  1.00  0.00    -0.002 C 
HETATM    2  C9  UNL     1      -5.077  49.390 -23.677  1.00  0.00     0.006 C 
HETATM    3  C10 UNL     1      -5.252  50.149 -22.377  1.00  0.00     0.011 C 
HETATM    4  C11 UNL     1      -3.856  50.729 -22.072  1.00  0.00    -0.032 C 
HETATM    5  C12 UNL     1      -4.043  51.929 -21.121  1.00  0.00     0.016 C 
HETATM    6  C13 UNL     1      -2.900  49.653 -21.416  1.00  0.00     0.004 C 
HETATM    7  C14 UNL     1      -3.387  48.925 -20.153  1.00  0.00     0.007 C 
HETATM    8  C15 UNL     1      -3.149  49.599 -18.812  1.00  0.00     0.007 C 
HETATM    9  C16 UNL     1      -1.918  50.512 -18.663  1.00  0.00     0.010 C 
HETATM   10  C17 UNL     1      -1.130  50.298 -17.325  1.00  0.00     0.018 C 
HETATM   11  C18 UNL     1      -0.516  48.893 -17.199  1.00  0.00     0.023 C 
HETATM   12  C19 UNL     1      -2.038  50.583 -16.114  1.00  0.00     0.023 C 
HETATM   13  C20 UNL     1       0.030  51.302 -17.250  1.00  0.00     0.135 C 
HETATM   14  O2  UNL     1       0.824  51.317 -16.307  1.00  0.00    -0.297 OA
HETATM   15  C21 UNL     1       0.115  52.350 -18.329  1.00  0.00     0.080 C 
HETATM   16  C22 UNL     1       0.075  51.717 -19.711  1.00  0.00     0.018 C 
HETATM   17  C23 UNL     1      -0.961  50.595 -19.850  1.00  0.00    -0.026 A 
HETATM   18  C24 UNL     1      -0.467  49.341 -20.541  1.00  0.00     0.021 A 
HETATM   19  C25 UNL     1      -1.482  50.213 -21.251  1.00  0.00    -0.027 A 
HETATM   20  C26 UNL     1      -0.994  50.992 -22.463  1.00  0.00     0.011 C 
HETATM   21  C27 UNL     1      -1.826  50.680 -23.705  1.00  0.00     0.011 C 
HETATM   22  C28 UNL     1      -3.310  51.110 -23.544  1.00  0.00    -0.032 C 
HETATM   23  C29 UNL     1      -3.409  52.631 -23.830  1.00  0.00     0.016 C 
ENDROOT
BRANCH   1  24
HETATM   24  C6  UNL     1      -3.718  49.720 -25.860  1.00  0.00    -0.011 C 
HETATM   25  C7  UNL     1      -4.312  48.324 -26.088  1.00  0.00     0.010 C 
BRANCH  24  26
HETATM   26  C5  UNL     1      -2.164  49.631 -25.810  1.00  0.00     0.040 C 
BRANCH  26  27
HETATM   27  C4  UNL     1      -1.417  50.455 -26.876  1.00  0.00     0.141 C 
BRANCH  27  28
HETATM   28  C3  UNL     1      -0.013  50.760 -26.419  1.00  0.00     0.009 C 
HETATM   29  C2  UNL     1       0.975  51.386 -27.094  1.00  0.00    -0.062 C 
HETATM   30  C1  UNL     1       0.858  51.928 -28.495  1.00  0.00     0.045 C 
BRANCH  29  31
HETATM   31  C30 UNL     1       2.326  51.590 -26.459  1.00  0.00     0.198 C 
BRANCH  31  32
HETATM   32  O3  UNL     1       3.320  51.484 -27.466  1.00  0.00    -0.397 OA
HETATM   33  H48 UNL     1       4.177  51.641 -27.033  1.00  0.00     0.209 HD
ENDBRANCH  31  32
ENDBRANCH  29  31
ENDBRANCH  27  28
BRANCH  27  34
HETATM   34  O1  UNL     1      -2.109  51.683 -27.086  1.00  0.00    -0.392 OA
HETATM   35  H6  UNL     1      -1.500  52.419 -26.895  1.00  0.00     0.210 HD
ENDBRANCH  27  34
ENDBRANCH  26  27
ENDBRANCH  24  26
ENDBRANCH   1  24
TORSDOF 7
ENDMDL
