MODEL 1
REMARK minimizedAffinity -9.25896549
REMARK  9 active torsions:
REMARK  status: ('A' for Active; 'I' for Inactive)
REMARK    1  A    between atoms: C11_11  and  C13_13 
REMARK    2  A    between atoms: C13_13  and  O2_15 
REMARK    3  A    between atoms: C15_17  and  C16_18 
REMARK    4  A    between atoms: C16_18  and  C17_19 
REMARK    5  A    between atoms: C17_19  and  C18_20 
REMARK    6  A    between atoms: C19_21  and  C20_22 
REMARK    7  A    between atoms: C20_22  and  O3_23 
REMARK    8  A    between atoms: O3_23  and  C21_24 
REMARK    9  A    between atoms: C21_24  and  C22_26 
ROOT
HETATM    1  C16 UNL     1      -3.419  48.778 -22.964  1.00  0.00     0.014 C 
ENDROOT
BRANCH   1   2
HETATM    2  C15 UNL     1      -2.876  48.946 -24.413  1.00  0.00     0.022 C 
HETATM    3  C2  UNL     1      -3.849  48.547 -25.525  1.00  0.00    -0.084 C 
HETATM    4  C1  UNL     1      -5.164  48.309 -25.390  1.00  0.00     0.014 C 
HETATM    5  C3  UNL     1      -3.206  48.481 -26.887  1.00  0.00     0.034 C 
HETATM    6  C4  UNL     1      -2.588  49.831 -27.249  1.00  0.00     0.011 C 
HETATM    7  C5  UNL     1      -1.602  50.324 -26.163  1.00  0.00     0.012 C 
HETATM    8  C6  UNL     1      -2.278  50.387 -24.731  1.00  0.00    -0.032 C 
HETATM    9  C11 UNL     1      -0.749  51.583 -26.563  1.00  0.00     0.049 C 
HETATM   10  C7  UNL     1      -3.400  51.449 -24.646  1.00  0.00     0.016 C 
HETATM   11  C8  UNL     1      -1.179  50.743 -23.691  1.00  0.00     0.010 C 
HETATM   12  C9  UNL     1      -0.349  51.970 -24.050  1.00  0.00     0.002 C 
HETATM   13  C10 UNL     1       0.278  51.850 -25.432  1.00  0.00     0.020 C 
HETATM   14  C12 UNL     1       0.072  51.305 -27.846  1.00  0.00     0.026 C 
BRANCH   9  15
HETATM   15  C13 UNL     1      -1.605  52.816 -26.914  1.00  0.00     0.267 C 
HETATM   16  O1  UNL     1      -2.746  53.000 -26.511  1.00  0.00    -0.264 OA
BRANCH  15  17
HETATM   17  O2  UNL     1      -0.972  53.655 -27.780  1.00  0.00    -0.326 OA
HETATM   18  C14 UNL     1      -0.179  54.664 -27.153  1.00  0.00     0.213 C 
ENDBRANCH  15  17
ENDBRANCH   9  15
ENDBRANCH   1   2
BRANCH   1  19
HETATM   19  C17 UNL     1      -2.490  48.005 -22.010  1.00  0.00     0.042 C 
BRANCH  19  20
HETATM   20  C18 UNL     1      -3.097  47.744 -20.668  1.00  0.00    -0.024 A 
HETATM   21  C19 UNL     1      -2.559  48.036 -19.424  1.00  0.00     0.083 A 
HETATM   22  O5  UNL     1      -3.423  47.661 -18.437  1.00  0.00    -0.324 OA
HETATM   23  C28 UNL     1      -4.508  47.116 -19.040  1.00  0.00     0.143 A 
HETATM   24  C29 UNL     1      -4.360  47.140 -20.405  1.00  0.00     0.034 A 
BRANCH  21  25
HETATM   25  C20 UNL     1      -1.285  48.656 -18.978  1.00  0.00     0.244 C 
BRANCH  25  26
HETATM   26  O3  UNL     1      -1.534  49.318 -17.730  1.00  0.00    -0.311 OA
BRANCH  26  27
HETATM   27  C21 UNL     1      -2.013  50.579 -17.820  1.00  0.00     0.293 C 
HETATM   28  O4  UNL     1      -3.027  51.012 -17.294  1.00  0.00    -0.259 OA
BRANCH  27  29
HETATM   29  C22 UNL     1      -1.107  51.414 -18.657  1.00  0.00     0.039 A 
HETATM   30  C23 UNL     1       0.059  51.923 -18.067  1.00  0.00     0.019 A 
HETATM   31  C24 UNL     1       0.941  52.711 -18.813  1.00  0.00     0.025 A 
HETATM   32  C25 UNL     1       0.658  52.995 -20.148  1.00  0.00     0.034 A 
HETATM   33 CL1  UNL     1       1.743  53.965 -21.065  1.00  0.00    -0.084 Cl
HETATM   34  C26 UNL     1      -0.501  52.499 -20.744  1.00  0.00     0.025 A 
HETATM   35  C27 UNL     1      -1.384  51.710 -20.000  1.00  0.00     0.019 A 
ENDBRANCH  27  29
ENDBRANCH  26  27
ENDBRANCH  25  26
ENDBRANCH  21  25
ENDBRANCH  19  20
ENDBRANCH   1  19
TORSDOF 9
ENDMDL
