MODEL 1
REMARK minimizedAffinity -9.24134541
REMARK CNNscore 0.752263427
REMARK CNNaffinity 7.77126837
REMARK  9 active torsions:
REMARK  status: ('A' for Active; 'I' for Inactive)
REMARK    1  A    between atoms: O1_2  and  C2_3 
REMARK    2  A    between atoms: C2_3  and  C3_4 
REMARK    3  A    between atoms: C3_4  and  N1_5 
REMARK       I    between atoms: N1_5  and  C4_6 
REMARK    4  A    between atoms: C4_6  and  C5_8 
REMARK    5  A    between atoms: C5_8  and  C7_10 
REMARK    6  A    between atoms: C15_20  and  C16_21 
REMARK    7  A    between atoms: C16_21  and  O3_22 
REMARK    8  A    between atoms: O3_22  and  C17_23 
REMARK    9  A    between atoms: C26_34  and  O4_35 
ROOT
HETATM    1  C7  UNL     1      -6.577   5.191  14.309  1.00  0.00     0.027 C 
HETATM    2  C8  UNL     1      -6.087   6.448  15.041  1.00  0.00     0.009 C 
HETATM    3  C9  UNL     1      -4.595   6.379  15.350  1.00  0.00     0.010 C 
HETATM    4  C10 UNL     1      -3.719   6.150  14.100  1.00  0.00    -0.033 C 
HETATM    5  C11 UNL     1      -3.803   7.401  13.188  1.00  0.00     0.016 C 
HETATM    6  C12 UNL     1      -2.247   5.977  14.588  1.00  0.00     0.058 C 
HETATM    7  C13 UNL     1      -1.395   5.473  13.478  1.00  0.00     0.008 A 
HETATM    8  C14 UNL     1      -1.852   4.812  12.361  1.00  0.00     0.027 A 
HETATM    9  N2  UNL     1      -0.872   4.493  11.439  1.00  0.00    -0.354 N 
ATOM     10  H2  UNL     1      -1.039   4.053  10.535  1.00  0.00     0.166 HD
HETATM   11  C15 UNL     1       0.313   4.844  11.906  1.00  0.00     0.076 A 
HETATM   12  S1  UNL     1       0.294   5.651  13.428  1.00  0.00    -0.077 SA
HETATM   13  C23 UNL     1      -3.309   4.507  12.093  1.00  0.00     0.040 C 
HETATM   14  C24 UNL     1      -3.447   3.051  11.622  1.00  0.00     0.017 C 
HETATM   15  C25 UNL     1      -4.195   4.840  13.361  1.00  0.00     0.033 C 
HETATM   16  C26 UNL     1      -5.718   4.898  13.049  1.00  0.00     0.128 C 
ENDROOT
BRANCH   1  17
HETATM   17  C5  UNL     1      -8.105   5.214  14.004  1.00  0.00     0.080 C 
HETATM   18  C6  UNL     1      -8.485   4.790  12.584  1.00  0.00     0.020 C 
BRANCH  17  19
HETATM   19  C4  UNL     1      -8.737   6.545  14.421  1.00  0.00     0.222 C 
HETATM   20  N1  UNL     1     -10.106   6.567  14.528  1.00  0.00    -0.359 N 
HETATM   21  H8  UNL     1     -10.642   5.712  14.498  1.00  0.00     0.162 HD
HETATM   22  O2  UNL     1      -8.050   7.551  14.590  1.00  0.00    -0.273 OA
BRANCH  20  23
HETATM   23  C3  UNL     1     -10.827   7.790  14.844  1.00  0.00     0.148 C 
BRANCH  23  24
HETATM   24  C2  UNL     1     -11.573   8.388  13.650  1.00  0.00     0.186 C 
BRANCH  24  25
HETATM   25  O1  UNL     1     -12.069   7.352  12.792  1.00  0.00    -0.394 OA
HETATM   26  C1  UNL     1     -13.414   7.000  13.085  1.00  0.00     0.201 C 
ENDBRANCH  24  25
ENDBRANCH  23  24
ENDBRANCH  20  23
ENDBRANCH  17  19
ENDBRANCH   1  17
BRANCH  16  27
HETATM   27  O4  UNL     1      -6.130   3.642  12.523  1.00  0.00    -0.395 OA
HETATM   28  H35 UNL     1      -6.933   3.776  11.988  1.00  0.00     0.210 HD
ENDBRANCH  16  27
BRANCH  11  29
HETATM   29  C16 UNL     1       1.607   4.603  11.189  1.00  0.00     0.240 C 
BRANCH  29  30
HETATM   30  O3  UNL     1       2.393   5.801  11.180  1.00  0.00    -0.345 OA
BRANCH  30  31
HETATM   31  C17 UNL     1       2.259   6.670  10.132  1.00  0.00     0.070 A 
HETATM   32  C18 UNL     1       3.236   6.986   9.186  1.00  0.00     0.037 A 
HETATM   33  C19 UNL     1       2.959   7.902   8.165  1.00  0.00     0.004 A 
HETATM   34  C20 UNL     1       1.707   8.512   8.089  1.00  0.00     0.024 A 
HETATM   35  C21 UNL     1       0.736   8.204   9.037  1.00  0.00     0.036 A 
HETATM   36 CL1  UNL     1      -0.810   8.956   8.952  1.00  0.00    -0.084 Cl
HETATM   37  C22 UNL     1       1.007   7.291  10.054  1.00  0.00     0.060 A 
ENDBRANCH  30  31
ENDBRANCH  29  30
ENDBRANCH  11  29
TORSDOF 9
ENDMDL
