MODEL 1
REMARK minimizedAffinity -8.61606979
REMARK  13 active torsions:
REMARK  status: ('A' for Active; 'I' for Inactive)
REMARK    1  A    between atoms: C4_4  and  C5_5 
REMARK    2  A    between atoms: C5_5  and  C6_6 
REMARK    3  A    between atoms: C6_6  and  C7_7 
REMARK    4  A    between atoms: C9_9  and  C10_10 
REMARK    5  A    between atoms: C11_11  and  C12_12 
REMARK    6  A    between atoms: C14_14  and  C15_15 
REMARK    7  A    between atoms: C18_18  and  C19_19 
REMARK    8  A    between atoms: C19_19  and  C20_20 
REMARK    9  A    between atoms: C20_20  and  C21_21 
REMARK   10  A    between atoms: C21_21  and  O1_22 
REMARK   11  A    between atoms: C23_24  and  C25_26 
REMARK   12  A    between atoms: C28_30  and  O3_32 
REMARK   13  A    between atoms: C30_33  and  O4_34 
ROOT
HETATM    1  C15 UNL     1      -2.693  48.371 -22.866  1.00  0.00     0.149 C 
HETATM    2  C16 UNL     1      -4.138  48.255 -22.382  1.00  0.00     0.054 C 
HETATM    3  C17 UNL     1      -5.035  48.841 -23.514  1.00  0.00     0.050 C 
HETATM    4  C18 UNL     1      -6.244  47.861 -23.791  1.00  0.00     0.032 C 
HETATM    5  C22 UNL     1      -7.038  47.643 -22.491  1.00  0.00    -0.066 C 
HETATM    6  C23 UNL     1      -7.508  46.447 -22.045  1.00  0.00    -0.021 C 
HETATM    7  C24 UNL     1      -8.212  46.224 -20.727  1.00  0.00     0.052 C 
HETATM    8  C26 UNL     1      -7.171  48.881 -21.614  1.00  0.00     0.038 C 
HETATM    9  C27 UNL     1      -6.867  50.222 -22.278  1.00  0.00     0.042 C 
HETATM   10  C28 UNL     1      -5.601  50.275 -23.170  1.00  0.00     0.067 C 
HETATM   11  C29 UNL     1      -4.580  51.247 -22.563  1.00  0.00     0.047 C 
HETATM   12  C30 UNL     1      -4.018  48.812 -24.680  1.00  0.00     0.270 C 
HETATM   13  O5  UNL     1      -2.741  49.070 -24.112  1.00  0.00    -0.351 OA
ENDROOT
BRANCH   4  14
HETATM   14  C19 UNL     1      -7.157  48.293 -24.970  1.00  0.00     0.012 C 
BRANCH  14  15
HETATM   15  C20 UNL     1      -8.655  48.268 -24.655  1.00  0.00     0.027 C 
BRANCH  15  16
HETATM   16  C21 UNL     1      -9.486  48.679 -25.864  1.00  0.00     0.164 C 
BRANCH  16  17
HETATM   17  O1  UNL     1      -9.670  50.088 -25.853  1.00  0.00    -0.401 OA
HETATM   18  H32 UNL     1      -8.798  50.498 -25.985  1.00  0.00     0.209 HD
ENDBRANCH  16  17
ENDBRANCH  15  16
ENDBRANCH  14  15
ENDBRANCH   4  14
BRANCH  10  19
HETATM   19  O3  UNL     1      -6.056  50.945 -24.364  1.00  0.00    -0.389 OA
HETATM   20  H44 UNL     1      -5.344  50.855 -25.035  1.00  0.00     0.210 HD
ENDBRANCH  10  19
BRANCH  12  21
HETATM   21  O4  UNL     1      -4.251  49.777 -25.683  1.00  0.00    -0.370 OA
HETATM   22  H46 UNL     1      -3.563  49.603 -26.353  1.00  0.00     0.212 HD
ENDBRANCH  12  21
BRANCH   1  23
HETATM   23  C14 UNL     1      -1.792  49.125 -21.935  1.00  0.00     0.011 C 
HETATM   24  C12 UNL     1      -1.091  50.253 -22.181  1.00  0.00    -0.063 C 
HETATM   25  C13 UNL     1      -1.054  50.947 -23.519  1.00  0.00     0.048 C 
BRANCH  24  26
HETATM   26  C11 UNL     1      -0.287  50.820 -21.095  1.00  0.00     0.006 C 
HETATM   27  C10 UNL     1      -0.600  51.895 -20.349  1.00  0.00     0.001 C 
BRANCH  27  28
HETATM   28  C9  UNL     1       0.262  52.383 -19.293  1.00  0.00     0.002 C 
HETATM   29  C7  UNL     1       0.475  51.812 -18.089  1.00  0.00    -0.084 C 
HETATM   30  C8  UNL     1      -0.187  50.552 -17.594  1.00  0.00     0.043 C 
BRANCH  29  31
HETATM   31  C6  UNL     1       1.425  52.475 -17.103  1.00  0.00     0.037 C 
BRANCH  31  32
HETATM   32  C5  UNL     1       1.081  52.230 -15.626  1.00  0.00     0.031 C 
BRANCH  32  33
HETATM   33  C4  UNL     1       2.058  51.331 -14.914  1.00  0.00    -0.024 C 
HETATM   34  C2  UNL     1       3.404  51.367 -14.959  1.00  0.00    -0.091 C 
HETATM   35  C1  UNL     1       4.226  50.404 -14.139  1.00  0.00     0.042 C 
HETATM   36  C3  UNL     1       4.224  52.314 -15.793  1.00  0.00     0.042 C 
ENDBRANCH  32  33
ENDBRANCH  31  32
ENDBRANCH  29  31
ENDBRANCH  27  28
ENDBRANCH  24  26
ENDBRANCH   1  23
BRANCH   6  37
HETATM   37  C25 UNL     1      -7.358  45.170 -22.817  1.00  0.00     0.265 C 
HETATM   38  O2  UNL     1      -8.257  44.706 -23.511  1.00  0.00    -0.302 OA
ENDBRANCH   6  37
TORSDOF 13
ENDMDL
