MODEL 1
REMARK minimizedAffinity -7.35534811
REMARK CNNscore 0.57237184
REMARK CNNaffinity 6.14844894
REMARK  0 active torsions:
REMARK  status: ('A' for Active; 'I' for Inactive)
ROOT
HETATM    1  C1  UNL     1      -8.691  47.915 -27.809  1.00  0.00     0.023 C 
HETATM    2  C2  UNL     1      -8.892  46.533 -27.147  1.00  0.00     0.017 C 
HETATM    3  C3  UNL     1      -7.804  45.619 -27.771  1.00  0.00     0.023 C 
HETATM    4  C4  UNL     1      -8.644  46.673 -25.639  1.00  0.00     0.135 C 
HETATM    5  O1  UNL     1      -7.563  46.384 -25.124  1.00  0.00    -0.297 OA
HETATM    6  C5  UNL     1      -9.744  47.290 -24.801  1.00  0.00     0.080 C 
HETATM    7  C6  UNL     1     -11.111  46.671 -25.079  1.00  0.00     0.017 C 
HETATM    8  C7  UNL     1     -11.519  46.630 -26.587  1.00  0.00    -0.035 C 
HETATM    9  C8  UNL     1     -11.720  48.094 -27.052  1.00  0.00     0.016 C 
HETATM   10  C9  UNL     1     -10.343  45.927 -27.363  1.00  0.00     0.009 C 
HETATM   11  C10 UNL     1     -10.306  44.393 -27.099  1.00  0.00     0.007 C 
HETATM   12  C11 UNL     1     -11.604  43.715 -26.679  1.00  0.00     0.011 C 
HETATM   13  C12 UNL     1     -12.881  44.367 -27.234  1.00  0.00    -0.032 C 
HETATM   14  C13 UNL     1     -12.777  44.336 -28.790  1.00  0.00     0.016 C 
HETATM   15  C14 UNL     1     -12.928  45.841 -26.707  1.00  0.00     0.003 C 
HETATM   16  C15 UNL     1     -14.084  46.594 -27.420  1.00  0.00     0.006 C 
HETATM   17  C16 UNL     1     -15.371  45.773 -27.608  1.00  0.00     0.006 C 
HETATM   18  C17 UNL     1     -15.461  44.592 -26.640  1.00  0.00    -0.000 C 
HETATM   19  C18 UNL     1     -16.818  43.857 -26.601  1.00  0.00     0.009 C 
HETATM   20  C19 UNL     1     -18.130  44.647 -26.679  1.00  0.00     0.067 C 
HETATM   21  C20 UNL     1     -19.189  43.535 -26.906  1.00  0.00     0.140 C 
HETATM   22  C21 UNL     1     -18.417  42.249 -27.258  1.00  0.00     0.042 C 
HETATM   23  C22 UNL     1     -17.009  42.740 -27.641  1.00  0.00    -0.037 C 
HETATM   24  C23 UNL     1     -17.045  43.193 -29.117  1.00  0.00     0.015 C 
HETATM   25  C24 UNL     1     -15.910  41.695 -27.428  1.00  0.00     0.010 C 
HETATM   26  C25 UNL     1     -14.517  42.320 -27.600  1.00  0.00     0.011 C 
HETATM   27  C26 UNL     1     -14.224  43.590 -26.723  1.00  0.00    -0.032 C 
HETATM   28  C27 UNL     1     -14.028  43.051 -25.264  1.00  0.00     0.016 C 
HETATM   29  O2  UNL     1     -19.910  43.337 -25.675  1.00  0.00    -0.313 OA
HETATM   30  C28 UNL     1     -19.599  44.324 -24.784  1.00  0.00     0.297 C 
HETATM   31  O3  UNL     1     -20.038  44.427 -23.651  1.00  0.00    -0.262 OA
HETATM   32  C29 UNL     1     -18.604  45.221 -25.395  1.00  0.00     0.175 A 
HETATM   33  C30 UNL     1     -17.921  46.336 -24.647  1.00  0.00     0.218 A 
HETATM   34  O4  UNL     1     -19.030  46.593 -25.515  1.00  0.00    -0.364 OA
ENDROOT
TORSDOF 0
ENDMDL
