MODEL 1
REMARK minimizedAffinity -8.75830364
REMARK CNNscore 0.270578951
REMARK CNNaffinity 6.53437996
REMARK  12 active torsions:
REMARK  status: ('A' for Active; 'I' for Inactive)
REMARK    1  A    between atoms: C3_3  and  O1_4 
REMARK    2  A    between atoms: N1_14  and  O2_16 
REMARK    3  A    between atoms: O2_16  and  C13_17 
REMARK    4  A    between atoms: C13_17  and  C14_18 
REMARK       I    between atoms: C14_18  and  N2_20 
REMARK    5  A    between atoms: N2_20  and  C15_21 
REMARK    6  A    between atoms: C15_21  and  C16_22 
REMARK    7  A    between atoms: C15_21  and  C23_33 
REMARK       I    between atoms: C16_22  and  N3_24 
REMARK    8  A    between atoms: N3_24  and  C17_25 
REMARK    9  A    between atoms: C17_25  and  C18_26 
REMARK   10  A    between atoms: C17_25  and  C19_29 
REMARK   11  A    between atoms: C18_26  and  O6_28 
REMARK   12  A    between atoms: C19_29  and  C21_31 
ROOT
HETATM    1  C1  UNL     1      -7.909   6.967  16.523  1.00  0.00     0.015 C 
HETATM    2  C2  UNL     1      -6.894   6.684  15.939  1.00  0.00    -0.078 C 
HETATM    3  C3  UNL     1      -5.646   6.342  15.234  1.00  0.00     0.128 C 
HETATM    4  C4  UNL     1      -5.843   5.096  14.357  1.00  0.00     0.052 C 
HETATM    5  C5  UNL     1      -4.759   5.175  13.276  1.00  0.00     0.010 C 
HETATM    6  C6  UNL     1      -4.204   6.616  13.285  1.00  0.00     0.002 C 
HETATM    7  C7  UNL     1      -2.661   6.755  13.474  1.00  0.00    -0.004 C 
HETATM    8  C8  UNL     1      -1.960   5.774  14.444  1.00  0.00     0.010 C 
HETATM    9  C9  UNL     1      -0.441   5.945  14.444  1.00  0.00     0.035 C 
HETATM   10  C10 UNL     1      -0.010   7.369  14.682  1.00  0.00    -0.069 C 
HETATM   11  C11 UNL     1       0.953   7.637  15.588  1.00  0.00     0.030 C 
HETATM   12  C12 UNL     1       1.462   9.018  15.794  1.00  0.00     0.032 C 
HETATM   13  N1  UNL     1       2.149   9.256  16.874  1.00  0.00    -0.271 N 
ATOM     14  H1  UNL     1       2.394   8.544  17.563  1.00  0.00     0.194 HD
HETATM   15  C26 UNL     1       1.139  10.030  14.715  1.00  0.00     0.060 C 
HETATM   16  C27 UNL     1      -0.335   9.868  14.346  1.00  0.00     0.020 C 
HETATM   17  C28 UNL     1      -0.699   8.439  13.835  1.00  0.00    -0.016 C 
HETATM   18  C29 UNL     1      -0.157   8.318  12.384  1.00  0.00     0.020 C 
HETATM   19  C30 UNL     1      -2.268   8.225  13.811  1.00  0.00     0.002 C 
HETATM   20  C31 UNL     1      -3.017   8.627  15.101  1.00  0.00     0.007 C 
HETATM   21  C32 UNL     1      -4.522   8.667  14.869  1.00  0.00     0.014 C 
HETATM   22  C33 UNL     1      -5.159   7.423  14.221  1.00  0.00     0.003 C 
HETATM   23  C34 UNL     1      -6.353   7.941  13.354  1.00  0.00     0.020 C 
ENDROOT
BRANCH   3  24
HETATM   24  O1  UNL     1      -4.662   6.098  16.232  1.00  0.00    -0.377 OA
HETATM   25  H2  UNL     1      -4.198   5.265  16.026  1.00  0.00     0.211 HD
ENDBRANCH   3  24
BRANCH  13  26
HETATM   26  O2  UNL     1       2.513  10.606  16.977  1.00  0.00    -0.271 OA
BRANCH  26  27
HETATM   27  C13 UNL     1       1.908  11.146  18.148  1.00  0.00     0.303 C 
BRANCH  27  28
HETATM   28  C14 UNL     1       2.637  10.709  19.412  1.00  0.00     0.244 C 
HETATM   29  O3  UNL     1       2.621   9.544  19.808  1.00  0.00    -0.271 OA
HETATM   30  N2  UNL     1       3.343  11.707  20.057  1.00  0.00    -0.346 N 
HETATM   31  H16 UNL     1       3.578  12.510  19.482  1.00  0.00     0.163 HD
BRANCH  30  32
HETATM   32  C15 UNL     1       4.269  11.376  21.140  1.00  0.00     0.180 C 
BRANCH  32  33
HETATM   33  C16 UNL     1       5.382  12.452  21.156  1.00  0.00     0.241 C 
HETATM   34  O4  UNL     1       5.160  13.636  20.900  1.00  0.00    -0.271 OA
HETATM   35  N3  UNL     1       6.638  11.986  21.489  1.00  0.00    -0.344 N 
HETATM   36  H18 UNL     1       6.680  11.100  21.980  1.00  0.00     0.163 HD
BRANCH  35  37
HETATM   37  C17 UNL     1       7.764  12.903  21.689  1.00  0.00     0.186 C 
BRANCH  37  38
HETATM   38  C18 UNL     1       8.514  12.492  22.962  1.00  0.00     0.163 C 
HETATM   39  O5  UNL     1       8.831  11.357  23.290  1.00  0.00    -0.648 OA
BRANCH  38  40
HETATM   40  O6  UNL     1       8.858  13.544  23.734  1.00  0.00    -0.775 OA
HETATM   41  H20 UNL     1       9.296  13.141  24.509  1.00  0.00     0.167 HD
ENDBRANCH  38  40
ENDBRANCH  37  38
BRANCH  37  42
HETATM   42  C19 UNL     1       8.713  12.941  20.465  1.00  0.00     0.014 C 
HETATM   43  C20 UNL     1       9.811  14.011  20.601  1.00  0.00     0.012 C 
BRANCH  42  44
HETATM   44  C21 UNL     1       9.370  11.572  20.187  1.00  0.00     0.002 C 
HETATM   45  C22 UNL     1       8.994  10.984  18.837  1.00  0.00     0.005 C 
ENDBRANCH  42  44
ENDBRANCH  37  42
ENDBRANCH  35  37
ENDBRANCH  32  33
BRANCH  32  46
HETATM   46  C23 UNL     1       3.508  11.242  22.479  1.00  0.00     0.009 C 
HETATM   47  C24 UNL     1       4.064  10.108  23.342  1.00  0.00     0.012 C 
HETATM   48  C25 UNL     1       3.456  12.540  23.289  1.00  0.00     0.012 C 
ENDBRANCH  32  46
ENDBRANCH  30  32
ENDBRANCH  27  28
ENDBRANCH  26  27
ENDBRANCH  13  26
TORSDOF 12
ENDMDL
