MODEL 1
REMARK minimizedAffinity -7.84091663
REMARK CNNscore 0.743154168
REMARK CNNaffinity 6.86620712
REMARK  10 active torsions:
REMARK  status: ('A' for Active; 'I' for Inactive)
REMARK    1  A    between atoms: C19_21  and  O3_22 
REMARK    2  A    between atoms: C19_21  and  C20_23 
REMARK    3  A    between atoms: C20_23  and  C21_25 
REMARK    4  A    between atoms: C21_25  and  O5_26 
REMARK    5  A    between atoms: O5_26  and  C22_27 
REMARK    6  A    between atoms: C22_27  and  C23_29 
REMARK    7  A    between atoms: C23_29  and  C24_30 
REMARK    8  A    between atoms: C24_30  and  C25_31 
REMARK       I    between atoms: C25_31  and  N1_33 
REMARK    9  A    between atoms: N1_33  and  C26_34 
REMARK   10  A    between atoms: C26_34  and  C27_35 
ROOT
HETATM    1  C1  UNL     1       1.136  52.048 -10.027  1.00  0.00     0.021 C 
HETATM    2  C2  UNL     1       0.038  53.003 -10.547  1.00  0.00    -0.009 C 
HETATM    3  C3  UNL     1       0.639  54.425 -10.769  1.00  0.00     0.022 C 
HETATM    4  C4  UNL     1       0.939  55.176  -9.480  1.00  0.00     0.084 C 
HETATM    5  C5  UNL     1      -0.295  55.262  -8.623  1.00  0.00     0.149 C 
HETATM    6  O1  UNL     1      -0.513  56.207  -7.871  1.00  0.00    -0.293 OA
HETATM    7  C6  UNL     1      -1.231  54.112  -8.637  1.00  0.00     0.053 C 
HETATM    8  C7  UNL     1      -1.060  53.069  -9.469  1.00  0.00    -0.067 C 
HETATM    9  C8  UNL     1      -1.963  51.865  -9.344  1.00  0.00     0.035 C 
HETATM   10  C9  UNL     1      -2.564  51.465 -10.683  1.00  0.00     0.010 C 
HETATM   11  C10 UNL     1      -1.475  51.236 -11.739  1.00  0.00     0.003 C 
HETATM   12  C11 UNL     1      -0.603  52.518 -11.895  1.00  0.00     0.072 C 
HETATM   13  C12 UNL     1       0.377  52.330 -13.073  1.00  0.00     0.133 C 
HETATM   14  O2  UNL     1       1.587  52.528 -12.985  1.00  0.00    -0.297 OA
HETATM   15  C13 UNL     1      -0.232  51.907 -14.404  1.00  0.00     0.091 C 
HETATM   16  C14 UNL     1      -1.036  50.615 -14.204  1.00  0.00     0.005 C 
HETATM   17  C15 UNL     1      -0.058  49.464 -13.848  1.00  0.00     0.019 C 
HETATM   18  C16 UNL     1      -2.091  50.890 -13.102  1.00  0.00     0.002 C 
HETATM   19  C17 UNL     1      -3.036  49.694 -13.193  1.00  0.00     0.009 C 
HETATM   20  C18 UNL     1      -3.016  49.285 -14.680  1.00  0.00     0.047 C 
HETATM   21  C19 UNL     1      -1.980  50.199 -15.368  1.00  0.00     0.128 C 
ENDROOT
BRANCH  21  22
HETATM   22  O3  UNL     1      -2.696  51.367 -15.823  1.00  0.00    -0.381 OA
HETATM   23  H25 UNL     1      -2.173  51.748 -16.561  1.00  0.00     0.211 HD
ENDBRANCH  21  22
BRANCH  21  24
HETATM   24  C20 UNL     1      -1.267  49.643 -16.616  1.00  0.00     0.185 C 
HETATM   25  O4  UNL     1      -1.344  48.429 -16.849  1.00  0.00    -0.292 OA
BRANCH  24  26
HETATM   26  C21 UNL     1      -0.501  50.591 -17.537  1.00  0.00     0.260 C 
BRANCH  26  27
HETATM   27  O5  UNL     1      -1.358  51.534 -18.186  1.00  0.00    -0.314 OA
BRANCH  27  28
HETATM   28  C22 UNL     1      -0.891  51.949 -19.400  1.00  0.00     0.259 C 
HETATM   29  O6  UNL     1      -1.126  51.382 -20.461  1.00  0.00    -0.265 OA
BRANCH  28  30
HETATM   30  C23 UNL     1      -0.028  53.172 -19.239  1.00  0.00     0.120 C 
BRANCH  30  31
HETATM   31  C24 UNL     1       1.310  52.974 -19.942  1.00  0.00     0.112 C 
BRANCH  31  32
HETATM   32  C25 UNL     1       1.369  53.707 -21.261  1.00  0.00     0.218 C 
HETATM   33  O7  UNL     1       1.846  54.829 -21.394  1.00  0.00    -0.274 OA
HETATM   34  N1  UNL     1       0.842  52.971 -22.300  1.00  0.00    -0.357 N 
HETATM   35  H32 UNL     1       0.319  52.133 -22.083  1.00  0.00     0.162 HD
BRANCH  34  36
HETATM   36  C26 UNL     1       0.714  53.516 -23.634  1.00  0.00     0.162 C 
BRANCH  36  37
HETATM   37  C27 UNL     1       0.217  52.478 -24.596  1.00  0.00    -0.025 A 
HETATM   38  C28 UNL     1      -1.017  51.847 -24.414  1.00  0.00     0.011 A 
HETATM   39  C29 UNL     1      -1.436  50.874 -25.316  1.00  0.00     0.018 A 
HETATM   40  C30 UNL     1      -0.600  50.555 -26.374  1.00  0.00     0.087 A 
HETATM   41  N2  UNL     1       0.603  51.134 -26.579  1.00  0.00    -0.375 N 
HETATM   42  C31 UNL     1       0.983  52.079 -25.688  1.00  0.00     0.096 A 
ATOM     43  H2  UNL     1       1.195  50.872 -27.367  1.00  0.00     0.164 HD
ENDBRANCH  36  37
ENDBRANCH  34  36
ENDBRANCH  31  32
ENDBRANCH  30  31
ENDBRANCH  28  30
ENDBRANCH  27  28
ENDBRANCH  26  27
ENDBRANCH  24  26
ENDBRANCH  21  24
TORSDOF 10
ENDMDL
