MODEL 1
REMARK minimizedAffinity -7.0907197
REMARK CNNscore 0.751085162
REMARK CNNaffinity 7.12252283
REMARK  4 active torsions:
REMARK  status: ('A' for Active; 'I' for Inactive)
REMARK    1  A    between atoms: C4_4  and  C5_5 
REMARK    2  A    between atoms: C5_5  and  C6_6 
REMARK    3  A    between atoms: C6_6  and  C7_7 
REMARK    4  A    between atoms: C7_7  and  C9_9 
ROOT
HETATM    1  C9  UNL     1      -1.880  52.172 -10.934  1.00  0.00    -0.002 C 
HETATM    2  C10 UNL     1      -1.075  50.864 -11.199  1.00  0.00     0.007 C 
HETATM    3  C11 UNL     1       0.393  51.138 -10.824  1.00  0.00     0.015 C 
HETATM    4  C12 UNL     1       0.477  52.669 -10.666  1.00  0.00    -0.013 C 
HETATM    5  C13 UNL     1       0.659  53.240 -12.110  1.00  0.00     0.021 C 
HETATM    6  C14 UNL     1       1.620  53.245  -9.836  1.00  0.00    -0.070 C 
HETATM    7  C15 UNL     1       2.830  52.660  -9.776  1.00  0.00    -0.022 C 
HETATM    8  C16 UNL     1       4.020  53.239  -9.076  1.00  0.00     0.034 C 
HETATM    9  C17 UNL     1       3.726  54.477  -8.198  1.00  0.00     0.013 C 
HETATM   10  C18 UNL     1       5.036  55.188  -7.691  1.00  0.00     0.018 C 
HETATM   11  C19 UNL     1       6.193  55.216  -8.709  1.00  0.00     0.023 C 
HETATM   12  C20 UNL     1       5.557  54.466  -6.429  1.00  0.00     0.023 C 
HETATM   13  C21 UNL     1       4.710  56.626  -7.271  1.00  0.00     0.135 C 
HETATM   14  O1  UNL     1       5.551  57.524  -7.260  1.00  0.00    -0.297 OA
HETATM   15  C22 UNL     1       3.311  56.879  -6.783  1.00  0.00     0.080 C 
HETATM   16  C23 UNL     1       2.286  56.588  -7.867  1.00  0.00     0.017 C 
HETATM   17  C24 UNL     1       2.647  55.423  -8.847  1.00  0.00    -0.031 C 
HETATM   18  C25 UNL     1       3.164  56.046 -10.167  1.00  0.00     0.016 C 
HETATM   19  C26 UNL     1       1.344  54.558  -9.103  1.00  0.00     0.024 C 
HETATM   20  C27 UNL     1       0.158  55.337  -9.721  1.00  0.00     0.010 C 
HETATM   21  C28 UNL     1      -1.126  54.507  -9.961  1.00  0.00     0.011 C 
HETATM   22  C29 UNL     1      -0.913  52.978 -10.002  1.00  0.00    -0.029 C 
HETATM   23  C30 UNL     1      -1.052  52.409  -8.552  1.00  0.00     0.016 C 
ENDROOT
BRANCH   1  24
HETATM   24  C7  UNL     1      -3.344  51.881 -10.480  1.00  0.00    -0.014 C 
HETATM   25  C8  UNL     1      -4.305  53.000 -10.898  1.00  0.00     0.010 C 
BRANCH  24  26
HETATM   26  C6  UNL     1      -3.824  50.522 -11.063  1.00  0.00     0.008 C 
BRANCH  26  27
HETATM   27  C5  UNL     1      -4.594  49.606 -10.100  1.00  0.00     0.028 C 
BRANCH  27  28
HETATM   28  C4  UNL     1      -6.085  49.798 -10.178  1.00  0.00    -0.025 C 
HETATM   29  C2  UNL     1      -6.995  49.028 -10.806  1.00  0.00    -0.091 C 
HETATM   30  C1  UNL     1      -6.698  47.772 -11.579  1.00  0.00     0.042 C 
HETATM   31  C3  UNL     1      -8.457  49.397 -10.776  1.00  0.00     0.042 C 
ENDBRANCH  27  28
ENDBRANCH  26  27
ENDBRANCH  24  26
ENDBRANCH   1  24
TORSDOF 4
ENDMDL
