MODEL 1
REMARK minimizedAffinity -8.00548172
REMARK CNNscore 0.650090516
REMARK CNNaffinity 7.06583023
REMARK  16 active torsions:
REMARK  status: ('A' for Active; 'I' for Inactive)
REMARK    1  A    between atoms: S1_2  and  C2_3 
REMARK    2  A    between atoms: C2_3  and  C3_4 
REMARK    3  A    between atoms: C3_4  and  C4_5 
REMARK    4  A    between atoms: C4_5  and  N1_6 
REMARK    5  A    between atoms: C4_5  and  C33_44 
REMARK       I    between atoms: N1_6  and  C5_7 
REMARK    6  A    between atoms: C5_7  and  C6_9 
REMARK    7  A    between atoms: C6_9  and  N2_11 
REMARK       I    between atoms: N2_11  and  C8_12 
REMARK    8  A    between atoms: C8_12  and  C9_14 
REMARK    9  A    between atoms: C9_14  and  C10_15 
REMARK   10  A    between atoms: C10_15  and  C11_16 
REMARK   11  A    between atoms: C11_16  and  O4_18 
REMARK   12  A    between atoms: O4_18  and  C12_19 
REMARK   13  A    between atoms: C12_19  and  C13_20 
REMARK   14  A    between atoms: C13_20  and  C14_22 
REMARK   15  A    between atoms: C14_22  and  O6_23 
REMARK   16  A    between atoms: C33_44  and  O10_46 
ROOT
HETATM    1  C12 UNL     1      -1.514   9.346  17.175  1.00  0.00     0.260 C 
ENDROOT
BRANCH   1   2
HETATM    2  O4  UNL     1      -1.145  10.725  17.136  1.00  0.00    -0.314 OA
BRANCH   2   3
HETATM    3  C11 UNL     1      -0.832  11.264  18.349  1.00  0.00     0.259 C 
HETATM    4  O3  UNL     1      -1.559  12.014  18.986  1.00  0.00    -0.265 OA
BRANCH   3   5
HETATM    5  C10 UNL     1       0.566  10.850  18.743  1.00  0.00     0.120 C 
BRANCH   5   6
HETATM    6  C9  UNL     1       0.873  11.207  20.190  1.00  0.00     0.112 C 
BRANCH   6   7
HETATM    7  C8  UNL     1       2.135  10.529  20.681  1.00  0.00     0.218 C 
HETATM    8  N2  UNL     1       2.700  11.151  21.772  1.00  0.00    -0.348 N 
HETATM    9  H14 UNL     1       2.358  12.068  22.030  1.00  0.00     0.163 HD
HETATM   10  O2  UNL     1       2.643   9.555  20.138  1.00  0.00    -0.274 OA
BRANCH   8  11
HETATM   11  C6  UNL     1       4.008  10.753  22.300  1.00  0.00     0.172 C 
HETATM   12  C7  UNL     1       3.826   9.838  23.503  1.00  0.00     0.042 C 
BRANCH  11  13
HETATM   13  C5  UNL     1       4.833  12.006  22.670  1.00  0.00     0.240 C 
HETATM   14  N1  UNL     1       6.190  11.881  22.471  1.00  0.00    -0.345 N 
HETATM   15  H9  UNL     1       6.564  10.945  22.302  1.00  0.00     0.163 HD
HETATM   16  O1  UNL     1       4.334  13.018  23.149  1.00  0.00    -0.271 OA
BRANCH  14  17
HETATM   17  C4  UNL     1       7.153  12.907  22.870  1.00  0.00     0.183 C 
BRANCH  17  18
HETATM   18  C3  UNL     1       7.175  14.136  21.943  1.00  0.00     0.046 C 
BRANCH  18  19
HETATM   19  C2  UNL     1       6.716  13.904  20.503  1.00  0.00     0.076 C 
BRANCH  19  20
HETATM   20  S1  UNL     1       7.839  12.891  19.485  1.00  0.00    -0.173 SA
HETATM   21  C1  UNL     1       8.314  14.116  18.239  1.00  0.00     0.089 C 
ENDBRANCH  19  20
ENDBRANCH  18  19
ENDBRANCH  17  18
BRANCH  17  22
HETATM   22  C33 UNL     1       8.525  12.252  23.038  1.00  0.00     0.163 C 
HETATM   23  O9  UNL     1       8.742  11.148  23.514  1.00  0.00    -0.648 OA
BRANCH  22  24
HETATM   24  O10 UNL     1       9.555  13.043  22.667  1.00  0.00    -0.775 OA
HETATM   25  H46 UNL     1      10.344  12.488  22.848  1.00  0.00     0.167 HD
ENDBRANCH  22  24
ENDBRANCH  17  22
ENDBRANCH  14  17
ENDBRANCH  11  13
ENDBRANCH   8  11
ENDBRANCH   6   7
ENDBRANCH   5   6
ENDBRANCH   3   5
ENDBRANCH   2   3
ENDBRANCH   1   2
BRANCH   1  26
HETATM   26  C13 UNL     1      -2.623   9.006  16.180  1.00  0.00     0.185 C 
HETATM   27  O5  UNL     1      -3.746   9.523  16.246  1.00  0.00    -0.292 OA
BRANCH  26  28
HETATM   28  C14 UNL     1      -2.324   8.023  15.032  1.00  0.00     0.128 C 
HETATM   29  C15 UNL     1      -3.474   7.739  14.043  1.00  0.00     0.047 C 
HETATM   30  C16 UNL     1      -2.812   7.369  12.699  1.00  0.00     0.009 C 
HETATM   31  C17 UNL     1      -1.310   7.388  12.983  1.00  0.00     0.002 C 
HETATM   32  C18 UNL     1      -0.325   7.478  11.812  1.00  0.00     0.003 C 
HETATM   33  C31 UNL     1      -1.131   8.433  14.105  1.00  0.00     0.005 C 
HETATM   34  C19 UNL     1      -0.819   8.200  10.544  1.00  0.00     0.010 C 
HETATM   35  C28 UNL     1       1.054   8.064  12.210  1.00  0.00     0.072 C 
HETATM   36  C20 UNL     1       0.328   8.544   9.574  1.00  0.00     0.035 C 
HETATM   37  C21 UNL     1       1.502   7.613   9.768  1.00  0.00    -0.067 C 
HETATM   38  C22 UNL     1       1.879   6.778   8.783  1.00  0.00     0.053 C 
HETATM   39  C26 UNL     1       2.147   7.619  11.168  1.00  0.00    -0.009 C 
HETATM   40  C23 UNL     1       2.968   5.796   8.977  1.00  0.00     0.149 C 
HETATM   41  O7  UNL     1       3.344   5.131   8.015  1.00  0.00    -0.293 OA
HETATM   42  C24 UNL     1       3.606   5.672  10.339  1.00  0.00     0.084 C 
HETATM   43  C25 UNL     1       2.704   6.200  11.451  1.00  0.00     0.022 C 
HETATM   44  C27 UNL     1       3.295   8.652  11.166  1.00  0.00     0.021 C 
HETATM   45  C29 UNL     1       1.361   7.889  13.700  1.00  0.00     0.133 C 
HETATM   46  O8  UNL     1       2.479   7.566  14.107  1.00  0.00    -0.297 OA
HETATM   47  C30 UNL     1       0.275   8.253  14.713  1.00  0.00     0.091 C 
HETATM   48  C32 UNL     1      -1.319   9.890  13.620  1.00  0.00     0.019 C 
BRANCH  28  49
HETATM   49  O6  UNL     1      -2.044   6.768  15.683  1.00  0.00    -0.381 OA
HETATM   50  H21 UNL     1      -1.500   6.970  16.469  1.00  0.00     0.211 HD
ENDBRANCH  28  49
ENDBRANCH  26  28
ENDBRANCH   1  26
TORSDOF 16
ENDMDL
