MODEL 1
REMARK minimizedAffinity -8.60283375
REMARK CNNscore 0.607593477
REMARK CNNaffinity 7.05631971
REMARK  12 active torsions:
REMARK  status: ('A' for Active; 'I' for Inactive)
REMARK    1  A    between atoms: C2_2  and  N1_3 
REMARK    2  A    between atoms: N1_3  and  C3_4 
REMARK    3  A    between atoms: C3_4  and  C4_5 
REMARK    4  A    between atoms: C4_5  and  C5_6 
REMARK    5  A    between atoms: C4_5  and  C32_37 
REMARK    6  A    between atoms: C5_6  and  C7_8 
REMARK    7  A    between atoms: C9_10  and  O1_11 
REMARK    8  A    between atoms: C31_35  and  O4_36 
REMARK    9  A    between atoms: C32_37  and  O5_38 
REMARK   10  A    between atoms: C32_37  and  C33_39 
REMARK   11  A    between atoms: C34_40  and  C36_42 
REMARK   12  A    between atoms: C36_42  and  O7_44 
ROOT
HETATM    1  C7  UNL     1      -0.293  10.651  17.144  1.00  0.00     0.002 C 
HETATM    2  C8  UNL     1      -1.054  11.961  16.792  1.00  0.00     0.038 C 
HETATM    3  C9  UNL     1      -2.342  11.545  16.040  1.00  0.00     0.132 C 
HETATM    4  C10 UNL     1      -2.451  10.001  16.245  1.00  0.00     0.017 C 
HETATM    5  C11 UNL     1      -3.083   9.725  17.656  1.00  0.00     0.023 C 
HETATM    6  C12 UNL     1      -3.272   9.125  15.288  1.00  0.00    -0.029 C 
HETATM    7  C13 UNL     1      -2.889   7.849  14.999  1.00  0.00     0.003 C 
HETATM    8  C14 UNL     1      -1.697   7.265  15.729  1.00  0.00     0.157 C 
HETATM    9  O2  UNL     1      -1.443   6.062  15.705  1.00  0.00    -0.293 OA
HETATM   10  C15 UNL     1      -0.770   8.165  16.515  1.00  0.00     0.094 C 
HETATM   11  C16 UNL     1      -0.905   9.632  16.111  1.00  0.00    -0.016 C 
HETATM   12  C17 UNL     1      -0.201   9.832  14.691  1.00  0.00     0.011 C 
HETATM   13  C18 UNL     1      -0.964  10.070  13.373  1.00  0.00     0.001 C 
HETATM   14  C19 UNL     1      -0.706   9.048  12.256  1.00  0.00     0.000 C 
HETATM   15  C20 UNL     1      -1.342   7.669  12.439  1.00  0.00     0.001 C 
HETATM   16  C21 UNL     1      -2.886   7.682  12.510  1.00  0.00     0.015 C 
HETATM   17  C22 UNL     1      -3.537   7.073  13.828  1.00  0.00    -0.004 C 
HETATM   18  C23 UNL     1      -3.266   5.532  13.796  1.00  0.00     0.022 C 
HETATM   19  C24 UNL     1      -4.220   4.769  12.895  1.00  0.00     0.080 C 
HETATM   20  C25 UNL     1      -5.602   4.829  13.479  1.00  0.00     0.135 C 
HETATM   21  O3  UNL     1      -6.362   3.866  13.376  1.00  0.00    -0.297 OA
HETATM   22  C26 UNL     1      -6.014   6.118  14.210  1.00  0.00     0.018 C 
HETATM   23  C27 UNL     1      -5.962   5.824  15.722  1.00  0.00     0.023 C 
HETATM   24  C28 UNL     1      -7.491   6.386  13.827  1.00  0.00     0.023 C 
HETATM   25  C29 UNL     1      -5.106   7.326  13.754  1.00  0.00     0.017 C 
HETATM   26  C30 UNL     1      -5.566   8.642  14.422  1.00  0.00     0.043 C 
HETATM   27  C31 UNL     1      -4.499   9.708  14.622  1.00  0.00     0.149 C 
ENDROOT
BRANCH   1  28
HETATM   28  C5  UNL     1       1.234  10.841  17.475  1.00  0.00    -0.005 C 
HETATM   29  C6  UNL     1       2.147   9.620  17.314  1.00  0.00     0.011 C 
BRANCH  28  30
HETATM   30  C4  UNL     1       1.469  11.654  18.804  1.00  0.00     0.050 C 
BRANCH  30  31
HETATM   31  C3  UNL     1       0.210  11.986  19.651  1.00  0.00     0.277 C 
BRANCH  31  32
HETATM   32  N1  UNL     1      -0.081  13.400  19.845  1.00  0.00     0.083 N 
HETATM   33  H6  UNL     1      -1.016  13.630  19.511  1.00  0.00     0.315 HD
BRANCH  32  34
HETATM   34  C2  UNL     1       0.896  14.253  19.172  1.00  0.00     0.265 C 
HETATM   35  C1  UNL     1       1.273  15.421  20.072  1.00  0.00     0.037 C 
ENDBRANCH  32  34
ENDBRANCH  31  32
ENDBRANCH  30  31
BRANCH  30  36
HETATM   36  C32 UNL     1       2.662  11.134  19.664  1.00  0.00     0.147 C 
BRANCH  36  37
HETATM   37  O5  UNL     1       3.660  10.676  18.754  1.00  0.00    -0.391 OA
HETATM   38  H50 UNL     1       4.256  11.423  18.594  1.00  0.00     0.210 HD
ENDBRANCH  36  37
BRANCH  36  39
HETATM   39  C33 UNL     1       2.341  10.064  20.673  1.00  0.00     0.018 C 
HETATM   40  C34 UNL     1       2.926   9.767  21.854  1.00  0.00     0.010 C 
HETATM   41  C35 UNL     1       4.081  10.517  22.462  1.00  0.00     0.055 C 
BRANCH  40  42
HETATM   42  C36 UNL     1       2.416   8.637  22.666  1.00  0.00     0.171 C 
HETATM   43  O6  UNL     1       1.821   7.660  22.243  1.00  0.00    -0.646 OA
BRANCH  42  44
HETATM   44  O7  UNL     1       2.628   8.775  23.984  1.00  0.00    -0.773 OA
HETATM   45  H55 UNL     1       2.223   7.964  24.353  1.00  0.00     0.167 HD
ENDBRANCH  42  44
ENDBRANCH  40  42
ENDBRANCH  36  39
ENDBRANCH  30  36
ENDBRANCH  28  30
ENDBRANCH   1  28
BRANCH   3  46
HETATM   46  O1  UNL     1      -3.418  12.338  16.512  1.00  0.00    -0.394 OA
HETATM   47  H18 UNL     1      -4.172  11.743  16.724  1.00  0.00     0.210 HD
ENDBRANCH   3  46
BRANCH  27  48
HETATM   48  O4  UNL     1      -5.100  10.699  15.450  1.00  0.00    -0.391 OA
HETATM   49  H48 UNL     1      -5.241  11.482  14.889  1.00  0.00     0.210 HD
ENDBRANCH  27  48
TORSDOF 12
ENDMDL
