MODEL 1
REMARK minimizedAffinity -8.91583252
REMARK CNNscore 0.650595427
REMARK CNNaffinity 6.76837778
REMARK  7 active torsions:
REMARK  status: ('A' for Active; 'I' for Inactive)
REMARK    1  A    between atoms: C2_2  and  C30_33 
REMARK    2  A    between atoms: C3_3  and  C4_4 
REMARK    3  A    between atoms: C4_4  and  C5_5 
REMARK    4  A    between atoms: C5_5  and  C6_6 
REMARK    5  A    between atoms: C6_6  and  C8_8 
REMARK    6  A    between atoms: C10_10  and  O1_11 
REMARK    7  A    between atoms: C30_33  and  O5_35 
ROOT
HETATM    1  C8  UNL     1      -2.086   9.128  16.274  1.00  0.00     0.001 C 
HETATM    2  C9  UNL     1      -3.239   9.607  15.356  1.00  0.00     0.038 C 
HETATM    3  C10 UNL     1      -2.771   9.365  13.899  1.00  0.00     0.131 C 
HETATM    4  C11 UNL     1      -1.532   8.432  14.026  1.00  0.00     0.014 C 
HETATM    5  C12 UNL     1      -2.034   6.959  14.158  1.00  0.00     0.023 C 
HETATM    6  C13 UNL     1      -0.486   8.387  12.915  1.00  0.00    -0.058 C 
HETATM    7  C14 UNL     1       0.807   8.055  13.161  1.00  0.00    -0.000 C 
HETATM    8  C15 UNL     1       1.214   7.794  14.616  1.00  0.00     0.157 C 
HETATM    9  O2  UNL     1       2.320   7.328  14.893  1.00  0.00    -0.293 OA
HETATM   10  C16 UNL     1       0.252   8.110  15.758  1.00  0.00     0.094 C 
HETATM   11  C17 UNL     1      -0.868   9.042  15.308  1.00  0.00    -0.019 C 
HETATM   12  C18 UNL     1      -0.249  10.456  15.084  1.00  0.00     0.017 C 
HETATM   13  C19 UNL     1       1.913   8.012  12.071  1.00  0.00    -0.008 C 
HETATM   14  C20 UNL     1       2.947   9.098  12.494  1.00  0.00     0.021 C 
HETATM   15  C21 UNL     1       2.616   6.619  12.036  1.00  0.00     0.022 C 
HETATM   16  C22 UNL     1       2.091   5.673  10.969  1.00  0.00     0.080 C 
HETATM   17  C23 UNL     1       2.286   6.245   9.586  1.00  0.00     0.135 C 
HETATM   18  O3  UNL     1       2.483   5.497   8.626  1.00  0.00    -0.297 OA
HETATM   19  C24 UNL     1       2.219   7.768   9.425  1.00  0.00     0.018 C 
HETATM   20  C25 UNL     1       3.665   8.292   9.349  1.00  0.00     0.023 C 
HETATM   21  C26 UNL     1       1.571   8.086   8.056  1.00  0.00     0.023 C 
HETATM   22  C27 UNL     1       1.390   8.398  10.615  1.00  0.00     0.014 C 
HETATM   23  C28 UNL     1      -0.116   8.096  10.444  1.00  0.00     0.011 C 
HETATM   24  C29 UNL     1      -0.978   8.700  11.536  1.00  0.00     0.036 C 
ENDROOT
BRANCH   1  25
HETATM   25  C6  UNL     1      -1.909   9.872  17.632  1.00  0.00    -0.013 C 
HETATM   26  C7  UNL     1      -3.117  10.801  17.851  1.00  0.00     0.010 C 
BRANCH  25  27
HETATM   27  C5  UNL     1      -0.605  10.688  17.778  1.00  0.00     0.008 C 
BRANCH  27  28
HETATM   28  C4  UNL     1      -0.483  11.390  19.137  1.00  0.00     0.028 C 
BRANCH  28  29
HETATM   29  C3  UNL     1       0.552  10.719  19.997  1.00  0.00    -0.013 C 
HETATM   30  C2  UNL     1       1.883  10.673  19.788  1.00  0.00     0.008 C 
HETATM   31  C1  UNL     1       2.607  11.251  18.609  1.00  0.00     0.055 C 
BRANCH  30  32
HETATM   32  C30 UNL     1       2.690   9.959  20.813  1.00  0.00     0.171 C 
HETATM   33  O4  UNL     1       3.897  10.016  20.960  1.00  0.00    -0.646 OA
BRANCH  32  34
HETATM   34  O5  UNL     1       1.932   9.194  21.616  1.00  0.00    -0.773 OA
HETATM   35  H44 UNL     1       2.584   8.789  22.224  1.00  0.00     0.167 HD
ENDBRANCH  32  34
ENDBRANCH  30  32
ENDBRANCH  28  29
ENDBRANCH  27  28
ENDBRANCH  25  27
ENDBRANCH   1  25
BRANCH   3  36
HETATM   36  O1  UNL     1      -3.827   8.807  13.131  1.00  0.00    -0.394 OA
HETATM   37  H17 UNL     1      -4.582   9.419  13.181  1.00  0.00     0.210 HD
ENDBRANCH   3  36
TORSDOF 7
ENDMDL
