MODEL 1
REMARK minimizedAffinity -9.63605976
REMARK  6 active torsions:
REMARK  status: ('A' for Active; 'I' for Inactive)
REMARK    1  A    between atoms: C2_2  and  C30_32 
REMARK    2  A    between atoms: C3_3  and  C4_4 
REMARK    3  A    between atoms: C4_4  and  C5_6 
REMARK    4  A    between atoms: C5_6  and  C6_7 
REMARK    5  A    between atoms: C6_7  and  C8_9 
REMARK    6  A    between atoms: C30_32  and  O4_34 
ROOT
HETATM    1  C8  UNL     1      -4.081   7.165  14.600  1.00  0.00    -0.001 C 
HETATM    2  C9  UNL     1      -4.121   8.584  14.041  1.00  0.00     0.007 C 
HETATM    3  C10 UNL     1      -2.660   9.030  13.936  1.00  0.00     0.015 C 
HETATM    4  C11 UNL     1      -1.750   7.799  14.245  1.00  0.00    -0.013 C 
HETATM    5  C12 UNL     1      -1.225   7.912  15.702  1.00  0.00     0.021 C 
HETATM    6  C13 UNL     1      -0.522   7.797  13.311  1.00  0.00    -0.070 C 
HETATM    7  C14 UNL     1       0.262   8.887  13.205  1.00  0.00    -0.022 C 
HETATM    8  C15 UNL     1       1.554   8.947  12.462  1.00  0.00     0.034 C 
HETATM    9  C16 UNL     1       2.148   7.565  12.093  1.00  0.00     0.013 C 
HETATM   10  C17 UNL     1       3.415   7.685  11.163  1.00  0.00     0.018 C 
HETATM   11  C18 UNL     1       4.131   9.052  11.243  1.00  0.00     0.023 C 
HETATM   12  C19 UNL     1       4.471   6.627  11.556  1.00  0.00     0.023 C 
HETATM   13  C20 UNL     1       3.013   7.490   9.696  1.00  0.00     0.135 C 
HETATM   14  O2  UNL     1       3.817   7.113   8.843  1.00  0.00    -0.297 OA
HETATM   15  C21 UNL     1       1.608   7.884   9.303  1.00  0.00     0.080 C 
HETATM   16  C22 UNL     1       0.528   7.229  10.165  1.00  0.00     0.017 C 
HETATM   17  C23 UNL     1       1.015   6.637  11.520  1.00  0.00    -0.031 C 
HETATM   18  C24 UNL     1       1.525   5.195  11.260  1.00  0.00     0.016 C 
HETATM   19  C25 UNL     1      -0.159   6.513  12.590  1.00  0.00     0.024 C 
HETATM   20  C26 UNL     1      -1.394   5.767  12.028  1.00  0.00     0.010 C 
HETATM   21  C27 UNL     1      -2.753   6.211  12.568  1.00  0.00     0.011 C 
HETATM   22  C28 UNL     1      -2.734   6.574  14.061  1.00  0.00    -0.029 C 
HETATM   23  C29 UNL     1      -2.367   5.321  14.885  1.00  0.00     0.016 C 
ENDROOT
BRANCH   1  24
HETATM   24  C6  UNL     1      -5.407   6.350  14.559  1.00  0.00    -0.007 C 
HETATM   25  C7  UNL     1      -6.218   6.614  15.842  1.00  0.00     0.011 C 
BRANCH  24  26
HETATM   26  C5  UNL     1      -6.332   6.400  13.332  1.00  0.00     0.087 C 
BRANCH  26  27
HETATM   27  C4  UNL     1      -7.694   5.737  13.435  1.00  0.00     0.150 C 
HETATM   28  O1  UNL     1      -8.681   6.361  13.815  1.00  0.00    -0.293 OA
BRANCH  27  29
HETATM   29  C3  UNL     1      -7.796   4.315  12.998  1.00  0.00     0.063 C 
HETATM   30  C2  UNL     1      -6.759   3.566  12.574  1.00  0.00     0.015 C 
HETATM   31  C1  UNL     1      -5.342   4.037  12.408  1.00  0.00     0.055 C 
BRANCH  30  32
HETATM   32  C30 UNL     1      -6.989   2.147  12.210  1.00  0.00     0.171 C 
HETATM   33  O3  UNL     1      -6.213   1.436  11.598  1.00  0.00    -0.646 OA
BRANCH  32  34
HETATM   34  O4  UNL     1      -8.175   1.664  12.617  1.00  0.00    -0.773 OA
HETATM   35  H44 UNL     1      -8.158   0.736  12.305  1.00  0.00     0.167 HD
ENDBRANCH  32  34
ENDBRANCH  30  32
ENDBRANCH  27  29
ENDBRANCH  26  27
ENDBRANCH  24  26
ENDBRANCH   1  24
TORSDOF 6
ENDMDL
