MODEL 1
REMARK minimizedAffinity -7.80609369
REMARK CNNscore 0.459361076
REMARK CNNaffinity 6.96206284
REMARK  8 active torsions:
REMARK  status: ('A' for Active; 'I' for Inactive)
REMARK    1  A    between atoms: C3_3  and  O1_4 
REMARK    2  A    between atoms: N1_14  and  O2_16 
REMARK    3  A    between atoms: O2_16  and  C13_17 
REMARK    4  A    between atoms: C13_17  and  C14_18 
REMARK       I    between atoms: C14_18  and  N2_20 
REMARK    5  A    between atoms: N2_20  and  C15_21 
REMARK    6  A    between atoms: C15_21  and  C16_22 
REMARK    7  A    between atoms: C16_22  and  O4_23 
REMARK    8  A    between atoms: C16_22  and  C17_24 
ROOT
HETATM    1  C1  UNL     1       0.613   6.174  13.998  1.00  0.00     0.015 C 
HETATM    2  C2  UNL     1      -0.474   6.686  13.977  1.00  0.00    -0.078 C 
HETATM    3  C3  UNL     1      -1.797   7.338  13.968  1.00  0.00     0.128 C 
HETATM    4  C4  UNL     1      -1.986   8.188  12.707  1.00  0.00     0.052 C 
HETATM    5  C5  UNL     1      -3.494   8.371  12.641  1.00  0.00     0.010 C 
HETATM    6  C6  UNL     1      -4.019   6.958  12.918  1.00  0.00     0.002 C 
HETATM    7  C7  UNL     1      -5.522   6.937  13.264  1.00  0.00    -0.004 C 
HETATM    8  C8  UNL     1      -6.155   5.580  12.945  1.00  0.00     0.010 C 
HETATM    9  C9  UNL     1      -7.679   5.637  13.043  1.00  0.00     0.035 C 
HETATM   10  C10 UNL     1      -8.196   6.520  14.157  1.00  0.00    -0.069 C 
HETATM   11  C11 UNL     1      -9.468   6.955  14.102  1.00  0.00     0.030 C 
HETATM   12  C12 UNL     1     -10.085   7.706  15.225  1.00  0.00     0.032 C 
HETATM   13  N1  UNL     1     -11.262   8.230  15.032  1.00  0.00    -0.271 N 
ATOM     14  H1  UNL     1     -11.759   8.203  14.141  1.00  0.00     0.194 HD
HETATM   15  C23 UNL     1      -9.313   7.760  16.526  1.00  0.00     0.060 C 
HETATM   16  C24 UNL     1      -7.832   7.952  16.223  1.00  0.00     0.020 C 
HETATM   17  C25 UNL     1      -7.230   6.849  15.295  1.00  0.00    -0.016 C 
HETATM   18  C26 UNL     1      -7.055   5.563  16.139  1.00  0.00     0.020 C 
HETATM   19  C27 UNL     1      -5.873   7.423  14.700  1.00  0.00     0.002 C 
HETATM   20  C28 UNL     1      -4.683   7.359  15.679  1.00  0.00     0.007 C 
HETATM   21  C29 UNL     1      -3.704   6.229  15.369  1.00  0.00     0.014 C 
HETATM   22  C30 UNL     1      -3.037   6.352  13.978  1.00  0.00     0.003 C 
HETATM   23  C31 UNL     1      -2.649   4.926  13.513  1.00  0.00     0.020 C 
ENDROOT
BRANCH   3  24
HETATM   24  O1  UNL     1      -1.835   8.231  15.082  1.00  0.00    -0.377 OA
HETATM   25  H2  UNL     1      -1.012   8.750  15.058  1.00  0.00     0.211 HD
ENDBRANCH   3  24
BRANCH  13  26
HETATM   26  O2  UNL     1     -11.764   8.835  16.191  1.00  0.00    -0.271 OA
BRANCH  26  27
HETATM   27  C13 UNL     1     -13.174   8.983  16.060  1.00  0.00     0.303 C 
BRANCH  27  28
HETATM   28  C14 UNL     1     -13.793   9.199  17.430  1.00  0.00     0.243 C 
HETATM   29  O3  UNL     1     -14.947   9.587  17.592  1.00  0.00    -0.271 OA
HETATM   30  N2  UNL     1     -12.968   8.887  18.488  1.00  0.00    -0.356 N 
HETATM   31  H16 UNL     1     -12.016   8.604  18.273  1.00  0.00     0.162 HD
BRANCH  30  32
HETATM   32  C15 UNL     1     -13.427   8.840  19.872  1.00  0.00     0.159 C 
BRANCH  32  33
HETATM   33  C16 UNL     1     -12.316   8.529  20.903  1.00  0.00     0.170 C 
BRANCH  33  34
HETATM   34  O4  UNL     1     -11.366   9.594  20.992  1.00  0.00    -0.389 OA
HETATM   35  H20 UNL     1     -11.227   9.938  20.082  1.00  0.00     0.210 HD
ENDBRANCH  33  34
BRANCH  33  36
HETATM   36  C17 UNL     1     -12.920   8.312  22.270  1.00  0.00    -0.013 A 
HETATM   37  C18 UNL     1     -12.145   8.240  23.430  1.00  0.00     0.013 A 
HETATM   38  C19 UNL     1     -12.760   8.088  24.670  1.00  0.00     0.025 A 
HETATM   39  C20 UNL     1     -14.148   8.025  24.727  1.00  0.00     0.005 A 
HETATM   40  C21 UNL     1     -14.837   7.851  26.049  1.00  0.00     0.068 C 
HETATM   41  N3  UNL     1     -14.927   8.094  23.622  1.00  0.00    -0.369 N 
HETATM   42  C22 UNL     1     -14.300   8.228  22.429  1.00  0.00     0.097 A 
ATOM     43  H3  UNL     1     -15.943   8.047  23.685  1.00  0.00     0.165 HD
ENDBRANCH  33  36
ENDBRANCH  32  33
ENDBRANCH  30  32
ENDBRANCH  27  28
ENDBRANCH  26  27
ENDBRANCH  13  26
TORSDOF 8
ENDMDL
