MODEL 1
REMARK minimizedAffinity -9.12639999
REMARK CNNscore 0.506561399
REMARK CNNaffinity 7.17898989
REMARK  14 active torsions:
REMARK  status: ('A' for Active; 'I' for Inactive)
REMARK    1  A    between atoms: C2_2  and  C3_3 
REMARK    2  A    between atoms: C2_2  and  C35_44 
REMARK    3  A    between atoms: C3_3  and  C4_4 
REMARK    4  A    between atoms: C4_4  and  C5_5 
REMARK    5  A    between atoms: C5_5  and  C6_6 
REMARK    6  A    between atoms: C5_5  and  C7_9 
REMARK    7  A    between atoms: C6_6  and  O2_8 
REMARK    8  A    between atoms: C28_31  and  O4_32 
REMARK    9  A    between atoms: O4_32  and  C29_33 
REMARK   10  A    between atoms: C30_35  and  C31_36 
REMARK   11  A    between atoms: C31_36  and  O6_37 
REMARK   12  A    between atoms: C32_38  and  O7_39 
REMARK   13  A    between atoms: C33_40  and  O8_41 
REMARK   14  A    between atoms: C34_42  and  O9_43 
ROOT
HETATM    1  C7  UNL     1       0.322  52.089 -20.460  1.00  0.00     0.009 C 
HETATM    2  C8  UNL     1      -0.314  53.054 -19.432  1.00  0.00     0.007 C 
HETATM    3  C9  UNL     1      -1.380  52.238 -18.665  1.00  0.00     0.015 C 
HETATM    4  C10 UNL     1      -1.180  50.768 -19.095  1.00  0.00    -0.010 C 
HETATM    5  C11 UNL     1      -0.059  50.157 -18.186  1.00  0.00     0.021 C 
HETATM    6  C12 UNL     1      -2.354  49.782 -19.015  1.00  0.00    -0.039 C 
HETATM    7  C13 UNL     1      -2.403  48.732 -19.878  1.00  0.00    -0.066 C 
HETATM    8  C14 UNL     1      -1.309  48.537 -20.954  1.00  0.00     0.036 C 
HETATM    9  C15 UNL     1      -0.252  49.645 -21.140  1.00  0.00     0.015 C 
HETATM   10  C16 UNL     1      -0.756  50.980 -20.595  1.00  0.00    -0.028 C 
HETATM   11  C17 UNL     1      -1.928  51.471 -21.501  1.00  0.00     0.016 C 
HETATM   12  C18 UNL     1      -3.552  47.674 -19.865  1.00  0.00    -0.015 C 
HETATM   13  C19 UNL     1      -4.017  47.459 -21.327  1.00  0.00     0.020 C 
HETATM   14  C20 UNL     1      -2.944  46.363 -19.291  1.00  0.00     0.021 C 
HETATM   15  C21 UNL     1      -3.945  45.238 -19.106  1.00  0.00     0.080 C 
HETATM   16  C22 UNL     1      -5.084  45.679 -18.220  1.00  0.00     0.135 C 
HETATM   17  O3  UNL     1      -5.438  44.974 -17.273  1.00  0.00    -0.297 OA
HETATM   18  C23 UNL     1      -5.834  46.957 -18.625  1.00  0.00     0.018 C 
HETATM   19  C24 UNL     1      -6.772  46.601 -19.801  1.00  0.00     0.023 C 
HETATM   20  C25 UNL     1      -6.782  47.366 -17.465  1.00  0.00     0.023 C 
HETATM   21  C26 UNL     1      -4.791  48.109 -18.979  1.00  0.00     0.016 C 
HETATM   22  C27 UNL     1      -4.287  48.807 -17.700  1.00  0.00     0.043 C 
HETATM   23  C28 UNL     1      -3.415  50.035 -17.960  1.00  0.00     0.155 C 
ENDROOT
BRANCH  23  24
HETATM   24  O4  UNL     1      -2.782  50.410 -16.728  1.00  0.00    -0.349 OA
BRANCH  24  25
HETATM   25  C29 UNL     1      -2.868  49.419 -15.692  1.00  0.00     0.292 C 
HETATM   26  O5  UNL     1      -1.730  48.549 -15.693  1.00  0.00    -0.348 OA
HETATM   27  C30 UNL     1      -0.677  48.995 -14.823  1.00  0.00     0.179 C 
HETATM   28  C32 UNL     1      -1.135  48.882 -13.351  1.00  0.00     0.180 C 
HETATM   29  C33 UNL     1      -2.621  49.284 -13.191  1.00  0.00     0.183 C 
HETATM   30  C34 UNL     1      -3.075  50.167 -14.344  1.00  0.00     0.204 C 
BRANCH  27  31
HETATM   31  C31 UNL     1       0.594  48.194 -15.125  1.00  0.00     0.198 C 
BRANCH  31  32
HETATM   32  O6  UNL     1       1.558  48.368 -14.094  1.00  0.00    -0.398 OA
HETATM   33  H45 UNL     1       2.419  48.132 -14.480  1.00  0.00     0.209 HD
ENDBRANCH  31  32
ENDBRANCH  27  31
BRANCH  28  34
HETATM   34  O7  UNL     1      -1.012  47.536 -12.849  1.00  0.00    -0.390 OA
HETATM   35  H47 UNL     1      -1.116  47.595 -11.877  1.00  0.00     0.210 HD
ENDBRANCH  28  34
BRANCH  29  36
HETATM   36  O8  UNL     1      -3.460  48.123 -13.125  1.00  0.00    -0.390 OA
HETATM   37  H49 UNL     1      -2.856  47.357 -13.224  1.00  0.00     0.210 HD
ENDBRANCH  29  36
BRANCH  30  38
HETATM   38  O9  UNL     1      -2.336  51.401 -14.310  1.00  0.00    -0.388 OA
HETATM   39  H51 UNL     1      -2.462  51.796 -15.198  1.00  0.00     0.210 HD
ENDBRANCH  30  38
ENDBRANCH  24  25
ENDBRANCH  23  24
BRANCH   1  40
HETATM   40  C5  UNL     1       0.908  52.708 -21.758  1.00  0.00     0.089 C 
BRANCH  40  41
HETATM   41  C4  UNL     1      -0.033  52.831 -22.973  1.00  0.00     0.020 C 
BRANCH  41  42
HETATM   42  C3  UNL     1       0.632  52.522 -24.334  1.00  0.00     0.034 C 
BRANCH  42  43
HETATM   43  C2  UNL     1       0.023  51.445 -25.216  1.00  0.00    -0.086 C 
HETATM   44  C1  UNL     1      -1.167  50.868 -24.964  1.00  0.00     0.014 C 
BRANCH  43  45
HETATM   45  C35 UNL     1       0.803  51.039 -26.466  1.00  0.00     0.005 C 
HETATM   46  C36 UNL     1       0.190  51.615 -27.748  1.00  0.00     0.014 C 
HETATM   47  C37 UNL     1       2.286  51.404 -26.353  1.00  0.00     0.014 C 
ENDBRANCH  43  45
ENDBRANCH  42  43
ENDBRANCH  41  42
ENDBRANCH  40  41
BRANCH  40  48
HETATM   48  C6  UNL     1       1.488  54.065 -21.391  1.00  0.00     0.144 C 
HETATM   49  O1  UNL     1       1.603  55.023 -22.137  1.00  0.00    -0.650 OA
BRANCH  48  50
HETATM   50  O2  UNL     1       1.954  54.136 -20.127  1.00  0.00    -0.776 OA
HETATM   51  H8  UNL     1       2.318  55.044 -20.057  1.00  0.00     0.167 HD
ENDBRANCH  48  50
ENDBRANCH  40  48
ENDBRANCH   1  40
TORSDOF 14
ENDMDL
