MODEL 1
REMARK minimizedAffinity -10.4355021
REMARK CNNscore 0.40535289
REMARK CNNaffinity 7.36545563
REMARK  6 active torsions:
REMARK  status: ('A' for Active; 'I' for Inactive)
REMARK    1  A    between atoms: C5_6  and  O2_7 
REMARK    2  A    between atoms: C6_8  and  O3_10 
REMARK    3  A    between atoms: C15_19  and  C16_20 
REMARK    4  A    between atoms: C43_49  and  O7_50 
REMARK    5  A    between atoms: C44_51  and  C45_52 
REMARK    6  A    between atoms: C45_52  and  O8_53 
ROOT
HETATM    1  C1  UNL     1       2.055   7.051   6.590  1.00  0.00     0.013 C 
HETATM    2  C2  UNL     1       1.537   7.055   8.036  1.00  0.00     0.023 C 
HETATM    3  C3  UNL     1       1.515   8.494   8.583  1.00  0.00     0.167 C 
HETATM    4  O1  UNL     1       2.644   8.647   9.478  1.00  0.00    -0.373 OA
HETATM    5  C4  UNL     1       3.409   7.425   9.478  1.00  0.00     0.160 C 
HETATM    6  C5  UNL     1       4.267   7.255  10.766  1.00  0.00     0.181 C 
HETATM    7  C6  UNL     1       3.641   7.311  12.223  1.00  0.00     0.087 C 
HETATM    8  C7  UNL     1       2.792   6.053  12.418  1.00  0.00     0.049 C 
HETATM    9  C8  UNL     1       2.923   8.662  12.616  1.00  0.00     0.034 C 
HETATM   10  C9  UNL     1       3.882   9.867  12.618  1.00  0.00     0.012 C 
HETATM   11  C10 UNL     1       3.050  11.038  13.107  1.00  0.00     0.044 C 
HETATM   12  C11 UNL     1       2.331  10.516  14.354  1.00  0.00     0.094 C 
HETATM   13  O4  UNL     1       3.198  10.538  15.507  1.00  0.00    -0.363 OA
HETATM   14  C12 UNL     1       3.790  11.747  15.955  1.00  0.00     0.263 C 
HETATM   15  C13 UNL     1       3.390  12.021  17.342  1.00  0.00    -0.080 C 
HETATM   16  C14 UNL     1       3.050  12.241  18.473  1.00  0.00    -0.093 C 
HETATM   17  C15 UNL     1       2.611  12.488  19.874  1.00  0.00     0.121 C 
HETATM   18  C22 UNL     1       1.167  13.049  19.936  1.00  0.00     0.190 C 
HETATM   19  O5  UNL     1       0.234  12.100  19.428  1.00  0.00    -0.384 OA
HETATM   20  C23 UNL     1      -1.060  12.593  19.080  1.00  0.00     0.122 C 
HETATM   21  C24 UNL     1      -1.886  11.334  18.796  1.00  0.00     0.033 C 
HETATM   22  C25 UNL     1      -1.306  10.513  17.616  1.00  0.00     0.013 C 
HETATM   23  C26 UNL     1      -1.120  11.337  16.320  1.00  0.00    -0.025 C 
HETATM   24  C27 UNL     1      -2.534  11.658  15.762  1.00  0.00     0.016 C 
HETATM   25  C28 UNL     1      -0.381  12.643  16.688  1.00  0.00     0.071 C 
HETATM   26  C29 UNL     1      -1.029  13.449  17.805  1.00  0.00     0.045 C 
HETATM   27  C30 UNL     1      -0.025  13.411  15.431  1.00  0.00     0.154 C 
HETATM   28  O6  UNL     1      -0.445  14.524  15.145  1.00  0.00    -0.293 OA
HETATM   29  C31 UNL     1       0.984  12.722  14.588  1.00  0.00     0.057 C 
HETATM   30  C32 UNL     1       1.012  11.378  14.692  1.00  0.00    -0.036 C 
HETATM   31  C33 UNL     1      -0.319  10.624  15.178  1.00  0.00     0.031 C 
HETATM   32  C34 UNL     1       0.162   9.195  15.271  1.00  0.00     0.000 C 
HETATM   33  C35 UNL     1      -0.079   7.921  16.032  1.00  0.00     0.006 C 
HETATM   34  C36 UNL     1       1.261   7.116  15.886  1.00  0.00     0.001 C 
HETATM   35  C37 UNL     1       2.470   7.874  15.187  1.00  0.00     0.014 C 
HETATM   36  C38 UNL     1       2.114   8.861  13.978  1.00  0.00     0.006 C 
HETATM   37  C39 UNL     1       0.595   8.834  13.803  1.00  0.00     0.014 C 
HETATM   38  C40 UNL     1      -0.147   7.653  13.131  1.00  0.00     0.100 C 
HETATM   39  C41 UNL     1      -0.179   7.862  11.667  1.00  0.00    -0.103 C 
HETATM   40  C42 UNL     1      -0.081   8.231  10.527  1.00  0.00    -0.072 C 
HETATM   41  C43 UNL     1       0.181   8.914   9.252  1.00  0.00     0.226 C 
HETATM   42  C44 UNL     1       2.437   6.326   9.041  1.00  0.00     0.047 C 
ENDROOT
BRANCH  17  43
HETATM   43  C16 UNL     1       2.818  11.258  20.752  1.00  0.00    -0.040 A 
HETATM   44  C17 UNL     1       1.776  10.342  20.983  1.00  0.00     0.008 A 
HETATM   45  C18 UNL     1       1.960   9.232  21.808  1.00  0.00     0.001 A 
HETATM   46  C19 UNL     1       3.195   9.016  22.411  1.00  0.00     0.000 A 
HETATM   47  C20 UNL     1       4.239   9.914  22.194  1.00  0.00     0.001 A 
HETATM   48  C21 UNL     1       4.056  11.027  21.369  1.00  0.00     0.008 A 
ENDBRANCH  17  43
BRANCH   7  49
HETATM   49  O3  UNL     1       4.774   7.157  13.119  1.00  0.00    -0.387 OA
HETATM   50  H12 UNL     1       5.530   7.558  12.644  1.00  0.00     0.210 HD
ENDBRANCH   7  49
BRANCH   6  51
HETATM   51  O2  UNL     1       5.359   8.202  10.716  1.00  0.00    -0.390 OA
HETATM   52  H8  UNL     1       5.058   8.965  10.188  1.00  0.00     0.210 HD
ENDBRANCH   6  51
BRANCH  42  53
HETATM   53  C45 UNL     1       3.115   5.066   8.513  1.00  0.00     0.172 C 
BRANCH  53  54
HETATM   54  O8  UNL     1       3.273   4.109   9.541  1.00  0.00    -0.400 OA
HETATM   55  H56 UNL     1       2.410   3.688   9.696  1.00  0.00     0.209 HD
ENDBRANCH  53  54
ENDBRANCH  42  53
BRANCH  41  56
HETATM   56  O7  UNL     1      -0.920   8.684   8.381  1.00  0.00    -0.381 OA
HETATM   57  H52 UNL     1      -0.952   9.434   7.769  1.00  0.00     0.211 HD
ENDBRANCH  41  56
TORSDOF 6
ENDMDL
