MODEL 1
REMARK minimizedAffinity -10.6338768
REMARK CNNscore 0.386108339
REMARK CNNaffinity 7.12173223
REMARK  11 active torsions:
REMARK  status: ('A' for Active; 'I' for Inactive)
REMARK    1  A    between atoms: C2_2  and  C4_4 
REMARK    2  A    between atoms: C4_4  and  C6_6 
REMARK    3  A    between atoms: C7_7  and  C8_8 
REMARK    4  A    between atoms: C8_8  and  C10_10 
REMARK    5  A    between atoms: C24_24  and  O1_25 
REMARK    6  A    between atoms: O1_25  and  C25_26 
REMARK    7  A    between atoms: C26_28  and  C27_29 
REMARK    8  A    between atoms: C27_29  and  O3_30 
REMARK    9  A    between atoms: C28_31  and  O4_32 
REMARK   10  A    between atoms: C29_33  and  O5_34 
REMARK   11  A    between atoms: C30_35  and  O6_36 
ROOT
HETATM    1  C10 UNL     1      -6.599   7.178  14.243  1.00  0.00     0.002 C 
HETATM    2  C11 UNL     1      -6.749   8.552  14.948  1.00  0.00     0.006 C 
HETATM    3  C12 UNL     1      -5.346   9.186  14.969  1.00  0.00     0.009 C 
HETATM    4  C13 UNL     1      -4.495   8.241  14.128  1.00  0.00     0.041 C 
HETATM    5  C14 UNL     1      -5.088   6.836  14.397  1.00  0.00    -0.029 C 
HETATM    6  C15 UNL     1      -4.745   6.269  15.788  1.00  0.00     0.016 C 
HETATM    7  C16 UNL     1      -4.539   5.885  13.306  1.00  0.00     0.037 C 
HETATM    8  C17 UNL     1      -3.050   6.053  13.078  1.00  0.00    -0.019 C 
HETATM    9  C18 UNL     1      -2.336   7.125  13.486  1.00  0.00    -0.030 C 
HETATM   10  C19 UNL     1      -2.967   8.333  14.205  1.00  0.00     0.142 C 
HETATM   11  C20 UNL     1      -2.330   8.486  15.571  1.00  0.00     0.018 C 
HETATM   12  C21 UNL     1      -0.993   8.619  15.536  1.00  0.00     0.014 C 
HETATM   13  C22 UNL     1      -0.436   8.610  14.124  1.00  0.00     0.127 C 
HETATM   14  C23 UNL     1       1.066   8.925  14.075  1.00  0.00     0.078 C 
HETATM   15  C24 UNL     1       1.700   8.692  12.685  1.00  0.00     0.128 C 
HETATM   16  C31 UNL     1       0.666   8.480  11.574  1.00  0.00     0.033 C 
HETATM   17  C32 UNL     1      -0.369   7.382  11.870  1.00  0.00     0.020 C 
HETATM   18  C33 UNL     1      -0.805   7.287  13.357  1.00  0.00     0.021 C 
HETATM   19  C34 UNL     1      -0.133   6.059  14.019  1.00  0.00     0.024 C 
HETATM   20  O7  UNL     1      -1.108   9.725  13.468  1.00  0.00    -0.223 OA
HETATM   21  O8  UNL     1      -2.589   9.506  13.436  1.00  0.00    -0.219 OA
ENDROOT
BRANCH  15  22
HETATM   22  O1  UNL     1       2.589   7.572  12.815  1.00  0.00    -0.353 OA
BRANCH  22  23
HETATM   23  C25 UNL     1       3.973   7.886  12.598  1.00  0.00     0.292 C 
HETATM   24  O2  UNL     1       4.624   6.848  11.872  1.00  0.00    -0.348 OA
HETATM   25  C26 UNL     1       5.921   7.273  11.405  1.00  0.00     0.179 C 
HETATM   26  C28 UNL     1       6.678   8.138  12.449  1.00  0.00     0.180 C 
HETATM   27  C29 UNL     1       6.173   7.871  13.880  1.00  0.00     0.183 C 
HETATM   28  C30 UNL     1       4.636   7.980  13.988  1.00  0.00     0.204 C 
BRANCH  25  29
HETATM   29  C27 UNL     1       6.698   6.013  11.004  1.00  0.00     0.198 C 
BRANCH  29  30
HETATM   30  O3  UNL     1       5.830   5.024  10.461  1.00  0.00    -0.398 OA
HETATM   31  H39 UNL     1       6.180   4.158  10.746  1.00  0.00     0.209 HD
ENDBRANCH  29  30
ENDBRANCH  25  29
BRANCH  26  32
HETATM   32  O4  UNL     1       6.441   9.524  12.131  1.00  0.00    -0.390 OA
HETATM   33  H41 UNL     1       6.975  10.057  12.748  1.00  0.00     0.210 HD
ENDBRANCH  26  32
BRANCH  27  34
HETATM   34  O5  UNL     1       6.624   6.581  14.322  1.00  0.00    -0.390 OA
HETATM   35  H43 UNL     1       6.036   5.901  13.945  1.00  0.00     0.210 HD
ENDBRANCH  27  34
BRANCH  28  36
HETATM   36  O6  UNL     1       4.252   9.203  14.634  1.00  0.00    -0.388 OA
HETATM   37  H45 UNL     1       3.277   9.182  14.675  1.00  0.00     0.210 HD
ENDBRANCH  28  36
ENDBRANCH  22  23
ENDBRANCH  15  22
BRANCH   1  38
HETATM   38  C8  UNL     1      -7.660   6.103  14.593  1.00  0.00     0.008 C 
HETATM   39  C9  UNL     1      -7.332   5.478  15.956  1.00  0.00     0.014 C 
BRANCH  38  40
HETATM   40  C7  UNL     1      -7.826   4.969  13.604  1.00  0.00    -0.026 C 
HETATM   41  C6  UNL     1      -6.803   4.275  13.073  1.00  0.00    -0.026 C 
BRANCH  41  42
HETATM   42  C4  UNL     1      -6.857   3.152  12.049  1.00  0.00     0.007 C 
HETATM   43  C5  UNL     1      -7.654   1.986  12.652  1.00  0.00     0.014 C 
BRANCH  42  44
HETATM   44  C2  UNL     1      -5.489   2.701  11.448  1.00  0.00    -0.015 C 
HETATM   45  C1  UNL     1      -5.299   3.246  10.023  1.00  0.00     0.010 C 
HETATM   46  C3  UNL     1      -5.281   1.179  11.437  1.00  0.00     0.010 C 
ENDBRANCH  42  44
ENDBRANCH  41  42
ENDBRANCH  38  40
ENDBRANCH   1  38
TORSDOF 11
ENDMDL
