MODEL 1
REMARK minimizedAffinity -9.26858807
REMARK  11 active torsions:
REMARK  status: ('A' for Active; 'I' for Inactive)
REMARK    1  A    between atoms: C2_2  and  C4_4 
REMARK    2  A    between atoms: C12_13  and  C13_14 
REMARK    3  A    between atoms: C13_14  and  C15_16 
REMARK    4  A    between atoms: C15_16  and  C16_17 
REMARK    5  A    between atoms: C16_17  and  C17_18 
REMARK    6  A    between atoms: C18_19  and  C20_21 
REMARK    7  A    between atoms: C20_21  and  O3_23 
REMARK    8  A    between atoms: C27_30  and  C28_31 
REMARK    9  A    between atoms: C28_31  and  C29_32 
REMARK   10  A    between atoms: C29_32  and  C30_33 
REMARK   11  A    between atoms: C30_33  and  O5_35 
ROOT
HETATM    1  C4  UNL     1      -4.197   3.784  12.907  1.00  0.00     0.054 C 
HETATM    2  C5  UNL     1      -4.513   5.016  13.713  1.00  0.00     0.160 A 
HETATM    3  O1  UNL     1      -4.502   6.266  13.008  1.00  0.00    -0.374 OA
HETATM    4  C6  UNL     1      -3.485   6.068  13.999  1.00  0.00     0.157 A 
HETATM    5  C7  UNL     1      -2.066   5.919  13.520  1.00  0.00     0.035 C 
HETATM    6  C8  UNL     1      -1.351   7.298  13.245  1.00  0.00    -0.029 C 
HETATM    7  C9  UNL     1      -2.243   8.253  12.418  1.00  0.00     0.016 C 
HETATM    8  C10 UNL     1      -1.064   8.010  14.612  1.00  0.00     0.011 C 
HETATM    9  C11 UNL     1       0.447   8.127  14.761  1.00  0.00     0.006 C 
HETATM   10  C12 UNL     1       0.952   8.189  13.324  1.00  0.00    -0.002 C 
HETATM   11  C21 UNL     1       0.093   7.107  12.587  1.00  0.00    -0.032 C 
HETATM   12  C22 UNL     1       0.147   7.382  11.065  1.00  0.00     0.016 C 
HETATM   13  C23 UNL     1       0.589   5.665  12.830  1.00  0.00     0.011 C 
HETATM   14  C24 UNL     1      -0.329   4.593  12.232  1.00  0.00     0.011 C 
HETATM   15  C25 UNL     1      -1.814   4.909  12.395  1.00  0.00    -0.024 A 
HETATM   16  C26 UNL     1      -2.630   4.966  11.123  1.00  0.00     0.022 A 
HETATM   17  C27 UNL     1      -2.880   3.812  12.081  1.00  0.00    -0.021 A 
ENDROOT
BRANCH  10  18
HETATM   18  C13 UNL     1       2.502   8.146  13.157  1.00  0.00    -0.014 C 
HETATM   19  C14 UNL     1       3.141   9.492  12.800  1.00  0.00     0.010 C 
BRANCH  18  20
HETATM   20  C15 UNL     1       2.859   7.061  12.103  1.00  0.00     0.008 C 
BRANCH  20  21
HETATM   21  C16 UNL     1       3.599   7.560  10.850  1.00  0.00     0.028 C 
BRANCH  21  22
HETATM   22  C17 UNL     1       3.373   6.705   9.632  1.00  0.00    -0.013 C 
HETATM   23  C18 UNL     1       2.811   7.063   8.460  1.00  0.00     0.008 C 
HETATM   24  C19 UNL     1       2.579   6.076   7.354  1.00  0.00     0.055 C 
BRANCH  23  25
HETATM   25  C20 UNL     1       2.350   8.433   8.142  1.00  0.00     0.171 C 
HETATM   26  O2  UNL     1       1.213   8.846   8.281  1.00  0.00    -0.646 OA
BRANCH  25  27
HETATM   27  O3  UNL     1       3.303   9.189   7.573  1.00  0.00    -0.773 OA
HETATM   28  H30 UNL     1       2.844  10.032   7.380  1.00  0.00     0.167 HD
ENDBRANCH  25  27
ENDBRANCH  23  25
ENDBRANCH  21  22
ENDBRANCH  20  21
ENDBRANCH  18  20
ENDBRANCH  10  18
BRANCH  17  29
HETATM   29  C28 UNL     1      -2.390   2.390  11.736  1.00  0.00     0.021 C 
BRANCH  29  30
HETATM   30  C29 UNL     1      -0.988   2.262  11.153  1.00  0.00     0.111 C 
BRANCH  30  31
HETATM   31  C30 UNL     1      -0.737   0.921  10.524  1.00  0.00     0.139 C 
HETATM   32  O4  UNL     1      -0.352  -0.082  11.100  1.00  0.00    -0.650 OA
BRANCH  31  33
HETATM   33  O5  UNL     1      -1.033   0.889   9.210  1.00  0.00    -0.776 OA
HETATM   34  H44 UNL     1      -0.776  -0.016   8.939  1.00  0.00     0.167 HD
ENDBRANCH  31  33
ENDBRANCH  30  31
ENDBRANCH  29  30
ENDBRANCH  17  29
BRANCH   1  35
HETATM   35  C2  UNL     1      -5.425   3.277  12.140  1.00  0.00    -0.086 C 
HETATM   36  C1  UNL     1      -5.349   2.669  10.944  1.00  0.00     0.014 C 
HETATM   37  C3  UNL     1      -6.758   3.526  12.793  1.00  0.00     0.043 C 
ENDBRANCH   1  35
TORSDOF 11
ENDMDL
