MODEL 1
REMARK minimizedAffinity -9.49318981
REMARK  5 active torsions:
REMARK  status: ('A' for Active; 'I' for Inactive)
REMARK       I    between atoms: C1_2  and  N1_3 
REMARK       I    between atoms: C1_2  and  N2_11 
REMARK    1  A    between atoms: N1_3  and  C2_4 
REMARK    2  A    between atoms: C2_4  and  C3_5 
REMARK    3  A    between atoms: N2_11  and  C9_12 
REMARK    4  A    between atoms: C9_12  and  C10_13 
REMARK    5  A    between atoms: C13_17  and  C14_18 
ROOT
HETATM    1  C10 UNL     1      -4.061  49.929 -23.209  1.00  0.00     0.158 C 
HETATM    2  C11 UNL     1      -3.311  49.021 -24.182  1.00  0.00     0.163 C 
HETATM    3  N3  UNL     1      -4.264  48.575 -25.172  1.00  0.00    -0.340 N 
HETATM    4  C12 UNL     1      -4.115  48.413 -26.512  1.00  0.00     0.122 A 
HETATM    5  C13 UNL     1      -5.365  48.027 -26.956  1.00  0.00     0.059 A 
HETATM    6  N4  UNL     1      -6.254  47.977 -25.896  1.00  0.00    -0.342 N 
ATOM      7  H4  UNL     1      -7.242  47.727 -25.933  1.00  0.00     0.167 HD
HETATM    8  C23 UNL     1      -5.560  48.319 -24.829  1.00  0.00     0.108 A 
HETATM    9  C24 UNL     1      -6.005  48.407 -23.410  1.00  0.00     0.245 C 
HETATM   10  O4  UNL     1      -5.206  49.304 -22.607  1.00  0.00    -0.375 OA
ENDROOT
BRANCH   1  11
HETATM   11  C9  UNL     1      -3.152  50.491 -22.094  1.00  0.00     0.157 C 
BRANCH  11  12
HETATM   12  N2  UNL     1      -1.801  50.891 -22.486  1.00  0.00    -0.341 N 
HETATM   13  C1  UNL     1      -1.566  52.022 -23.229  1.00  0.00     0.316 C 
HETATM   14  O1  UNL     1      -2.412  52.854 -23.513  1.00  0.00    -0.247 OA
HETATM   15  N1  UNL     1      -0.239  52.148 -23.550  1.00  0.00    -0.339 N 
HETATM   16  H1  UNL     1       0.357  51.341 -23.474  1.00  0.00     0.164 HD
HETATM   17  H9  UNL     1      -1.176  50.128 -22.703  1.00  0.00     0.164 HD
BRANCH  15  18
HETATM   18  C2  UNL     1       0.230  53.231 -24.386  1.00  0.00     0.162 C 
BRANCH  18  19
HETATM   19  C3  UNL     1       0.613  52.728 -25.753  1.00  0.00    -0.040 A 
HETATM   20  C4  UNL     1       1.745  51.916 -25.917  1.00  0.00     0.009 A 
HETATM   21  C5  UNL     1       2.111  51.454 -27.185  1.00  0.00     0.001 A 
HETATM   22  C6  UNL     1       1.357  51.809 -28.301  1.00  0.00     0.000 A 
HETATM   23  C7  UNL     1       0.237  52.627 -28.152  1.00  0.00     0.001 A 
HETATM   24  C8  UNL     1      -0.134  53.087 -26.884  1.00  0.00     0.009 A 
ENDBRANCH  18  19
ENDBRANCH  15  18
ENDBRANCH  11  12
ENDBRANCH   1  11
BRANCH   5  25
HETATM   25  C14 UNL     1      -5.742  47.691 -28.323  1.00  0.00    -0.005 A 
HETATM   26  C15 UNL     1      -6.747  46.738 -28.544  1.00  0.00     0.017 A 
HETATM   27  C16 UNL     1      -7.125  46.383 -29.842  1.00  0.00     0.040 A 
HETATM   28  C17 UNL     1      -6.511  46.981 -30.942  1.00  0.00     0.102 A 
HETATM   29  O2  UNL     1      -6.990  46.576 -32.163  1.00  0.00    -0.348 OA
HETATM   30  C21 UNL     1      -5.478  47.906 -30.738  1.00  0.00     0.102 A 
HETATM   31  C18 UNL     1      -7.023  47.625 -33.131  1.00  0.00     0.178 C 
HETATM   32  C19 UNL     1      -5.684  47.770 -33.838  1.00  0.00     0.053 C 
HETATM   33  C20 UNL     1      -4.522  47.692 -32.866  1.00  0.00     0.178 C 
HETATM   34  O3  UNL     1      -4.749  48.520 -31.726  1.00  0.00    -0.348 OA
HETATM   35  C22 UNL     1      -5.122  48.276 -29.434  1.00  0.00     0.053 A 
ENDBRANCH   5  25
TORSDOF 5
ENDMDL
