MODEL 1
REMARK minimizedAffinity -9.7993021
REMARK  6 active torsions:
REMARK  status: ('A' for Active; 'I' for Inactive)
REMARK    1  A    between atoms: C2_2  and  C4_4 
REMARK    2  A    between atoms: C11_11  and  C12_12 
REMARK    3  A    between atoms: C12_12  and  O2_14 
REMARK    4  A    between atoms: C21_23  and  O3_24 
REMARK    5  A    between atoms: C22_25  and  C24_27 
REMARK    6  A    between atoms: C24_27  and  O4_28 
ROOT
HETATM    1  C4  UNL     1      -7.331  46.887 -23.769  1.00  0.00     0.018 C 
HETATM    2  C5  UNL     1      -8.332  46.506 -22.642  1.00  0.00     0.010 C 
HETATM    3  C6  UNL     1      -7.967  47.360 -21.415  1.00  0.00     0.010 C 
HETATM    4  C7  UNL     1      -6.507  47.766 -21.657  1.00  0.00    -0.039 C 
HETATM    5  C8  UNL     1      -5.598  46.573 -21.262  1.00  0.00     0.015 C 
HETATM    6  C9  UNL     1      -6.062  49.023 -20.903  1.00  0.00     0.011 C 
HETATM    7  C10 UNL     1      -4.715  49.564 -21.434  1.00  0.00     0.022 C 
HETATM    8  C11 UNL     1      -4.659  49.790 -22.997  1.00  0.00     0.057 C 
HETATM    9  C13 UNL     1      -5.164  48.469 -23.702  1.00  0.00     0.011 C 
HETATM   10  C14 UNL     1      -5.036  48.493 -25.225  1.00  0.00     0.007 C 
HETATM   11  C15 UNL     1      -3.632  48.871 -25.688  1.00  0.00     0.006 C 
HETATM   12  C16 UNL     1      -3.111  50.191 -25.074  1.00  0.00     0.003 C 
HETATM   13  C17 UNL     1      -1.739  50.714 -25.740  1.00  0.00    -0.035 C 
HETATM   14  C18 UNL     1      -0.818  49.520 -26.103  1.00  0.00     0.016 C 
HETATM   15  C19 UNL     1      -2.149  51.407 -27.081  1.00  0.00     0.012 C 
HETATM   16  C20 UNL     1      -1.051  52.220 -27.748  1.00  0.00     0.033 C 
HETATM   17  C21 UNL     1      -0.544  53.304 -26.808  1.00  0.00     0.128 C 
HETATM   18  C22 UNL     1       0.056  52.731 -25.501  1.00  0.00     0.007 C 
HETATM   19  C23 UNL     1       1.393  51.984 -25.783  1.00  0.00     0.020 C 
HETATM   20  C25 UNL     1      -0.988  51.748 -24.795  1.00  0.00     0.007 C 
HETATM   21  C26 UNL     1      -2.042  52.480 -23.943  1.00  0.00     0.007 C 
HETATM   22  C27 UNL     1      -2.739  51.556 -22.944  1.00  0.00     0.011 C 
HETATM   23  C28 UNL     1      -3.167  50.166 -23.500  1.00  0.00    -0.022 C 
HETATM   24  C29 UNL     1      -2.144  49.127 -22.953  1.00  0.00     0.017 C 
HETATM   25  C30 UNL     1      -6.566  48.090 -23.173  1.00  0.00     0.007 C 
ENDROOT
BRANCH   8  26
HETATM   26  C12 UNL     1      -5.632  50.979 -23.255  1.00  0.00     0.149 C 
HETATM   27  O1  UNL     1      -5.352  52.041 -23.793  1.00  0.00    -0.649 OA
BRANCH  26  28
HETATM   28  O2  UNL     1      -6.897  50.800 -22.859  1.00  0.00    -0.776 OA
HETATM   29  H18 UNL     1      -7.345  51.633 -23.114  1.00  0.00     0.167 HD
ENDBRANCH  26  28
ENDBRANCH   8  26
BRANCH   1  30
HETATM   30  C2  UNL     1      -8.063  47.044 -25.094  1.00  0.00    -0.089 C 
HETATM   31  C1  UNL     1      -8.056  46.142 -26.090  1.00  0.00     0.014 C 
HETATM   32  C3  UNL     1      -8.820  48.336 -25.252  1.00  0.00     0.043 C 
ENDBRANCH   1  30
BRANCH  18  33
HETATM   33  C24 UNL     1       0.493  53.907 -24.569  1.00  0.00     0.176 C 
BRANCH  33  34
HETATM   34  O4  UNL     1       0.235  55.185 -25.146  1.00  0.00    -0.400 OA
HETATM   35  H39 UNL     1       0.402  55.846 -24.450  1.00  0.00     0.209 HD
ENDBRANCH  33  34
ENDBRANCH  18  33
BRANCH  17  36
HETATM   36  O3  UNL     1       0.421  54.086 -27.514  1.00  0.00    -0.395 OA
HETATM   37  H33 UNL     1       0.423  54.960 -27.084  1.00  0.00     0.210 HD
ENDBRANCH  17  36
TORSDOF 6
ENDMDL
