MODEL 1
REMARK minimizedAffinity -10.0351295
REMARK  7 active torsions:
REMARK  status: ('A' for Active; 'I' for Inactive)
REMARK    1  A    between atoms: C2_2  and  C30_32 
REMARK    2  A    between atoms: C3_3  and  C4_4 
REMARK    3  A    between atoms: C4_4  and  C5_5 
REMARK    4  A    between atoms: C5_5  and  C6_6 
REMARK    5  A    between atoms: C6_6  and  C8_8 
REMARK    6  A    between atoms: C10_10  and  O1_11 
REMARK    7  A    between atoms: C30_32  and  O4_34 
ROOT
HETATM    1  C8  UNL     1      -2.983   8.260  15.234  1.00  0.00     0.001 C 
HETATM    2  C9  UNL     1      -1.976   8.052  16.394  1.00  0.00     0.038 C 
HETATM    3  C10 UNL     1      -0.589   7.824  15.751  1.00  0.00     0.128 C 
HETATM    4  C11 UNL     1      -0.748   8.280  14.278  1.00  0.00    -0.006 C 
HETATM    5  C12 UNL     1      -0.567   9.835  14.283  1.00  0.00     0.019 C 
HETATM    6  C13 UNL     1       0.233   7.652  13.249  1.00  0.00     0.006 C 
HETATM    7  C14 UNL     1       1.680   8.147  13.392  1.00  0.00     0.007 C 
HETATM    8  C15 UNL     1       2.589   7.434  12.395  1.00  0.00     0.007 C 
HETATM    9  C16 UNL     1       2.256   7.872  10.961  1.00  0.00     0.010 C 
HETATM   10  C17 UNL     1       3.120   7.212   9.831  1.00  0.00     0.018 C 
HETATM   11  C18 UNL     1       4.235   8.187   9.404  1.00  0.00     0.023 C 
HETATM   12  C19 UNL     1       3.783   5.891  10.273  1.00  0.00     0.023 C 
HETATM   13  C20 UNL     1       2.285   6.918   8.569  1.00  0.00     0.135 C 
HETATM   14  O2  UNL     1       2.557   5.981   7.813  1.00  0.00    -0.297 OA
HETATM   15  C21 UNL     1       1.171   7.866   8.172  1.00  0.00     0.080 C 
HETATM   16  C22 UNL     1       0.482   8.542   9.343  1.00  0.00     0.018 C 
HETATM   17  C23 UNL     1       0.764   7.809  10.637  1.00  0.00    -0.026 A 
HETATM   18  C24 UNL     1      -0.025   6.558  10.905  1.00  0.00     0.021 A 
HETATM   19  C25 UNL     1      -0.279   7.780  11.785  1.00  0.00    -0.027 A 
HETATM   20  C26 UNL     1      -1.600   8.526  11.556  1.00  0.00     0.011 C 
HETATM   21  C27 UNL     1      -2.665   8.494  12.665  1.00  0.00     0.011 C 
HETATM   22  C28 UNL     1      -2.214   7.801  13.956  1.00  0.00    -0.030 C 
HETATM   23  C29 UNL     1      -2.366   6.275  13.738  1.00  0.00     0.016 C 
ENDROOT
BRANCH   1  24
HETATM   24  C6  UNL     1      -4.468   7.865  15.488  1.00  0.00    -0.013 C 
HETATM   25  C7  UNL     1      -4.539   6.372  15.867  1.00  0.00     0.010 C 
BRANCH  24  26
HETATM   26  C5  UNL     1      -5.586   8.180  14.463  1.00  0.00     0.008 C 
BRANCH  26  27
HETATM   27  C4  UNL     1      -5.748   7.236  13.272  1.00  0.00     0.028 C 
BRANCH  27  28
HETATM   28  C3  UNL     1      -6.716   6.127  13.587  1.00  0.00    -0.013 C 
HETATM   29  C2  UNL     1      -6.575   4.807  13.345  1.00  0.00     0.008 C 
HETATM   30  C1  UNL     1      -5.402   4.154  12.671  1.00  0.00     0.055 C 
BRANCH  29  31
HETATM   31  C30 UNL     1      -7.638   3.845  13.743  1.00  0.00     0.171 C 
HETATM   32  O3  UNL     1      -8.270   3.136  12.978  1.00  0.00    -0.646 OA
BRANCH  31  33
HETATM   33  O4  UNL     1      -7.866   3.794  15.066  1.00  0.00    -0.773 OA
HETATM   34  H46 UNL     1      -8.583   3.130  15.150  1.00  0.00     0.167 HD
ENDBRANCH  31  33
ENDBRANCH  29  31
ENDBRANCH  27  28
ENDBRANCH  26  27
ENDBRANCH  24  26
ENDBRANCH   1  24
BRANCH   3  35
HETATM   35  O1  UNL     1      -0.233   6.451  15.851  1.00  0.00    -0.395 OA
HETATM   36  H17 UNL     1      -0.208   6.219  16.795  1.00  0.00     0.210 HD
ENDBRANCH   3  35
TORSDOF 7
ENDMDL
