MODEL 1
REMARK minimizedAffinity -6.46938372
REMARK CNNscore 0.386762261
REMARK CNNaffinity 6.65182734
REMARK  21 active torsions:
REMARK  status: ('A' for Active; 'I' for Inactive)
REMARK    1  A    between atoms: C2_2  and  C3_3 
REMARK    2  A    between atoms: C2_2  and  C27_33 
REMARK    3  A    between atoms: C4_4  and  C5_5 
REMARK    4  A    between atoms: C6_6  and  C7_7 
REMARK    5  A    between atoms: C6_6  and  C10_12 
REMARK    6  A    between atoms: C7_7  and  O1_8 
REMARK    7  A    between atoms: O1_8  and  C8_9 
REMARK    8  A    between atoms: C8_9  and  C9_10 
REMARK    9  A    between atoms: C9_10  and  O2_11 
REMARK   10  A    between atoms: C14_16  and  O3_17 
REMARK   11  A    between atoms: C15_18  and  C16_19 
REMARK   12  A    between atoms: C16_19  and  C17_20 
REMARK   13  A    between atoms: C17_20  and  C18_21 
REMARK   14  A    between atoms: C18_21  and  O4_22 
REMARK   15  A    between atoms: C20_24  and  C22_26 
REMARK   16  A    between atoms: C25_30  and  O6_32 
REMARK   17  A    between atoms: C27_33  and  C28_34 
REMARK   18  A    between atoms: C28_34  and  C29_35 
REMARK   19  A    between atoms: C30_36  and  C32_38 
REMARK   20  A    between atoms: C32_38  and  N1_39 
REMARK   21  A    between atoms: N1_39  and  C33_40 
ROOT
HETATM    1  C10 UNL     1       0.305  52.287 -11.024  1.00  0.00     0.046 C 
HETATM    2  C11 UNL     1      -0.248  52.104  -9.614  1.00  0.00     0.013 C 
HETATM    3  C12 UNL     1       0.969  52.336  -8.723  1.00  0.00     0.017 C 
HETATM    4  C13 UNL     1       1.871  53.415  -9.424  1.00  0.00     0.024 C 
HETATM    5  C14 UNL     1       1.185  53.554 -10.852  1.00  0.00     0.138 C 
HETATM    6  C15 UNL     1       3.383  52.916  -9.471  1.00  0.00     0.029 C 
HETATM    7  C19 UNL     1       4.403  54.066  -9.650  1.00  0.00    -0.066 C 
HETATM    8  C20 UNL     1       5.716  54.017  -9.302  1.00  0.00    -0.021 C 
HETATM    9  C21 UNL     1       6.692  55.151  -9.485  1.00  0.00     0.052 C 
HETATM   10  C23 UNL     1       3.785  55.329 -10.221  1.00  0.00     0.038 C 
HETATM   11  C24 UNL     1       2.670  55.871  -9.324  1.00  0.00     0.042 C 
HETATM   12  C25 UNL     1       1.859  54.770  -8.594  1.00  0.00     0.065 C 
HETATM   13  C26 UNL     1       2.392  54.642  -7.148  1.00  0.00     0.047 C 
ENDROOT
BRANCH   1  14
HETATM   14  C6  UNL     1      -0.749  52.222 -12.132  1.00  0.00    -0.050 C 
HETATM   15  C5  UNL     1      -0.474  52.140 -13.454  1.00  0.00     0.005 C 
BRANCH  15  16
HETATM   16  C4  UNL     1       0.806  52.174 -14.133  1.00  0.00     0.001 C 
HETATM   17  C3  UNL     1       0.886  52.210 -15.475  1.00  0.00     0.006 C 
BRANCH  17  18
HETATM   18  C2  UNL     1       2.099  52.283 -16.290  1.00  0.00    -0.067 C 
HETATM   19  C1  UNL     1       3.280  52.068 -15.686  1.00  0.00     0.019 C 
BRANCH  18  20
HETATM   20  C27 UNL     1       1.945  52.571 -17.777  1.00  0.00     0.041 C 
BRANCH  20  21
HETATM   21  C28 UNL     1       0.539  52.581 -18.412  1.00  0.00     0.032 C 
BRANCH  21  22
HETATM   22  C29 UNL     1       0.546  52.904 -19.885  1.00  0.00    -0.022 C 
HETATM   23  C30 UNL     1       0.261  52.086 -20.921  1.00  0.00    -0.060 C 
HETATM   24  C31 UNL     1      -0.094  50.631 -20.771  1.00  0.00     0.045 C 
BRANCH  23  25
HETATM   25  C32 UNL     1       0.361  52.607 -22.343  1.00  0.00     0.303 C 
BRANCH  25  26
HETATM   26  N1  UNL     1      -0.444  51.874 -23.313  1.00  0.00     0.086 N 
HETATM   27  H50 UNL     1      -0.452  50.888 -23.054  1.00  0.00     0.316 HD
BRANCH  26  28
HETATM   28  C33 UNL     1      -0.072  52.013 -24.716  1.00  0.00     0.265 C 
HETATM   29  C34 UNL     1       0.337  53.426 -25.111  1.00  0.00     0.037 C 
ENDBRANCH  26  28
ENDBRANCH  25  26
ENDBRANCH  23  25
ENDBRANCH  21  22
ENDBRANCH  20  21
ENDBRANCH  18  20
ENDBRANCH  17  18
ENDBRANCH  15  16
BRANCH  14  30
HETATM   30  C7  UNL     1      -2.213  52.179 -11.738  1.00  0.00     0.202 C 
BRANCH  30  31
HETATM   31  O1  UNL     1      -2.742  50.889 -12.063  1.00  0.00    -0.385 OA
BRANCH  31  32
HETATM   32  C8  UNL     1      -3.138  50.111 -10.923  1.00  0.00     0.194 C 
BRANCH  32  33
HETATM   33  C9  UNL     1      -4.043  50.930 -10.004  1.00  0.00     0.190 C 
BRANCH  33  34
HETATM   34  O2  UNL     1      -5.378  50.928 -10.507  1.00  0.00    -0.399 OA
HETATM   35  H12 UNL     1      -5.302  51.076 -11.470  1.00  0.00     0.209 HD
ENDBRANCH  33  34
ENDBRANCH  32  33
ENDBRANCH  31  32
ENDBRANCH  30  31
ENDBRANCH  14  30
ENDBRANCH   1  14
BRANCH   5  36
HETATM   36  O3  UNL     1       0.388  54.739 -10.882  1.00  0.00    -0.394 OA
HETATM   37  H19 UNL     1      -0.056  54.775 -11.758  1.00  0.00     0.210 HD
ENDBRANCH   5  36
BRANCH   6  38
HETATM   38  C16 UNL     1       3.706  51.677 -10.353  1.00  0.00     0.012 C 
BRANCH  38  39
HETATM   39  C17 UNL     1       3.832  50.314  -9.662  1.00  0.00     0.027 C 
BRANCH  39  40
HETATM   40  C18 UNL     1       4.421  49.253 -10.594  1.00  0.00     0.164 C 
BRANCH  40  41
HETATM   41  O4  UNL     1       5.478  48.552  -9.953  1.00  0.00    -0.401 OA
HETATM   42  H27 UNL     1       6.301  49.050 -10.117  1.00  0.00     0.209 HD
ENDBRANCH  40  41
ENDBRANCH  39  40
ENDBRANCH  38  39
ENDBRANCH   6  38
BRANCH  12  43
HETATM   43  O6  UNL     1       0.514  55.241  -8.420  1.00  0.00    -0.389 OA
HETATM   44  H39 UNL     1       0.145  55.305  -9.330  1.00  0.00     0.210 HD
ENDBRANCH  12  43
BRANCH   8  45
HETATM   45  C22 UNL     1       6.321  52.806  -8.669  1.00  0.00     0.265 C 
HETATM   46  O5  UNL     1       7.026  52.015  -9.285  1.00  0.00    -0.302 OA
ENDBRANCH   8  45
TORSDOF 21
ENDMDL
