MODEL 1
REMARK minimizedAffinity -7.35841036
REMARK CNNscore 0.532213569
REMARK CNNaffinity 7.70720482
REMARK  14 active torsions:
REMARK  status: ('A' for Active; 'I' for Inactive)
REMARK    1  A    between atoms: O1_2  and  C2_3 
REMARK    2  A    between atoms: C8_9  and  O2_10 
REMARK    3  A    between atoms: O2_10  and  C9_11 
REMARK    4  A    between atoms: C10_13  and  C11_14 
REMARK    5  A    between atoms: C11_14  and  O4_15 
REMARK    6  A    between atoms: C12_16  and  O5_17 
REMARK    7  A    between atoms: C13_18  and  O6_19 
REMARK    8  A    between atoms: C14_20  and  O7_21 
REMARK    9  A    between atoms: C18_25  and  C19_26 
REMARK   10  A    between atoms: C24_32  and  C25_33 
REMARK   11  A    between atoms: C25_33  and  C27_35 
REMARK   12  A    between atoms: C27_35  and  C28_36 
REMARK   13  A    between atoms: C29_37  and  C30_38 
REMARK   14  A    between atoms: C30_38  and  O9_41 
ROOT
HETATM    1  C2  UNL     1       2.944  56.767  -8.398  1.00  0.00     0.149 C 
HETATM    2  C3  UNL     1       1.609  56.120  -8.582  1.00  0.00     0.009 C 
HETATM    3  C4  UNL     1       1.386  54.887  -9.077  1.00  0.00    -0.066 C 
HETATM    4  C5  UNL     1       2.537  54.005  -9.538  1.00  0.00     0.031 C 
HETATM    5  C6  UNL     1       2.216  53.295 -10.884  1.00  0.00     0.013 C 
HETATM    6  C7  UNL     1       0.761  52.872 -11.077  1.00  0.00     0.034 C 
HETATM    7  C8  UNL     1      -0.035  52.862  -9.776  1.00  0.00     0.136 C 
HETATM    8  C15 UNL     1      -0.038  54.281  -9.111  1.00  0.00     0.002 C 
HETATM    9  C16 UNL     1      -0.563  54.111  -7.666  1.00  0.00     0.022 C 
HETATM   10  C17 UNL     1      -1.007  55.236  -9.853  1.00  0.00     0.022 C 
HETATM   11  C18 UNL     1       3.964  54.696  -9.525  1.00  0.00     0.027 C 
HETATM   12  C20 UNL     1       5.072  53.592  -9.501  1.00  0.00     0.018 C 
HETATM   13  C21 UNL     1       5.511  53.101  -8.110  1.00  0.00     0.011 C 
HETATM   14  C22 UNL     1       5.876  54.276  -7.191  1.00  0.00    -0.032 C 
HETATM   15  C23 UNL     1       7.077  55.045  -7.835  1.00  0.00     0.016 C 
HETATM   16  C24 UNL     1       6.257  53.950  -5.710  1.00  0.00    -0.002 C 
HETATM   17  C34 UNL     1       5.976  55.310  -5.000  1.00  0.00     0.006 C 
HETATM   18  C35 UNL     1       5.078  56.147  -5.931  1.00  0.00     0.011 C 
HETATM   19  C36 UNL     1       4.570  55.157  -6.997  1.00  0.00    -0.029 C 
HETATM   20  C37 UNL     1       3.380  54.405  -6.321  1.00  0.00     0.016 C 
HETATM   21  C38 UNL     1       4.139  55.773  -8.376  1.00  0.00     0.043 C 
ENDROOT
BRANCH   7  22
HETATM   22  O2  UNL     1      -1.382  52.436 -10.052  1.00  0.00    -0.352 OA
BRANCH  22  23
HETATM   23  C9  UNL     1      -1.465  51.276 -10.882  1.00  0.00     0.292 C 
HETATM   24  O3  UNL     1      -2.316  51.524 -12.000  1.00  0.00    -0.348 OA
HETATM   25  C10 UNL     1      -3.704  51.776 -11.698  1.00  0.00     0.179 C 
HETATM   26  C12 UNL     1      -4.171  51.213 -10.346  1.00  0.00     0.180 C 
HETATM   27  C13 UNL     1      -3.467  49.881 -10.110  1.00  0.00     0.183 C 
HETATM   28  C14 UNL     1      -1.945  50.061 -10.051  1.00  0.00     0.204 C 
BRANCH  25  29
HETATM   29  C11 UNL     1      -4.020  53.273 -11.863  1.00  0.00     0.198 C 
BRANCH  29  30
HETATM   30  O4  UNL     1      -4.210  53.648 -13.225  1.00  0.00    -0.398 OA
HETATM   31  H16 UNL     1      -4.638  52.889 -13.663  1.00  0.00     0.209 HD
ENDBRANCH  29  30
ENDBRANCH  25  29
BRANCH  26  32
HETATM   32  O5  UNL     1      -5.587  51.003 -10.365  1.00  0.00    -0.390 OA
HETATM   33  H18 UNL     1      -5.775  50.473  -9.562  1.00  0.00     0.210 HD
ENDBRANCH  26  32
BRANCH  27  34
HETATM   34  O6  UNL     1      -3.954  49.294  -8.891  1.00  0.00    -0.390 OA
HETATM   35  H20 UNL     1      -3.471  48.455  -8.784  1.00  0.00     0.210 HD
ENDBRANCH  27  34
BRANCH  28  36
HETATM   36  O7  UNL     1      -1.342  48.836 -10.523  1.00  0.00    -0.388 OA
HETATM   37  H22 UNL     1      -1.537  48.761 -11.476  1.00  0.00     0.210 HD
ENDBRANCH  28  36
ENDBRANCH  22  23
ENDBRANCH   7  22
BRANCH  11  38
HETATM   38  C19 UNL     1       4.130  55.505 -10.828  1.00  0.00     0.241 C 
HETATM   39  O8  UNL     1       3.553  56.560 -11.075  1.00  0.00    -0.306 OA
ENDBRANCH  11  38
BRANCH   1  40
HETATM   40  O1  UNL     1       2.871  57.551  -7.211  1.00  0.00    -0.386 OA
HETATM   41  C1  UNL     1       1.580  57.530  -6.614  1.00  0.00     0.202 C 
ENDBRANCH   1  40
BRANCH  16  42
HETATM   42  C25 UNL     1       7.678  53.402  -5.362  1.00  0.00    -0.010 C 
HETATM   43  C26 UNL     1       7.795  51.896  -5.633  1.00  0.00     0.010 C 
BRANCH  42  44
HETATM   44  C27 UNL     1       8.032  53.703  -3.879  1.00  0.00     0.031 C 
BRANCH  44  45
HETATM   45  C28 UNL     1       9.279  54.529  -3.690  1.00  0.00    -0.027 C 
HETATM   46  C29 UNL     1       9.583  55.589  -4.458  1.00  0.00     0.006 C 
BRANCH  46  47
HETATM   47  C30 UNL     1      10.793  56.498  -4.348  1.00  0.00     0.070 C 
HETATM   48  C31 UNL     1      11.095  57.026  -2.937  1.00  0.00     0.050 C 
HETATM   49  C32 UNL     1      12.018  55.706  -4.836  1.00  0.00     0.050 C 
BRANCH  47  50
HETATM   50  O9  UNL     1      10.643  57.578  -5.289  1.00  0.00    -0.382 OA
HETATM   51  C33 UNL     1      10.662  58.891  -4.744  1.00  0.00     0.202 C 
ENDBRANCH  47  50
ENDBRANCH  46  47
ENDBRANCH  44  45
ENDBRANCH  42  44
ENDBRANCH  16  42
TORSDOF 14
ENDMDL
