MODEL 1
REMARK minimizedAffinity -8.54161835
REMARK CNNscore 0.570413649
REMARK CNNaffinity 7.40374804
REMARK  19 active torsions:
REMARK  status: ('A' for Active; 'I' for Inactive)
REMARK    1  A    between atoms: O1_2  and  C2_3 
REMARK    2  A    between atoms: C2_3  and  C3_4 
REMARK    3  A    between atoms: C2_3  and  C28_36 
REMARK    4  A    between atoms: C3_4  and  C4_5 
REMARK    5  A    between atoms: C4_5  and  C6_7 
REMARK    6  A    between atoms: C6_7  and  O2_8 
REMARK    7  A    between atoms: C6_7  and  C7_9 
REMARK    8  A    between atoms: C8_10  and  C9_11 
REMARK    9  A    between atoms: C10_12  and  C11_13 
REMARK   10  A    between atoms: C11_13  and  N1_14 
REMARK       I    between atoms: N1_14  and  C12_15 
REMARK   11  A    between atoms: C12_15  and  C13_17 
REMARK   12  A    between atoms: C13_17  and  C16_20 
REMARK   13  A    between atoms: C16_20  and  O4_21 
REMARK   14  A    between atoms: C16_20  and  C17_22 
REMARK   15  A    between atoms: C19_24  and  C20_25 
REMARK   16  A    between atoms: C21_26  and  C22_27 
REMARK   17  A    between atoms: C23_28  and  C24_29 
REMARK   18  A    between atoms: C26_31  and  N2_33 
REMARK   19  A    between atoms: C28_36  and  O7_37 
ROOT
HETATM    1  C9  UNL     1      -0.198  51.832 -14.197  1.00  0.00    -0.003 C 
HETATM    2  C10 UNL     1       1.024  51.861 -14.757  1.00  0.00    -0.007 C 
ENDROOT
BRANCH   1   3
HETATM    3  C8  UNL     1      -0.428  52.220 -12.824  1.00  0.00    -0.002 C 
HETATM    4  C7  UNL     1       0.522  52.764 -12.043  1.00  0.00     0.005 C 
BRANCH   4   5
HETATM    5  C6  UNL     1       0.338  53.225 -10.617  1.00  0.00     0.144 C 
BRANCH   5   6
HETATM    6  C4  UNL     1       0.225  54.765 -10.512  1.00  0.00     0.016 C 
HETATM    7  C5  UNL     1      -1.086  55.258  -9.893  1.00  0.00     0.013 C 
BRANCH   6   8
HETATM    8  C3  UNL     1       1.479  55.440  -9.900  1.00  0.00     0.042 C 
BRANCH   8   9
HETATM    9  C2  UNL     1       1.753  55.418  -8.371  1.00  0.00     0.159 C 
BRANCH   9  10
HETATM   10  O1  UNL     1       1.425  56.664  -7.765  1.00  0.00    -0.388 OA
HETATM   11  C1  UNL     1       0.461  56.553  -6.721  1.00  0.00     0.202 C 
ENDBRANCH   9  10
BRANCH   9  12
HETATM   12  C28 UNL     1       3.232  55.015  -8.056  1.00  0.00     0.133 C 
HETATM   13  C29 UNL     1       4.049  55.965  -7.113  1.00  0.00     0.114 C 
HETATM   14  C30 UNL     1       4.151  57.447  -7.456  1.00  0.00     0.023 C 
HETATM   15  C31 UNL     1       5.451  55.406  -7.258  1.00  0.00     0.227 C 
HETATM   16  O8  UNL     1       6.343  55.486  -6.432  1.00  0.00    -0.273 OA
HETATM   17  N3  UNL     1       5.533  54.817  -8.511  1.00  0.00    -0.332 N 
HETATM   18  C32 UNL     1       6.677  54.015  -8.887  1.00  0.00     0.154 C 
HETATM   19  C33 UNL     1       4.204  54.780  -9.236  1.00  0.00     0.183 A 
HETATM   20  C34 UNL     1       3.966  53.522 -10.119  1.00  0.00     0.294 A 
HETATM   21  C35 UNL     1       4.302  55.476 -10.645  1.00  0.00     0.169 A 
HETATM   22  O9  UNL     1       3.833  52.328  -9.957  1.00  0.00    -0.262 OA
HETATM   23  O10 UNL     1       4.013  54.200 -11.293  1.00  0.00    -0.311 OA
HETATM   24  C36 UNL     1       3.413  56.556 -11.223  1.00  0.00     0.043 C 
BRANCH  12  25
HETATM   25  O7  UNL     1       3.102  53.768  -7.297  1.00  0.00    -0.383 OA
HETATM   26  H42 UNL     1       3.962  53.311  -7.260  1.00  0.00     0.210 HD
ENDBRANCH  12  25
ENDBRANCH   9  12
ENDBRANCH   8   9
ENDBRANCH   6   8
ENDBRANCH   5   6
BRANCH   5  27
HETATM   27  O2  UNL     1      -0.794  52.588 -10.039  1.00  0.00    -0.391 OA
HETATM   28  H12 UNL     1      -0.592  51.635 -10.018  1.00  0.00     0.210 HD
ENDBRANCH   5  27
ENDBRANCH   4   5
ENDBRANCH   1   3
BRANCH   2  29
HETATM   29  C11 UNL     1       1.413  51.467 -16.150  1.00  0.00     0.149 C 
BRANCH  29  30
HETATM   30  N1  UNL     1       0.258  51.244 -16.987  1.00  0.00    -0.357 N 
HETATM   31  C12 UNL     1      -0.174  49.956 -17.228  1.00  0.00     0.228 C 
HETATM   32  O3  UNL     1       0.300  48.994 -16.623  1.00  0.00    -0.273 OA
HETATM   33  H19 UNL     1       0.052  51.958 -17.668  1.00  0.00     0.162 HD
BRANCH  31  34
HETATM   34  C13 UNL     1      -1.359  49.803 -18.200  1.00  0.00     0.063 C 
HETATM   35  C14 UNL     1      -2.550  49.072 -17.551  1.00  0.00     0.028 C 
HETATM   36  C15 UNL     1      -0.833  48.950 -19.376  1.00  0.00     0.028 C 
BRANCH  34  37
HETATM   37  C16 UNL     1      -1.834  51.192 -18.755  1.00  0.00     0.164 C 
BRANCH  37  38
HETATM   38  O4  UNL     1      -3.064  51.623 -18.168  1.00  0.00    -0.390 OA
HETATM   39  H27 UNL     1      -3.698  50.883 -18.260  1.00  0.00     0.210 HD
ENDBRANCH  37  38
BRANCH  37  40
HETATM   40  C17 UNL     1      -1.932  51.356 -20.271  1.00  0.00    -0.054 C 
HETATM   41  C18 UNL     1      -3.242  50.966 -20.916  1.00  0.00     0.046 C 
HETATM   42  C19 UNL     1      -0.960  51.849 -21.073  1.00  0.00     0.005 C 
BRANCH  42  43
HETATM   43  C20 UNL     1       0.362  52.306 -20.698  1.00  0.00     0.000 C 
HETATM   44  C21 UNL     1       1.214  53.033 -21.443  1.00  0.00     0.000 C 
BRANCH  44  45
HETATM   45  C22 UNL     1       1.009  53.531 -22.788  1.00  0.00     0.001 C 
HETATM   46  C23 UNL     1       0.173  52.943 -23.662  1.00  0.00     0.009 C 
BRANCH  46  47
HETATM   47  C24 UNL     1      -0.084  53.379 -25.043  1.00  0.00    -0.034 C 
HETATM   48  C25 UNL     1       0.219  54.837 -25.341  1.00  0.00     0.050 C 
HETATM   49  C26 UNL     1      -0.587  52.514 -25.958  1.00  0.00     0.082 C 
HETATM   50  C27 UNL     1      -0.938  51.066 -25.875  1.00  0.00     0.075 C 
BRANCH  49  51
HETATM   51  N2  UNL     1      -0.803  53.016 -27.299  1.00  0.00    -0.120 N 
HETATM   52  O5  UNL     1       0.159  52.976 -28.077  1.00  0.00    -0.532 OA
HETATM   53  O6  UNL     1      -1.940  53.424 -27.564  1.00  0.00    -0.532 OA
ENDBRANCH  49  51
ENDBRANCH  46  47
ENDBRANCH  44  45
ENDBRANCH  42  43
ENDBRANCH  37  40
ENDBRANCH  34  37
ENDBRANCH  31  34
ENDBRANCH  29  30
ENDBRANCH   2  29
TORSDOF 19
ENDMDL
