MODEL 1
REMARK minimizedAffinity -9.75863647
REMARK CNNscore 0.641198397
REMARK CNNaffinity 7.12120676
REMARK  14 active torsions:
REMARK  status: ('A' for Active; 'I' for Inactive)
REMARK    1  A    between atoms: C19_20  and  O2_21 
REMARK    2  A    between atoms: C19_20  and  C20_22 
REMARK    3  A    between atoms: C20_22  and  C21_24 
REMARK    4  A    between atoms: C21_24  and  O4_25 
REMARK    5  A    between atoms: O4_25  and  C22_26 
REMARK    6  A    between atoms: C22_26  and  C23_28 
REMARK    7  A    between atoms: C23_28  and  C24_29 
REMARK    8  A    between atoms: C24_29  and  C25_30 
REMARK       I    between atoms: C25_30  and  N1_32 
REMARK    9  A    between atoms: N1_32  and  C26_33 
REMARK   10  A    between atoms: C26_33  and  C27_34 
REMARK   11  A    between atoms: C26_33  and  C36_45 
REMARK   12  A    between atoms: C27_34  and  C28_35 
REMARK   13  A    between atoms: C33_41  and  O7_42 
REMARK   14  A    between atoms: C36_45  and  O9_47 
ROOT
HETATM    1  O4  UNL     1       0.044  51.651 -15.091  1.00  0.00    -0.314 OA
ENDROOT
BRANCH   1   2
HETATM    2  C21 UNL     1       0.497  52.197 -13.850  1.00  0.00     0.260 C 
BRANCH   2   3
HETATM    3  C20 UNL     1      -0.563  52.088 -12.748  1.00  0.00     0.185 C 
HETATM    4  O3  UNL     1      -1.760  52.234 -13.016  1.00  0.00    -0.292 OA
BRANCH   3   5
HETATM    5  C19 UNL     1      -0.046  51.904 -11.291  1.00  0.00     0.128 C 
HETATM    6  C14 UNL     1      -0.027  53.190 -10.399  1.00  0.00    -0.002 C 
HETATM    7  C13 UNL     1       0.120  52.819  -8.894  1.00  0.00     0.013 C 
HETATM    8  C15 UNL     1      -1.297  54.044 -10.570  1.00  0.00     0.019 C 
HETATM    9  C16 UNL     1       1.240  53.918 -10.899  1.00  0.00     0.002 C 
HETATM   10  C12 UNL     1       0.564  53.981  -8.002  1.00  0.00     0.007 C 
HETATM   11  C11 UNL     1       1.885  54.605  -8.488  1.00  0.00     0.002 C 
HETATM   12  C2  UNL     1       2.420  55.767  -7.570  1.00  0.00    -0.016 C 
HETATM   13  C10 UNL     1       1.726  55.055  -9.973  1.00  0.00    -0.004 C 
HETATM   14  C1  UNL     1       1.390  56.919  -7.437  1.00  0.00     0.020 C 
HETATM   15  C3  UNL     1       2.724  55.311  -6.113  1.00  0.00     0.022 C 
HETATM   16  C7  UNL     1       3.702  56.273  -8.237  1.00  0.00    -0.068 C 
HETATM   17  C4  UNL     1       4.000  54.499  -5.973  1.00  0.00     0.084 C 
HETATM   18  C5  UNL     1       5.167  55.279  -6.525  1.00  0.00     0.149 C 
HETATM   19  O1  UNL     1       6.308  55.169  -6.078  1.00  0.00    -0.293 OA
HETATM   20  C6  UNL     1       4.939  56.107  -7.732  1.00  0.00     0.053 C 
HETATM   21  C8  UNL     1       3.532  56.831  -9.627  1.00  0.00     0.035 C 
HETATM   22  C9  UNL     1       3.002  55.718 -10.532  1.00  0.00     0.010 C 
HETATM   23  C17 UNL     1       2.249  52.784 -11.157  1.00  0.00     0.009 C 
HETATM   24  C18 UNL     1       1.438  51.503 -11.379  1.00  0.00     0.047 C 
BRANCH   5  25
HETATM   25  O2  UNL     1      -0.770  50.862 -10.638  1.00  0.00    -0.381 OA
HETATM   26  H27 UNL     1      -1.663  51.201 -10.432  1.00  0.00     0.211 HD
ENDBRANCH   5  25
ENDBRANCH   3   5
ENDBRANCH   2   3
ENDBRANCH   1   2
BRANCH   1  27
HETATM   27  C22 UNL     1       1.032  51.552 -16.026  1.00  0.00     0.259 C 
HETATM   28  O5  UNL     1       2.186  51.939 -15.863  1.00  0.00    -0.265 OA
BRANCH  27  29
HETATM   29  C23 UNL     1       0.573  50.815 -17.265  1.00  0.00     0.120 C 
BRANCH  29  30
HETATM   30  C24 UNL     1      -0.918  50.941 -17.563  1.00  0.00     0.112 C 
BRANCH  30  31
HETATM   31  C25 UNL     1      -1.184  51.770 -18.801  1.00  0.00     0.218 C 
HETATM   32  O6  UNL     1      -2.293  52.201 -19.104  1.00  0.00    -0.274 OA
HETATM   33  N1  UNL     1      -0.054  52.014 -19.539  1.00  0.00    -0.346 N 
HETATM   34  H34 UNL     1       0.863  51.750 -19.188  1.00  0.00     0.163 HD
BRANCH  33  35
HETATM   35  C26 UNL     1      -0.087  52.761 -20.805  1.00  0.00     0.186 C 
BRANCH  35  36
HETATM   36  C27 UNL     1       0.146  51.802 -21.979  1.00  0.00     0.077 C 
BRANCH  36  37
HETATM   37  C28 UNL     1      -0.528  52.210 -23.251  1.00  0.00    -0.028 A 
HETATM   38  C29 UNL     1      -1.857  52.562 -23.386  1.00  0.00     0.096 A 
HETATM   39  N2  UNL     1      -2.097  52.848 -24.701  1.00  0.00    -0.365 N 
HETATM   40  C30 UNL     1      -0.948  52.688 -25.440  1.00  0.00     0.043 A 
HETATM   41  H39 UNL     1      -2.990  53.130 -25.080  1.00  0.00     0.165 HD
HETATM   42  C31 UNL     1      -0.728  52.867 -26.812  1.00  0.00     0.033 A 
HETATM   43  C35 UNL     1       0.055  52.284 -24.557  1.00  0.00     0.001 A 
HETATM   44  C32 UNL     1       0.562  52.627 -27.299  1.00  0.00     0.039 A 
HETATM   45  C33 UNL     1       1.575  52.225 -26.436  1.00  0.00     0.066 A 
HETATM   46  C34 UNL     1       1.345  52.044 -25.072  1.00  0.00     0.050 A 
BRANCH  45  47
HETATM   47  O7  UNL     1       2.841  51.989 -26.897  1.00  0.00    -0.361 OA
HETATM   48  H42 UNL     1       2.865  52.199 -27.846  1.00  0.00     0.217 HD
ENDBRANCH  45  47
ENDBRANCH  36  37
ENDBRANCH  35  36
BRANCH  35  49
HETATM   49  C36 UNL     1       0.997  53.841 -20.776  1.00  0.00     0.163 C 
HETATM   50  O8  UNL     1       1.495  54.424 -21.727  1.00  0.00    -0.648 OA
BRANCH  49  51
HETATM   51  O9  UNL     1       1.447  54.118 -19.524  1.00  0.00    -0.775 OA
HETATM   52  H44 UNL     1       2.127  54.809 -19.691  1.00  0.00     0.167 HD
ENDBRANCH  49  51
ENDBRANCH  35  49
ENDBRANCH  33  35
ENDBRANCH  30  31
ENDBRANCH  29  30
ENDBRANCH  27  29
ENDBRANCH   1  27
TORSDOF 14
ENDMDL
