MODEL 1
REMARK minimizedAffinity -10.1324759
REMARK  7 active torsions:
REMARK  status: ('A' for Active; 'I' for Inactive)
REMARK    1  A    between atoms: C4_4  and  C5_5 
REMARK    2  A    between atoms: C15_15  and  C16_16 
REMARK    3  A    between atoms: C16_16  and  C18_18 
REMARK    4  A    between atoms: C18_18  and  C19_19 
REMARK    5  A    between atoms: C23_25  and  C24_26 
REMARK    6  A    between atoms: C27_29  and  O3_30 
REMARK    7  A    between atoms: C30_33  and  O4_34 
ROOT
HETATM    1  C5  UNL     1      -3.293   7.726  12.961  1.00  0.00     0.004 C 
HETATM    2  C6  UNL     1      -2.054   7.448  13.413  1.00  0.00    -0.075 C 
HETATM    3  C7  UNL     1      -1.718   6.752  14.723  1.00  0.00     0.034 C 
HETATM    4  C8  UNL     1      -0.779   5.555  14.528  1.00  0.00     0.005 C 
HETATM    5  C9  UNL     1       0.465   5.906  13.695  1.00  0.00     0.010 C 
HETATM    6  C10 UNL     1       0.102   6.589  12.364  1.00  0.00    -0.033 C 
HETATM    7  C11 UNL     1      -0.633   5.537  11.473  1.00  0.00     0.016 C 
HETATM    8  C12 UNL     1      -0.789   7.822  12.655  1.00  0.00     0.023 C 
HETATM    9  C13 UNL     1      -0.856   8.529  11.302  1.00  0.00     0.010 C 
HETATM   10  C14 UNL     1       0.544   8.345  10.705  1.00  0.00     0.006 C 
HETATM   11  C15 UNL     1       1.250   7.200  11.494  1.00  0.00    -0.002 C 
ENDROOT
BRANCH   1  12
HETATM   12  C4  UNL     1      -4.548   7.416  13.616  1.00  0.00     0.008 C 
HETATM   13  C3  UNL     1      -5.038   6.190  13.898  1.00  0.00    -0.048 C 
HETATM   14  C2  UNL     1      -6.332   6.040  14.574  1.00  0.00    -0.032 C 
HETATM   15  C26 UNL     1      -4.400   4.855  13.564  1.00  0.00     0.071 C 
HETATM   16  C1  UNL     1      -6.559   6.607  15.773  1.00  0.00     0.022 C 
HETATM   17  C30 UNL     1      -7.317   5.150  13.826  1.00  0.00     0.157 C 
HETATM   18  C28 UNL     1      -6.704   3.765  13.552  1.00  0.00     0.044 C 
HETATM   19  C27 UNL     1      -5.362   3.915  12.814  1.00  0.00     0.129 C 
HETATM   20  C29 UNL     1      -7.676   2.870  12.775  1.00  0.00     0.015 C 
BRANCH  17  21
HETATM   21  O4  UNL     1      -8.524   4.991  14.574  1.00  0.00    -0.390 OA
HETATM   22  H44 UNL     1      -8.960   5.860  14.566  1.00  0.00     0.210 HD
ENDBRANCH  17  21
BRANCH  19  23
HETATM   23  O3  UNL     1      -5.588   4.394  11.486  1.00  0.00    -0.395 OA
HETATM   24  H38 UNL     1      -4.724   4.599  11.088  1.00  0.00     0.210 HD
ENDBRANCH  19  23
ENDBRANCH   1  12
BRANCH  11  25
HETATM   25  C16 UNL     1       2.593   7.700  12.114  1.00  0.00    -0.011 C 
HETATM   26  C17 UNL     1       2.625   7.740  13.648  1.00  0.00     0.010 C 
BRANCH  25  27
HETATM   27  C18 UNL     1       3.861   6.989  11.595  1.00  0.00     0.038 C 
BRANCH  27  28
HETATM   28  C19 UNL     1       4.008   6.802  10.075  1.00  0.00     0.141 C 
HETATM   29  O1  UNL     1       3.788   8.108   9.496  1.00  0.00    -0.311 OA
HETATM   30  C20 UNL     1       3.177   8.000   8.290  1.00  0.00     0.289 C 
HETATM   31  O2  UNL     1       2.987   8.909   7.506  1.00  0.00    -0.260 OA
HETATM   32  C21 UNL     1       2.780   6.584   8.119  1.00  0.00     0.014 C 
HETATM   33  C22 UNL     1       2.393   6.130   6.920  1.00  0.00     0.025 C 
HETATM   34  C23 UNL     1       2.960   5.885   9.431  1.00  0.00     0.053 C 
BRANCH  34  35
HETATM   35  C24 UNL     1       3.397   4.414   9.343  1.00  0.00     0.007 C 
HETATM   36  C25 UNL     1       4.037   4.068   8.002  1.00  0.00     0.006 C 
ENDBRANCH  34  35
ENDBRANCH  27  28
ENDBRANCH  25  27
ENDBRANCH  11  25
TORSDOF 7
ENDMDL
