MODEL 1
REMARK minimizedAffinity -9.9829216
REMARK CNNscore 0.801886022
REMARK CNNaffinity 7.1655407
REMARK  13 active torsions:
REMARK  status: ('A' for Active; 'I' for Inactive)
REMARK    1  A    between atoms: O1_2  and  C2_3 
REMARK    2  A    between atoms: C2_3  and  C3_4 
REMARK    3  A    between atoms: C3_4  and  C4_5 
REMARK    4  A    between atoms: C4_5  and  O2_6 
REMARK    5  A    between atoms: O2_6  and  C5_7 
REMARK    6  A    between atoms: C20_23  and  C21_24 
REMARK    7  A    between atoms: C21_24  and  O4_26 
REMARK    8  A    between atoms: C21_24  and  C23_27 
REMARK    9  A    between atoms: C23_27  and  O5_28 
REMARK   10  A    between atoms: C23_27  and  C24_29 
REMARK   11  A    between atoms: C28_34  and  C29_35 
REMARK       I    between atoms: C29_35  and  N1_37 
REMARK   12  A    between atoms: C32_41  and  O8_42 
REMARK   13  A    between atoms: C39_49  and  O9_50 
ROOT
HETATM    1  C5  UNL     1      -3.827  52.249 -24.700  1.00  0.00     0.122 C 
HETATM    2  C6  UNL     1      -4.140  50.747 -24.725  1.00  0.00     0.033 C 
HETATM    3  C7  UNL     1      -4.122  50.159 -23.318  1.00  0.00     0.013 C 
HETATM    4  C8  UNL     1      -2.723  50.270 -22.636  1.00  0.00    -0.026 C 
HETATM    5  C9  UNL     1      -1.975  48.931 -22.842  1.00  0.00     0.016 C 
HETATM    6  C10 UNL     1      -1.879  51.389 -23.325  1.00  0.00     0.071 C 
HETATM    7  C11 UNL     1      -2.744  52.609 -23.670  1.00  0.00     0.045 C 
HETATM    8  C12 UNL     1      -0.647  51.836 -22.542  1.00  0.00     0.161 C 
HETATM    9  O3  UNL     1       0.274  52.437 -23.102  1.00  0.00    -0.292 OA
HETATM   10  C13 UNL     1      -0.583  51.616 -21.069  1.00  0.00    -0.006 C 
HETATM   11  C14 UNL     1      -1.627  51.029 -20.451  1.00  0.00    -0.030 C 
HETATM   12  C15 UNL     1      -2.921  50.596 -21.114  1.00  0.00     0.027 C 
HETATM   13  C16 UNL     1      -3.701  49.499 -20.324  1.00  0.00     0.011 C 
HETATM   14  C17 UNL     1      -3.717  49.677 -18.784  1.00  0.00     0.014 C 
HETATM   15  C18 UNL     1      -2.279  49.802 -18.244  1.00  0.00    -0.002 C 
HETATM   16  C19 UNL     1      -1.527  48.470 -18.517  1.00  0.00     0.019 C 
HETATM   17  C20 UNL     1      -2.077  50.309 -16.765  1.00  0.00     0.034 C 
HETATM   18  C35 UNL     1      -0.648  50.970 -16.793  1.00  0.00     0.016 C 
HETATM   19  C36 UNL     1      -0.290  51.100 -18.286  1.00  0.00     0.026 C 
HETATM   20  C37 UNL     1       0.485  52.301 -18.785  1.00  0.00     0.013 C 
HETATM   21  C38 UNL     1       0.620  52.201 -20.329  1.00  0.00     0.043 C 
HETATM   22  C39 UNL     1      -1.649  51.023 -18.963  1.00  0.00     0.094 C 
ENDROOT
BRANCH  17  23
HETATM   23  C21 UNL     1      -2.458  49.471 -15.499  1.00  0.00     0.087 C 
HETATM   24  C22 UNL     1      -1.318  48.619 -14.942  1.00  0.00     0.049 C 
BRANCH  23  25
HETATM   25  O4  UNL     1      -3.477  48.557 -15.946  1.00  0.00    -0.387 OA
HETATM   26  H33 UNL     1      -4.124  48.457 -15.222  1.00  0.00     0.210 HD
ENDBRANCH  23  25
BRANCH  23  27
HETATM   27  C23 UNL     1      -3.017  50.479 -14.406  1.00  0.00     0.181 C 
BRANCH  27  28
HETATM   28  O5  UNL     1      -3.634  51.620 -15.006  1.00  0.00    -0.390 OA
HETATM   29  H35 UNL     1      -4.216  52.024 -14.336  1.00  0.00     0.210 HD
ENDBRANCH  27  28
BRANCH  27  30
HETATM   30  C24 UNL     1      -2.138  50.885 -13.195  1.00  0.00     0.158 C 
HETATM   31  O6  UNL     1      -0.899  51.522 -13.617  1.00  0.00    -0.373 OA
HETATM   32  C25 UNL     1      -0.354  52.061 -12.405  1.00  0.00     0.185 C 
HETATM   33  C26 UNL     1      -1.552  52.730 -11.772  1.00  0.00     0.028 C 
HETATM   34  C32 UNL     1       0.785  53.069 -12.578  1.00  0.00     0.384 C 
HETATM   35  C27 UNL     1      -1.160  53.199 -10.379  1.00  0.00     0.053 C 
HETATM   36  C33 UNL     1      -2.625  51.648 -11.926  1.00  0.00     0.020 C 
HETATM   37  C28 UNL     1       0.074  54.134 -10.468  1.00  0.00     0.309 C 
HETATM   38  N2  UNL     1       1.194  53.621 -11.297  1.00  0.00     0.128 N 
HETATM   39  H46 UNL     1       1.685  52.897 -10.770  1.00  0.00     0.320 HD
HETATM   40  C34 UNL     1      -4.032  52.223 -11.868  1.00  0.00     0.013 C 
BRANCH  37  41
HETATM   41  C29 UNL     1       0.606  54.364  -9.043  1.00  0.00     0.233 C 
HETATM   42  O7  UNL     1       1.675  54.940  -8.824  1.00  0.00    -0.277 OA
HETATM   43  N1  UNL     1      -0.231  53.837  -8.058  1.00  0.00    -0.249 NA
HETATM   44  C30 UNL     1      -0.307  54.506  -6.782  1.00  0.00     0.113 A 
HETATM   45  C31 UNL     1       0.333  53.176  -6.912  1.00  0.00     0.113 A 
ENDBRANCH  37  41
BRANCH  34  46
HETATM   46  O8  UNL     1       1.900  52.410 -13.150  1.00  0.00    -0.366 OA
HETATM   47  H48 UNL     1       1.582  52.034 -13.983  1.00  0.00     0.212 HD
ENDBRANCH  34  46
ENDBRANCH  27  30
ENDBRANCH  23  27
ENDBRANCH  17  23
BRANCH  22  48
HETATM   48  O9  UNL     1      -2.408  52.221 -18.650  1.00  0.00    -0.384 OA
HETATM   49  H60 UNL     1      -2.064  52.950 -19.193  1.00  0.00     0.211 HD
ENDBRANCH  22  48
BRANCH   1  50
HETATM   50  O2  UNL     1      -3.380  52.619 -26.009  1.00  0.00    -0.386 OA
BRANCH  50  51
HETATM   51  C4  UNL     1      -2.849  51.523 -26.757  1.00  0.00     0.170 C 
BRANCH  51  52
HETATM   52  C3  UNL     1      -1.511  51.920 -27.365  1.00  0.00     0.052 C 
BRANCH  52  53
HETATM   53  C2  UNL     1      -0.362  51.134 -26.746  1.00  0.00     0.169 C 
BRANCH  53  54
HETATM   54  O1  UNL     1       0.705  52.039 -26.452  1.00  0.00    -0.396 OA
HETATM   55  C1  UNL     1       1.949  51.352 -26.363  1.00  0.00     0.201 C 
ENDBRANCH  53  54
ENDBRANCH  52  53
ENDBRANCH  51  52
ENDBRANCH  50  51
ENDBRANCH   1  50
TORSDOF 13
ENDMDL
