MODEL 1
REMARK minimizedAffinity -6.50181532
REMARK CNNscore 0.757131517
REMARK CNNaffinity 6.47258759
REMARK  9 active torsions:
REMARK  status: ('A' for Active; 'I' for Inactive)
REMARK    1  A    between atoms: C2_2  and  C30_33 
REMARK    2  A    between atoms: C3_3  and  C4_4 
REMARK    3  A    between atoms: C4_4  and  C5_5 
REMARK    4  A    between atoms: C5_5  and  C6_6 
REMARK    5  A    between atoms: C6_6  and  C8_8 
REMARK    6  A    between atoms: C10_10  and  O1_11 
REMARK    7  A    between atoms: C23_24  and  O2_25 
REMARK    8  A    between atoms: C29_31  and  O3_32 
REMARK    9  A    between atoms: C30_33  and  O4_34 
ROOT
HETATM    1  C8  UNL     1      -3.480  14.747  18.186  1.00  0.00     0.001 C 
HETATM    2  C9  UNL     1      -2.165  15.400  17.681  1.00  0.00     0.038 C 
HETATM    3  C10 UNL     1      -1.548  14.412  16.664  1.00  0.00     0.132 C 
HETATM    4  C11 UNL     1      -2.720  13.477  16.267  1.00  0.00     0.016 C 
HETATM    5  C12 UNL     1      -3.624  14.215  15.220  1.00  0.00     0.023 C 
HETATM    6  C13 UNL     1      -2.414  12.117  15.644  1.00  0.00    -0.037 C 
HETATM    7  C14 UNL     1      -3.316  11.106  15.776  1.00  0.00    -0.065 C 
HETATM    8  C15 UNL     1      -4.564  11.257  16.669  1.00  0.00     0.036 C 
HETATM    9  C16 UNL     1      -4.727  12.565  17.475  1.00  0.00     0.015 C 
HETATM   10  C17 UNL     1      -3.384  13.274  17.682  1.00  0.00    -0.026 C 
HETATM   11  C18 UNL     1      -2.523  12.405  18.641  1.00  0.00     0.016 C 
HETATM   12  C19 UNL     1      -3.103   9.722  15.090  1.00  0.00    -0.016 C 
HETATM   13  C20 UNL     1      -2.639   8.774  16.222  1.00  0.00     0.020 C 
HETATM   14  C21 UNL     1      -4.438   9.205  14.469  1.00  0.00     0.016 C 
HETATM   15  C22 UNL     1      -4.320   8.460  13.133  1.00  0.00     0.033 C 
HETATM   16  C23 UNL     1      -3.043   7.641  12.998  1.00  0.00     0.126 C 
HETATM   17  C24 UNL     1      -1.766   8.529  13.109  1.00  0.00    -0.017 C 
HETATM   18  C25 UNL     1      -1.384   8.962  11.663  1.00  0.00     0.018 C 
HETATM   19  C26 UNL     1      -0.567   7.712  13.640  1.00  0.00     0.018 C 
HETATM   20  C27 UNL     1      -2.051   9.848  13.932  1.00  0.00     0.011 C 
HETATM   21  C28 UNL     1      -0.781  10.560  14.424  1.00  0.00     0.043 C 
HETATM   22  C29 UNL     1      -1.096  11.975  14.911  1.00  0.00     0.148 C 
ENDROOT
BRANCH   1  23
HETATM   23  C6  UNL     1      -3.894  15.071  19.654  1.00  0.00    -0.013 C 
HETATM   24  C7  UNL     1      -3.750  16.536  20.087  1.00  0.00     0.010 C 
BRANCH  23  25
HETATM   25  C5  UNL     1      -5.370  14.619  19.881  1.00  0.00     0.008 C 
BRANCH  25  26
HETATM   26  C4  UNL     1      -5.522  13.339  20.721  1.00  0.00     0.028 C 
BRANCH  26  27
HETATM   27  C3  UNL     1      -6.397  13.493  21.932  1.00  0.00    -0.022 C 
HETATM   28  C2  UNL     1      -7.742  13.428  22.008  1.00  0.00    -0.064 C 
HETATM   29  C1  UNL     1      -8.668  13.170  20.849  1.00  0.00     0.045 C 
BRANCH  28  30
HETATM   30  C30 UNL     1      -8.444  13.634  23.328  1.00  0.00     0.197 C 
BRANCH  30  31
HETATM   31  O4  UNL     1      -8.512  12.399  24.022  1.00  0.00    -0.397 OA
HETATM   32  H50 UNL     1      -7.621  12.010  23.987  1.00  0.00     0.209 HD
ENDBRANCH  30  31
ENDBRANCH  28  30
ENDBRANCH  26  27
ENDBRANCH  25  26
ENDBRANCH  23  25
ENDBRANCH   1  23
BRANCH   3  33
HETATM   33  O1  UNL     1      -0.979  15.088  15.549  1.00  0.00    -0.394 OA
HETATM   34  H17 UNL     1      -0.378  15.768  15.901  1.00  0.00     0.210 HD
ENDBRANCH   3  33
BRANCH  22  35
HETATM   35  O3  UNL     1      -1.091  12.843  13.783  1.00  0.00    -0.391 OA
HETATM   36  H47 UNL     1      -1.017  13.751  14.145  1.00  0.00     0.210 HD
ENDBRANCH  22  35
BRANCH  16  37
HETATM   37  O2  UNL     1      -3.061   6.601  13.973  1.00  0.00    -0.395 OA
HETATM   38  H36 UNL     1      -3.848   6.054  13.806  1.00  0.00     0.210 HD
ENDBRANCH  16  37
TORSDOF 9
ENDMDL
