MODEL 1
REMARK minimizedAffinity -8.90670967
REMARK  12 active torsions:
REMARK  status: ('A' for Active; 'I' for Inactive)
REMARK    1  A    between atoms: C2_2  and  C17_19 
REMARK    2  A    between atoms: C3_3  and  C4_4 
REMARK    3  A    between atoms: C4_4  and  C5_5 
REMARK    4  A    between atoms: C5_5  and  C6_6 
REMARK    5  A    between atoms: C12_12  and  O1_13 
REMARK    6  A    between atoms: C17_19  and  C18_20 
REMARK    7  A    between atoms: C19_21  and  C20_22 
REMARK    8  A    between atoms: C20_22  and  C22_24 
REMARK    9  A    between atoms: C22_24  and  C23_26 
REMARK   10  A    between atoms: C23_26  and  O4_27 
REMARK   11  A    between atoms: C23_26  and  C24_28 
REMARK   12  A    between atoms: C24_28  and  C25_29 
ROOT
HETATM    1  C1  UNL     1      -4.512  47.010 -21.580  1.00  0.00     0.043 C 
HETATM    2  C2  UNL     1      -3.692  47.851 -22.522  1.00  0.00    -0.084 C 
HETATM    3  C3  UNL     1      -2.421  48.231 -22.280  1.00  0.00    -0.024 C 
ENDROOT
BRANCH   3   4
HETATM    4  C4  UNL     1      -1.551  47.823 -21.123  1.00  0.00     0.030 C 
BRANCH   4   5
HETATM    5  C5  UNL     1      -0.899  48.953 -20.316  1.00  0.00     0.042 C 
BRANCH   5   6
HETATM    6  C6  UNL     1      -1.778  50.138 -19.839  1.00  0.00     0.065 C 
HETATM    7  C7  UNL     1      -2.827  49.666 -18.818  1.00  0.00     0.046 C 
HETATM    8  C8  UNL     1      -2.499  50.902 -20.957  1.00  0.00     0.043 C 
HETATM    9  C9  UNL     1      -1.507  51.563 -21.900  1.00  0.00     0.044 C 
HETATM   10  C10 UNL     1      -0.446  52.283 -21.121  1.00  0.00    -0.021 A 
HETATM   11  C11 UNL     1       0.341  53.254 -21.757  1.00  0.00     0.046 A 
HETATM   12  C16 UNL     1      -0.213  51.977 -19.773  1.00  0.00     0.082 A 
HETATM   13  C12 UNL     1       1.326  53.922 -21.038  1.00  0.00     0.066 A 
HETATM   14  C13 UNL     1       1.545  53.635 -19.697  1.00  0.00     0.046 A 
HETATM   15  C14 UNL     1       0.776  52.661 -19.049  1.00  0.00    -0.025 A 
HETATM   16  C15 UNL     1       1.016  52.362 -17.596  1.00  0.00     0.051 C 
HETATM   17  O2  UNL     1      -0.921  51.028 -19.085  1.00  0.00    -0.340 OA
BRANCH  13  18
HETATM   18  O1  UNL     1       2.111  54.875 -21.621  1.00  0.00    -0.361 OA
HETATM   19  H17 UNL     1       1.812  55.005 -22.538  1.00  0.00     0.217 HD
ENDBRANCH  13  18
ENDBRANCH   5   6
ENDBRANCH   4   5
ENDBRANCH   3   4
BRANCH   2  20
HETATM   20  C17 UNL     1      -4.412  48.291 -23.790  1.00  0.00     0.060 C 
BRANCH  20  21
HETATM   21  C18 UNL     1      -3.456  48.425 -24.943  1.00  0.00    -0.026 C 
HETATM   22  C19 UNL     1      -3.129  49.505 -25.675  1.00  0.00    -0.019 C 
BRANCH  22  23
HETATM   23  C20 UNL     1      -3.632  50.929 -25.613  1.00  0.00     0.076 C 
HETATM   24  C21 UNL     1      -4.297  51.330 -24.295  1.00  0.00     0.022 C 
BRANCH  23  25
HETATM   25  C22 UNL     1      -2.504  51.894 -26.009  1.00  0.00     0.162 C 
HETATM   26  O3  UNL     1      -2.694  52.875 -26.740  1.00  0.00    -0.294 OA
BRANCH  25  27
HETATM   27  C23 UNL     1      -1.111  51.678 -25.385  1.00  0.00     0.188 C 
BRANCH  27  28
HETATM   28  O4  UNL     1      -0.556  52.915 -24.942  1.00  0.00    -0.388 OA
HETATM   29  H31 UNL     1      -1.223  53.606 -25.141  1.00  0.00     0.210 HD
ENDBRANCH  27  28
BRANCH  27  30
HETATM   30  C24 UNL     1      -0.095  50.941 -26.270  1.00  0.00     0.043 C 
BRANCH  30  31
HETATM   31  C25 UNL     1       1.110  51.712 -26.859  1.00  0.00    -0.020 C 
HETATM   32  C26 UNL     1       1.088  51.819 -28.387  1.00  0.00     0.009 C 
HETATM   33  C27 UNL     1       2.464  51.193 -26.381  1.00  0.00     0.009 C 
ENDBRANCH  30  31
ENDBRANCH  27  30
ENDBRANCH  25  27
ENDBRANCH  23  25
ENDBRANCH  22  23
ENDBRANCH  20  21
ENDBRANCH   2  20
TORSDOF 12
ENDMDL
