MODEL 1
REMARK minimizedAffinity -8.24784184
REMARK CNNscore 0.607821345
REMARK CNNaffinity 6.63891029
REMARK  9 active torsions:
REMARK  status: ('A' for Active; 'I' for Inactive)
REMARK    1  A    between atoms: C2_2  and  C30_35 
REMARK    2  A    between atoms: C3_3  and  C4_4 
REMARK    3  A    between atoms: C4_4  and  O1_5 
REMARK    4  A    between atoms: C4_4  and  C5_6 
REMARK    5  A    between atoms: C5_6  and  C6_7 
REMARK    6  A    between atoms: C6_7  and  C8_9 
REMARK    7  A    between atoms: C10_11  and  O2_12 
REMARK    8  A    between atoms: C29_33  and  O5_34 
REMARK    9  A    between atoms: C30_35  and  O7_37 
ROOT
HETATM    1  C8  UNL     1      -8.465   6.364  14.237  1.00  0.00     0.001 C 
HETATM    2  C9  UNL     1      -8.836   5.220  13.245  1.00  0.00     0.038 C 
HETATM    3  C10 UNL     1      -7.516   4.731  12.626  1.00  0.00     0.132 C 
HETATM    4  C11 UNL     1      -6.437   5.169  13.646  1.00  0.00     0.017 C 
HETATM    5  C12 UNL     1      -6.460   4.179  14.860  1.00  0.00     0.023 C 
HETATM    6  C13 UNL     1      -4.980   5.240  13.201  1.00  0.00    -0.029 C 
HETATM    7  C14 UNL     1      -4.096   6.025  13.871  1.00  0.00     0.002 C 
HETATM    8  C15 UNL     1      -4.624   6.934  14.976  1.00  0.00     0.157 C 
HETATM    9  O3  UNL     1      -3.852   7.526  15.730  1.00  0.00    -0.293 OA
HETATM   10  C16 UNL     1      -6.130   7.129  15.168  1.00  0.00     0.094 C 
HETATM   11  C17 UNL     1      -6.944   6.621  13.975  1.00  0.00    -0.019 C 
HETATM   12  C18 UNL     1      -6.744   7.624  12.803  1.00  0.00     0.017 C 
HETATM   13  C19 UNL     1      -2.580   6.058  13.556  1.00  0.00    -0.008 C 
HETATM   14  C20 UNL     1      -2.306   7.424  12.882  1.00  0.00     0.021 C 
HETATM   15  C21 UNL     1      -1.712   5.955  14.853  1.00  0.00     0.022 C 
HETATM   16  C22 UNL     1      -0.357   5.268  14.700  1.00  0.00     0.080 C 
HETATM   17  C23 UNL     1       0.182   5.389  13.296  1.00  0.00     0.135 C 
HETATM   18  O4  UNL     1       1.295   5.872  13.083  1.00  0.00    -0.297 OA
HETATM   19  C24 UNL     1      -0.689   4.806  12.180  1.00  0.00     0.018 C 
HETATM   20  C25 UNL     1      -0.413   5.546  10.857  1.00  0.00     0.023 C 
HETATM   21  C26 UNL     1      -0.232   3.344  11.987  1.00  0.00     0.023 C 
HETATM   22  C27 UNL     1      -2.187   4.836  12.640  1.00  0.00     0.016 C 
HETATM   23  C28 UNL     1      -3.183   4.668  11.483  1.00  0.00     0.043 C 
HETATM   24  C29 UNL     1      -4.590   4.397  12.009  1.00  0.00     0.149 C 
ENDROOT
BRANCH   1  25
HETATM   25  C6  UNL     1      -9.522   7.510  14.286  1.00  0.00    -0.011 C 
HETATM   26  C7  UNL     1      -9.793   8.127  15.664  1.00  0.00     0.010 C 
BRANCH  25  27
HETATM   27  C5  UNL     1     -10.826   7.106  13.555  1.00  0.00     0.040 C 
BRANCH  27  28
HETATM   28  C4  UNL     1     -11.887   8.218  13.456  1.00  0.00     0.142 C 
BRANCH  28  29
HETATM   29  C3  UNL     1     -13.163   7.761  12.801  1.00  0.00     0.018 C 
HETATM   30  C2  UNL     1     -14.402   8.293  12.885  1.00  0.00     0.010 C 
HETATM   31  C1  UNL     1     -14.782   9.540  13.623  1.00  0.00     0.055 C 
BRANCH  30  32
HETATM   32  C30 UNL     1     -15.462   7.606  12.111  1.00  0.00     0.171 C 
HETATM   33  O6  UNL     1     -15.912   7.953  11.033  1.00  0.00    -0.646 OA
BRANCH  32  34
HETATM   34  O7  UNL     1     -15.924   6.511  12.737  1.00  0.00    -0.773 OA
HETATM   35  H44 UNL     1     -16.616   6.173  12.135  1.00  0.00     0.167 HD
ENDBRANCH  32  34
ENDBRANCH  30  32
ENDBRANCH  28  29
BRANCH  28  36
HETATM   36  O1  UNL     1     -11.349   9.309  12.714  1.00  0.00    -0.392 OA
HETATM   37  H6  UNL     1     -10.631   9.694  13.242  1.00  0.00     0.210 HD
ENDBRANCH  28  36
ENDBRANCH  27  28
ENDBRANCH  25  27
ENDBRANCH   1  25
BRANCH   3  38
HETATM   38  O2  UNL     1      -7.519   3.327  12.405  1.00  0.00    -0.394 OA
HETATM   39  H17 UNL     1      -8.324   3.114  11.896  1.00  0.00     0.210 HD
ENDBRANCH   3  38
BRANCH  24  40
HETATM   40  O5  UNL     1      -4.680   3.026  12.375  1.00  0.00    -0.391 OA
HETATM   41  H43 UNL     1      -5.638   2.820  12.429  1.00  0.00     0.210 HD
ENDBRANCH  24  40
TORSDOF 9
ENDMDL
