MODEL 1
REMARK minimizedAffinity -10.1698256
REMARK CNNscore 0.750754476
REMARK CNNaffinity 7.93235588
REMARK  11 active torsions:
REMARK  status: ('A' for Active; 'I' for Inactive)
REMARK    1  A    between atoms: C2_2  and  O2_4 
REMARK    2  A    between atoms: O2_4  and  C3_5 
REMARK    3  A    between atoms: C4_6  and  O3_7 
REMARK    4  A    between atoms: O3_7  and  C5_8 
REMARK    5  A    between atoms: C15_18  and  C16_19 
REMARK    6  A    between atoms: C20_23  and  C21_24 
REMARK    7  A    between atoms: C21_24  and  O4_27 
REMARK    8  A    between atoms: C24_29  and  O6_30 
REMARK    9  A    between atoms: C30_36  and  O7_37 
REMARK   10  A    between atoms: C36_44  and  O9_45 
REMARK   11  A    between atoms: C37_46  and  O10_47 
ROOT
HETATM    1  C5  UNL     1       3.190   8.092  11.342  1.00  0.00     0.133 C 
HETATM    2  C6  UNL     1       2.497   9.246  12.073  1.00  0.00     0.034 C 
HETATM    3  C7  UNL     1       1.446   8.743  13.052  1.00  0.00     0.013 C 
HETATM    4  C8  UNL     1       0.429   7.859  12.342  1.00  0.00    -0.025 A 
HETATM    5  C9  UNL     1      -0.728   8.569  11.688  1.00  0.00     0.021 A 
HETATM    6  C10 UNL     1      -1.013   7.705  12.907  1.00  0.00    -0.027 A 
HETATM    7  C11 UNL     1      -1.340   8.434  14.217  1.00  0.00     0.011 C 
HETATM    8  C12 UNL     1      -2.777   8.352  14.764  1.00  0.00     0.011 C 
HETATM    9  C13 UNL     1      -3.700   7.399  14.003  1.00  0.00    -0.028 C 
HETATM   10  C14 UNL     1      -4.221   8.147  12.748  1.00  0.00     0.016 C 
HETATM   11  C15 UNL     1      -4.904   6.808  14.811  1.00  0.00     0.057 C 
HETATM   12  C24 UNL     1      -5.235   5.488  14.047  1.00  0.00     0.126 C 
HETATM   13  C25 UNL     1      -3.997   5.147  13.190  1.00  0.00     0.042 C 
HETATM   14  C26 UNL     1      -2.879   6.095  13.674  1.00  0.00    -0.029 C 
HETATM   15  C27 UNL     1      -2.216   5.414  14.914  1.00  0.00     0.016 C 
HETATM   16  C28 UNL     1      -1.804   6.413  12.599  1.00  0.00     0.006 C 
HETATM   17  C29 UNL     1      -0.868   5.240  12.303  1.00  0.00     0.038 C 
HETATM   18  C30 UNL     1       0.119   5.576  11.183  1.00  0.00     0.124 C 
HETATM   19  C31 UNL     1       1.118   6.654  11.659  1.00  0.00     0.034 C 
HETATM   20  C32 UNL     1       2.187   7.140  10.605  1.00  0.00    -0.015 C 
HETATM   21  C33 UNL     1       3.010   5.956  10.032  1.00  0.00     0.018 C 
HETATM   22  C34 UNL     1       1.542   7.843   9.390  1.00  0.00     0.018 C 
ENDROOT
BRANCH   1  23
HETATM   23  O3  UNL     1       4.101   8.665  10.394  1.00  0.00    -0.352 OA
BRANCH  23  24
HETATM   24  C4  UNL     1       5.357   9.039  10.971  1.00  0.00     0.292 C 
HETATM   25  C3  UNL     1       5.223   8.964  12.511  1.00  0.00     0.218 C 
HETATM   26  C37 UNL     1       6.579   8.603  13.110  1.00  0.00     0.183 C 
HETATM   27  C36 UNL     1       7.032   7.228  12.590  1.00  0.00     0.173 C 
HETATM   28  C35 UNL     1       6.560   6.990  11.150  1.00  0.00     0.205 C 
HETATM   29  O8  UNL     1       6.421   8.228  10.451  1.00  0.00    -0.356 OA
BRANCH  25  30
HETATM   30  O2  UNL     1       4.820  10.270  12.992  1.00  0.00    -0.309 OA
BRANCH  30  31
HETATM   31  C2  UNL     1       5.601  11.321  12.632  1.00  0.00     0.255 C 
HETATM   32  C1  UNL     1       6.080  12.042  13.857  1.00  0.00     0.126 C 
HETATM   33  O1  UNL     1       5.919  11.630  11.492  1.00  0.00    -0.266 OA
ENDBRANCH  30  31
ENDBRANCH  25  30
BRANCH  26  34
HETATM   34  O10 UNL     1       6.518   8.564  14.544  1.00  0.00    -0.390 OA
HETATM   35  H60 UNL     1       7.429   8.368  14.837  1.00  0.00     0.210 HD
ENDBRANCH  26  34
BRANCH  27  36
HETATM   36  O9  UNL     1       8.464   7.188  12.693  1.00  0.00    -0.391 OA
HETATM   37  H58 UNL     1       8.761   6.331  12.338  1.00  0.00     0.210 HD
ENDBRANCH  27  36
ENDBRANCH  23  24
ENDBRANCH   1  23
BRANCH  18  38
HETATM   38  O7  UNL     1       0.811   4.360  10.880  1.00  0.00    -0.395 OA
HETATM   39  H47 UNL     1       0.156   3.734  10.525  1.00  0.00     0.210 HD
ENDBRANCH  18  38
BRANCH  11  40
HETATM   40  C16 UNL     1      -6.100   7.666  15.315  1.00  0.00     0.065 C 
HETATM   41  C17 UNL     1      -5.818   9.117  15.735  1.00  0.00     0.046 C 
HETATM   42  C18 UNL     1      -6.889   6.954  16.422  1.00  0.00     0.041 C 
HETATM   43  C19 UNL     1      -8.319   7.372  16.170  1.00  0.00     0.038 C 
HETATM   44  C20 UNL     1      -8.389   7.505  14.655  1.00  0.00     0.156 C 
HETATM   45  O5  UNL     1      -7.035   7.742  14.204  1.00  0.00    -0.372 OA
BRANCH  44  46
HETATM   46  C21 UNL     1      -8.985   6.281  13.898  1.00  0.00     0.076 C 
HETATM   47  C22 UNL     1      -8.519   6.266  12.433  1.00  0.00     0.048 C 
HETATM   48  C23 UNL     1     -10.517   6.300  13.947  1.00  0.00     0.048 C 
BRANCH  46  49
HETATM   49  O4  UNL     1      -8.556   5.061  14.519  1.00  0.00    -0.388 OA
HETATM   50  H35 UNL     1      -8.619   4.353  13.858  1.00  0.00     0.210 HD
ENDBRANCH  46  49
ENDBRANCH  44  46
ENDBRANCH  11  40
BRANCH  12  51
HETATM   51  O6  UNL     1      -6.353   5.571  13.181  1.00  0.00    -0.395 OA
HETATM   52  H37 UNL     1      -6.590   4.665  12.921  1.00  0.00     0.210 HD
ENDBRANCH  12  51
TORSDOF 11
ENDMDL
