MODEL 1
REMARK minimizedAffinity -5.14463711
REMARK  0 active torsions:
REMARK  status: ('A' for Active; 'I' for Inactive)
ROOT
HETATM    1  C1  UNL     1      -4.648   1.994  11.389  1.00  0.00     0.001 A 
HETATM    2  C2  UNL     1      -5.935   1.481  11.467  1.00  0.00     0.001 A 
HETATM    3  C3  UNL     1      -6.918   2.185  12.158  1.00  0.00     0.008 A 
HETATM    4  C4  UNL     1      -6.641   3.415  12.793  1.00  0.00    -0.041 A 
HETATM    5  C5  UNL     1      -5.334   3.952  12.691  1.00  0.00    -0.041 A 
HETATM    6  C6  UNL     1      -4.351   3.212  11.996  1.00  0.00     0.008 A 
HETATM    7  C7  UNL     1      -4.858   5.241  13.340  1.00  0.00     0.125 C 
HETATM    8  S1  UNL     1      -6.138   6.467  13.679  1.00  0.00    -0.093 SA
HETATM    9  S2  UNL     1      -7.403   5.282  14.764  1.00  0.00    -0.093 SA
HETATM   10  C8  UNL     1      -7.820   4.093  13.472  1.00  0.00     0.125 C 
ENDROOT
TORSDOF 0
ENDMDL
