MODEL 1
REMARK minimizedAffinity -9.08348656
REMARK CNNscore 0.625998735
REMARK CNNaffinity 7.29604769
REMARK  11 active torsions:
REMARK  status: ('A' for Active; 'I' for Inactive)
REMARK    1  A    between atoms: O1_2  and  C2_3 
REMARK    2  A    between atoms: C2_3  and  C3_4 
REMARK    3  A    between atoms: C3_4  and  C4_5 
REMARK    4  A    between atoms: C4_5  and  O2_6 
REMARK    5  A    between atoms: O2_6  and  C5_7 
REMARK    6  A    between atoms: C20_23  and  C21_24 
REMARK    7  A    between atoms: C21_24  and  O4_26 
REMARK    8  A    between atoms: C21_24  and  C23_27 
REMARK    9  A    between atoms: C23_27  and  O5_28 
REMARK   10  A    between atoms: C23_27  and  C24_29 
REMARK   11  A    between atoms: C34_40  and  O7_41 
ROOT
HETATM    1  C5  UNL     1      -4.804   7.271  15.507  1.00  0.00     0.122 C 
HETATM    2  C6  UNL     1      -3.977   6.215  14.761  1.00  0.00     0.033 C 
HETATM    3  C7  UNL     1      -3.561   6.714  13.377  1.00  0.00     0.013 C 
HETATM    4  C8  UNL     1      -2.577   7.921  13.470  1.00  0.00    -0.026 C 
HETATM    5  C9  UNL     1      -2.770   8.750  12.172  1.00  0.00     0.016 C 
HETATM    6  C10 UNL     1      -2.984   8.869  14.652  1.00  0.00     0.071 C 
HETATM    7  C11 UNL     1      -4.457   8.698  15.057  1.00  0.00     0.045 C 
HETATM    8  C12 UNL     1      -2.076   8.836  15.874  1.00  0.00     0.161 C 
HETATM    9  O3  UNL     1      -2.501   8.916  17.026  1.00  0.00    -0.292 OA
HETATM   10  C13 UNL     1      -0.615   8.795  15.632  1.00  0.00    -0.006 C 
HETATM   11  C14 UNL     1      -0.201   8.123  14.543  1.00  0.00    -0.030 C 
HETATM   12  C15 UNL     1      -1.099   7.351  13.590  1.00  0.00     0.027 C 
HETATM   13  C16 UNL     1      -0.429   7.010  12.209  1.00  0.00     0.011 C 
HETATM   14  C17 UNL     1       1.092   6.725  12.231  1.00  0.00     0.014 C 
HETATM   15  C18 UNL     1       1.840   7.842  12.985  1.00  0.00    -0.002 C 
HETATM   16  C19 UNL     1       1.632   9.179  12.236  1.00  0.00     0.019 C 
HETATM   17  C20 UNL     1       3.352   7.571  13.351  1.00  0.00     0.034 C 
HETATM   18  C30 UNL     1       3.573   8.341  14.711  1.00  0.00     0.016 C 
HETATM   19  C31 UNL     1       2.175   8.842  15.122  1.00  0.00     0.026 C 
HETATM   20  C32 UNL     1       1.800   8.944  16.591  1.00  0.00     0.013 C 
HETATM   21  C33 UNL     1       0.307   9.355  16.705  1.00  0.00     0.043 C 
HETATM   22  C34 UNL     1       1.256   7.855  14.412  1.00  0.00     0.094 C 
ENDROOT
BRANCH  17  23
HETATM   23  C21 UNL     1       4.492   7.698  12.293  1.00  0.00     0.087 C 
HETATM   24  C22 UNL     1       5.879   7.254  12.801  1.00  0.00     0.049 C 
BRANCH  23  25
HETATM   25  O4  UNL     1       4.614   9.088  11.964  1.00  0.00    -0.387 OA
HETATM   26  H33 UNL     1       5.188   9.143  11.179  1.00  0.00     0.210 HD
ENDBRANCH  23  25
BRANCH  23  27
HETATM   27  C23 UNL     1       4.154   6.881  10.982  1.00  0.00     0.181 C 
BRANCH  27  28
HETATM   28  O5  UNL     1       5.382   6.668  10.247  1.00  0.00    -0.390 OA
HETATM   29  H35 UNL     1       5.399   7.379   9.571  1.00  0.00     0.210 HD
ENDBRANCH  27  28
BRANCH  27  30
HETATM   30  C24 UNL     1       3.154   7.545  10.004  1.00  0.00     0.157 C 
HETATM   31  O6  UNL     1       3.874   8.408   9.091  1.00  0.00    -0.382 OA
HETATM   32  C25 UNL     1       3.103   8.528   7.883  1.00  0.00     0.172 C 
HETATM   33  C26 UNL     1       1.929   7.553   7.971  1.00  0.00     0.012 C 
HETATM   34  C27 UNL     1       0.621   8.277   8.297  1.00  0.00     0.012 C 
HETATM   35  C28 UNL     1       2.354   6.601   9.090  1.00  0.00     0.019 C 
HETATM   36  C29 UNL     1       3.146   5.427   8.509  1.00  0.00     0.013 C 
ENDBRANCH  27  30
ENDBRANCH  23  27
ENDBRANCH  17  23
BRANCH  22  37
HETATM   37  O7  UNL     1       1.438   6.552  15.014  1.00  0.00    -0.384 OA
HETATM   38  H54 UNL     1       0.887   6.498  15.814  1.00  0.00     0.211 HD
ENDBRANCH  22  37
BRANCH   1  39
HETATM   39  O2  UNL     1      -6.182   6.987  15.228  1.00  0.00    -0.386 OA
BRANCH  39  40
HETATM   40  C4  UNL     1      -6.448   5.700  14.669  1.00  0.00     0.170 C 
BRANCH  40  41
HETATM   41  C3  UNL     1      -7.715   5.708  13.816  1.00  0.00     0.052 C 
BRANCH  41  42
HETATM   42  C2  UNL     1      -7.690   4.620  12.748  1.00  0.00     0.169 C 
BRANCH  42  43
HETATM   43  O1  UNL     1      -8.216   3.379  13.211  1.00  0.00    -0.396 OA
HETATM   44  C1  UNL     1      -7.491   2.249  12.742  1.00  0.00     0.201 C 
ENDBRANCH  42  43
ENDBRANCH  41  42
ENDBRANCH  40  41
ENDBRANCH  39  40
ENDBRANCH   1  39
TORSDOF 11
ENDMDL
