MODEL 1
REMARK minimizedAffinity -8.51754379
REMARK CNNscore 0.56113404
REMARK CNNaffinity 6.85098886
REMARK  14 active torsions:
REMARK  status: ('A' for Active; 'I' for Inactive)
REMARK    1  A    between atoms: C19_20  and  O2_21 
REMARK    2  A    between atoms: C19_20  and  C20_22 
REMARK    3  A    between atoms: C20_22  and  C21_24 
REMARK    4  A    between atoms: C21_24  and  O4_25 
REMARK    5  A    between atoms: O4_25  and  C22_26 
REMARK    6  A    between atoms: C22_26  and  C23_28 
REMARK    7  A    between atoms: C23_28  and  C24_29 
REMARK    8  A    between atoms: C24_29  and  C25_30 
REMARK       I    between atoms: C25_30  and  N1_32 
REMARK    9  A    between atoms: N1_32  and  C26_33 
REMARK   10  A    between atoms: C26_33  and  C27_34 
REMARK   11  A    between atoms: C27_34  and  C28_35 
REMARK   12  A    between atoms: C27_34  and  C30_39 
REMARK   13  A    between atoms: C28_35  and  C29_36 
REMARK   14  A    between atoms: C29_36  and  O8_38 
ROOT
HETATM    1  C20 UNL     1      -5.125   5.980  14.407  1.00  0.00     0.185 C 
HETATM    2  O3  UNL     1      -5.445   4.832  14.087  1.00  0.00    -0.292 OA
ENDROOT
BRANCH   1   3
HETATM    3  C19 UNL     1      -3.961   6.712  13.706  1.00  0.00     0.128 C 
HETATM    4  C14 UNL     1      -2.650   6.921  14.545  1.00  0.00    -0.002 C 
HETATM    5  C13 UNL     1      -1.733   5.683  14.629  1.00  0.00     0.013 C 
HETATM    6  C15 UNL     1      -2.997   7.339  16.001  1.00  0.00     0.019 C 
HETATM    7  C16 UNL     1      -1.938   8.148  13.876  1.00  0.00     0.002 C 
HETATM    8  C12 UNL     1      -0.860   5.351  13.413  1.00  0.00     0.007 C 
HETATM    9  C11 UNL     1      -0.591   6.511  12.434  1.00  0.00     0.002 C 
HETATM   10  C2  UNL     1       0.703   6.366  11.533  1.00  0.00    -0.016 C 
HETATM   11  C10 UNL     1      -0.587   7.861  13.183  1.00  0.00    -0.004 C 
HETATM   12  C1  UNL     1       1.095   4.886  11.314  1.00  0.00     0.020 C 
HETATM   13  C3  UNL     1       0.393   7.006  10.147  1.00  0.00     0.022 C 
HETATM   14  C7  UNL     1       1.880   7.122  12.153  1.00  0.00    -0.068 C 
HETATM   15  C4  UNL     1       1.611   7.103   9.232  1.00  0.00     0.084 C 
HETATM   16  C5  UNL     1       2.798   7.717   9.936  1.00  0.00     0.149 C 
HETATM   17  O1  UNL     1       3.755   8.175   9.313  1.00  0.00    -0.293 OA
HETATM   18  C6  UNL     1       2.827   7.734  11.417  1.00  0.00     0.053 C 
HETATM   19  C8  UNL     1       1.874   7.235  13.656  1.00  0.00     0.035 C 
HETATM   20  C9  UNL     1       0.610   7.950  14.158  1.00  0.00     0.010 C 
HETATM   21  C17 UNL     1      -2.959   8.732  12.880  1.00  0.00     0.009 C 
HETATM   22  C18 UNL     1      -4.304   8.133  13.255  1.00  0.00     0.047 C 
BRANCH   3  23
HETATM   23  O2  UNL     1      -3.719   5.939  12.522  1.00  0.00    -0.381 OA
HETATM   24  H27 UNL     1      -3.490   5.037  12.817  1.00  0.00     0.211 HD
ENDBRANCH   3  23
ENDBRANCH   1   3
BRANCH   1  25
HETATM   25  C21 UNL     1      -6.024   6.810  15.337  1.00  0.00     0.260 C 
BRANCH  25  26
HETATM   26  O4  UNL     1      -7.198   6.134  15.779  1.00  0.00    -0.314 OA
BRANCH  26  27
HETATM   27  C22 UNL     1      -8.356   6.786  15.482  1.00  0.00     0.259 C 
HETATM   28  O5  UNL     1      -9.098   7.284  16.318  1.00  0.00    -0.265 OA
BRANCH  27  29
HETATM   29  C23 UNL     1      -8.566   6.911  13.994  1.00  0.00     0.120 C 
BRANCH  29  30
HETATM   30  C24 UNL     1      -9.794   6.166  13.483  1.00  0.00     0.112 C 
BRANCH  30  31
HETATM   31  C25 UNL     1     -11.046   7.007  13.612  1.00  0.00     0.218 C 
HETATM   32  O6  UNL     1     -11.319   7.937  12.858  1.00  0.00    -0.274 OA
HETATM   33  N1  UNL     1     -11.853   6.614  14.659  1.00  0.00    -0.360 N 
HETATM   34  H34 UNL     1     -11.692   5.707  15.080  1.00  0.00     0.162 HD
BRANCH  33  35
HETATM   35  C26 UNL     1     -13.154   7.229  14.882  1.00  0.00     0.132 C 
BRANCH  35  36
HETATM   36  C27 UNL     1     -14.261   6.623  13.988  1.00  0.00     0.046 C 
BRANCH  36  37
HETATM   37  C28 UNL     1     -15.086   7.719  13.298  1.00  0.00     0.120 C 
BRANCH  37  38
HETATM   38  C29 UNL     1     -15.814   7.179  12.104  1.00  0.00     0.140 C 
HETATM   39  O7  UNL     1     -16.452   6.141  12.070  1.00  0.00    -0.650 OA
BRANCH  38  40
HETATM   40  O8  UNL     1     -15.720   7.977  11.027  1.00  0.00    -0.776 OA
HETATM   41  H40 UNL     1     -16.272   7.536  10.346  1.00  0.00     0.167 HD
ENDBRANCH  38  40
ENDBRANCH  37  38
ENDBRANCH  36  37
BRANCH  36  42
HETATM   42  C30 UNL     1     -15.185   5.700  14.778  1.00  0.00    -0.052 A 
HETATM   43  C31 UNL     1     -16.066   6.194  15.754  1.00  0.00     0.007 A 
HETATM   44  C32 UNL     1     -16.902   5.328  16.459  1.00  0.00     0.001 A 
HETATM   45  C33 UNL     1     -16.869   3.959  16.200  1.00  0.00     0.000 A 
HETATM   46  C34 UNL     1     -16.004   3.456  15.231  1.00  0.00     0.001 A 
HETATM   47  C35 UNL     1     -15.166   4.321  14.525  1.00  0.00     0.007 A 
ENDBRANCH  36  42
ENDBRANCH  35  36
ENDBRANCH  33  35
ENDBRANCH  30  31
ENDBRANCH  29  30
ENDBRANCH  27  29
ENDBRANCH  26  27
ENDBRANCH  25  26
ENDBRANCH   1  25
TORSDOF 14
ENDMDL
