MODEL 1
REMARK minimizedAffinity -8.43991184
REMARK CNNscore 0.407959312
REMARK CNNaffinity 7.29767227
REMARK  9 active torsions:
REMARK  status: ('A' for Active; 'I' for Inactive)
REMARK    1  A    between atoms: C3_3  and  O1_4 
REMARK    2  A    between atoms: N1_14  and  O2_16 
REMARK    3  A    between atoms: O2_16  and  C13_17 
REMARK    4  A    between atoms: C13_17  and  C14_18 
REMARK       I    between atoms: C14_18  and  N2_20 
REMARK    5  A    between atoms: N2_20  and  C15_21 
REMARK    6  A    between atoms: C15_21  and  C16_22 
REMARK    7  A    between atoms: C15_21  and  C18_26 
REMARK    8  A    between atoms: C16_22  and  C17_23 
REMARK    9  A    between atoms: C17_23  and  O5_25 
ROOT
HETATM    1  C1  UNL     1      -2.629   8.859  12.178  1.00  0.00     0.015 C 
HETATM    2  C2  UNL     1      -2.441   7.924  12.910  1.00  0.00    -0.078 C 
HETATM    3  C3  UNL     1      -2.157   6.763  13.779  1.00  0.00     0.128 C 
HETATM    4  C4  UNL     1      -2.003   5.501  12.925  1.00  0.00     0.052 C 
HETATM    5  C5  UNL     1      -3.423   4.962  12.753  1.00  0.00     0.010 C 
HETATM    6  C6  UNL     1      -4.297   5.573  13.884  1.00  0.00     0.002 C 
HETATM    7  C7  UNL     1      -5.490   6.372  13.297  1.00  0.00    -0.004 C 
HETATM    8  C8  UNL     1      -6.528   5.442  12.627  1.00  0.00     0.010 C 
HETATM    9  C9  UNL     1      -7.517   4.814  13.606  1.00  0.00     0.035 C 
HETATM   10  C10 UNL     1      -8.188   5.919  14.380  1.00  0.00    -0.069 C 
HETATM   11  C11 UNL     1      -9.498   6.164  14.192  1.00  0.00     0.030 C 
HETATM   12  C12 UNL     1     -10.127   7.389  14.760  1.00  0.00     0.032 C 
HETATM   13  N1  UNL     1     -11.398   7.605  14.910  1.00  0.00    -0.271 N 
ATOM     14  H1  UNL     1     -11.792   8.463  15.296  1.00  0.00     0.194 HD
HETATM   15  C25 UNL     1      -9.175   8.493  15.154  1.00  0.00     0.060 C 
HETATM   16  C26 UNL     1      -8.062   7.888  15.990  1.00  0.00     0.020 C 
HETATM   17  C27 UNL     1      -7.251   6.773  15.250  1.00  0.00    -0.016 C 
HETATM   18  C28 UNL     1      -6.671   5.899  16.382  1.00  0.00     0.020 C 
HETATM   19  C29 UNL     1      -6.164   7.380  14.277  1.00  0.00     0.002 C 
HETATM   20  C30 UNL     1      -5.084   8.283  14.893  1.00  0.00     0.007 C 
HETATM   21  C31 UNL     1      -3.912   7.564  15.547  1.00  0.00     0.014 C 
HETATM   22  C32 UNL     1      -3.302   6.375  14.772  1.00  0.00     0.003 C 
HETATM   23  C33 UNL     1      -2.737   5.411  15.866  1.00  0.00     0.020 C 
ENDROOT
BRANCH   3  24
HETATM   24  O1  UNL     1      -0.932   7.012  14.459  1.00  0.00    -0.377 OA
HETATM   25  H2  UNL     1      -0.966   7.931  14.778  1.00  0.00     0.211 HD
ENDBRANCH   3  24
BRANCH  13  26
HETATM   26  O2  UNL     1     -12.164   6.510  14.474  1.00  0.00    -0.271 OA
BRANCH  26  27
HETATM   27  C13 UNL     1     -12.829   6.857  13.274  1.00  0.00     0.303 C 
BRANCH  27  28
HETATM   28  C14 UNL     1     -13.731   8.090  13.388  1.00  0.00     0.244 C 
HETATM   29  O3  UNL     1     -14.566   8.262  14.270  1.00  0.00    -0.271 OA
HETATM   30  N2  UNL     1     -13.506   9.019  12.378  1.00  0.00    -0.354 N 
HETATM   31  H16 UNL     1     -12.681   8.898  11.801  1.00  0.00     0.162 HD
BRANCH  30  32
HETATM   32  C15 UNL     1     -14.221  10.295  12.329  1.00  0.00     0.098 C 
BRANCH  32  33
HETATM   33  C16 UNL     1     -15.728  10.100  12.568  1.00  0.00     0.135 C 
BRANCH  33  34
HETATM   34  C17 UNL     1     -16.461   9.640  11.341  1.00  0.00     0.141 C 
HETATM   35  O4  UNL     1     -17.269  10.298  10.706  1.00  0.00    -0.650 OA
BRANCH  34  36
HETATM   36  O5  UNL     1     -16.081   8.420  10.924  1.00  0.00    -0.776 OA
HETATM   37  H20 UNL     1     -16.710   8.213  10.202  1.00  0.00     0.167 HD
ENDBRANCH  34  36
ENDBRANCH  33  34
ENDBRANCH  32  33
BRANCH  32  38
HETATM   38  C18 UNL     1     -13.629  11.318  13.334  1.00  0.00     0.014 C 
HETATM   39  C19 UNL     1     -14.536  11.653  14.521  1.00  0.00     0.033 C 
HETATM   40  C20 UNL     1     -13.924  12.761  15.376  1.00  0.00     0.169 C 
HETATM   41  O6  UNL     1     -12.529  12.944  15.151  1.00  0.00    -0.381 OA
HETATM   42  C21 UNL     1     -11.750  11.746  15.040  1.00  0.00     0.054 C 
HETATM   43  C22 UNL     1     -10.309  12.206  14.764  1.00  0.00     0.045 C 
HETATM   44  C23 UNL     1     -11.765  10.976  16.369  1.00  0.00     0.045 C 
HETATM   45  C24 UNL     1     -12.252  10.873  13.864  1.00  0.00     0.044 C 
ENDBRANCH  32  38
ENDBRANCH  30  32
ENDBRANCH  27  28
ENDBRANCH  26  27
ENDBRANCH  13  26
TORSDOF 9
ENDMDL
