MODEL 1
REMARK minimizedAffinity -7.15824842
REMARK CNNscore 0.580180764
REMARK CNNaffinity 6.67620087
REMARK  9 active torsions:
REMARK  status: ('A' for Active; 'I' for Inactive)
REMARK    1  A    between atoms: C2_2  and  C3_3 
REMARK    2  A    between atoms: C2_2  and  C9_12 
REMARK    3  A    between atoms: C3_3  and  C4_4 
REMARK    4  A    between atoms: C4_4  and  O1_5 
REMARK    5  A    between atoms: C4_4  and  C5_6 
REMARK    6  A    between atoms: C5_6  and  O2_7 
REMARK    7  A    between atoms: C5_6  and  C6_8 
REMARK    8  A    between atoms: C6_8  and  O3_11 
REMARK    9  A    between atoms: C16_19  and  O4_20 
ROOT
HETATM    1  C9  UNL     1       1.395  53.215 -10.852  1.00  0.00     0.097 A 
HETATM    2  C10 UNL     1       2.784  52.815 -11.255  1.00  0.00     0.042 C 
HETATM    3  C11 UNL     1       3.728  53.822 -10.581  1.00  0.00     0.016 C 
HETATM    4  C12 UNL     1       2.883  55.024 -10.015  1.00  0.00    -0.002 C 
HETATM    5  C13 UNL     1       3.104  56.237 -10.954  1.00  0.00     0.019 C 
HETATM    6  C14 UNL     1       1.436  54.549 -10.139  1.00  0.00     0.104 A 
HETATM    7  C15 UNL     1       0.354  55.204  -9.337  1.00  0.00     0.074 C 
HETATM    8  C16 UNL     1       0.752  55.655  -7.925  1.00  0.00     0.126 C 
HETATM    9  C17 UNL     1       2.165  56.314  -7.865  1.00  0.00     0.032 C 
HETATM   10  C18 UNL     1       2.622  57.057  -6.486  1.00  0.00    -0.032 C 
HETATM   11  C19 UNL     1       2.717  58.572  -6.828  1.00  0.00     0.016 C 
HETATM   12  C20 UNL     1       1.597  56.865  -5.341  1.00  0.00     0.017 C 
HETATM   13  C21 UNL     1       1.979  57.405  -3.968  1.00  0.00     0.080 C 
HETATM   14  C22 UNL     1       3.384  57.920  -3.824  1.00  0.00     0.135 C 
HETATM   15  O5  UNL     1       3.611  58.818  -3.008  1.00  0.00    -0.297 OA
HETATM   16  C23 UNL     1       4.513  57.240  -4.600  1.00  0.00     0.017 C 
HETATM   17  C24 UNL     1       5.619  58.292  -4.843  1.00  0.00     0.023 C 
HETATM   18  C25 UNL     1       5.101  56.172  -3.649  1.00  0.00     0.023 C 
HETATM   19  C26 UNL     1       3.992  56.539  -5.919  1.00  0.00     0.009 C 
HETATM   20  C27 UNL     1       5.086  56.372  -6.986  1.00  0.00     0.007 C 
HETATM   21  C28 UNL     1       4.607  56.010  -8.382  1.00  0.00     0.011 C 
HETATM   22  C29 UNL     1       3.228  55.326  -8.473  1.00  0.00    -0.027 C 
HETATM   23  C30 UNL     1       3.233  53.990  -7.665  1.00  0.00     0.016 C 
HETATM   24  O6  UNL     1       0.988  54.414 -11.510  1.00  0.00    -0.362 OA
ENDROOT
BRANCH   1  25
HETATM   25  C2  UNL     1       0.280  52.193 -10.777  1.00  0.00     0.022 C 
HETATM   26  C1  UNL     1       0.848  50.789 -10.564  1.00  0.00     0.013 C 
BRANCH  25  27
HETATM   27  C3  UNL     1      -0.608  52.281 -12.037  1.00  0.00     0.041 C 
BRANCH  27  28
HETATM   28  C4  UNL     1      -0.476  51.133 -13.052  1.00  0.00     0.150 C 
BRANCH  28  29
HETATM   29  O1  UNL     1      -1.078  49.969 -12.461  1.00  0.00    -0.393 OA
HETATM   30  H8  UNL     1      -2.016  50.170 -12.285  1.00  0.00     0.210 HD
ENDBRANCH  28  29
BRANCH  28  31
HETATM   31  C5  UNL     1       0.986  50.797 -13.459  1.00  0.00     0.180 C 
BRANCH  31  32
HETATM   32  O2  UNL     1       1.111  49.385 -13.678  1.00  0.00    -0.390 OA
HETATM   33  H10 UNL     1       1.115  48.939 -12.811  1.00  0.00     0.210 HD
ENDBRANCH  31  32
BRANCH  31  34
HETATM   34  C6  UNL     1       1.478  51.550 -14.743  1.00  0.00     0.079 C 
HETATM   35  C7  UNL     1       0.939  50.872 -16.006  1.00  0.00     0.048 C 
HETATM   36  C8  UNL     1       3.008  51.610 -14.811  1.00  0.00     0.048 C 
BRANCH  34  37
HETATM   37  O3  UNL     1       1.009  52.904 -14.780  1.00  0.00    -0.388 OA
HETATM   38  H17 UNL     1       0.697  53.118 -13.873  1.00  0.00     0.210 HD
ENDBRANCH  34  37
ENDBRANCH  31  34
ENDBRANCH  28  31
ENDBRANCH  27  28
ENDBRANCH  25  27
ENDBRANCH   1  25
BRANCH   8  39
HETATM   39  O4  UNL     1      -0.239  56.592  -7.517  1.00  0.00    -0.395 OA
HETATM   40  H28 UNL     1      -1.106  56.153  -7.541  1.00  0.00     0.210 HD
ENDBRANCH   8  39
TORSDOF 9
ENDMDL
