MODEL 1
REMARK minimizedAffinity -10.3854036
REMARK CNNscore 0.817562878
REMARK CNNaffinity 7.81064034
REMARK  12 active torsions:
REMARK  status: ('A' for Active; 'I' for Inactive)
REMARK    1  A    between atoms: C2_2  and  C4_4 
REMARK    2  A    between atoms: C4_4  and  C6_6 
REMARK    3  A    between atoms: C7_8  and  C8_9 
REMARK    4  A    between atoms: C8_9  and  O2_11 
REMARK    5  A    between atoms: C8_9  and  C10_12 
REMARK    6  A    between atoms: C13_15  and  O3_16 
REMARK    7  A    between atoms: C19_23  and  O5_24 
REMARK    8  A    between atoms: C20_25  and  O6_26 
REMARK    9  A    between atoms: C27_33  and  C28_34 
REMARK   10  A    between atoms: C28_34  and  C29_35 
REMARK   11  A    between atoms: C29_35  and  C30_36 
REMARK   12  A    between atoms: C34_40  and  O7_41 
ROOT
HETATM    1  C10 UNL     1      -3.349   7.699  14.991  1.00  0.00     0.034 C 
HETATM    2  C11 UNL     1      -3.095   6.367  15.756  1.00  0.00     0.012 C 
HETATM    3  C12 UNL     1      -1.908   5.673  15.054  1.00  0.00     0.044 C 
HETATM    4  C13 UNL     1      -1.311   6.769  14.167  1.00  0.00     0.090 C 
HETATM    5  C14 UNL     1      -0.360   6.469  13.033  1.00  0.00    -0.037 C 
HETATM    6  C15 UNL     1      -0.056   5.224  12.638  1.00  0.00     0.057 C 
HETATM    7  C16 UNL     1       0.713   4.983  11.400  1.00  0.00     0.154 C 
HETATM    8  O4  UNL     1       1.107   3.840  11.176  1.00  0.00    -0.293 OA
HETATM    9  C17 UNL     1       0.942   6.160  10.451  1.00  0.00     0.071 C 
HETATM   10  C18 UNL     1       2.033   5.818   9.414  1.00  0.00     0.047 C 
HETATM   11  C19 UNL     1       3.464   5.943   9.947  1.00  0.00     0.147 C 
HETATM   12  C20 UNL     1       3.552   6.166  11.461  1.00  0.00     0.147 C 
HETATM   13  C21 UNL     1       2.647   7.296  11.973  1.00  0.00     0.044 C 
HETATM   14  C22 UNL     1       1.264   7.446  11.249  1.00  0.00    -0.023 C 
HETATM   15  C23 UNL     1       1.374   8.653  10.282  1.00  0.00     0.016 C 
HETATM   16  C24 UNL     1       0.140   7.732  12.321  1.00  0.00     0.027 C 
HETATM   17  C25 UNL     1      -1.089   8.545  11.829  1.00  0.00     0.011 C 
HETATM   18  C26 UNL     1      -2.119   8.817  12.951  1.00  0.00     0.014 C 
HETATM   19  C27 UNL     1      -2.600   7.508  13.623  1.00  0.00     0.002 C 
ENDROOT
BRANCH   1  20
HETATM   20  C8  UNL     1      -4.800   8.246  15.101  1.00  0.00     0.087 C 
HETATM   21  C9  UNL     1      -5.471   8.142  13.716  1.00  0.00     0.049 C 
BRANCH  20  22
HETATM   22  C7  UNL     1      -4.883   9.654  15.666  1.00  0.00     0.185 A 
HETATM   23  C6  UNL     1      -3.759  10.363  16.410  1.00  0.00     0.158 A 
HETATM   24  O1  UNL     1      -3.992  10.588  15.017  1.00  0.00    -0.372 OA
BRANCH  23  25
HETATM   25  C4  UNL     1      -3.981  11.551  17.323  1.00  0.00     0.017 C 
HETATM   26  C5  UNL     1      -3.814  12.913  16.639  1.00  0.00     0.013 C 
BRANCH  25  27
HETATM   27  C2  UNL     1      -3.124  11.404  18.616  1.00  0.00    -0.016 C 
HETATM   28  C1  UNL     1      -1.890  12.312  18.595  1.00  0.00     0.010 C 
HETATM   29  C3  UNL     1      -2.700   9.962  18.906  1.00  0.00     0.010 C 
ENDBRANCH  25  27
ENDBRANCH  23  25
ENDBRANCH  20  22
BRANCH  20  30
HETATM   30  O2  UNL     1      -5.547   7.381  15.958  1.00  0.00    -0.387 OA
HETATM   31  H17 UNL     1      -6.391   7.839  16.135  1.00  0.00     0.210 HD
ENDBRANCH  20  30
ENDBRANCH   1  20
BRANCH  19  32
HETATM   32  C28 UNL     1      -3.377   6.598  12.598  1.00  0.00     0.018 C 
BRANCH  32  33
HETATM   33  C29 UNL     1      -3.137   5.079  12.656  1.00  0.00     0.039 C 
BRANCH  33  34
HETATM   34  C30 UNL     1      -4.444   4.326  12.539  1.00  0.00    -0.056 A 
HETATM   35  C31 UNL     1      -5.536   4.646  13.357  1.00  0.00     0.007 A 
HETATM   36  C32 UNL     1      -6.726   3.919  13.267  1.00  0.00     0.003 A 
HETATM   37  C33 UNL     1      -6.838   2.865  12.361  1.00  0.00     0.036 A 
HETATM   38  C34 UNL     1      -5.755   2.550  11.544  1.00  0.00     0.066 A 
HETATM   39  C35 UNL     1      -4.568   3.269  11.625  1.00  0.00     0.043 A 
BRANCH  38  40
HETATM   40  O7  UNL     1      -5.816   1.529  10.642  1.00  0.00    -0.361 OA
HETATM   41  H49 UNL     1      -6.674   1.082  10.738  1.00  0.00     0.217 HD
ENDBRANCH  38  40
ENDBRANCH  33  34
ENDBRANCH  32  33
ENDBRANCH  19  32
BRANCH   4  42
HETATM   42  O3  UNL     1      -0.567   7.614  15.064  1.00  0.00    -0.384 OA
HETATM   43  H23 UNL     1       0.200   7.101  15.374  1.00  0.00     0.211 HD
ENDBRANCH   4  42
BRANCH  12  44
HETATM   44  O6  UNL     1       4.913   6.477  11.793  1.00  0.00    -0.393 OA
HETATM   45  H31 UNL     1       4.972   6.496  12.764  1.00  0.00     0.210 HD
ENDBRANCH  12  44
BRANCH  11  46
HETATM   46  O5  UNL     1       4.119   7.033   9.285  1.00  0.00    -0.393 OA
HETATM   47  H29 UNL     1       4.926   7.194   9.816  1.00  0.00     0.210 HD
ENDBRANCH  11  46
TORSDOF 12
ENDMDL
