MODEL 1
REMARK minimizedAffinity -7.35493469
REMARK CNNscore 0.585410357
REMARK CNNaffinity 6.56800461
REMARK  13 active torsions:
REMARK  status: ('A' for Active; 'I' for Inactive)
REMARK    1  A    between atoms: O1_2  and  C2_3 
REMARK    2  A    between atoms: C12_14  and  C13_15 
REMARK    3  A    between atoms: C13_15  and  C15_17 
REMARK    4  A    between atoms: C15_17  and  C16_18 
REMARK    5  A    between atoms: C17_19  and  C18_20 
REMARK    6  A    between atoms: C18_20  and  O3_23 
REMARK    7  A    between atoms: C29_32  and  O4_33 
REMARK    8  A    between atoms: O4_33  and  C30_34 
REMARK    9  A    between atoms: C31_36  and  C32_37 
REMARK   10  A    between atoms: C32_37  and  O6_38 
REMARK   11  A    between atoms: C33_39  and  O7_40 
REMARK   12  A    between atoms: C34_41  and  O8_42 
REMARK   13  A    between atoms: C35_43  and  O9_44 
ROOT
HETATM    1  C2  UNL     1      -7.191  45.867 -22.284  1.00  0.00     0.270 C 
HETATM    2  O2  UNL     1      -5.956  46.463 -21.829  1.00  0.00    -0.344 OA
HETATM    3  C3  UNL     1      -6.284  47.658 -21.091  1.00  0.00     0.095 C 
HETATM    4  C4  UNL     1      -6.465  47.161 -19.659  1.00  0.00     0.008 C 
HETATM    5  C5  UNL     1      -7.589  46.546 -19.259  1.00  0.00    -0.021 C 
HETATM    6  C6  UNL     1      -8.729  46.273 -20.219  1.00  0.00     0.030 C 
HETATM    7  C7  UNL     1      -8.374  46.722 -21.703  1.00  0.00     0.024 C 
HETATM    8  C8  UNL     1      -9.601  46.601 -22.644  1.00  0.00     0.016 C 
HETATM    9  C9  UNL     1     -10.955  47.062 -22.080  1.00  0.00     0.011 C 
HETATM   10  C10 UNL     1     -11.256  46.415 -20.717  1.00  0.00    -0.032 C 
HETATM   11  C11 UNL     1     -11.373  44.872 -20.933  1.00  0.00     0.016 C 
HETATM   12  C12 UNL     1     -12.514  46.899 -19.929  1.00  0.00    -0.002 C 
HETATM   13  C22 UNL     1     -12.156  46.475 -18.466  1.00  0.00     0.006 C 
HETATM   14  C23 UNL     1     -10.631  46.244 -18.405  1.00  0.00     0.011 C 
HETATM   15  C24 UNL     1     -10.103  46.841 -19.722  1.00  0.00    -0.029 C 
HETATM   16  C25 UNL     1     -10.025  48.388 -19.472  1.00  0.00     0.016 C 
HETATM   17  C26 UNL     1      -7.650  48.092 -21.679  1.00  0.00     0.039 C 
HETATM   18  C27 UNL     1      -7.564  48.787 -23.049  1.00  0.00     0.011 C 
HETATM   19  C28 UNL     1      -6.526  49.895 -23.067  1.00  0.00     0.033 C 
HETATM   20  C29 UNL     1      -5.149  49.361 -22.663  1.00  0.00     0.136 C 
HETATM   21  C36 UNL     1      -5.161  48.746 -21.226  1.00  0.00     0.014 C 
HETATM   22  C37 UNL     1      -3.760  48.140 -20.952  1.00  0.00     0.021 C 
HETATM   23  C38 UNL     1      -5.382  49.893 -20.206  1.00  0.00     0.021 C 
ENDROOT
BRANCH  20  24
HETATM   24  O4  UNL     1      -4.753  48.357 -23.610  1.00  0.00    -0.352 OA
BRANCH  24  25
HETATM   25  C30 UNL     1      -4.696  48.831 -24.961  1.00  0.00     0.292 C 
HETATM   26  O5  UNL     1      -5.496  48.027 -25.819  1.00  0.00    -0.348 OA
HETATM   27  C31 UNL     1      -5.496  48.514 -27.166  1.00  0.00     0.179 C 
HETATM   28  C33 UNL     1      -4.072  48.541 -27.756  1.00  0.00     0.180 C 
HETATM   29  C34 UNL     1      -3.068  49.222 -26.825  1.00  0.00     0.183 C 
HETATM   30  C35 UNL     1      -3.223  48.731 -25.388  1.00  0.00     0.204 C 
BRANCH  27  31
HETATM   31  C32 UNL     1      -6.405  47.595 -28.004  1.00  0.00     0.198 C 
BRANCH  31  32
HETATM   32  O6  UNL     1      -7.653  48.180 -28.341  1.00  0.00    -0.398 OA
HETATM   33  H50 UNL     1      -7.547  49.159 -28.316  1.00  0.00     0.209 HD
ENDBRANCH  31  32
ENDBRANCH  27  31
BRANCH  28  34
HETATM   34  O7  UNL     1      -4.090  49.224 -29.017  1.00  0.00    -0.390 OA
HETATM   35  H52 UNL     1      -3.823  50.144 -28.814  1.00  0.00     0.210 HD
ENDBRANCH  28  34
BRANCH  29  36
HETATM   36  O8  UNL     1      -3.279  50.646 -26.878  1.00  0.00    -0.390 OA
HETATM   37  H54 UNL     1      -2.711  51.003 -26.162  1.00  0.00     0.210 HD
ENDBRANCH  29  36
BRANCH  30  38
HETATM   38  O9  UNL     1      -2.386  49.523 -24.533  1.00  0.00    -0.388 OA
HETATM   39  H56 UNL     1      -2.619  49.243 -23.620  1.00  0.00     0.210 HD
ENDBRANCH  30  38
ENDBRANCH  24  25
ENDBRANCH  20  24
BRANCH   1  40
HETATM   40  O1  UNL     1      -7.304  44.495 -21.919  1.00  0.00    -0.365 OA
HETATM   41  C1  UNL     1      -6.062  43.945 -21.520  1.00  0.00     0.204 C 
ENDBRANCH   1  40
BRANCH  12  42
HETATM   42  C13 UNL     1     -13.937  46.420 -20.344  1.00  0.00    -0.010 C 
HETATM   43  C14 UNL     1     -14.544  47.301 -21.447  1.00  0.00     0.010 C 
BRANCH  42  44
HETATM   44  C15 UNL     1     -14.873  46.389 -19.106  1.00  0.00     0.031 C 
BRANCH  44  45
HETATM   45  C16 UNL     1     -16.292  46.784 -19.425  1.00  0.00    -0.027 C 
HETATM   46  C17 UNL     1     -17.329  45.937 -19.305  1.00  0.00     0.006 C 
BRANCH  46  47
HETATM   47  C18 UNL     1     -18.793  46.194 -19.622  1.00  0.00     0.070 C 
HETATM   48  C19 UNL     1     -19.685  45.358 -18.686  1.00  0.00     0.050 C 
HETATM   49  C20 UNL     1     -19.200  47.671 -19.468  1.00  0.00     0.050 C 
BRANCH  47  50
HETATM   50  O3  UNL     1     -19.037  45.894 -21.010  1.00  0.00    -0.382 OA
HETATM   51  C21 UNL     1     -18.656  44.607 -21.475  1.00  0.00     0.202 C 
ENDBRANCH  47  50
ENDBRANCH  46  47
ENDBRANCH  44  45
ENDBRANCH  42  44
ENDBRANCH  12  42
TORSDOF 13
ENDMDL
