MODEL 1
REMARK minimizedAffinity -8.43814087
REMARK CNNscore 0.666848063
REMARK CNNaffinity 7.47327471
REMARK  2 active torsions:
REMARK  status: ('A' for Active; 'I' for Inactive)
REMARK    1  A    between atoms: C14_15  and  C15_16 
REMARK    2  A    between atoms: C19_21  and  O3_22 
ROOT
HETATM    1  C1  UNL     1       1.732   8.845  11.425  1.00  0.00     0.023 C 
HETATM    2  C2  UNL     1       1.327   7.700  12.378  1.00  0.00     0.017 C 
HETATM    3  C3  UNL     1       2.141   7.871  13.676  1.00  0.00     0.023 C 
HETATM    4  C4  UNL     1       1.748   6.394  11.691  1.00  0.00     0.135 C 
HETATM    5  O1  UNL     1       2.888   5.937  11.778  1.00  0.00    -0.297 OA
HETATM    6  C5  UNL     1       0.721   5.731  10.812  1.00  0.00     0.080 C 
HETATM    7  C6  UNL     1      -0.568   5.408  11.559  1.00  0.00     0.017 C 
HETATM    8  C7  UNL     1      -0.872   6.292  12.820  1.00  0.00    -0.035 C 
HETATM    9  C8  UNL     1      -0.262   5.557  14.035  1.00  0.00     0.016 C 
HETATM   10  C9  UNL     1      -2.449   6.457  12.943  1.00  0.00     0.003 C 
HETATM   11  C10 UNL     1      -3.222   5.116  13.048  1.00  0.00     0.006 C 
HETATM   12  C11 UNL     1      -4.751   5.268  12.988  1.00  0.00     0.006 C 
HETATM   13  C12 UNL     1      -5.215   6.283  14.025  1.00  0.00    -0.000 C 
HETATM   14  C13 UNL     1      -6.716   6.449  14.256  1.00  0.00     0.008 C 
HETATM   15  C14 UNL     1      -7.722   5.297  14.154  1.00  0.00     0.030 C 
HETATM   16  C18 UNL     1      -8.942   5.828  14.969  1.00  0.00     0.040 C 
HETATM   17  C19 UNL     1      -8.471   7.119  15.680  1.00  0.00     0.127 C 
HETATM   18  C20 UNL     1      -6.935   6.997  15.695  1.00  0.00    -0.013 C 
HETATM   19  C21 UNL     1      -6.564   6.012  16.844  1.00  0.00     0.018 C 
HETATM   20  C22 UNL     1      -6.116   8.288  15.922  1.00  0.00     0.013 C 
HETATM   21  C23 UNL     1      -5.253   8.775  14.740  1.00  0.00     0.011 C 
HETATM   22  C24 UNL     1      -4.575   7.704  13.791  1.00  0.00    -0.032 C 
HETATM   23  C25 UNL     1      -4.912   8.226  12.347  1.00  0.00     0.016 C 
HETATM   24  C26 UNL     1      -2.972   7.550  13.971  1.00  0.00    -0.032 C 
HETATM   25  C27 UNL     1      -2.668   7.164  15.446  1.00  0.00     0.016 C 
HETATM   26  C28 UNL     1      -2.223   8.878  13.669  1.00  0.00     0.011 C 
HETATM   27  C29 UNL     1      -0.697   8.747  13.619  1.00  0.00     0.007 C 
HETATM   28  C30 UNL     1      -0.231   7.707  12.584  1.00  0.00     0.009 C 
ENDROOT
BRANCH  15  29
HETATM   29  C15 UNL     1      -8.120   4.899  12.746  1.00  0.00     0.083 A 
HETATM   30  C16 UNL     1      -8.777   5.908  11.851  1.00  0.00     0.049 C 
HETATM   31  C17 UNL     1      -7.472   3.685  12.105  1.00  0.00     0.207 A 
HETATM   32  O2  UNL     1      -8.769   3.612  12.701  1.00  0.00    -0.375 OA
ENDBRANCH  15  29
BRANCH  17  33
HETATM   33  O3  UNL     1      -8.878   8.254  14.918  1.00  0.00    -0.395 OA
HETATM   34  H30 UNL     1      -9.850   8.260  14.906  1.00  0.00     0.210 HD
ENDBRANCH  17  33
TORSDOF 2
ENDMDL
