MODEL 1
REMARK minimizedAffinity -9.71134567
REMARK  6 active torsions:
REMARK  status: ('A' for Active; 'I' for Inactive)
REMARK    1  A    between atoms: C4_4  and  C5_5 
REMARK    2  A    between atoms: C5_5  and  O1_6 
REMARK    3  A    between atoms: C5_5  and  C6_7 
REMARK    4  A    between atoms: C6_7  and  C7_8 
REMARK    5  A    between atoms: C7_8  and  C9_10 
REMARK    6  A    between atoms: C30_32  and  O3_33 
ROOT
HETATM    1  C9  UNL     1      -5.169   6.915  15.103  1.00  0.00    -0.002 C 
HETATM    2  C10 UNL     1      -5.528   8.281  14.449  1.00  0.00     0.007 C 
HETATM    3  C11 UNL     1      -4.250   8.834  13.789  1.00  0.00     0.015 C 
HETATM    4  C12 UNL     1      -3.108   7.961  14.332  1.00  0.00    -0.010 C 
HETATM    5  C13 UNL     1      -2.706   8.562  15.717  1.00  0.00     0.021 C 
HETATM    6  C14 UNL     1      -1.790   7.861  13.560  1.00  0.00    -0.039 C 
HETATM    7  C15 UNL     1      -1.026   6.739  13.659  1.00  0.00    -0.066 C 
HETATM    8  C16 UNL     1      -1.497   5.525  14.474  1.00  0.00     0.036 C 
HETATM    9  C17 UNL     1      -2.881   5.608  15.149  1.00  0.00     0.015 C 
HETATM   10  C18 UNL     1      -3.823   6.556  14.397  1.00  0.00    -0.029 C 
HETATM   11  C19 UNL     1      -4.126   5.962  12.986  1.00  0.00     0.016 C 
HETATM   12  C20 UNL     1       0.369   6.617  12.981  1.00  0.00    -0.015 C 
HETATM   13  C21 UNL     1       1.417   6.716  14.118  1.00  0.00     0.020 C 
HETATM   14  C22 UNL     1       0.514   5.244  12.267  1.00  0.00     0.021 C 
HETATM   15  C23 UNL     1       1.562   5.176  11.157  1.00  0.00     0.080 C 
HETATM   16  C24 UNL     1       2.555   6.312  11.204  1.00  0.00     0.135 C 
HETATM   17  O2  UNL     1       3.764   6.087  11.165  1.00  0.00    -0.297 OA
HETATM   18  C25 UNL     1       1.982   7.735  11.205  1.00  0.00     0.018 C 
HETATM   19  C26 UNL     1       2.992   8.701  11.860  1.00  0.00     0.023 C 
HETATM   20  C27 UNL     1       1.839   8.156   9.727  1.00  0.00     0.023 C 
HETATM   21  C28 UNL     1       0.567   7.727  11.888  1.00  0.00     0.016 C 
HETATM   22  C29 UNL     1       0.127   9.101  12.421  1.00  0.00     0.043 C 
HETATM   23  C30 UNL     1      -1.354   9.092  12.798  1.00  0.00     0.148 C 
ENDROOT
BRANCH   1  24
HETATM   24  C7  UNL     1      -6.367   5.916  15.083  1.00  0.00    -0.011 C 
HETATM   25  C8  UNL     1      -7.708   6.615  15.350  1.00  0.00     0.010 C 
BRANCH  24  26
HETATM   26  C6  UNL     1      -6.474   5.187  13.706  1.00  0.00     0.040 C 
BRANCH  26  27
HETATM   27  C5  UNL     1      -7.615   4.155  13.613  1.00  0.00     0.141 C 
BRANCH  27  28
HETATM   28  C4  UNL     1      -7.328   3.126  12.547  1.00  0.00     0.006 C 
HETATM   29  C2  UNL     1      -6.117   2.730  12.097  1.00  0.00    -0.089 C 
HETATM   30  C1  UNL     1      -6.003   1.717  10.988  1.00  0.00     0.042 C 
HETATM   31  C3  UNL     1      -4.797   3.218  12.636  1.00  0.00     0.042 C 
ENDBRANCH  27  28
BRANCH  27  32
HETATM   32  O1  UNL     1      -8.829   4.829  13.288  1.00  0.00    -0.392 OA
HETATM   33  H9  UNL     1      -9.185   4.421  12.473  1.00  0.00     0.210 HD
ENDBRANCH  27  32
ENDBRANCH  26  27
ENDBRANCH  24  26
ENDBRANCH   1  24
BRANCH  23  34
HETATM   34  O3  UNL     1      -2.113   9.185  11.595  1.00  0.00    -0.391 OA
HETATM   35  H48 UNL     1      -2.361   8.280  11.335  1.00  0.00     0.210 HD
ENDBRANCH  23  34
TORSDOF 6
ENDMDL
