MODEL 1
REMARK minimizedAffinity -7.64297915
REMARK CNNscore 0.585475564
REMARK CNNaffinity 6.67380667
REMARK  20 active torsions:
REMARK  status: ('A' for Active; 'I' for Inactive)
REMARK    1  A    between atoms: C2_2  and  C3_3 
REMARK    2  A    between atoms: C2_2  and  C27_34 
REMARK    3  A    between atoms: C4_4  and  C5_5 
REMARK    4  A    between atoms: C6_6  and  C7_7 
REMARK    5  A    between atoms: C6_6  and  C10_12 
REMARK    6  A    between atoms: C7_7  and  O1_8 
REMARK    7  A    between atoms: O1_8  and  C8_9 
REMARK    8  A    between atoms: C8_9  and  C9_10 
REMARK    9  A    between atoms: C9_10  and  O2_11 
REMARK   10  A    between atoms: C14_16  and  O3_17 
REMARK   11  A    between atoms: C15_18  and  C16_19 
REMARK   12  A    between atoms: C16_19  and  C17_20 
REMARK   13  A    between atoms: C17_20  and  C18_21 
REMARK   14  A    between atoms: C18_21  and  O4_22 
REMARK   15  A    between atoms: C20_24  and  C22_26 
REMARK   16  A    between atoms: C25_30  and  O6_31 
REMARK   17  A    between atoms: C25_30  and  C26_32 
REMARK   18  A    between atoms: C26_32  and  O7_33 
REMARK   19  A    between atoms: C27_34  and  C28_35 
REMARK   20  A    between atoms: C28_35  and  C29_36 
ROOT
HETATM    1  C10 UNL     1      -0.890   9.354  12.942  1.00  0.00     0.046 C 
HETATM    2  C11 UNL     1      -1.709   8.398  12.068  1.00  0.00     0.013 C 
HETATM    3  C12 UNL     1      -0.651   7.662  11.264  1.00  0.00     0.017 C 
HETATM    4  C13 UNL     1       0.512   7.361  12.261  1.00  0.00     0.027 C 
HETATM    5  C14 UNL     1       0.272   8.426  13.401  1.00  0.00     0.138 C 
HETATM    6  C15 UNL     1       1.895   7.686  11.535  1.00  0.00     0.029 C 
HETATM    7  C19 UNL     1       2.114   6.713  10.370  1.00  0.00    -0.066 C 
HETATM    8  C20 UNL     1       2.291   7.064   9.072  1.00  0.00    -0.021 C 
HETATM    9  C21 UNL     1       2.538   6.096   7.953  1.00  0.00     0.052 C 
HETATM   10  C23 UNL     1       2.157   5.273  10.832  1.00  0.00     0.038 C 
HETATM   11  C24 UNL     1       0.874   4.888  11.553  1.00  0.00     0.045 C 
HETATM   12  C25 UNL     1       0.454   5.836  12.710  1.00  0.00     0.090 C 
ENDROOT
BRANCH   5  13
HETATM   13  O3  UNL     1      -0.008   7.795  14.642  1.00  0.00    -0.394 OA
HETATM   14  H19 UNL     1       0.771   7.224  14.824  1.00  0.00     0.210 HD
ENDBRANCH   5  13
BRANCH   6  15
HETATM   15  C16 UNL     1       3.165   7.724  12.443  1.00  0.00     0.012 C 
BRANCH  15  16
HETATM   16  C17 UNL     1       4.447   8.034  11.647  1.00  0.00     0.027 C 
BRANCH  16  17
HETATM   17  C18 UNL     1       5.453   6.891  11.694  1.00  0.00     0.164 C 
BRANCH  17  18
HETATM   18  O4  UNL     1       6.226   6.881  10.503  1.00  0.00    -0.401 OA
HETATM   19  H27 UNL     1       6.854   6.140  10.580  1.00  0.00     0.209 HD
ENDBRANCH  17  18
ENDBRANCH  16  17
ENDBRANCH  15  16
ENDBRANCH   6  15
BRANCH  12  20
HETATM   20  O6  UNL     1       1.392   5.661  13.793  1.00  0.00    -0.387 OA
HETATM   21  H36 UNL     1       1.127   4.851  14.275  1.00  0.00     0.210 HD
ENDBRANCH  12  20
BRANCH  12  22
HETATM   22  C26 UNL     1      -0.934   5.287  13.197  1.00  0.00     0.202 C 
BRANCH  22  23
HETATM   23  O7  UNL     1      -1.470   4.246  12.396  1.00  0.00    -0.398 OA
HETATM   24  H39 UNL     1      -0.760   3.577  12.264  1.00  0.00     0.209 HD
ENDBRANCH  22  23
ENDBRANCH  12  22
BRANCH   1  25
HETATM   25  C6  UNL     1      -1.699  10.194  13.939  1.00  0.00    -0.050 C 
HETATM   26  C5  UNL     1      -2.863   9.890  14.559  1.00  0.00     0.005 C 
BRANCH  26  27
HETATM   27  C4  UNL     1      -3.724   8.735  14.445  1.00  0.00     0.001 C 
HETATM   28  C3  UNL     1      -4.982   8.734  14.918  1.00  0.00     0.006 C 
BRANCH  28  29
HETATM   29  C2  UNL     1      -5.967   7.666  14.794  1.00  0.00    -0.067 C 
HETATM   30  C1  UNL     1      -6.716   7.334  15.861  1.00  0.00     0.019 C 
BRANCH  29  31
HETATM   31  C27 UNL     1      -6.213   6.989  13.461  1.00  0.00     0.041 C 
BRANCH  31  32
HETATM   32  C28 UNL     1      -7.471   6.115  13.456  1.00  0.00     0.032 C 
BRANCH  32  33
HETATM   33  C29 UNL     1      -7.218   4.824  12.720  1.00  0.00    -0.024 C 
HETATM   34  C30 UNL     1      -6.060   4.144  12.615  1.00  0.00    -0.091 C 
HETATM   35  C31 UNL     1      -5.998   2.858  11.835  1.00  0.00     0.042 C 
HETATM   36  C32 UNL     1      -4.757   4.540  13.255  1.00  0.00     0.042 C 
ENDBRANCH  32  33
ENDBRANCH  31  32
ENDBRANCH  29  31
ENDBRANCH  28  29
ENDBRANCH  26  27
BRANCH  25  37
HETATM   37  C7  UNL     1      -1.043  11.504  14.378  1.00  0.00     0.202 C 
BRANCH  37  38
HETATM   38  O1  UNL     1      -1.837  12.636  14.023  1.00  0.00    -0.385 OA
BRANCH  38  39
HETATM   39  C8  UNL     1      -1.372  13.876  14.567  1.00  0.00     0.194 C 
BRANCH  39  40
HETATM   40  C9  UNL     1      -0.944  14.844  13.464  1.00  0.00     0.190 C 
BRANCH  40  41
HETATM   41  O2  UNL     1      -1.971  14.992  12.483  1.00  0.00    -0.399 OA
HETATM   42  H12 UNL     1      -1.641  15.632  11.830  1.00  0.00     0.209 HD
ENDBRANCH  40  41
ENDBRANCH  39  40
ENDBRANCH  38  39
ENDBRANCH  37  38
ENDBRANCH  25  37
ENDBRANCH   1  25
BRANCH   8  43
HETATM   43  C22 UNL     1       2.312   8.489   8.630  1.00  0.00     0.265 C 
HETATM   44  O5  UNL     1       2.931   8.895   7.657  1.00  0.00    -0.302 OA
ENDBRANCH   8  43
TORSDOF 20
ENDMDL
