MODEL 1
REMARK minimizedAffinity -7.18861818
REMARK CNNscore 0.667711377
REMARK CNNaffinity 7.27363253
REMARK  7 active torsions:
REMARK  status: ('A' for Active; 'I' for Inactive)
REMARK    1  A    between atoms: C2_2  and  C30_32 
REMARK    2  A    between atoms: C3_3  and  C4_4 
REMARK    3  A    between atoms: C4_4  and  O1_5 
REMARK    4  A    between atoms: C4_4  and  C5_6 
REMARK    5  A    between atoms: C5_6  and  C6_7 
REMARK    6  A    between atoms: C6_7  and  C8_9 
REMARK    7  A    between atoms: C30_32  and  O4_34 
ROOT
HETATM    1  C8  UNL     1      -1.531  51.935 -10.727  1.00  0.00    -0.002 C 
HETATM    2  C9  UNL     1      -0.792  50.601 -11.071  1.00  0.00     0.007 C 
HETATM    3  C10 UNL     1       0.716  50.832 -10.843  1.00  0.00     0.015 C 
HETATM    4  C11 UNL     1       0.782  52.153 -10.058  1.00  0.00    -0.013 C 
HETATM    5  C12 UNL     1       0.483  51.782  -8.561  1.00  0.00     0.021 C 
HETATM    6  C13 UNL     1       2.104  52.924 -10.026  1.00  0.00    -0.070 C 
HETATM    7  C14 UNL     1       3.267  52.280  -9.817  1.00  0.00    -0.022 C 
HETATM    8  C15 UNL     1       4.522  52.963  -9.369  1.00  0.00     0.034 C 
HETATM    9  C16 UNL     1       4.197  54.301  -8.668  1.00  0.00     0.013 C 
HETATM   10  C17 UNL     1       5.433  54.945  -7.941  1.00  0.00     0.018 C 
HETATM   11  C18 UNL     1       5.791  54.080  -6.702  1.00  0.00     0.023 C 
HETATM   12  C19 UNL     1       6.714  55.069  -8.781  1.00  0.00     0.023 C 
HETATM   13  C20 UNL     1       5.055  56.348  -7.442  1.00  0.00     0.135 C 
HETATM   14  O2  UNL     1       5.368  56.763  -6.326  1.00  0.00    -0.297 OA
HETATM   15  C21 UNL     1       4.330  57.254  -8.406  1.00  0.00     0.080 C 
HETATM   16  C22 UNL     1       3.076  56.562  -8.914  1.00  0.00     0.017 C 
HETATM   17  C23 UNL     1       3.355  55.216  -9.626  1.00  0.00    -0.031 C 
HETATM   18  C24 UNL     1       4.100  55.520 -10.959  1.00  0.00     0.016 C 
HETATM   19  C25 UNL     1       2.009  54.460 -10.043  1.00  0.00     0.024 C 
HETATM   20  C26 UNL     1       0.703  54.921  -9.360  1.00  0.00     0.010 C 
HETATM   21  C27 UNL     1      -0.586  54.279  -9.945  1.00  0.00     0.011 C 
HETATM   22  C28 UNL     1      -0.362  52.976 -10.752  1.00  0.00    -0.029 C 
HETATM   23  C29 UNL     1      -0.072  53.320 -12.249  1.00  0.00     0.016 C 
ENDROOT
BRANCH   1  24
HETATM   24  C6  UNL     1      -2.800  52.148 -11.612  1.00  0.00    -0.011 C 
HETATM   25  C7  UNL     1      -4.057  52.390 -10.770  1.00  0.00     0.010 C 
BRANCH  24  26
HETATM   26  C5  UNL     1      -3.005  50.913 -12.539  1.00  0.00     0.040 C 
BRANCH  26  27
HETATM   27  C4  UNL     1      -3.090  51.226 -14.044  1.00  0.00     0.142 C 
BRANCH  27  28
HETATM   28  C3  UNL     1      -1.772  50.977 -14.735  1.00  0.00     0.018 C 
HETATM   29  C2  UNL     1      -1.571  50.677 -16.034  1.00  0.00     0.010 C 
HETATM   30  C1  UNL     1      -0.210  50.524 -16.639  1.00  0.00     0.055 C 
BRANCH  29  31
HETATM   31  C30 UNL     1      -2.686  50.491 -16.986  1.00  0.00     0.171 C 
HETATM   32  O3  UNL     1      -3.466  49.558 -16.984  1.00  0.00    -0.646 OA
BRANCH  31  33
HETATM   33  O4  UNL     1      -2.810  51.532 -17.828  1.00  0.00    -0.773 OA
HETATM   34  H46 UNL     1      -3.542  51.265 -18.420  1.00  0.00     0.167 HD
ENDBRANCH  31  33
ENDBRANCH  29  31
ENDBRANCH  27  28
BRANCH  27  35
HETATM   35  O1  UNL     1      -3.463  52.589 -14.206  1.00  0.00    -0.392 OA
HETATM   36  H6  UNL     1      -2.722  53.135 -13.891  1.00  0.00     0.210 HD
ENDBRANCH  27  35
ENDBRANCH  26  27
ENDBRANCH  24  26
ENDBRANCH   1  24
TORSDOF 7
ENDMDL
