MODEL 1
REMARK minimizedAffinity -8.28998089
REMARK CNNscore 0.438322186
REMARK CNNaffinity 7.04167938
REMARK  11 active torsions:
REMARK  status: ('A' for Active; 'I' for Inactive)
REMARK    1  A    between atoms: C3_4  and  O2_5 
REMARK    2  A    between atoms: O2_5  and  C4_6 
REMARK    3  A    between atoms: C7_9  and  C8_10 
REMARK    4  A    between atoms: N1_11  and  C9_13 
REMARK    5  A    between atoms: C9_13  and  C10_14 
REMARK    6  A    between atoms: C10_14  and  C11_15 
REMARK    7  A    between atoms: C22_26  and  C23_27 
REMARK    8  A    between atoms: C29_35  and  O5_36 
REMARK    9  A    between atoms: C33_40  and  O6_41 
REMARK   10  A    between atoms: C36_44  and  O7_45 
REMARK   11  A    between atoms: C37_46  and  O8_47 
ROOT
HETATM    1  C4  UNL     1      -3.124  49.259 -10.942  1.00  0.00     0.127 C 
HETATM    2  C5  UNL     1      -1.936  49.068 -11.888  1.00  0.00     0.033 C 
HETATM    3  C6  UNL     1      -0.827  50.064 -11.585  1.00  0.00     0.021 C 
HETATM    4  C7  UNL     1      -1.253  51.563 -11.763  1.00  0.00     0.026 C 
HETATM    5  C17 UNL     1      -0.544  52.402 -10.628  1.00  0.00     0.009 C 
HETATM    6  C18 UNL     1       0.994  52.405 -10.748  1.00  0.00     0.007 C 
HETATM    7  C19 UNL     1       1.663  53.147  -9.590  1.00  0.00     0.013 C 
HETATM    8  C20 UNL     1       1.202  54.622  -9.463  1.00  0.00    -0.005 C 
HETATM    9  C21 UNL     1       1.783  55.462 -10.618  1.00  0.00     0.019 C 
HETATM   10  C22 UNL     1       1.565  55.261  -8.078  1.00  0.00     0.028 C 
HETATM   11  C27 UNL     1       0.525  54.650  -7.119  1.00  0.00     0.013 C 
HETATM   12  C28 UNL     1      -0.688  54.261  -7.969  1.00  0.00     0.040 C 
HETATM   13  C29 UNL     1      -0.355  54.683  -9.415  1.00  0.00     0.070 C 
HETATM   14  C30 UNL     1      -1.074  53.849 -10.511  1.00  0.00     0.026 C 
HETATM   15  C31 UNL     1      -2.596  53.841 -10.298  1.00  0.00     0.011 C 
HETATM   16  C32 UNL     1      -3.308  53.150 -11.447  1.00  0.00     0.039 C 
HETATM   17  C33 UNL     1      -2.825  51.711 -11.717  1.00  0.00     0.073 C 
HETATM   18  C34 UNL     1      -3.435  50.745 -10.671  1.00  0.00     0.071 C 
ENDROOT
BRANCH   1  19
HETATM   19  O2  UNL     1      -4.243  48.601 -11.538  1.00  0.00    -0.356 OA
BRANCH  19  20
HETATM   20  C3  UNL     1      -5.330  48.357 -10.649  1.00  0.00     0.263 C 
HETATM   21  O1  UNL     1      -4.894  48.008  -9.338  1.00  0.00    -0.354 OA
HETATM   22  C2  UNL     1      -5.956  47.643  -8.449  1.00  0.00     0.151 C 
HETATM   23  C1  UNL     1      -6.085  46.122  -8.423  1.00  0.00     0.042 C 
HETATM   24  C37 UNL     1      -7.301  48.321  -8.775  1.00  0.00     0.175 C 
HETATM   25  C36 UNL     1      -7.036  49.711  -9.352  1.00  0.00     0.154 C 
HETATM   26  C35 UNL     1      -6.166  49.637 -10.600  1.00  0.00     0.095 C 
BRANCH  24  27
HETATM   27  O8  UNL     1      -8.128  48.449  -7.611  1.00  0.00    -0.390 OA
HETATM   28  H55 UNL     1      -8.370  47.552  -7.323  1.00  0.00     0.210 HD
ENDBRANCH  24  27
BRANCH  25  29
HETATM   29  O7  UNL     1      -8.281  50.343  -9.667  1.00  0.00    -0.393 OA
HETATM   30  H53 UNL     1      -8.817  50.268  -8.851  1.00  0.00     0.210 HD
ENDBRANCH  25  29
ENDBRANCH  19  20
ENDBRANCH   1  19
BRANCH  17  31
HETATM   31  O6  UNL     1      -3.406  51.337 -12.979  1.00  0.00    -0.389 OA
HETATM   32  H47 UNL     1      -3.078  51.982 -13.639  1.00  0.00     0.210 HD
ENDBRANCH  17  31
BRANCH   4  33
HETATM   33  C8  UNL     1      -0.707  52.012 -13.132  1.00  0.00     0.068 C 
HETATM   34  N1  UNL     1       0.010  51.233 -13.869  1.00  0.00    -0.401 N 
ATOM     35  H1  UNL     1       0.236  50.278 -13.592  1.00  0.00     0.158 HD
BRANCH  34  36
HETATM   36  C9  UNL     1       0.478  51.816 -15.135  1.00  0.00     0.123 C 
BRANCH  36  37
HETATM   37  C10 UNL     1       0.503  50.717 -16.205  1.00  0.00     0.053 C 
BRANCH  37  38
HETATM   38  C11 UNL     1       0.314  51.244 -17.610  1.00  0.00    -0.082 C 
HETATM   39  C12 UNL     1      -0.326  50.523 -18.551  1.00  0.00    -0.024 C 
HETATM   40  C13 UNL     1      -0.543  50.991 -19.961  1.00  0.00     0.027 C 
HETATM   41  C14 UNL     1      -0.236  52.476 -20.160  1.00  0.00     0.004 C 
HETATM   42  C15 UNL     1       1.034  52.880 -19.420  1.00  0.00     0.005 C 
HETATM   43  C16 UNL     1       0.914  52.595 -17.920  1.00  0.00     0.034 C 
ENDBRANCH  37  38
ENDBRANCH  36  37
ENDBRANCH  34  36
ENDBRANCH   4  33
BRANCH  13  44
HETATM   44  O5  UNL     1      -0.786  56.050  -9.527  1.00  0.00    -0.389 OA
HETATM   45  H41 UNL     1      -0.795  56.297 -10.468  1.00  0.00     0.210 HD
ENDBRANCH  13  44
BRANCH  10  46
HETATM   46  C23 UNL     1       2.963  55.213  -7.524  1.00  0.00    -0.045 A 
HETATM   47  C24 UNL     1       4.039  55.948  -7.806  1.00  0.00     0.087 A 
HETATM   48  C25 UNL     1       5.117  55.505  -6.923  1.00  0.00     0.283 A 
HETATM   49  O3  UNL     1       6.245  55.959  -6.928  1.00  0.00    -0.260 OA
HETATM   50  O4  UNL     1       4.656  54.516  -6.114  1.00  0.00    -0.314 OA
HETATM   51  C26 UNL     1       3.288  54.264  -6.425  1.00  0.00     0.213 A 
ENDBRANCH  10  46
TORSDOF 11
ENDMDL
