MODEL 1
REMARK minimizedAffinity -9.59821892
REMARK  7 active torsions:
REMARK  status: ('A' for Active; 'I' for Inactive)
REMARK    1  A    between atoms: C19_20  and  O2_21 
REMARK    2  A    between atoms: O2_21  and  C20_22 
REMARK    3  A    between atoms: C20_22  and  C21_24 
REMARK    4  A    between atoms: C21_24  and  C22_25 
REMARK    5  A    between atoms: C22_25  and  C23_26 
REMARK       I    between atoms: C23_26  and  N1_28 
REMARK    6  A    between atoms: N1_28  and  C24_29 
REMARK    7  A    between atoms: C24_29  and  C25_30 
ROOT
HETATM    1  C1  UNL     1      -4.270  47.775 -21.847  1.00  0.00     0.018 C 
HETATM    2  C2  UNL     1      -4.284  49.163 -22.537  1.00  0.00    -0.013 C 
HETATM    3  C3  UNL     1      -3.002  49.335 -23.367  1.00  0.00     0.012 C 
HETATM    4  C4  UNL     1      -1.747  49.451 -22.481  1.00  0.00     0.007 C 
HETATM    5  C5  UNL     1      -1.868  50.561 -21.407  1.00  0.00     0.002 C 
HETATM    6  C6  UNL     1      -3.195  50.412 -20.581  1.00  0.00    -0.004 C 
HETATM    7  C7  UNL     1      -3.362  51.553 -19.558  1.00  0.00     0.010 C 
HETATM    8  C8  UNL     1      -2.129  51.729 -18.668  1.00  0.00     0.035 C 
HETATM    9  C9  UNL     1      -0.917  51.889 -19.549  1.00  0.00    -0.068 C 
HETATM   10  C10 UNL     1      -0.276  53.070 -19.600  1.00  0.00     0.053 C 
HETATM   11  C11 UNL     1       0.702  53.370 -20.674  1.00  0.00     0.149 C 
HETATM   12  O1  UNL     1       1.286  54.450 -20.674  1.00  0.00    -0.293 OA
HETATM   13  C12 UNL     1       0.836  52.374 -21.798  1.00  0.00     0.084 C 
HETATM   14  C13 UNL     1       0.710  50.963 -21.251  1.00  0.00     0.022 C 
HETATM   15  C14 UNL     1      -0.613  50.703 -20.474  1.00  0.00    -0.016 C 
HETATM   16  C15 UNL     1      -0.360  49.416 -19.650  1.00  0.00     0.020 C 
HETATM   17  C16 UNL     1      -4.374  50.356 -21.562  1.00  0.00     0.001 C 
HETATM   18  C17 UNL     1      -5.786  50.257 -21.000  1.00  0.00     0.008 C 
HETATM   19  C18 UNL     1      -6.628  49.733 -22.179  1.00  0.00     0.034 C 
HETATM   20  C19 UNL     1      -5.632  49.309 -23.285  1.00  0.00     0.140 C 
ENDROOT
BRANCH  20  21
HETATM   21  O2  UNL     1      -5.597  50.381 -24.246  1.00  0.00    -0.315 OA
BRANCH  21  22
HETATM   22  C20 UNL     1      -4.875  51.479 -23.894  1.00  0.00     0.259 C 
HETATM   23  O3  UNL     1      -5.175  52.258 -22.998  1.00  0.00    -0.265 OA
BRANCH  22  24
HETATM   24  C21 UNL     1      -3.705  51.704 -24.823  1.00  0.00     0.120 C 
BRANCH  24  25
HETATM   25  C22 UNL     1      -3.718  50.852 -26.087  1.00  0.00     0.112 C 
BRANCH  25  26
HETATM   26  C23 UNL     1      -2.764  51.374 -27.140  1.00  0.00     0.218 C 
HETATM   27  O4  UNL     1      -2.445  50.739 -28.138  1.00  0.00    -0.274 OA
HETATM   28  N1  UNL     1      -2.283  52.634 -26.856  1.00  0.00    -0.357 N 
HETATM   29  H32 UNL     1      -2.449  53.021 -25.937  1.00  0.00     0.162 HD
BRANCH  28  30
HETATM   30  C24 UNL     1      -1.246  53.242 -27.662  1.00  0.00     0.162 C 
BRANCH  30  31
HETATM   31  C25 UNL     1       0.095  52.653 -27.340  1.00  0.00    -0.025 A 
HETATM   32  C26 UNL     1       0.886  52.041 -28.318  1.00  0.00     0.011 A 
HETATM   33  C27 UNL     1       2.135  51.528 -27.974  1.00  0.00     0.018 A 
HETATM   34  C28 UNL     1       2.556  51.651 -26.660  1.00  0.00     0.087 A 
HETATM   35  N2  UNL     1       1.827  52.243 -25.691  1.00  0.00    -0.375 N 
HETATM   36  C29 UNL     1       0.617  52.731 -26.051  1.00  0.00     0.096 A 
ATOM     37  H2  UNL     1       2.171  52.320 -24.735  1.00  0.00     0.164 HD
ENDBRANCH  30  31
ENDBRANCH  28  30
ENDBRANCH  25  26
ENDBRANCH  24  25
ENDBRANCH  22  24
ENDBRANCH  21  22
ENDBRANCH  20  21
TORSDOF 7
ENDMDL
