MODEL 1
REMARK minimizedAffinity -7.65829277
REMARK CNNscore 0.538042665
REMARK CNNaffinity 6.77244043
REMARK  4 active torsions:
REMARK  status: ('A' for Active; 'I' for Inactive)
REMARK    1  A    between atoms: C13_15  and  C14_16 
REMARK    2  A    between atoms: C14_16  and  C16_18 
REMARK    3  A    between atoms: C16_18  and  C17_19 
REMARK    4  A    between atoms: C17_19  and  C18_20 
ROOT
HETATM    1  C1  UNL     1       1.832   7.509   7.470  1.00  0.00     0.047 C 
HETATM    2  C2  UNL     1       2.027   7.305   8.780  1.00  0.00     0.052 C 
HETATM    3  O1  UNL     1       3.365   7.129   9.229  1.00  0.00    -0.284 OA
HETATM    4  C3  UNL     1       3.758   5.994   9.885  1.00  0.00     0.263 C 
HETATM    5  O2  UNL     1       4.914   5.840  10.271  1.00  0.00    -0.265 OA
HETATM    6  C4  UNL     1       2.693   4.955  10.119  1.00  0.00     0.112 C 
HETATM    7  C5  UNL     1       1.790   5.360  11.277  1.00  0.00     0.021 C 
HETATM    8  C6  UNL     1       1.349   6.823  11.227  1.00  0.00    -0.022 A 
HETATM    9  C7  UNL     1       2.121   7.788  12.092  1.00  0.00     0.022 A 
HETATM   10  C8  UNL     1       0.688   7.460  12.485  1.00  0.00    -0.027 A 
HETATM   11  C9  UNL     1       0.504   6.561  13.716  1.00  0.00     0.011 C 
HETATM   12  C10 UNL     1      -0.075   7.190  14.995  1.00  0.00     0.011 C 
HETATM   13  C11 UNL     1      -0.599   8.622  14.828  1.00  0.00    -0.032 C 
HETATM   14  C12 UNL     1       0.616   9.581  14.938  1.00  0.00     0.016 C 
HETATM   15  C13 UNL     1      -1.720   9.058  15.829  1.00  0.00    -0.002 C 
HETATM   16  C22 UNL     1      -2.535  10.123  15.041  1.00  0.00     0.006 C 
HETATM   17  C23 UNL     1      -2.063  10.061  13.578  1.00  0.00     0.011 C 
HETATM   18  C24 UNL     1      -1.355   8.698  13.450  1.00  0.00    -0.032 C 
HETATM   19  C25 UNL     1      -2.474   7.626  13.260  1.00  0.00     0.016 C 
HETATM   20  C26 UNL     1      -0.327   8.613  12.291  1.00  0.00     0.004 C 
HETATM   21  C27 UNL     1      -0.963   8.571  10.895  1.00  0.00     0.007 C 
HETATM   22  C28 UNL     1       0.118   8.586   9.822  1.00  0.00     0.012 C 
HETATM   23  C29 UNL     1       0.906   7.265   9.818  1.00  0.00     0.051 C 
ENDROOT
BRANCH  15  24
HETATM   24  C14 UNL     1      -1.428   9.454  17.309  1.00  0.00    -0.014 C 
HETATM   25  C15 UNL     1      -2.615   9.992  18.117  1.00  0.00     0.010 C 
BRANCH  24  26
HETATM   26  C16 UNL     1      -0.192  10.383  17.405  1.00  0.00     0.008 C 
BRANCH  26  27
HETATM   27  C17 UNL     1      -0.353  11.600  18.331  1.00  0.00     0.028 C 
BRANCH  27  28
HETATM   28  C18 UNL     1       0.683  11.679  19.418  1.00  0.00    -0.025 C 
HETATM   29  C19 UNL     1       1.002  12.734  20.193  1.00  0.00    -0.091 C 
HETATM   30  C20 UNL     1       2.073  12.611  21.246  1.00  0.00     0.042 C 
HETATM   31  C21 UNL     1       0.373  14.098  20.116  1.00  0.00     0.042 C 
ENDBRANCH  27  28
ENDBRANCH  26  27
ENDBRANCH  24  26
ENDBRANCH  15  24
TORSDOF 4
ENDMDL
