MODEL 1
REMARK minimizedAffinity -6.74451113
REMARK CNNscore 0.699651837
REMARK CNNaffinity 7.11524916
REMARK  7 active torsions:
REMARK  status: ('A' for Active; 'I' for Inactive)
REMARK    1  A    between atoms: C2_2  and  C30_32 
REMARK    2  A    between atoms: C3_3  and  C4_4 
REMARK    3  A    between atoms: C4_4  and  C5_5 
REMARK    4  A    between atoms: C5_5  and  C6_6 
REMARK    5  A    between atoms: C6_6  and  C8_8 
REMARK    6  A    between atoms: C29_30  and  O2_31 
REMARK    7  A    between atoms: C30_32  and  O3_33 
ROOT
HETATM    1  C8  UNL     1      -9.465   7.277  14.204  1.00  0.00    -0.002 C 
HETATM    2  C9  UNL     1     -10.780   6.461  14.172  1.00  0.00     0.007 C 
HETATM    3  C10 UNL     1     -11.881   7.368  14.768  1.00  0.00     0.015 C 
HETATM    4  C11 UNL     1     -11.266   8.782  14.826  1.00  0.00    -0.010 C 
HETATM    5  C12 UNL     1     -11.446   9.419  13.410  1.00  0.00     0.021 C 
HETATM    6  C13 UNL     1     -11.812   9.813  15.816  1.00  0.00    -0.039 C 
HETATM    7  C14 UNL     1     -10.993  10.810  16.253  1.00  0.00    -0.066 C 
HETATM    8  C15 UNL     1      -9.511  10.877  15.831  1.00  0.00     0.036 C 
HETATM    9  C16 UNL     1      -8.932   9.690  15.030  1.00  0.00     0.015 C 
HETATM   10  C17 UNL     1      -9.781   8.426  15.206  1.00  0.00    -0.029 C 
HETATM   11  C18 UNL     1      -9.618   7.933  16.673  1.00  0.00     0.016 C 
HETATM   12  C19 UNL     1     -11.483  11.923  17.223  1.00  0.00    -0.015 C 
HETATM   13  C20 UNL     1     -10.851  11.629  18.607  1.00  0.00     0.020 C 
HETATM   14  C21 UNL     1     -11.004  13.320  16.730  1.00  0.00     0.021 C 
HETATM   15  C22 UNL     1     -11.838  14.512  17.192  1.00  0.00     0.080 C 
HETATM   16  C23 UNL     1     -12.695  14.207  18.397  1.00  0.00     0.135 C 
HETATM   17  O1  UNL     1     -12.669  14.943  19.384  1.00  0.00    -0.297 OA
HETATM   18  C24 UNL     1     -13.648  13.011  18.287  1.00  0.00     0.018 C 
HETATM   19  C25 UNL     1     -14.982  13.559  17.736  1.00  0.00     0.023 C 
HETATM   20  C26 UNL     1     -13.931  12.444  19.692  1.00  0.00     0.023 C 
HETATM   21  C27 UNL     1     -13.053  11.966  17.281  1.00  0.00     0.016 C 
HETATM   22  C28 UNL     1     -13.628  10.552  17.448  1.00  0.00     0.043 C 
HETATM   23  C29 UNL     1     -13.249   9.667  16.263  1.00  0.00     0.148 C 
ENDROOT
BRANCH   1  24
HETATM   24  C6  UNL     1      -8.144   6.469  14.380  1.00  0.00    -0.014 C 
HETATM   25  C7  UNL     1      -8.003   5.720  15.712  1.00  0.00     0.010 C 
BRANCH  24  26
HETATM   26  C5  UNL     1      -8.001   5.468  13.199  1.00  0.00     0.008 C 
BRANCH  26  27
HETATM   27  C4  UNL     1      -7.533   4.069  13.616  1.00  0.00     0.028 C 
BRANCH  27  28
HETATM   28  C3  UNL     1      -6.643   3.463  12.566  1.00  0.00    -0.022 C 
HETATM   29  C2  UNL     1      -5.341   3.734  12.337  1.00  0.00    -0.064 C 
HETATM   30  C1  UNL     1      -4.510   4.680  13.164  1.00  0.00     0.045 C 
BRANCH  29  31
HETATM   31  C30 UNL     1      -4.596   3.059  11.215  1.00  0.00     0.197 C 
BRANCH  31  32
HETATM   32  O3  UNL     1      -5.467   2.928  10.101  1.00  0.00    -0.397 OA
HETATM   33  H48 UNL     1      -4.947   2.518   9.391  1.00  0.00     0.209 HD
ENDBRANCH  31  32
ENDBRANCH  29  31
ENDBRANCH  27  28
ENDBRANCH  26  27
ENDBRANCH  24  26
ENDBRANCH   1  24
BRANCH  23  34
HETATM   34  O2  UNL     1     -14.108  10.013  15.180  1.00  0.00    -0.391 OA
HETATM   35  H45 UNL     1     -14.111   9.260  14.568  1.00  0.00     0.210 HD
ENDBRANCH  23  34
TORSDOF 7
ENDMDL
