MODEL 1
REMARK minimizedAffinity -6.9634819
REMARK CNNscore 0.59854275
REMARK CNNaffinity 6.94375992
REMARK  8 active torsions:
REMARK  status: ('A' for Active; 'I' for Inactive)
REMARK    1  A    between atoms: C2_2  and  C3_3 
REMARK    2  A    between atoms: C2_2  and  C9_12 
REMARK    3  A    between atoms: C3_3  and  C4_4 
REMARK    4  A    between atoms: C4_4  and  C5_5 
REMARK    5  A    between atoms: C6_6  and  C7_7 
REMARK    6  A    between atoms: C6_6  and  C8_9 
REMARK    7  A    between atoms: C7_7  and  O1_8 
REMARK    8  A    between atoms: C8_9  and  O3_11 
ROOT
HETATM    1  C9  UNL     1      -1.233   9.870  15.513  1.00  0.00    -0.002 C 
HETATM    2  C10 UNL     1      -0.072   9.383  16.437  1.00  0.00     0.006 C 
HETATM    3  C11 UNL     1       0.635   8.220  15.705  1.00  0.00     0.011 C 
HETATM    4  C12 UNL     1       0.147   8.326  14.251  1.00  0.00    -0.032 C 
HETATM    5  C13 UNL     1       1.003   9.455  13.593  1.00  0.00     0.016 C 
HETATM    6  C14 UNL     1       0.241   7.037  13.378  1.00  0.00     0.004 C 
HETATM    7  C15 UNL     1       1.631   6.403  13.280  1.00  0.00     0.007 C 
HETATM    8  C16 UNL     1       2.530   6.777  12.105  1.00  0.00     0.007 C 
HETATM    9  C17 UNL     1       1.942   7.602  10.947  1.00  0.00     0.010 C 
HETATM   10  C18 UNL     1       2.721   7.393   9.603  1.00  0.00     0.018 C 
HETATM   11  C19 UNL     1       4.209   7.764   9.780  1.00  0.00     0.023 C 
HETATM   12  C20 UNL     1       2.646   5.956   9.054  1.00  0.00     0.023 C 
HETATM   13  C21 UNL     1       2.105   8.325   8.549  1.00  0.00     0.135 C 
HETATM   14  O4  UNL     1       2.781   9.071   7.839  1.00  0.00    -0.297 OA
HETATM   15  C22 UNL     1       0.612   8.238   8.357  1.00  0.00     0.080 C 
HETATM   16  C23 UNL     1      -0.093   8.443   9.684  1.00  0.00     0.018 C 
HETATM   17  C24 UNL     1       0.423   7.499  10.763  1.00  0.00    -0.026 A 
HETATM   18  C25 UNL     1      -0.290   6.183  10.958  1.00  0.00     0.021 A 
HETATM   19  C26 UNL     1      -0.445   7.264  12.017  1.00  0.00    -0.027 A 
HETATM   20  C27 UNL     1      -1.863   7.846  12.138  1.00  0.00     0.011 C 
HETATM   21  C28 UNL     1      -1.985   9.036  13.111  1.00  0.00     0.011 C 
HETATM   22  C29 UNL     1      -1.375   8.705  14.484  1.00  0.00    -0.032 C 
HETATM   23  C30 UNL     1      -2.229   7.568  15.120  1.00  0.00     0.016 C 
ENDROOT
BRANCH   1  24
HETATM   24  C2  UNL     1      -2.438  10.488  16.290  1.00  0.00    -0.014 C 
HETATM   25  C1  UNL     1      -3.282  11.520  15.531  1.00  0.00     0.010 C 
BRANCH  24  26
HETATM   26  C3  UNL     1      -1.992  11.021  17.673  1.00  0.00     0.008 C 
BRANCH  26  27
HETATM   27  C4  UNL     1      -1.501  12.477  17.702  1.00  0.00     0.028 C 
BRANCH  27  28
HETATM   28  C5  UNL     1      -1.895  13.257  18.924  1.00  0.00    -0.011 C 
HETATM   29  C6  UNL     1      -2.788  14.269  18.968  1.00  0.00     0.035 C 
BRANCH  29  30
HETATM   30  C7  UNL     1      -3.613  14.733  17.806  1.00  0.00     0.209 C 
BRANCH  30  31
HETATM   31  O1  UNL     1      -3.207  16.049  17.447  1.00  0.00    -0.396 OA
HETATM   32  H12 UNL     1      -3.872  16.386  16.823  1.00  0.00     0.209 HD
ENDBRANCH  30  31
ENDBRANCH  29  30
BRANCH  29  33
HETATM   33  C8  UNL     1      -3.072  14.971  20.245  1.00  0.00     0.173 C 
HETATM   34  O2  UNL     1      -4.179  15.170  20.715  1.00  0.00    -0.646 OA
BRANCH  33  35
HETATM   35  O3  UNL     1      -1.971  15.393  20.892  1.00  0.00    -0.773 OA
HETATM   36  H13 UNL     1      -2.330  15.844  21.684  1.00  0.00     0.167 HD
ENDBRANCH  33  35
ENDBRANCH  29  33
ENDBRANCH  27  28
ENDBRANCH  26  27
ENDBRANCH  24  26
ENDBRANCH   1  24
TORSDOF 8
ENDMDL
