MODEL 1
REMARK minimizedAffinity -10.6855698
REMARK CNNscore 0.480158836
REMARK CNNaffinity 8.1059866
REMARK  10 active torsions:
REMARK  status: ('A' for Active; 'I' for Inactive)
REMARK    1  A    between atoms: C2_2  and  O1_3 
REMARK    2  A    between atoms: O1_3  and  C3_4 
REMARK    3  A    between atoms: C3_4  and  C4_6 
REMARK    4  A    between atoms: C5_7  and  C6_8 
REMARK    5  A    between atoms: C12_16  and  C13_17 
REMARK    6  A    between atoms: C23_28  and  O5_29 
REMARK    7  A    between atoms: C27_34  and  C28_35 
REMARK    8  A    between atoms: C28_35  and  O7_36 
REMARK    9  A    between atoms: C38_47  and  C39_48 
REMARK   10  A    between atoms: C39_48  and  O8_49 
ROOT
HETATM    1  C4  UNL     1      -0.034  51.288 -17.186  1.00  0.00     0.165 C 
HETATM    2  C5  UNL     1      -0.570  50.065 -17.387  1.00  0.00     0.053 C 
HETATM    3  C7  UNL     1      -1.418  49.933 -18.579  1.00  0.00    -0.002 C 
HETATM    4  C8  UNL     1      -2.698  49.462 -18.551  1.00  0.00    -0.066 C 
HETATM    5  C9  UNL     1      -3.325  48.800 -17.326  1.00  0.00     0.042 C 
HETATM    6  C10 UNL     1      -4.775  48.356 -17.523  1.00  0.00     0.083 C 
HETATM    7  C11 UNL     1      -4.866  47.575 -18.817  1.00  0.00     0.136 C 
HETATM    8  O4  UNL     1      -5.328  46.435 -18.837  1.00  0.00    -0.297 OA
HETATM    9  C12 UNL     1      -4.347  48.276 -20.071  1.00  0.00     0.092 C 
HETATM   10  C21 UNL     1      -3.705  49.621 -19.690  1.00  0.00     0.052 C 
HETATM   11  C22 UNL     1      -0.854  50.652 -19.754  1.00  0.00     0.044 A 
HETATM   12  C23 UNL     1      -0.770  50.164 -21.064  1.00  0.00     0.091 A 
HETATM   13  C25 UNL     1      -0.260  50.990 -22.049  1.00  0.00     0.013 A 
HETATM   14  C26 UNL     1       0.225  52.255 -21.741  1.00  0.00     0.089 A 
HETATM   15  O6  UNL     1       0.698  52.935 -22.835  1.00  0.00    -0.341 OA
HETATM   16  C27 UNL     1       0.741  51.939 -23.895  1.00  0.00     0.168 C 
HETATM   17  C37 UNL     1      -0.179  50.766 -23.513  1.00  0.00     0.080 C 
HETATM   18  C38 UNL     1       0.231  52.760 -20.449  1.00  0.00     0.034 A 
HETATM   19  C40 UNL     1      -0.282  51.916 -19.453  1.00  0.00     0.101 A 
HETATM   20  O9  UNL     1      -0.165  52.320 -18.128  1.00  0.00    -0.302 OA
ENDROOT
BRANCH   2  21
HETATM   21  C6  UNL     1      -0.135  48.903 -16.571  1.00  0.00     0.273 C 
HETATM   22  O3  UNL     1       0.784  48.958 -15.760  1.00  0.00    -0.301 OA
ENDBRANCH   2  21
BRANCH   1  23
HETATM   23  C3  UNL     1       0.695  51.613 -15.937  1.00  0.00     0.318 C 
HETATM   24  O2  UNL     1       0.149  51.957 -14.899  1.00  0.00    -0.257 OA
BRANCH  23  25
HETATM   25  O1  UNL     1       2.026  51.503 -16.165  1.00  0.00    -0.316 OA
BRANCH  25  26
HETATM   26  C2  UNL     1       2.706  52.732 -16.452  1.00  0.00     0.175 C 
HETATM   27  C1  UNL     1       4.170  52.610 -16.072  1.00  0.00     0.034 C 
ENDBRANCH  25  26
ENDBRANCH  23  25
ENDBRANCH   1  23
BRANCH  12  28
HETATM   28  O5  UNL     1      -1.225  48.922 -21.411  1.00  0.00    -0.354 OA
HETATM   29  C24 UNL     1      -2.075  49.007 -22.556  1.00  0.00     0.210 C 
ENDBRANCH  12  28
BRANCH   9  30
HETATM   30  C13 UNL     1      -5.419  48.475 -21.130  1.00  0.00    -0.046 A 
HETATM   31  C14 UNL     1      -6.181  49.652 -21.127  1.00  0.00     0.010 A 
HETATM   32  C15 UNL     1      -7.198  49.876 -22.063  1.00  0.00     0.031 A 
HETATM   33  C16 UNL     1      -7.438  48.872 -23.007  1.00  0.00     0.042 A 
HETATM   34  N1  UNL     1      -8.352  48.816 -24.034  1.00  0.00    -0.365 N 
HETATM   35  C19 UNL     1      -6.714  47.683 -23.040  1.00  0.00    -0.008 A 
HETATM   36  C17 UNL     1      -8.235  47.631 -24.711  1.00  0.00     0.089 A 
HETATM   37  H14 UNL     1      -9.008  49.553 -24.257  1.00  0.00     0.165 HD
HETATM   38  C18 UNL     1      -7.225  46.908 -24.118  1.00  0.00     0.030 A 
HETATM   39  C20 UNL     1      -5.695  47.481 -22.087  1.00  0.00     0.021 A 
ENDBRANCH   9  30
BRANCH  18  40
HETATM   40  C39 UNL     1       0.815  54.106 -20.138  1.00  0.00     0.208 C 
BRANCH  40  41
HETATM   41  O8  UNL     1       1.968  54.370 -20.931  1.00  0.00    -0.396 OA
HETATM   42  H44 UNL     1       1.978  53.736 -21.666  1.00  0.00     0.209 HD
ENDBRANCH  40  41
ENDBRANCH  18  40
BRANCH  16  43
HETATM   43  C28 UNL     1       0.406  52.584 -25.270  1.00  0.00     0.089 C 
HETATM   44  C29 UNL     1       1.557  52.354 -26.293  1.00  0.00     0.041 C 
HETATM   45  C30 UNL     1       1.090  52.012 -27.710  1.00  0.00     0.004 C 
HETATM   46  C31 UNL     1      -0.103  52.847 -28.150  1.00  0.00     0.007 C 
HETATM   47  C32 UNL     1      -1.294  52.721 -27.189  1.00  0.00     0.021 C 
HETATM   48  C33 UNL     1      -2.473  51.957 -27.826  1.00  0.00     0.274 C 
HETATM   49  C36 UNL     1      -0.934  52.054 -25.844  1.00  0.00     0.030 C 
HETATM   50  N2  UNL     1      -3.501  51.529 -26.870  1.00  0.00     0.083 N 
HETATM   51  C34 UNL     1      -3.481  52.326 -25.644  1.00  0.00     0.270 C 
HETATM   52  H34 UNL     1      -3.343  50.551 -26.625  1.00  0.00     0.315 HD
HETATM   53  C35 UNL     1      -2.146  52.198 -24.895  1.00  0.00     0.038 C 
BRANCH  43  54
HETATM   54  O7  UNL     1       0.274  53.999 -25.042  1.00  0.00    -0.387 OA
HETATM   55  H24 UNL     1       0.324  54.457 -25.900  1.00  0.00     0.210 HD
ENDBRANCH  43  54
ENDBRANCH  16  43
TORSDOF 10
ENDMDL
