MODEL 1
REMARK minimizedAffinity -10.1398182
REMARK CNNscore 0.62795049
REMARK CNNaffinity 7.70952749
REMARK  10 active torsions:
REMARK  status: ('A' for Active; 'I' for Inactive)
REMARK    1  A    between atoms: O1_2  and  C2_3 
REMARK    2  A    between atoms: C4_5  and  O2_6 
REMARK    3  A    between atoms: O2_6  and  C5_7 
REMARK    4  A    between atoms: C6_8  and  O3_9 
REMARK    5  A    between atoms: C8_11  and  O4_12 
REMARK    6  A    between atoms: O4_12  and  C9_13 
REMARK    7  A    between atoms: C20_24  and  C21_25 
REMARK    8  A    between atoms: C21_25  and  O5_27 
REMARK    9  A    between atoms: C25_30  and  O6_31 
REMARK   10  A    between atoms: C34_42  and  O9_43 
ROOT
HETATM    1  C9  UNL     1      -5.058   6.718  15.050  1.00  0.00     0.046 C 
HETATM    2  C10 UNL     1      -5.945   6.294  15.958  1.00  0.00     0.011 C 
HETATM    3  C11 UNL     1      -7.424   6.323  15.692  1.00  0.00     0.019 C 
HETATM    4  C12 UNL     1      -7.989   7.657  16.220  1.00  0.00     0.010 C 
HETATM    5  C13 UNL     1      -9.518   7.732  16.144  1.00  0.00     0.009 C 
HETATM    6  C14 UNL     1     -10.115   6.841  15.038  1.00  0.00     0.025 C 
HETATM    7  C15 UNL     1      -9.135   6.844  13.837  1.00  0.00     0.001 C 
HETATM    8  C16 UNL     1      -9.851   6.400  12.562  1.00  0.00     0.007 C 
HETATM    9  C17 UNL     1     -10.900   7.439  12.171  1.00  0.00     0.013 C 
HETATM   10  C18 UNL     1     -11.885   7.815  13.308  1.00  0.00    -0.007 C 
HETATM   11  C19 UNL     1     -13.316   7.530  12.776  1.00  0.00     0.019 C 
HETATM   12  C20 UNL     1     -11.723   9.300  13.768  1.00  0.00     0.025 C 
HETATM   13  C23 UNL     1     -12.385   9.341  15.162  1.00  0.00     0.011 C 
HETATM   14  C24 UNL     1     -12.427   7.897  15.668  1.00  0.00     0.039 C 
HETATM   15  C25 UNL     1     -11.622   7.065  14.656  1.00  0.00     0.070 C 
HETATM   16  C26 UNL     1      -7.815   6.053  14.187  1.00  0.00    -0.033 C 
HETATM   17  C27 UNL     1      -8.043   4.522  14.034  1.00  0.00     0.016 C 
HETATM   18  C28 UNL     1      -6.677   6.430  13.171  1.00  0.00     0.016 C 
HETATM   19  C29 UNL     1      -5.518   7.255  13.734  1.00  0.00     0.065 C 
ENDROOT
BRANCH   1  20
HETATM   20  O4  UNL     1      -3.715   6.829  15.330  1.00  0.00    -0.325 OA
BRANCH  20  21
HETATM   21  C8  UNL     1      -2.872   6.595  14.185  1.00  0.00     0.269 C 
HETATM   22  C7  UNL     1      -1.452   6.454  14.733  1.00  0.00     0.095 C 
HETATM   23  C6  UNL     1      -0.458   6.064  13.649  1.00  0.00     0.154 C 
HETATM   24  C5  UNL     1      -0.961   4.873  12.807  1.00  0.00     0.182 C 
HETATM   25  C30 UNL     1      -2.408   5.151  12.360  1.00  0.00     0.152 C 
HETATM   26  O7  UNL     1      -3.235   5.389  13.501  1.00  0.00    -0.353 OA
HETATM   27  C31 UNL     1      -3.003   3.961  11.611  1.00  0.00     0.042 C 
BRANCH  23  28
HETATM   28  O3  UNL     1      -0.211   7.192  12.804  1.00  0.00    -0.393 OA
HETATM   29  H10 UNL     1       0.450   6.874  12.153  1.00  0.00     0.210 HD
ENDBRANCH  23  28
BRANCH  24  30
HETATM   30  O2  UNL     1      -0.151   4.632  11.645  1.00  0.00    -0.351 OA
BRANCH  30  31
HETATM   31  C4  UNL     1       0.749   5.692  11.331  1.00  0.00     0.263 C 
HETATM   32  C3  UNL     1       2.095   5.065  10.974  1.00  0.00     0.095 C 
HETATM   33  C2  UNL     1       3.092   6.148  10.570  1.00  0.00     0.156 C 
HETATM   34  C34 UNL     1       2.488   7.023   9.455  1.00  0.00     0.175 C 
HETATM   35  C32 UNL     1       1.086   7.516   9.858  1.00  0.00     0.151 C 
HETATM   36  O8  UNL     1       0.245   6.405  10.203  1.00  0.00    -0.354 OA
HETATM   37  C33 UNL     1       0.408   8.273   8.722  1.00  0.00     0.042 C 
BRANCH  33  38
HETATM   38  O1  UNL     1       3.391   7.021  11.679  1.00  0.00    -0.388 OA
HETATM   39  C1  UNL     1       2.982   8.370  11.458  1.00  0.00     0.202 C 
ENDBRANCH  33  38
BRANCH  34  40
HETATM   40  O9  UNL     1       3.358   8.128   9.203  1.00  0.00    -0.390 OA
HETATM   41  H56 UNL     1       3.637   8.450  10.083  1.00  0.00     0.210 HD
ENDBRANCH  34  40
ENDBRANCH  30  31
ENDBRANCH  24  30
ENDBRANCH  20  21
ENDBRANCH   1  20
BRANCH  15  42
HETATM   42  O6  UNL     1     -12.209   5.756  14.584  1.00  0.00    -0.389 OA
HETATM   43  H39 UNL     1     -12.255   5.401  15.489  1.00  0.00     0.210 HD
ENDBRANCH  15  42
BRANCH  12  44
HETATM   44  C21 UNL     1     -12.221  10.402  12.811  1.00  0.00     0.119 C 
HETATM   45  C22 UNL     1     -13.625  10.877  13.178  1.00  0.00     0.040 C 
BRANCH  44  46
HETATM   46  O5  UNL     1     -12.258   9.936  11.467  1.00  0.00    -0.396 OA
HETATM   47  H34 UNL     1     -12.529  10.680  10.902  1.00  0.00     0.210 HD
ENDBRANCH  44  46
ENDBRANCH  12  44
TORSDOF 10
ENDMDL
