MODEL 1
REMARK minimizedAffinity -9.15948868
REMARK CNNscore 0.297775656
REMARK CNNaffinity 7.26780558
REMARK  23 active torsions:
REMARK  status: ('A' for Active; 'I' for Inactive)
REMARK    1  A    between atoms: C3_3  and  C4_4 
REMARK    2  A    between atoms: C5_5  and  C6_6 
REMARK    3  A    between atoms: C7_8  and  O2_9 
REMARK    4  A    between atoms: C7_8  and  C8_10 
REMARK    5  A    between atoms: C8_10  and  C10_12 
REMARK       I    between atoms: C10_12  and  N1_14 
REMARK    6  A    between atoms: N1_14  and  C11_15 
REMARK    7  A    between atoms: C11_15  and  C12_16 
REMARK    8  A    between atoms: C13_17  and  C14_18 
REMARK    9  A    between atoms: C15_19  and  C17_21 
REMARK   10  A    between atoms: C17_21  and  O4_22 
REMARK   11  A    between atoms: C17_21  and  C19_24 
REMARK   12  A    between atoms: C19_24  and  C21_26 
REMARK   13  A    between atoms: C23_28  and  O5_29 
REMARK   14  A    between atoms: C24_30  and  C25_31 
REMARK   15  A    between atoms: C26_32  and  C27_33 
REMARK   16  A    between atoms: C28_34  and  C29_35 
REMARK   17  A    between atoms: C30_36  and  C31_37 
REMARK   18  A    between atoms: C31_37  and  O7_39 
REMARK   19  A    between atoms: C32_41  and  O9_42 
REMARK   20  A    between atoms: O9_42  and  C33_43 
REMARK   21  A    between atoms: C33_43  and  C34_45 
REMARK   22  A    between atoms: C34_45  and  C35_46 
REMARK   23  A    between atoms: C41_52  and  O11_53 
ROOT
HETATM    1  C10 UNL     1       0.908   8.923  14.296  1.00  0.00     0.227 C 
HETATM    2  O3  UNL     1       1.284   9.994  13.826  1.00  0.00    -0.273 OA
HETATM    3  N1  UNL     1       1.742   7.847  14.480  1.00  0.00    -0.357 N 
HETATM    4  H14 UNL     1       1.296   6.948  14.617  1.00  0.00     0.162 HD
ENDROOT
BRANCH   1   5
HETATM    5  C8  UNL     1      -0.563   8.669  14.620  1.00  0.00     0.139 C 
HETATM    6  C9  UNL     1      -1.157   9.997  15.094  1.00  0.00     0.026 C 
BRANCH   5   7
HETATM    7  C7  UNL     1      -1.211   8.046  13.347  1.00  0.00     0.204 C 
HETATM    8  O1  UNL     1      -0.129   7.863  12.400  1.00  0.00    -0.342 OA
HETATM    9  C6  UNL     1      -0.435   6.942  11.356  1.00  0.00     0.158 C 
HETATM   10  C42 UNL     1      -0.436   5.483  11.929  1.00  0.00     0.011 C 
HETATM   11  C41 UNL     1      -1.049   5.496  13.367  1.00  0.00     0.163 C 
HETATM   12  C43 UNL     1      -1.325   4.605  11.015  1.00  0.00     0.020 C 
HETATM   13  C44 UNL     1       0.976   4.854  11.947  1.00  0.00     0.020 C 
HETATM   14  C32 UNL     1      -1.992   6.696  13.537  1.00  0.00     0.224 C 
BRANCH   9  15
HETATM   15  C5  UNL     1       0.495   7.159  10.184  1.00  0.00     0.006 C 
HETATM   16  C4  UNL     1       0.395   8.125   9.255  1.00  0.00    -0.002 C 
BRANCH  16  17
HETATM   17  C3  UNL     1       1.330   8.249   8.162  1.00  0.00    -0.005 C 
HETATM   18  C2  UNL     1       2.315   7.397   7.841  1.00  0.00    -0.031 C 
HETATM   19  C1  UNL     1       2.676   6.103   8.495  1.00  0.00     0.036 C 
ENDBRANCH  16  17
ENDBRANCH   9  15
BRANCH  11  20
HETATM   20  O11 UNL     1      -0.044   5.555  14.391  1.00  0.00    -0.392 OA
HETATM   21  H53 UNL     1       0.335   4.663  14.478  1.00  0.00     0.210 HD
ENDBRANCH  11  20
BRANCH  14  22
HETATM   22  O9  UNL     1      -2.674   6.591  14.803  1.00  0.00    -0.307 OA
BRANCH  22  23
HETATM   23  C33 UNL     1      -4.002   6.265  14.776  1.00  0.00     0.263 C 
HETATM   24  O10 UNL     1      -4.697   6.049  15.760  1.00  0.00    -0.265 OA
BRANCH  23  25
HETATM   25  C34 UNL     1      -4.489   6.285  13.344  1.00  0.00     0.149 C 
BRANCH  25  26
HETATM   26  C35 UNL     1      -5.261   5.049  12.944  1.00  0.00    -0.049 A 
HETATM   27  C36 UNL     1      -4.627   4.006  12.255  1.00  0.00     0.007 A 
HETATM   28  C37 UNL     1      -5.343   2.868  11.883  1.00  0.00     0.001 A 
HETATM   29  C38 UNL     1      -6.697   2.756  12.202  1.00  0.00     0.000 A 
HETATM   30  C39 UNL     1      -7.334   3.784  12.895  1.00  0.00     0.001 A 
HETATM   31  C40 UNL     1      -6.619   4.923  13.268  1.00  0.00     0.007 A 
ENDBRANCH  25  26
ENDBRANCH  23  25
ENDBRANCH  22  23
ENDBRANCH  14  22
BRANCH   7  32
HETATM   32  O2  UNL     1      -2.167   8.953  12.774  1.00  0.00    -0.362 OA
HETATM   33  H9  UNL     1      -1.901   9.867  12.995  1.00  0.00     0.213 HD
ENDBRANCH   7  32
ENDBRANCH   5   7
ENDBRANCH   1   5
BRANCH   3  34
HETATM   34  C11 UNL     1       3.069   7.827  13.916  1.00  0.00     0.149 C 
BRANCH  34  35
HETATM   35  C12 UNL     1       4.096   8.434  14.819  1.00  0.00    -0.007 C 
HETATM   36  C13 UNL     1       5.217   9.089  14.477  1.00  0.00    -0.002 C 
BRANCH  36  37
HETATM   37  C14 UNL     1       6.150   9.577  15.470  1.00  0.00     0.005 C 
HETATM   38  C15 UNL     1       7.452   9.251  15.608  1.00  0.00    -0.055 C 
HETATM   39  C16 UNL     1       8.206   8.271  14.743  1.00  0.00     0.046 C 
BRANCH  38  40
HETATM   40  C17 UNL     1       8.270   9.880  16.740  1.00  0.00     0.155 C 
BRANCH  40  41
HETATM   41  O4  UNL     1       9.014   8.845  17.389  1.00  0.00    -0.386 OA
HETATM   42  C18 UNL     1       9.410   7.800  16.513  1.00  0.00     0.202 C 
ENDBRANCH  40  41
BRANCH  40  43
HETATM   43  C19 UNL     1       9.251  10.985  16.263  1.00  0.00     0.044 C 
HETATM   44  C20 UNL     1       9.312  11.049  14.725  1.00  0.00     0.015 C 
BRANCH  43  45
HETATM   45  C21 UNL     1       8.881  12.379  16.823  1.00  0.00     0.131 C 
HETATM   46  C22 UNL     1       7.501  12.921  16.462  1.00  0.00     0.067 C 
HETATM   47  C23 UNL     1       7.239  13.871  17.608  1.00  0.00     0.153 C 
HETATM   48  C24 UNL     1       7.803  13.084  18.797  1.00  0.00     0.173 C 
HETATM   49  O8  UNL     1       8.930  12.355  18.271  1.00  0.00    -0.374 OA
BRANCH  47  50
HETATM   50  O5  UNL     1       5.878  14.253  17.730  1.00  0.00    -0.393 OA
HETATM   51  H35 UNL     1       5.509  14.321  16.833  1.00  0.00     0.210 HD
ENDBRANCH  47  50
BRANCH  48  52
HETATM   52  C25 UNL     1       6.815  12.138  19.436  1.00  0.00     0.007 C 
HETATM   53  C26 UNL     1       6.182  12.298  20.611  1.00  0.00    -0.001 C 
BRANCH  53  54
HETATM   54  C27 UNL     1       5.279  11.302  21.144  1.00  0.00    -0.000 C 
HETATM   55  C28 UNL     1       5.103  11.104  22.460  1.00  0.00     0.000 C 
BRANCH  55  56
HETATM   56  C29 UNL     1       4.207  10.095  22.984  1.00  0.00     0.007 C 
HETATM   57  C30 UNL     1       3.219   9.542  22.264  1.00  0.00     0.081 C 
BRANCH  57  58
HETATM   58  C31 UNL     1       2.352   8.532  22.885  1.00  0.00     0.165 C 
HETATM   59  O6  UNL     1       1.765   7.622  22.334  1.00  0.00    -0.647 OA
BRANCH  58  60
HETATM   60  O7  UNL     1       2.270   8.741  24.208  1.00  0.00    -0.773 OA
HETATM   61  H43 UNL     1       1.669   8.028  24.514  1.00  0.00     0.167 HD
ENDBRANCH  58  60
ENDBRANCH  57  58
ENDBRANCH  55  56
ENDBRANCH  53  54
ENDBRANCH  48  52
ENDBRANCH  43  45
ENDBRANCH  40  43
ENDBRANCH  38  40
ENDBRANCH  36  37
ENDBRANCH  34  35
ENDBRANCH   3  34
TORSDOF 23
ENDMDL
