MODEL 1
REMARK minimizedAffinity -8.51590824
REMARK  11 active torsions:
REMARK  status: ('A' for Active; 'I' for Inactive)
REMARK    1  A    between atoms: C4_4  and  C5_5 
REMARK    2  A    between atoms: C5_5  and  O2_7 
REMARK    3  A    between atoms: O2_7  and  C6_8 
REMARK    4  A    between atoms: C6_8  and  C7_9 
REMARK    5  A    between atoms: C17_19  and  O3_21 
REMARK    6  A    between atoms: C19_22  and  C20_23 
REMARK    7  A    between atoms: C20_23  and  C21_24 
REMARK    8  A    between atoms: C21_24  and  C22_25 
REMARK    9  A    between atoms: C22_25  and  C24_27 
REMARK   10  A    between atoms: C24_27  and  C25_28 
REMARK   11  A    between atoms: C25_28  and  O4_29 
ROOT
HETATM    1  C7  UNL     1       0.381  52.720 -24.710  1.00  0.00    -0.018 C 
HETATM    2  C8  UNL     1       0.119  54.240 -24.808  1.00  0.00     0.018 C 
HETATM    3  C9  UNL     1       1.341  52.340 -25.865  1.00  0.00     0.012 C 
HETATM    4  C10 UNL     1       1.242  50.868 -26.215  1.00  0.00     0.002 C 
HETATM    5  C11 UNL     1      -0.123  50.533 -26.809  1.00  0.00     0.010 C 
HETATM    6  C12 UNL     1      -1.358  51.218 -26.124  1.00  0.00    -0.033 C 
HETATM    7  C13 UNL     1      -1.848  52.359 -27.056  1.00  0.00     0.016 C 
HETATM    8  C14 UNL     1      -0.928  51.822 -24.738  1.00  0.00     0.004 C 
HETATM    9  C15 UNL     1      -2.118  52.472 -24.000  1.00  0.00     0.009 C 
HETATM   10  C16 UNL     1      -3.445  51.727 -24.150  1.00  0.00     0.038 C 
HETATM   11  C17 UNL     1      -3.280  50.257 -24.534  1.00  0.00     0.059 C 
HETATM   12  C18 UNL     1      -4.645  49.556 -24.456  1.00  0.00     0.046 C 
HETATM   13  C19 UNL     1      -2.515  50.099 -25.909  1.00  0.00     0.028 C 
ENDROOT
BRANCH   1  14
HETATM   14  C6  UNL     1       1.091  52.466 -23.338  1.00  0.00     0.188 C 
BRANCH  14  15
HETATM   15  O2  UNL     1       0.406  53.145 -22.273  1.00  0.00    -0.317 OA
BRANCH  15  16
HETATM   16  C5  UNL     1       1.225  53.822 -21.428  1.00  0.00     0.283 C 
HETATM   17  O1  UNL     1       1.957  54.748 -21.725  1.00  0.00    -0.260 OA
BRANCH  16  18
HETATM   18  C4  UNL     1       1.039  53.239 -20.076  1.00  0.00     0.084 C 
HETATM   19  C2  UNL     1       0.086  52.363 -19.700  1.00  0.00    -0.082 C 
HETATM   20  C1  UNL     1      -1.027  51.842 -20.568  1.00  0.00     0.043 C 
HETATM   21  C3  UNL     1       0.076  51.816 -18.297  1.00  0.00     0.043 C 
ENDBRANCH  16  18
ENDBRANCH  15  16
ENDBRANCH  14  15
ENDBRANCH   1  14
BRANCH  13  22
HETATM   22  C20 UNL     1      -3.494  49.922 -27.113  1.00  0.00     0.009 C 
BRANCH  22  23
HETATM   23  C21 UNL     1      -3.882  48.485 -27.509  1.00  0.00     0.005 C 
BRANCH  23  24
HETATM   24  C22 UNL     1      -5.261  48.290 -28.189  1.00  0.00    -0.017 C 
HETATM   25  C23 UNL     1      -6.226  47.495 -27.302  1.00  0.00     0.010 C 
BRANCH  24  26
HETATM   26  C24 UNL     1      -5.142  47.683 -29.599  1.00  0.00     0.030 C 
BRANCH  26  27
HETATM   27  C25 UNL     1      -5.505  48.636 -30.738  1.00  0.00     0.164 C 
BRANCH  27  28
HETATM   28  O4  UNL     1      -4.622  49.747 -30.786  1.00  0.00    -0.401 OA
HETATM   29  H44 UNL     1      -3.713  49.402 -30.822  1.00  0.00     0.209 HD
ENDBRANCH  27  28
ENDBRANCH  26  27
ENDBRANCH  24  26
ENDBRANCH  23  24
ENDBRANCH  22  23
ENDBRANCH  13  22
BRANCH  11  30
HETATM   30  O3  UNL     1      -2.474  49.617 -23.525  1.00  0.00    -0.390 OA
HETATM   31  H30 UNL     1      -2.915  49.731 -22.666  1.00  0.00     0.210 HD
ENDBRANCH  11  30
TORSDOF 11
ENDMDL
