MODEL 1
REMARK minimizedAffinity -8.79048061
REMARK CNNscore 0.535832465
REMARK CNNaffinity 7.14695549
REMARK  5 active torsions:
REMARK  status: ('A' for Active; 'I' for Inactive)
REMARK    1  A    between atoms: C2_2  and  C3_3 
REMARK    2  A    between atoms: C6_6  and  C7_7 
REMARK    3  A    between atoms: C7_7  and  O1_9 
REMARK    4  A    between atoms: C14_17  and  O4_18 
REMARK    5  A    between atoms: C23_30  and  O6_31 
ROOT
HETATM    1  C3  UNL     1      -7.687   4.380  13.193  1.00  0.00     0.008 C 
HETATM    2  C4  UNL     1      -7.032   5.577  13.835  1.00  0.00    -0.023 C 
HETATM    3  C5  UNL     1      -6.829   5.700  15.157  1.00  0.00     0.004 C 
HETATM    4  C6  UNL     1      -6.044   6.805  15.829  1.00  0.00     0.182 C 
HETATM    5  O2  UNL     1      -5.143   7.427  14.890  1.00  0.00    -0.308 OA
HETATM    6  C9  UNL     1      -3.977   6.754  14.656  1.00  0.00     0.276 C 
HETATM    7  O3  UNL     1      -3.686   5.671  15.159  1.00  0.00    -0.264 OA
HETATM    8  C10 UNL     1      -2.983   7.598  13.806  1.00  0.00     0.095 C 
HETATM    9  C11 UNL     1      -3.679   8.575  12.844  1.00  0.00     0.036 C 
HETATM   10  C12 UNL     1      -2.322   8.422  14.906  1.00  0.00     0.002 C 
HETATM   11  C13 UNL     1      -1.042   8.743  15.105  1.00  0.00     0.053 C 
HETATM   12  C14 UNL     1       0.006   8.396  14.164  1.00  0.00     0.140 C 
HETATM   13  N1  UNL     1       0.154   7.524  13.257  1.00  0.00    -0.333 N 
ATOM     14  H1  UNL     1       1.023   7.544  12.724  1.00  0.00     0.168 HD
HETATM   15  C15 UNL     1      -0.761   6.554  12.934  1.00  0.00     0.097 C 
HETATM   16  C16 UNL     1      -2.103   6.586  13.053  1.00  0.00     0.045 C 
HETATM   17  C17 UNL     1      -2.890   5.525  12.318  1.00  0.00     0.194 C 
HETATM   18  O5  UNL     1      -4.030   5.758  11.938  1.00  0.00    -0.287 OA
HETATM   19  C18 UNL     1      -2.281   4.216  12.031  1.00  0.00     0.046 A 
HETATM   20  C19 UNL     1      -0.892   4.151  12.047  1.00  0.00     0.032 A 
HETATM   21  C20 UNL     1      -0.215   2.956  11.749  1.00  0.00     0.026 A 
HETATM   22  C21 UNL     1      -0.920   1.807  11.392  1.00  0.00    -0.027 A 
HETATM   23  C22 UNL     1      -0.186   0.546  11.033  1.00  0.00     0.051 C 
HETATM   24  C23 UNL     1      -2.311   1.890  11.301  1.00  0.00     0.086 A 
HETATM   25  C24 UNL     1      -3.007   3.072  11.644  1.00  0.00     0.059 A 
HETATM   26  C25 UNL     1      -4.481   3.008  11.475  1.00  0.00     0.163 C 
HETATM   27  O7  UNL     1      -4.890   2.540  10.408  1.00  0.00    -0.292 OA
HETATM   28  C26 UNL     1      -5.408   3.295  12.637  1.00  0.00     0.084 C 
HETATM   29  C27 UNL     1      -6.752   3.815  12.105  1.00  0.00     0.016 C 
HETATM   30  C28 UNL     1      -0.096   5.359  12.294  1.00  0.00     0.210 C 
HETATM   31  O8  UNL     1       1.099   5.351  12.008  1.00  0.00    -0.285 OA
ENDROOT
BRANCH   4  32
HETATM   32  C7  UNL     1      -6.997   7.877  16.413  1.00  0.00     0.147 C 
HETATM   33  C8  UNL     1      -8.355   7.291  16.790  1.00  0.00     0.042 C 
BRANCH  32  34
HETATM   34  O1  UNL     1      -7.217   8.917  15.453  1.00  0.00    -0.393 OA
HETATM   35  H14 UNL     1      -7.700   9.631  15.904  1.00  0.00     0.210 HD
ENDBRANCH  32  34
ENDBRANCH   4  32
BRANCH   1  36
HETATM   36  C2  UNL     1      -9.046   4.754  12.572  1.00  0.00     0.004 C 
HETATM   37  C1  UNL     1      -8.954   5.883  11.553  1.00  0.00     0.006 C 
ENDBRANCH   1  36
BRANCH  12  38
HETATM   38  O4  UNL     1       1.040   9.232  14.351  1.00  0.00    -0.346 OA
HETATM   39  H20 UNL     1       1.732   8.968  13.720  1.00  0.00     0.219 HD
ENDBRANCH  12  38
BRANCH  24  40
HETATM   40  O6  UNL     1      -2.967   0.774  10.837  1.00  0.00    -0.359 OA
HETATM   41  H25 UNL     1      -3.813   1.064  10.428  1.00  0.00     0.217 HD
ENDBRANCH  24  40
TORSDOF 5
ENDMDL
