MODEL 1
REMARK minimizedAffinity -9.56031704
REMARK  8 active torsions:
REMARK  status: ('A' for Active; 'I' for Inactive)
REMARK    1  A    between atoms: C12_14  and  C13_15 
REMARK    2  A    between atoms: C13_15  and  C15_17 
REMARK    3  A    between atoms: C15_17  and  C16_18 
REMARK    4  A    between atoms: C16_18  and  C17_19 
REMARK    5  A    between atoms: C26_28  and  C27_29 
REMARK    6  A    between atoms: C27_29  and  C28_30 
REMARK    7  A    between atoms: C28_30  and  C29_31 
REMARK    8  A    between atoms: C29_31  and  O4_33 
ROOT
HETATM    1  C1  UNL     1       1.428  53.976 -21.507  1.00  0.00     0.025 C 
HETATM    2  C2  UNL     1       0.673  52.972 -21.047  1.00  0.00     0.015 C 
HETATM    3  C3  UNL     1      -0.074  53.046 -19.765  1.00  0.00     0.289 C 
HETATM    4  O1  UNL     1      -0.280  54.049 -19.105  1.00  0.00    -0.260 OA
HETATM    5  O2  UNL     1      -0.514  51.785 -19.469  1.00  0.00    -0.311 OA
HETATM    6  C4  UNL     1       0.155  50.866 -20.336  1.00  0.00     0.142 C 
HETATM    7  C5  UNL     1      -0.617  49.578 -20.559  1.00  0.00     0.039 C 
HETATM    8  C6  UNL     1      -1.996  49.773 -21.222  1.00  0.00     0.006 C 
HETATM    9  C7  UNL     1      -1.889  50.596 -22.537  1.00  0.00    -0.027 A 
HETATM   10  C8  UNL     1      -2.694  50.130 -23.783  1.00  0.00     0.011 C 
HETATM   11  C9  UNL     1      -3.646  48.934 -23.666  1.00  0.00     0.011 C 
HETATM   12  C10 UNL     1      -4.063  48.640 -22.229  1.00  0.00    -0.032 C 
HETATM   13  C11 UNL     1      -4.941  49.808 -21.717  1.00  0.00     0.016 C 
HETATM   14  C12 UNL     1      -4.796  47.277 -22.030  1.00  0.00    -0.002 C 
HETATM   15  C21 UNL     1      -4.437  46.868 -20.585  1.00  0.00     0.006 C 
HETATM   16  C22 UNL     1      -3.307  47.808 -20.120  1.00  0.00     0.011 C 
HETATM   17  C23 UNL     1      -2.742  48.422 -21.414  1.00  0.00    -0.032 C 
HETATM   18  C24 UNL     1      -1.771  47.369 -22.041  1.00  0.00     0.016 C 
HETATM   19  C25 UNL     1      -1.984  52.108 -22.354  1.00  0.00     0.022 A 
HETATM   20  C26 UNL     1      -0.641  51.525 -22.706  1.00  0.00    -0.021 A 
HETATM   21  C31 UNL     1       0.457  51.612 -21.626  1.00  0.00     0.063 C 
ENDROOT
BRANCH  14  22
HETATM   22  C13 UNL     1      -6.263  47.069 -22.513  1.00  0.00    -0.014 C 
HETATM   23  C14 UNL     1      -7.184  46.946 -21.282  1.00  0.00     0.010 C 
BRANCH  22  24
HETATM   24  C15 UNL     1      -6.905  47.978 -23.594  1.00  0.00     0.008 C 
BRANCH  24  25
HETATM   25  C16 UNL     1      -6.848  47.629 -25.089  1.00  0.00     0.028 C 
BRANCH  25  26
HETATM   26  C17 UNL     1      -5.606  48.103 -25.783  1.00  0.00    -0.025 C 
HETATM   27  C18 UNL     1      -5.308  48.036 -27.095  1.00  0.00    -0.091 C 
HETATM   28  C19 UNL     1      -6.227  47.526 -28.169  1.00  0.00     0.042 C 
HETATM   29  C20 UNL     1      -3.960  48.494 -27.589  1.00  0.00     0.042 C 
ENDBRANCH  25  26
ENDBRANCH  24  25
ENDBRANCH  22  24
ENDBRANCH  14  22
BRANCH  20  30
HETATM   30  C27 UNL     1      -0.121  51.807 -24.120  1.00  0.00     0.021 C 
BRANCH  30  31
HETATM   31  C28 UNL     1      -0.780  53.035 -24.748  1.00  0.00     0.112 C 
BRANCH  31  32
HETATM   32  C29 UNL     1       0.224  53.827 -25.545  1.00  0.00     0.258 C 
HETATM   33  O3  UNL     1       0.304  55.050 -25.527  1.00  0.00    -0.265 OA
BRANCH  32  34
HETATM   34  O4  UNL     1       1.013  52.997 -26.280  1.00  0.00    -0.326 OA
HETATM   35  C30 UNL     1       0.510  52.733 -27.594  1.00  0.00     0.213 C 
ENDBRANCH  32  34
ENDBRANCH  31  32
ENDBRANCH  30  31
ENDBRANCH  20  30
TORSDOF 8
ENDMDL
