MODEL 1
REMARK minimizedAffinity -9.67442513
REMARK  7 active torsions:
REMARK  status: ('A' for Active; 'I' for Inactive)
REMARK    1  A    between atoms: C4_4  and  C5_5 
REMARK    2  A    between atoms: C5_5  and  C6_6 
REMARK    3  A    between atoms: C6_6  and  C7_7 
REMARK    4  A    between atoms: C7_7  and  C9_9 
REMARK    5  A    between atoms: C23_23  and  O1_24 
REMARK    6  A    between atoms: C24_25  and  C26_27 
REMARK    7  A    between atoms: C26_27  and  O2_28 
ROOT
HETATM    1  C9  UNL     1      -0.217  50.618 -19.243  1.00  0.00    -0.002 C 
HETATM    2  C10 UNL     1      -0.466  49.490 -20.259  1.00  0.00     0.006 C 
HETATM    3  C11 UNL     1      -1.672  49.945 -21.056  1.00  0.00     0.010 C 
HETATM    4  C12 UNL     1      -1.562  51.477 -21.139  1.00  0.00     0.023 C 
HETATM    5  C13 UNL     1      -1.409  51.925 -22.579  1.00  0.00    -0.072 C 
HETATM    6  C14 UNL     1      -0.199  52.052 -23.163  1.00  0.00    -0.068 C 
HETATM    7  C15 UNL     1       1.042  51.797 -22.341  1.00  0.00     0.036 C 
HETATM    8  C16 UNL     1       0.907  52.258 -20.893  1.00  0.00     0.014 C 
HETATM    9  C17 UNL     1      -0.420  51.895 -20.157  1.00  0.00    -0.032 C 
HETATM   10  C18 UNL     1      -0.850  53.178 -19.418  1.00  0.00     0.016 C 
HETATM   11  C19 UNL     1      -0.034  52.435 -24.653  1.00  0.00    -0.016 C 
HETATM   12  C20 UNL     1       0.232  53.958 -24.649  1.00  0.00     0.020 C 
HETATM   13  C21 UNL     1       1.171  51.706 -25.303  1.00  0.00     0.016 C 
HETATM   14  C22 UNL     1       1.261  51.904 -26.810  1.00  0.00     0.034 C 
HETATM   15  C23 UNL     1      -0.005  51.439 -27.523  1.00  0.00     0.128 C 
HETATM   16  C24 UNL     1      -1.307  52.114 -26.999  1.00  0.00     0.008 C 
HETATM   17  C25 UNL     1      -1.423  53.563 -27.522  1.00  0.00     0.020 C 
HETATM   18  C27 UNL     1      -1.335  51.999 -25.428  1.00  0.00     0.011 C 
HETATM   19  C28 UNL     1      -2.577  52.614 -24.760  1.00  0.00     0.011 C 
HETATM   20  C29 UNL     1      -2.711  52.139 -23.313  1.00  0.00     0.035 C 
ENDROOT
BRANCH   1  21
HETATM   21  C7  UNL     1      -1.116  50.522 -17.959  1.00  0.00    -0.014 C 
HETATM   22  C8  UNL     1      -2.527  51.092 -18.208  1.00  0.00     0.010 C 
BRANCH  21  23
HETATM   23  C6  UNL     1      -0.534  51.175 -16.676  1.00  0.00     0.008 C 
BRANCH  23  24
HETATM   24  C5  UNL     1       0.887  50.784 -16.241  1.00  0.00     0.028 C 
BRANCH  24  25
HETATM   25  C4  UNL     1       1.954  51.814 -16.467  1.00  0.00    -0.025 C 
HETATM   26  C2  UNL     1       3.064  52.015 -15.727  1.00  0.00    -0.091 C 
HETATM   27  C1  UNL     1       4.071  53.058 -16.130  1.00  0.00     0.042 C 
HETATM   28  C3  UNL     1       3.412  51.250 -14.480  1.00  0.00     0.042 C 
ENDBRANCH  24  25
ENDBRANCH  23  24
ENDBRANCH  21  23
ENDBRANCH   1  21
BRANCH  16  29
HETATM   29  C26 UNL     1      -2.525  51.326 -27.583  1.00  0.00     0.176 C 
BRANCH  29  30
HETATM   30  O2  UNL     1      -2.505  49.955 -27.181  1.00  0.00    -0.400 OA
HETATM   31  H43 UNL     1      -3.242  49.515 -27.643  1.00  0.00     0.209 HD
ENDBRANCH  29  30
ENDBRANCH  16  29
BRANCH  15  32
HETATM   32  O1  UNL     1       0.191  51.670 -28.915  1.00  0.00    -0.395 OA
HETATM   33  H37 UNL     1      -0.651  51.424 -29.356  1.00  0.00     0.210 HD
ENDBRANCH  15  32
TORSDOF 7
ENDMDL
