MODEL 1
REMARK minimizedAffinity -6.05692244
REMARK CNNscore 0.559033811
REMARK CNNaffinity 6.10994577
REMARK  20 active torsions:
REMARK  status: ('A' for Active; 'I' for Inactive)
REMARK    1  A    between atoms: C2_2  and  C3_3 
REMARK    2  A    between atoms: C2_2  and  C28_35 
REMARK    3  A    between atoms: C4_4  and  C5_5 
REMARK    4  A    between atoms: C6_6  and  C7_7 
REMARK    5  A    between atoms: C6_6  and  C9_11 
REMARK    6  A    between atoms: C7_7  and  O1_8 
REMARK    7  A    between atoms: O1_8  and  C8_9 
REMARK    8  A    between atoms: C8_9  and  O2_10 
REMARK    9  A    between atoms: C13_15  and  O3_16 
REMARK   10  A    between atoms: C14_17  and  C15_18 
REMARK   11  A    between atoms: C15_18  and  C16_19 
REMARK   12  A    between atoms: C16_19  and  C17_20 
REMARK   13  A    between atoms: C17_20  and  O4_21 
REMARK   14  A    between atoms: C19_23  and  C21_25 
REMARK   15  A    between atoms: C24_29  and  O6_30 
REMARK   16  A    between atoms: C24_29  and  C25_31 
REMARK   17  A    between atoms: C25_31  and  C26_32 
REMARK   18  A    between atoms: C26_32  and  N1_33 
REMARK   19  A    between atoms: C28_35  and  C29_36 
REMARK   20  A    between atoms: C29_36  and  C30_37 
ROOT
HETATM    1  C9  UNL     1       4.357  11.033  15.828  1.00  0.00     0.046 C 
HETATM    2  C10 UNL     1       3.236  11.507  14.883  1.00  0.00     0.013 C 
HETATM    3  C11 UNL     1       2.716  10.265  14.147  1.00  0.00     0.017 C 
HETATM    4  C12 UNL     1       3.372   9.005  14.821  1.00  0.00     0.025 C 
HETATM    5  C13 UNL     1       3.811   9.626  16.189  1.00  0.00     0.138 C 
HETATM    6  C14 UNL     1       4.639   8.611  13.895  1.00  0.00     0.029 C 
HETATM    7  C18 UNL     1       4.137   8.166  12.501  1.00  0.00    -0.066 C 
HETATM    8  C19 UNL     1       4.514   8.735  11.329  1.00  0.00    -0.021 C 
HETATM    9  C20 UNL     1       3.974   8.341   9.985  1.00  0.00     0.052 C 
HETATM   10  C22 UNL     1       3.143   7.023  12.566  1.00  0.00     0.038 C 
HETATM   11  C23 UNL     1       1.964   7.327  13.493  1.00  0.00     0.043 C 
HETATM   12  C24 UNL     1       2.390   7.764  14.918  1.00  0.00     0.070 C 
ENDROOT
BRANCH   5  13
HETATM   13  O3  UNL     1       2.695   9.779  17.068  1.00  0.00    -0.394 OA
HETATM   14  H17 UNL     1       2.964  10.355  17.806  1.00  0.00     0.210 HD
ENDBRANCH   5  13
BRANCH   6  15
HETATM   15  C15 UNL     1       5.680   7.540  14.350  1.00  0.00     0.012 C 
BRANCH  15  16
HETATM   16  C16 UNL     1       7.169   7.862  14.175  1.00  0.00     0.027 C 
BRANCH  16  17
HETATM   17  C17 UNL     1       7.877   8.304  15.455  1.00  0.00     0.164 C 
BRANCH  17  18
HETATM   18  O4  UNL     1       7.049   8.124  16.598  1.00  0.00    -0.401 OA
HETATM   19  H25 UNL     1       6.433   8.881  16.618  1.00  0.00     0.209 HD
ENDBRANCH  17  18
ENDBRANCH  16  17
ENDBRANCH  15  16
ENDBRANCH   6  15
BRANCH  12  20
HETATM   20  O6  UNL     1       3.169   6.668  15.473  1.00  0.00    -0.389 OA
HETATM   21  H34 UNL     1       2.600   5.879  15.473  1.00  0.00     0.210 HD
ENDBRANCH  12  20
BRANCH  12  22
HETATM   22  C25 UNL     1       1.144   7.799  15.861  1.00  0.00     0.068 C 
BRANCH  22  23
HETATM   23  C26 UNL     1      -0.264   7.476  15.356  1.00  0.00     0.272 C 
BRANCH  23  24
HETATM   24  N1  UNL     1      -0.606   6.061  15.530  1.00  0.00     0.079 N 
HETATM   25  C27 UNL     1      -1.760   5.707  14.713  1.00  0.00     0.306 C 
HETATM   26  H39 UNL     1      -0.839   5.898  16.509  1.00  0.00     0.315 HD
ENDBRANCH  23  24
ENDBRANCH  22  23
ENDBRANCH  12  22
BRANCH   1  27
HETATM   27  C6  UNL     1       4.757  12.052  16.906  1.00  0.00    -0.050 C 
HETATM   28  C5  UNL     1       3.973  12.694  17.802  1.00  0.00     0.005 C 
BRANCH  28  29
HETATM   29  C4  UNL     1       2.554  12.559  18.034  1.00  0.00     0.001 C 
HETATM   30  C3  UNL     1       1.898  12.132  19.128  1.00  0.00     0.006 C 
BRANCH  30  31
HETATM   31  C2  UNL     1       2.358  11.661  20.434  1.00  0.00    -0.067 C 
HETATM   32  C1  UNL     1       2.206  10.353  20.720  1.00  0.00     0.019 C 
BRANCH  31  33
HETATM   33  C28 UNL     1       3.062  12.630  21.369  1.00  0.00     0.041 C 
BRANCH  33  34
HETATM   34  C29 UNL     1       3.404  12.136  22.784  1.00  0.00     0.032 C 
BRANCH  34  35
HETATM   35  C30 UNL     1       4.870  11.800  22.902  1.00  0.00    -0.024 C 
HETATM   36  C31 UNL     1       5.901  12.663  22.990  1.00  0.00    -0.091 C 
HETATM   37  C32 UNL     1       7.320  12.166  23.085  1.00  0.00     0.042 C 
HETATM   38  C33 UNL     1       5.769  14.164  23.022  1.00  0.00     0.042 C 
ENDBRANCH  34  35
ENDBRANCH  33  34
ENDBRANCH  31  33
ENDBRANCH  30  31
ENDBRANCH  28  29
BRANCH  27  39
HETATM   39  C7  UNL     1       6.263  12.258  17.052  1.00  0.00     0.205 C 
BRANCH  39  40
HETATM   40  O1  UNL     1       6.640  12.640  18.372  1.00  0.00    -0.363 OA
BRANCH  40  41
HETATM   41  C8  UNL     1       8.003  12.387  18.653  1.00  0.00     0.334 C 
BRANCH  41  42
HETATM   42  O2  UNL     1       8.062  11.426  19.688  1.00  0.00    -0.377 OA
HETATM   43  H10 UNL     1       7.470  11.777  20.375  1.00  0.00     0.212 HD
ENDBRANCH  41  42
ENDBRANCH  40  41
ENDBRANCH  39  40
ENDBRANCH  27  39
ENDBRANCH   1  27
BRANCH   8  44
HETATM   44  C21 UNL     1       5.503   9.853  11.260  1.00  0.00     0.265 C 
HETATM   45  O5  UNL     1       6.045  10.232  10.230  1.00  0.00    -0.302 OA
ENDBRANCH   8  44
TORSDOF 20
ENDMDL
