MODEL 1
REMARK minimizedAffinity -7.69232702
REMARK CNNscore 0.720432222
REMARK CNNaffinity 6.98744631
REMARK  6 active torsions:
REMARK  status: ('A' for Active; 'I' for Inactive)
REMARK    1  A    between atoms: C4_4  and  C5_5 
REMARK    2  A    between atoms: C5_5  and  C6_6 
REMARK    3  A    between atoms: C6_6  and  C7_7 
REMARK    4  A    between atoms: C7_7  and  C9_9 
REMARK    5  A    between atoms: C12_12  and  C13_13 
REMARK    6  A    between atoms: C13_13  and  O2_15 
ROOT
HETATM    1  C9  UNL     1      -2.027  52.785  -9.612  1.00  0.00    -0.001 C 
HETATM    2  C10 UNL     1      -1.842  51.666  -8.558  1.00  0.00     0.007 C 
HETATM    3  C11 UNL     1      -0.429  51.860  -7.960  1.00  0.00     0.026 C 
HETATM    4  C12 UNL     1       0.013  53.265  -8.436  1.00  0.00     0.076 C 
HETATM    5  C14 UNL     1       1.489  53.630  -8.467  1.00  0.00    -0.057 C 
HETATM    6  C15 UNL     1       1.966  54.537  -9.355  1.00  0.00    -0.067 C 
HETATM    7  C16 UNL     1       1.009  55.207 -10.366  1.00  0.00     0.036 C 
HETATM    8  C17 UNL     1      -0.426  54.649 -10.514  1.00  0.00     0.015 C 
HETATM    9  C18 UNL     1      -0.571  53.257  -9.894  1.00  0.00    -0.018 C 
HETATM   10  C19 UNL     1       0.165  52.267 -10.849  1.00  0.00     0.017 C 
HETATM   11  C20 UNL     1       3.485  54.892  -9.455  1.00  0.00    -0.015 C 
HETATM   12  C21 UNL     1       3.980  54.274 -10.793  1.00  0.00     0.020 C 
HETATM   13  C22 UNL     1       3.691  56.433  -9.533  1.00  0.00     0.021 C 
HETATM   14  C23 UNL     1       3.873  57.070  -8.169  1.00  0.00     0.080 C 
HETATM   15  C24 UNL     1       5.158  56.584  -7.539  1.00  0.00     0.135 C 
HETATM   16  O3  UNL     1       5.806  57.332  -6.802  1.00  0.00    -0.297 OA
HETATM   17  C25 UNL     1       5.613  55.151  -7.845  1.00  0.00     0.018 C 
HETATM   18  C26 UNL     1       6.705  55.211  -8.932  1.00  0.00     0.023 C 
HETATM   19  C27 UNL     1       6.301  54.586  -6.578  1.00  0.00     0.023 C 
HETATM   20  C28 UNL     1       4.379  54.269  -8.285  1.00  0.00     0.013 C 
HETATM   21  C29 UNL     1       3.529  53.861  -7.062  1.00  0.00     0.011 C 
HETATM   22  C30 UNL     1       2.361  52.975  -7.443  1.00  0.00     0.036 C 
ENDROOT
BRANCH   1  23
HETATM   23  C7  UNL     1      -2.963  52.465 -10.814  1.00  0.00    -0.014 C 
HETATM   24  C8  UNL     1      -4.179  53.406 -10.737  1.00  0.00     0.010 C 
BRANCH  23  25
HETATM   25  C6  UNL     1      -3.446  50.996 -10.907  1.00  0.00     0.008 C 
BRANCH  25  26
HETATM   26  C5  UNL     1      -4.804  50.723 -10.237  1.00  0.00     0.028 C 
BRANCH  26  27
HETATM   27  C4  UNL     1      -5.559  49.565 -10.827  1.00  0.00    -0.025 C 
HETATM   28  C2  UNL     1      -6.834  49.192 -10.596  1.00  0.00    -0.091 C 
HETATM   29  C1  UNL     1      -7.790  49.875  -9.657  1.00  0.00     0.042 C 
HETATM   30  C3  UNL     1      -7.414  47.989 -11.297  1.00  0.00     0.042 C 
ENDBRANCH  26  27
ENDBRANCH  25  26
ENDBRANCH  23  25
ENDBRANCH   1  23
BRANCH   4  31
HETATM   31  C13 UNL     1      -0.608  54.325  -7.474  1.00  0.00     0.153 C 
HETATM   32  O1  UNL     1      -0.556  55.543  -7.560  1.00  0.00    -0.649 OA
BRANCH  31  33
HETATM   33  O2  UNL     1      -1.205  53.793  -6.384  1.00  0.00    -0.776 OA
HETATM   34  H21 UNL     1      -1.480  54.581  -5.871  1.00  0.00     0.167 HD
ENDBRANCH  31  33
ENDBRANCH   4  31
TORSDOF 6
ENDMDL
