MODEL 1
REMARK minimizedAffinity -8.63917637
REMARK  12 active torsions:
REMARK  status: ('A' for Active; 'I' for Inactive)
REMARK    1  A    between atoms: C2_2  and  C3_3 
REMARK    2  A    between atoms: C2_2  and  C13_14 
REMARK    3  A    between atoms: C3_3  and  C4_4 
REMARK    4  A    between atoms: C4_4  and  C5_5 
REMARK    5  A    between atoms: C13_14  and  C14_15 
REMARK    6  A    between atoms: C14_15  and  O2_16 
REMARK    7  A    between atoms: C14_15  and  C15_17 
REMARK    8  A    between atoms: C16_18  and  C18_20 
REMARK    9  A    between atoms: C18_20  and  C19_21 
REMARK       I    between atoms: C19_21  and  N1_23 
REMARK   10  A    between atoms: N1_23  and  C20_24 
REMARK   11  A    between atoms: C20_24  and  C21_25 
REMARK   12  A    between atoms: C21_25  and  C22_26 
ROOT
HETATM    1  C14 UNL     1      -2.941  50.534 -27.562  1.00  0.00     0.145 C 
ENDROOT
BRANCH   1   2
HETATM    2  C13 UNL     1      -3.004  49.047 -27.134  1.00  0.00     0.069 C 
BRANCH   2   3
HETATM    3  C2  UNL     1      -4.383  48.421 -26.989  1.00  0.00    -0.086 C 
HETATM    4  C1  UNL     1      -5.049  47.983 -28.073  1.00  0.00     0.014 C 
BRANCH   3   5
HETATM    5  C3  UNL     1      -4.991  48.293 -25.606  1.00  0.00     0.034 C 
BRANCH   5   6
HETATM    6  C4  UNL     1      -4.062  48.688 -24.446  1.00  0.00     0.010 C 
BRANCH   6   7
HETATM    7  C5  UNL     1      -4.564  48.321 -23.022  1.00  0.00     0.001 C 
HETATM    8  C6  UNL     1      -6.085  48.026 -23.087  1.00  0.00     0.006 C 
HETATM    9  C7  UNL     1      -6.922  49.273 -22.860  1.00  0.00     0.008 C 
HETATM   10  C8  UNL     1      -6.743  49.788 -21.441  1.00  0.00     0.079 C 
HETATM   11  C9  UNL     1      -5.366  49.484 -20.885  1.00  0.00     0.135 C 
HETATM   12  O1  UNL     1      -5.201  49.435 -19.664  1.00  0.00    -0.297 OA
HETATM   13  C10 UNL     1      -4.199  49.348 -21.881  1.00  0.00     0.017 C 
HETATM   14  C11 UNL     1      -3.890  50.782 -22.357  1.00  0.00     0.023 C 
HETATM   15  C12 UNL     1      -2.965  48.835 -21.108  1.00  0.00     0.023 C 
ENDBRANCH   6   7
ENDBRANCH   5   6
ENDBRANCH   3   5
ENDBRANCH   2   3
ENDBRANCH   1   2
BRANCH   1  16
HETATM   16  O2  UNL     1      -3.388  50.720 -28.904  1.00  0.00    -0.391 OA
HETATM   17  H23 UNL     1      -4.133  50.111 -29.042  1.00  0.00     0.210 HD
ENDBRANCH   1  16
BRANCH   1  18
HETATM   18  C15 UNL     1      -1.573  51.149 -27.459  1.00  0.00     0.007 C 
HETATM   19  C16 UNL     1      -0.842  51.333 -26.340  1.00  0.00    -0.076 C 
HETATM   20  C17 UNL     1      -1.263  50.869 -24.970  1.00  0.00     0.043 C 
BRANCH  19  21
HETATM   21  C18 UNL     1       0.510  52.014 -26.399  1.00  0.00     0.136 C 
BRANCH  21  22
HETATM   22  C19 UNL     1       0.461  53.381 -25.722  1.00  0.00     0.221 C 
HETATM   23  O3  UNL     1       0.064  54.391 -26.298  1.00  0.00    -0.273 OA
HETATM   24  N1  UNL     1       0.917  53.380 -24.421  1.00  0.00    -0.361 N 
HETATM   25  H30 UNL     1       1.465  52.585 -24.110  1.00  0.00     0.162 HD
BRANCH  24  26
HETATM   26  C20 UNL     1       1.091  54.617 -23.679  1.00  0.00     0.127 C 
BRANCH  26  27
HETATM   27  C21 UNL     1       1.766  54.401 -22.320  1.00  0.00     0.058 C 
BRANCH  27  28
HETATM   28  C22 UNL     1       0.935  53.537 -21.397  1.00  0.00    -0.057 A 
HETATM   29  C23 UNL     1       0.335  52.364 -21.874  1.00  0.00     0.007 A 
HETATM   30  C24 UNL     1      -0.465  51.587 -21.036  1.00  0.00     0.001 A 
HETATM   31  C25 UNL     1      -0.668  51.971 -19.713  1.00  0.00     0.000 A 
HETATM   32  C26 UNL     1      -0.072  53.134 -19.226  1.00  0.00     0.001 A 
HETATM   33  C27 UNL     1       0.723  53.916 -20.066  1.00  0.00     0.007 A 
ENDBRANCH  27  28
ENDBRANCH  26  27
ENDBRANCH  24  26
ENDBRANCH  21  22
ENDBRANCH  19  21
ENDBRANCH   1  18
TORSDOF 12
ENDMDL
