MODEL 1
REMARK minimizedAffinity -8.15555573
REMARK CNNscore 0.403749108
REMARK CNNaffinity 6.4560585
REMARK  11 active torsions:
REMARK  status: ('A' for Active; 'I' for Inactive)
REMARK    1  A    between atoms: C2_2  and  C4_4 
REMARK    2  A    between atoms: C4_4  and  C6_6 
REMARK    3  A    between atoms: C7_7  and  C8_8 
REMARK    4  A    between atoms: C8_8  and  C10_10 
REMARK    5  A    between atoms: C24_24  and  O1_25 
REMARK    6  A    between atoms: O1_25  and  C25_26 
REMARK    7  A    between atoms: C26_28  and  C27_29 
REMARK    8  A    between atoms: C27_29  and  O3_30 
REMARK    9  A    between atoms: C28_31  and  O4_32 
REMARK   10  A    between atoms: C29_33  and  O5_34 
REMARK   11  A    between atoms: C30_35  and  O6_36 
ROOT
HETATM    1  C10 UNL     1      -2.311  48.398 -20.882  1.00  0.00     0.002 C 
HETATM    2  C11 UNL     1      -2.567  47.110 -20.071  1.00  0.00     0.006 C 
HETATM    3  C12 UNL     1      -3.888  46.554 -20.593  1.00  0.00     0.009 C 
HETATM    4  C13 UNL     1      -4.718  47.824 -20.792  1.00  0.00     0.041 C 
HETATM    5  C14 UNL     1      -3.712  48.771 -21.517  1.00  0.00    -0.029 C 
HETATM    6  C15 UNL     1      -4.147  50.235 -21.360  1.00  0.00     0.016 C 
HETATM    7  C16 UNL     1      -3.633  48.441 -23.044  1.00  0.00     0.037 C 
HETATM    8  C17 UNL     1      -4.943  48.142 -23.697  1.00  0.00    -0.019 C 
HETATM    9  C18 UNL     1      -6.043  47.778 -23.015  1.00  0.00    -0.030 C 
HETATM   10  C19 UNL     1      -6.087  47.640 -21.496  1.00  0.00     0.142 C 
HETATM   11  C20 UNL     1      -7.162  48.577 -20.956  1.00  0.00     0.018 C 
HETATM   12  C21 UNL     1      -8.391  48.357 -21.459  1.00  0.00     0.014 C 
HETATM   13  C22 UNL     1      -8.422  47.233 -22.473  1.00  0.00     0.127 C 
HETATM   14  C23 UNL     1      -9.840  46.896 -22.959  1.00  0.00     0.078 C 
HETATM   15  C24 UNL     1      -9.873  45.990 -24.210  1.00  0.00     0.128 C 
HETATM   16  C31 UNL     1      -8.536  45.294 -24.464  1.00  0.00     0.033 C 
HETATM   17  C32 UNL     1      -7.354  46.263 -24.591  1.00  0.00     0.020 C 
HETATM   18  C33 UNL     1      -7.424  47.502 -23.656  1.00  0.00     0.021 C 
HETATM   19  C34 UNL     1      -7.828  48.766 -24.460  1.00  0.00     0.024 C 
HETATM   20  O7  UNL     1      -7.949  46.076 -21.722  1.00  0.00    -0.223 OA
HETATM   21  O8  UNL     1      -6.551  46.286 -21.234  1.00  0.00    -0.219 OA
ENDROOT
BRANCH  15  22
HETATM   22  O1  UNL     1     -10.207  46.826 -25.327  1.00  0.00    -0.353 OA
BRANCH  22  23
HETATM   23  C25 UNL     1     -11.560  46.673 -25.790  1.00  0.00     0.292 C 
HETATM   24  O2  UNL     1     -12.443  47.467 -25.009  1.00  0.00    -0.348 OA
HETATM   25  C26 UNL     1     -13.791  46.991 -24.869  1.00  0.00     0.179 C 
HETATM   26  C28 UNL     1     -14.247  46.037 -25.994  1.00  0.00     0.180 C 
HETATM   27  C29 UNL     1     -13.269  44.873 -26.211  1.00  0.00     0.183 C 
HETATM   28  C30 UNL     1     -11.870  45.172 -25.670  1.00  0.00     0.204 C 
BRANCH  25  29
HETATM   29  C27 UNL     1     -13.986  46.414 -23.461  1.00  0.00     0.198 C 
BRANCH  29  30
HETATM   30  O3  UNL     1     -14.336  47.420 -22.525  1.00  0.00    -0.398 OA
HETATM   31  H39 UNL     1     -14.596  46.983 -21.698  1.00  0.00     0.209 HD
ENDBRANCH  29  30
ENDBRANCH  25  29
BRANCH  26  32
HETATM   32  O4  UNL     1     -14.299  46.809 -27.210  1.00  0.00    -0.390 OA
HETATM   33  H41 UNL     1     -14.747  46.261 -27.884  1.00  0.00     0.210 HD
ENDBRANCH  26  32
BRANCH  27  34
HETATM   34  O5  UNL     1     -13.758  43.671 -25.600  1.00  0.00    -0.390 OA
HETATM   35  H43 UNL     1     -13.062  43.002 -25.748  1.00  0.00     0.210 HD
ENDBRANCH  27  34
BRANCH  28  36
HETATM   36  O6  UNL     1     -10.926  44.356 -26.378  1.00  0.00    -0.388 OA
HETATM   37  H45 UNL     1     -10.043  44.641 -26.063  1.00  0.00     0.210 HD
ENDBRANCH  28  36
ENDBRANCH  22  23
ENDBRANCH  15  22
BRANCH   1  38
HETATM   38  C8  UNL     1      -1.474  49.482 -20.146  1.00  0.00     0.008 C 
HETATM   39  C9  UNL     1      -2.384  50.351 -19.258  1.00  0.00     0.014 C 
BRANCH  38  40
HETATM   40  C7  UNL     1      -0.658  50.414 -21.018  1.00  0.00    -0.026 C 
HETATM   41  C6  UNL     1      -0.896  51.736 -21.114  1.00  0.00    -0.026 C 
BRANCH  41  42
HETATM   42  C4  UNL     1      -0.201  52.767 -21.992  1.00  0.00     0.007 C 
HETATM   43  C5  UNL     1      -0.079  52.178 -23.406  1.00  0.00     0.014 C 
BRANCH  42  44
HETATM   44  C2  UNL     1       1.146  53.340 -21.455  1.00  0.00    -0.015 C 
HETATM   45  C1  UNL     1       1.083  53.606 -19.946  1.00  0.00     0.010 C 
HETATM   46  C3  UNL     1       1.603  54.618 -22.169  1.00  0.00     0.010 C 
ENDBRANCH  42  44
ENDBRANCH  41  42
ENDBRANCH  38  40
ENDBRANCH   1  38
TORSDOF 11
ENDMDL
