MODEL 1
REMARK minimizedAffinity -7.07919693
REMARK CNNscore 0.458665252
REMARK CNNaffinity 5.90184736
REMARK  10 active torsions:
REMARK  status: ('A' for Active; 'I' for Inactive)
REMARK    1  A    between atoms: C3_3  and  O1_4 
REMARK    2  A    between atoms: N1_14  and  O2_16 
REMARK    3  A    between atoms: O2_16  and  C13_17 
REMARK    4  A    between atoms: C13_17  and  C14_18 
REMARK       I    between atoms: C14_18  and  N2_20 
REMARK    5  A    between atoms: N2_20  and  C15_21 
REMARK    6  A    between atoms: C15_21  and  C16_22 
REMARK       I    between atoms: C16_22  and  N3_24 
REMARK    7  A    between atoms: N3_24  and  C17_25 
REMARK    8  A    between atoms: C17_25  and  C18_26 
REMARK    9  A    between atoms: C17_25  and  C19_29 
REMARK   10  A    between atoms: C18_26  and  O6_28 
ROOT
HETATM    1  C1  UNL     1      -1.932  52.598 -23.559  1.00  0.00     0.015 C 
HETATM    2  C2  UNL     1      -2.353  51.536 -23.187  1.00  0.00    -0.078 C 
HETATM    3  C3  UNL     1      -2.895  50.232 -22.773  1.00  0.00     0.128 C 
HETATM    4  C4  UNL     1      -1.792  49.227 -22.428  1.00  0.00     0.052 C 
HETATM    5  C5  UNL     1      -2.572  48.110 -21.741  1.00  0.00     0.010 C 
HETATM    6  C6  UNL     1      -3.543  48.858 -20.821  1.00  0.00     0.002 C 
HETATM    7  C7  UNL     1      -4.796  48.077 -20.355  1.00  0.00    -0.004 C 
HETATM    8  C8  UNL     1      -5.508  47.212 -21.411  1.00  0.00     0.010 C 
HETATM    9  C9  UNL     1      -6.703  46.459 -20.819  1.00  0.00     0.035 C 
HETATM   10  C10 UNL     1      -7.650  47.335 -20.027  1.00  0.00    -0.069 C 
HETATM   11  C11 UNL     1      -8.979  47.228 -20.218  1.00  0.00     0.030 C 
HETATM   12  C12 UNL     1      -9.953  47.979 -19.376  1.00  0.00     0.032 C 
HETATM   13  N1  UNL     1     -11.235  48.054 -19.571  1.00  0.00    -0.271 N 
ATOM     14  H1  UNL     1     -11.875  48.573 -18.969  1.00  0.00     0.194 HD
HETATM   15  C22 UNL     1      -9.404  48.674 -18.147  1.00  0.00     0.060 C 
HETATM   16  C23 UNL     1      -8.056  49.305 -18.459  1.00  0.00     0.020 C 
HETATM   17  C24 UNL     1      -7.014  48.284 -19.010  1.00  0.00    -0.016 C 
HETATM   18  C25 UNL     1      -6.509  47.444 -17.806  1.00  0.00     0.020 C 
HETATM   19  C26 UNL     1      -5.799  49.043 -19.672  1.00  0.00     0.002 C 
HETATM   20  C27 UNL     1      -6.232  50.179 -20.640  1.00  0.00     0.007 C 
HETATM   21  C28 UNL     1      -5.279  50.483 -21.798  1.00  0.00     0.014 C 
HETATM   22  C29 UNL     1      -3.792  50.257 -21.482  1.00  0.00     0.003 C 
HETATM   23  C30 UNL     1      -3.328  51.352 -20.482  1.00  0.00     0.020 C 
ENDROOT
BRANCH   3  24
HETATM   24  O1  UNL     1      -3.617  49.686 -23.882  1.00  0.00    -0.377 OA
HETATM   25  H2  UNL     1      -3.060  49.814 -24.670  1.00  0.00     0.211 HD
ENDBRANCH   3  24
BRANCH  13  26
HETATM   26  O2  UNL     1     -11.634  47.334 -20.710  1.00  0.00    -0.271 OA
BRANCH  26  27
HETATM   27  C13 UNL     1     -13.038  47.133 -20.651  1.00  0.00     0.303 C 
BRANCH  27  28
HETATM   28  C14 UNL     1     -13.603  46.812 -22.032  1.00  0.00     0.244 C 
HETATM   29  O3  UNL     1     -13.041  46.101 -22.862  1.00  0.00    -0.271 OA
HETATM   30  N2  UNL     1     -14.839  47.377 -22.272  1.00  0.00    -0.350 N 
HETATM   31  H16 UNL     1     -15.193  48.118 -21.673  1.00  0.00     0.163 HD
BRANCH  30  32
HETATM   32  C15 UNL     1     -15.497  47.196 -23.550  1.00  0.00     0.225 C 
BRANCH  32  33
HETATM   33  C16 UNL     1     -16.550  46.093 -23.460  1.00  0.00     0.236 C 
HETATM   34  O4  UNL     1     -16.798  45.501 -22.411  1.00  0.00    -0.272 OA
HETATM   35  N3  UNL     1     -17.200  45.844 -24.645  1.00  0.00    -0.345 N 
HETATM   36  H19 UNL     1     -17.059  46.472 -25.433  1.00  0.00     0.163 HD
BRANCH  35  37
HETATM   37  C17 UNL     1     -18.330  44.919 -24.762  1.00  0.00     0.185 C 
BRANCH  37  38
HETATM   38  C18 UNL     1     -19.654  45.690 -24.645  1.00  0.00     0.163 C 
HETATM   39  O5  UNL     1     -19.945  46.725 -25.222  1.00  0.00    -0.648 OA
BRANCH  38  40
HETATM   40  O6  UNL     1     -20.528  45.136 -23.772  1.00  0.00    -0.775 OA
HETATM   41  H21 UNL     1     -21.303  45.738 -23.813  1.00  0.00     0.167 HD
ENDBRANCH  38  40
ENDBRANCH  37  38
BRANCH  37  42
HETATM   42  C19 UNL     1     -18.304  44.107 -26.076  1.00  0.00     0.010 C 
HETATM   43  C20 UNL     1     -17.598  44.844 -27.222  1.00  0.00     0.012 C 
HETATM   44  C21 UNL     1     -17.670  42.726 -25.882  1.00  0.00     0.012 C 
ENDBRANCH  37  42
ENDBRANCH  35  37
ENDBRANCH  32  33
ENDBRANCH  30  32
ENDBRANCH  27  28
ENDBRANCH  26  27
ENDBRANCH  13  26
TORSDOF 10
ENDMDL
