MODEL 1
REMARK minimizedAffinity -8.57123947
REMARK CNNscore 0.701640725
REMARK CNNaffinity 7.95763397
REMARK  14 active torsions:
REMARK  status: ('A' for Active; 'I' for Inactive)
REMARK    1  A    between atoms: O1_2  and  C2_3 
REMARK    2  A    between atoms: C2_3  and  C5_6 
REMARK    3  A    between atoms: C6_7  and  C7_8 
REMARK    4  A    between atoms: C7_8  and  C8_9 
REMARK    5  A    between atoms: C8_9  and  C10_11 
REMARK    6  A    between atoms: C22_23  and  O2_24 
REMARK    7  A    between atoms: O2_24  and  C23_25 
REMARK    8  A    between atoms: C24_27  and  C25_28 
REMARK    9  A    between atoms: C25_28  and  O4_29 
REMARK   10  A    between atoms: C26_30  and  O5_31 
REMARK   11  A    between atoms: C27_32  and  O6_33 
REMARK   12  A    between atoms: C28_34  and  O7_35 
REMARK   13  A    between atoms: C32_39  and  C33_40 
REMARK   14  A    between atoms: C33_40  and  O8_41 
ROOT
HETATM    1  C10 UNL     1      -6.741   6.658  13.902  1.00  0.00    -0.002 C 
HETATM    2  C11 UNL     1      -6.825   8.008  14.659  1.00  0.00     0.006 C 
HETATM    3  C12 UNL     1      -5.371   8.467  14.931  1.00  0.00     0.011 C 
HETATM    4  C13 UNL     1      -4.475   7.510  14.108  1.00  0.00    -0.032 C 
HETATM    5  C14 UNL     1      -4.434   8.116  12.669  1.00  0.00     0.016 C 
HETATM    6  C15 UNL     1      -3.028   7.291  14.662  1.00  0.00     0.009 C 
HETATM    7  C16 UNL     1      -2.172   8.570  14.717  1.00  0.00     0.033 C 
HETATM    8  C17 UNL     1      -1.328   8.826  13.514  1.00  0.00    -0.022 C 
HETATM    9  C18 UNL     1      -1.016   7.923  12.568  1.00  0.00    -0.068 C 
HETATM   10  C19 UNL     1      -1.480   6.477  12.672  1.00  0.00     0.026 C 
HETATM   11  C20 UNL     1      -0.308   5.511  12.339  1.00  0.00     0.012 C 
HETATM   12  C21 UNL     1       0.566   5.906  11.147  1.00  0.00     0.034 C 
HETATM   13  C22 UNL     1       0.033   7.092  10.353  1.00  0.00     0.136 C 
HETATM   14  C29 UNL     1      -0.219   8.325  11.301  1.00  0.00     0.002 C 
HETATM   15  C30 UNL     1       1.126   8.983  11.718  1.00  0.00     0.022 C 
HETATM   16  C31 UNL     1      -1.026   9.374  10.490  1.00  0.00     0.022 C 
HETATM   17  C32 UNL     1      -2.260   6.062  14.005  1.00  0.00    -0.007 C 
HETATM   18  C34 UNL     1      -3.213   4.844  13.653  1.00  0.00     0.013 C 
HETATM   19  C35 UNL     1      -4.671   5.154  13.273  1.00  0.00     0.011 C 
HETATM   20  C36 UNL     1      -5.293   6.170  14.238  1.00  0.00    -0.032 C 
HETATM   21  C37 UNL     1      -5.277   5.536  15.662  1.00  0.00     0.016 C 
ENDROOT
BRANCH  13  22
HETATM   22  O2  UNL     1       0.971   7.472   9.333  1.00  0.00    -0.352 OA
BRANCH  22  23
HETATM   23  C23 UNL     1       2.320   7.048   9.542  1.00  0.00     0.292 C 
HETATM   24  O3  UNL     1       2.419   5.633   9.384  1.00  0.00    -0.348 OA
HETATM   25  C24 UNL     1       3.775   5.156   9.417  1.00  0.00     0.179 C 
HETATM   26  C26 UNL     1       4.584   5.776  10.574  1.00  0.00     0.180 C 
HETATM   27  C27 UNL     1       3.633   6.377  11.616  1.00  0.00     0.183 C 
HETATM   28  C28 UNL     1       2.715   7.439  10.989  1.00  0.00     0.204 C 
BRANCH  25  29
HETATM   29  C25 UNL     1       3.709   3.624   9.529  1.00  0.00     0.198 C 
BRANCH  29  30
HETATM   30  O4  UNL     1       2.620   3.168  10.323  1.00  0.00    -0.398 OA
HETATM   31  H40 UNL     1       2.579   3.724  11.126  1.00  0.00     0.209 HD
ENDBRANCH  29  30
ENDBRANCH  25  29
BRANCH  26  32
HETATM   32  O5  UNL     1       5.419   6.811  10.027  1.00  0.00    -0.390 OA
HETATM   33  H42 UNL     1       5.487   7.516  10.703  1.00  0.00     0.210 HD
ENDBRANCH  26  32
BRANCH  27  34
HETATM   34  O6  UNL     1       4.384   6.987  12.680  1.00  0.00    -0.390 OA
HETATM   35  H44 UNL     1       4.810   6.264  13.185  1.00  0.00     0.210 HD
ENDBRANCH  27  34
BRANCH  28  36
HETATM   36  O7  UNL     1       3.375   8.721  11.019  1.00  0.00    -0.388 OA
HETATM   37  H46 UNL     1       3.744   8.778  11.927  1.00  0.00     0.210 HD
ENDBRANCH  28  36
ENDBRANCH  22  23
ENDBRANCH  13  22
BRANCH  17  38
HETATM   38  C33 UNL     1      -1.279   5.505  15.100  1.00  0.00     0.174 C 
BRANCH  38  39
HETATM   39  O8  UNL     1      -0.341   6.466  15.553  1.00  0.00    -0.400 OA
HETATM   40  H55 UNL     1       0.224   6.036  16.222  1.00  0.00     0.209 HD
ENDBRANCH  38  39
ENDBRANCH  17  38
BRANCH   1  41
HETATM   41  C8  UNL     1      -7.935   5.670  14.077  1.00  0.00    -0.010 C 
HETATM   42  C9  UNL     1      -7.701   4.406  13.226  1.00  0.00     0.010 C 
BRANCH  41  43
HETATM   43  C7  UNL     1      -9.374   6.211  13.872  1.00  0.00     0.031 C 
BRANCH  43  44
HETATM   44  C6  UNL     1      -9.945   7.143  14.912  1.00  0.00    -0.027 C 
HETATM   45  C5  UNL     1     -10.763   8.158  14.582  1.00  0.00     0.006 C 
BRANCH  45  46
HETATM   46  C2  UNL     1     -11.448   9.153  15.502  1.00  0.00     0.070 C 
HETATM   47  C3  UNL     1     -12.940   8.769  15.583  1.00  0.00     0.050 C 
HETATM   48  C4  UNL     1     -10.905   9.217  16.940  1.00  0.00     0.050 C 
BRANCH  46  49
HETATM   49  O1  UNL     1     -11.430  10.447  14.873  1.00  0.00    -0.382 OA
HETATM   50  C1  UNL     1     -10.149  11.059  14.757  1.00  0.00     0.202 C 
ENDBRANCH  46  49
ENDBRANCH  45  46
ENDBRANCH  43  44
ENDBRANCH  41  43
ENDBRANCH   1  41
TORSDOF 14
ENDMDL
