MODEL 1
REMARK minimizedAffinity -9.24607754
REMARK  6 active torsions:
REMARK  status: ('A' for Active; 'I' for Inactive)
REMARK    1  A    between atoms: C3_3  and  C4_4 
REMARK    2  A    between atoms: C4_4  and  O2_6 
REMARK    3  A    between atoms: O2_6  and  C5_7 
REMARK    4  A    between atoms: C5_7  and  C6_8 
REMARK    5  A    between atoms: C6_8  and  C7_9 
REMARK    6  A    between atoms: C13_15  and  C14_16 
ROOT
HETATM    1  C1  UNL     1      -4.891   6.590  15.604  1.00  0.00     0.069 C 
HETATM    2  C2  UNL     1      -3.465   7.032  15.400  1.00  0.00     0.018 A 
HETATM    3  C3  UNL     1      -2.608   6.484  14.507  1.00  0.00     0.052 A 
HETATM    4  C13 UNL     1      -1.159   6.950  14.393  1.00  0.00     0.104 A 
HETATM    5  C23 UNL     1      -0.806   8.027  15.412  1.00  0.00     0.024 A 
HETATM    6  C24 UNL     1      -1.732   8.538  16.250  1.00  0.00     0.020 A 
HETATM    7  C25 UNL     1      -1.435   9.657  17.216  1.00  0.00     0.058 C 
HETATM    8  C26 UNL     1      -0.214  10.463  16.793  1.00  0.00     0.014 C 
HETATM    9  C27 UNL     1       0.967   9.549  16.514  1.00  0.00     0.084 C 
HETATM   10  C28 UNL     1       0.612   8.474  15.511  1.00  0.00     0.158 C 
HETATM   11  O5  UNL     1       1.486   7.926  14.840  1.00  0.00    -0.293 OA
HETATM   12  N1  UNL     1      -3.024   8.048  16.234  1.00  0.00    -0.362 N 
HETATM   13  H24 UNL     1      -3.711   8.498  16.834  1.00  0.00     0.165 HD
ENDROOT
BRANCH   4  14
HETATM   14  C14 UNL     1      -0.824   7.366  12.969  1.00  0.00     0.029 A 
HETATM   15  C15 UNL     1      -1.409   8.410  12.359  1.00  0.00     0.154 A 
HETATM   16  O3  UNL     1      -1.168   8.866  11.089  1.00  0.00    -0.321 OA
HETATM   17  C16 UNL     1      -0.233   8.200  10.341  1.00  0.00     0.089 A 
HETATM   18  C17 UNL     1       0.009   8.674   9.052  1.00  0.00     0.040 A 
HETATM   19  C21 UNL     1       0.463   7.093  10.822  1.00  0.00     0.050 A 
HETATM   20  C18 UNL     1       0.953   8.035   8.245  1.00  0.00     0.026 A 
HETATM   21  C19 UNL     1       1.649   6.926   8.731  1.00  0.00     0.035 A 
HETATM   22 CL1  UNL     1       2.810   6.145   7.733  1.00  0.00    -0.084 Cl
HETATM   23  C20 UNL     1       1.410   6.448  10.018  1.00  0.00     0.042 A 
HETATM   24  C22 UNL     1       0.187   6.612  12.186  1.00  0.00     0.194 A 
HETATM   25  O4  UNL     1       0.777   5.634  12.629  1.00  0.00    -0.287 OA
ENDBRANCH   4  14
BRANCH   3  26
HETATM   26  C4  UNL     1      -2.978   5.381  13.596  1.00  0.00     0.292 C 
HETATM   27  O1  UNL     1      -2.239   4.963  12.717  1.00  0.00    -0.259 OA
BRANCH  26  28
HETATM   28  O2  UNL     1      -4.255   4.990  13.822  1.00  0.00    -0.317 OA
BRANCH  28  29
HETATM   29  C5  UNL     1      -4.972   4.518  12.669  1.00  0.00     0.183 C 
BRANCH  29  30
HETATM   30  C6  UNL     1      -6.259   3.812  13.092  1.00  0.00     0.065 C 
BRANCH  30  31
HETATM   31  C7  UNL     1      -7.417   4.770  13.191  1.00  0.00    -0.056 A 
HETATM   32  C8  UNL     1      -7.729   5.389  14.408  1.00  0.00     0.007 A 
HETATM   33  C9  UNL     1      -8.787   6.294  14.490  1.00  0.00     0.001 A 
HETATM   34  C10 UNL     1      -9.540   6.592  13.356  1.00  0.00     0.000 A 
HETATM   35  C11 UNL     1      -9.237   5.984  12.138  1.00  0.00     0.001 A 
HETATM   36  C12 UNL     1      -8.179   5.078  12.055  1.00  0.00     0.007 A 
ENDBRANCH  30  31
ENDBRANCH  29  30
ENDBRANCH  28  29
ENDBRANCH  26  28
ENDBRANCH   3  26
TORSDOF 6
ENDMDL
