MODEL 1
REMARK minimizedAffinity -9.40420723
REMARK  9 active torsions:
REMARK  status: ('A' for Active; 'I' for Inactive)
REMARK    1  A    between atoms: C3_3  and  C4_4 
REMARK    2  A    between atoms: C3_3  and  C27_30 
REMARK    3  A    between atoms: C4_4  and  C5_5 
REMARK    4  A    between atoms: C5_5  and  C6_6 
REMARK    5  A    between atoms: C6_6  and  C8_8 
REMARK    6  A    between atoms: C15_15  and  O1_16 
REMARK    7  A    between atoms: C18_19  and  C19_20 
REMARK    8  A    between atoms: C19_20  and  O2_21 
REMARK    9  A    between atoms: C22_24  and  O3_25 
ROOT
HETATM    1  C8  UNL     1       1.263   6.633  13.014  1.00  0.00     0.001 C 
HETATM    2  C9  UNL     1       0.500   7.764  13.750  1.00  0.00     0.006 C 
HETATM    3  C10 UNL     1      -0.984   7.366  13.747  1.00  0.00     0.010 C 
HETATM    4  C11 UNL     1      -0.990   5.915  13.270  1.00  0.00     0.026 C 
HETATM    5  C12 UNL     1      -2.265   5.252  12.797  1.00  0.00    -0.072 C 
HETATM    6  C13 UNL     1      -2.202   4.172  11.975  1.00  0.00    -0.064 C 
HETATM    7  C14 UNL     1      -0.853   3.667  11.441  1.00  0.00     0.068 C 
HETATM    8  C15 UNL     1       0.416   4.389  11.958  1.00  0.00     0.131 C 
HETATM    9  C16 UNL     1       0.149   5.886  12.216  1.00  0.00    -0.006 C 
HETATM   10  C17 UNL     1      -0.218   6.622  10.903  1.00  0.00     0.019 C 
HETATM   11  C18 UNL     1      -3.492   3.452  11.473  1.00  0.00     0.009 C 
HETATM   12  C20 UNL     1      -3.331   1.897  11.384  1.00  0.00     0.019 C 
HETATM   13  C21 UNL     1      -4.486   1.062  11.962  1.00  0.00     0.033 C 
HETATM   14  C22 UNL     1      -5.873   1.630  11.692  1.00  0.00     0.118 C 
HETATM   15  C23 UNL     1      -6.004   3.106  12.082  1.00  0.00     0.037 C 
HETATM   16  C24 UNL     1      -4.660   3.745  12.472  1.00  0.00     0.003 C 
HETATM   17  C25 UNL     1      -4.826   5.240  12.736  1.00  0.00     0.010 C 
HETATM   18  C26 UNL     1      -3.553   5.824  13.341  1.00  0.00     0.035 C 
ENDROOT
BRANCH   1  19
HETATM   19  C6  UNL     1       2.564   7.056  12.268  1.00  0.00    -0.013 C 
HETATM   20  C7  UNL     1       2.355   8.453  11.657  1.00  0.00     0.010 C 
BRANCH  19  21
HETATM   21  C5  UNL     1       3.038   6.081  11.164  1.00  0.00     0.009 C 
BRANCH  21  22
HETATM   22  C4  UNL     1       3.714   6.720   9.936  1.00  0.00     0.034 C 
BRANCH  22  23
HETATM   23  C3  UNL     1       3.102   6.353   8.593  1.00  0.00    -0.081 C 
HETATM   24  C2  UNL     1       3.207   5.115   8.066  1.00  0.00    -0.028 C 
HETATM   25  C1  UNL     1       3.941   3.952   8.656  1.00  0.00     0.036 C 
BRANCH  23  26
HETATM   26  C27 UNL     1       2.274   7.458   7.932  1.00  0.00     0.006 C 
HETATM   27  C28 UNL     1       2.975   8.817   7.841  1.00  0.00     0.014 C 
HETATM   28  C29 UNL     1       1.806   7.016   6.541  1.00  0.00     0.014 C 
ENDBRANCH  23  26
ENDBRANCH  22  23
ENDBRANCH  21  22
ENDBRANCH  19  21
ENDBRANCH   1  19
BRANCH   8  29
HETATM   29  O1  UNL     1       1.497   4.172  11.055  1.00  0.00    -0.394 OA
HETATM   30  H22 UNL     1       1.277   4.579  10.201  1.00  0.00     0.210 HD
ENDBRANCH   8  29
BRANCH  11  31
HETATM   31  C19 UNL     1      -3.740   4.038  10.042  1.00  0.00     0.178 C 
BRANCH  31  32
HETATM   32  O2  UNL     1      -4.593   3.236   9.235  1.00  0.00    -0.400 OA
HETATM   33  H28 UNL     1      -4.737   3.732   8.407  1.00  0.00     0.209 HD
ENDBRANCH  31  32
ENDBRANCH  11  31
BRANCH  14  34
HETATM   34  O3  UNL     1      -6.202   1.443  10.320  1.00  0.00    -0.396 OA
HETATM   35  H34 UNL     1      -5.704   2.124   9.816  1.00  0.00     0.210 HD
ENDBRANCH  14  34
TORSDOF 9
ENDMDL
