MODEL 1
REMARK minimizedAffinity -9.59246159
REMARK  8 active torsions:
REMARK  status: ('A' for Active; 'I' for Inactive)
REMARK    1  A    between atoms: C2_2  and  C3_3 
REMARK    2  A    between atoms: C2_2  and  C27_30 
REMARK    3  A    between atoms: C3_3  and  C4_4 
REMARK    4  A    between atoms: C4_4  and  C5_5 
REMARK    5  A    between atoms: C5_5  and  C7_7 
REMARK    6  A    between atoms: C26_28  and  O3_29 
REMARK    7  A    between atoms: C27_30  and  C29_32 
REMARK    8  A    between atoms: C29_32  and  O5_34 
ROOT
HETATM    1  C7  UNL     1      -1.728   6.654  12.632  1.00  0.00    -0.002 C 
HETATM    2  C8  UNL     1      -1.591   7.719  13.735  1.00  0.00     0.006 C 
HETATM    3  C9  UNL     1      -0.213   8.319  13.501  1.00  0.00     0.010 C 
HETATM    4  C10 UNL     1       0.633   7.072  13.242  1.00  0.00     0.027 C 
HETATM    5  C11 UNL     1       2.047   7.349  12.767  1.00  0.00    -0.036 C 
HETATM    6  C12 UNL     1       2.517   7.016  11.543  1.00  0.00     0.002 C 
HETATM    7  C13 UNL     1       1.527   6.536  10.512  1.00  0.00     0.157 C 
HETATM    8  O1  UNL     1       1.884   6.260   9.368  1.00  0.00    -0.293 OA
HETATM    9  C14 UNL     1       0.055   6.530  10.846  1.00  0.00     0.093 C 
HETATM   10  C15 UNL     1      -0.251   6.191  12.314  1.00  0.00    -0.026 C 
HETATM   11  C16 UNL     1       0.082   4.710  12.560  1.00  0.00     0.016 C 
HETATM   12  C17 UNL     1       4.005   7.123  11.125  1.00  0.00    -0.008 C 
HETATM   13  C18 UNL     1       4.497   5.719  10.660  1.00  0.00     0.021 C 
HETATM   14  C19 UNL     1       4.136   8.130   9.938  1.00  0.00     0.022 C 
HETATM   15  C20 UNL     1       5.076   9.309  10.143  1.00  0.00     0.080 C 
HETATM   16  C21 UNL     1       6.387   8.901  10.749  1.00  0.00     0.131 C 
HETATM   17  O2  UNL     1       7.450   9.374  10.330  1.00  0.00    -0.298 OA
HETATM   18  C22 UNL     1       6.360   7.916  11.908  1.00  0.00     0.056 C 
HETATM   19  C23 UNL     1       7.230   8.434  13.054  1.00  0.00     0.018 C 
HETATM   20  C24 UNL     1       4.924   7.525  12.341  1.00  0.00     0.012 C 
HETATM   21  C25 UNL     1       4.232   8.555  13.248  1.00  0.00     0.042 C 
HETATM   22  C26 UNL     1       2.934   7.982  13.812  1.00  0.00     0.148 C 
ENDROOT
BRANCH   1  23
HETATM   23  C5  UNL     1      -2.892   5.656  12.893  1.00  0.00    -0.014 C 
HETATM   24  C6  UNL     1      -3.007   5.155  14.334  1.00  0.00     0.010 C 
BRANCH  23  25
HETATM   25  C4  UNL     1      -2.872   4.493  11.868  1.00  0.00     0.009 C 
BRANCH  25  26
HETATM   26  C3  UNL     1      -3.735   3.274  12.256  1.00  0.00     0.034 C 
BRANCH  26  27
HETATM   27  C2  UNL     1      -5.193   3.257  11.836  1.00  0.00    -0.075 C 
HETATM   28  C1  UNL     1      -5.562   3.098  10.550  1.00  0.00     0.015 C 
BRANCH  27  29
HETATM   29  C27 UNL     1      -6.249   3.493  12.916  1.00  0.00     0.107 C 
HETATM   30  C28 UNL     1      -6.628   4.967  13.049  1.00  0.00     0.026 C 
BRANCH  29  31
HETATM   31  C29 UNL     1      -7.501   2.639  12.713  1.00  0.00     0.147 C 
HETATM   32  O4  UNL     1      -8.669   2.978  12.786  1.00  0.00    -0.650 OA
BRANCH  31  33
HETATM   33  O5  UNL     1      -7.200   1.353  12.423  1.00  0.00    -0.776 OA
HETATM   34  H42 UNL     1      -8.078   0.930  12.315  1.00  0.00     0.167 HD
ENDBRANCH  31  33
ENDBRANCH  29  31
ENDBRANCH  27  29
ENDBRANCH  26  27
ENDBRANCH  25  26
ENDBRANCH  23  25
ENDBRANCH   1  23
BRANCH  22  35
HETATM   35  O3  UNL     1       3.217   6.988  14.790  1.00  0.00    -0.391 OA
HETATM   36  H37 UNL     1       3.696   7.418  15.518  1.00  0.00     0.210 HD
ENDBRANCH  22  35
TORSDOF 8
ENDMDL
