MODEL 1
REMARK minimizedAffinity -8.37202835
REMARK CNNscore 0.675964773
REMARK CNNaffinity 7.38650894
REMARK  7 active torsions:
REMARK  status: ('A' for Active; 'I' for Inactive)
REMARK    1  A    between atoms: C2_2  and  C4_4 
REMARK    2  A    between atoms: C4_4  and  O2_6 
REMARK    3  A    between atoms: O2_6  and  C5_7 
REMARK    4  A    between atoms: C5_7  and  C6_8 
REMARK    5  A    between atoms: C6_8  and  C7_10 
REMARK    6  A    between atoms: C8_12  and  C9_13 
REMARK    7  A    between atoms: C29_35  and  O7_36 
ROOT
HETATM    1  C7  UNL     1      -2.992  49.935 -20.451  1.00  0.00     0.160 C 
HETATM    2  O4  UNL     1      -3.229  50.434 -21.768  1.00  0.00    -0.339 OA
HETATM    3  C8  UNL     1      -2.041  50.162 -22.517  1.00  0.00     0.266 C 
HETATM    4  O5  UNL     1      -1.357  49.057 -21.937  1.00  0.00    -0.352 OA
HETATM    5  C15 UNL     1      -1.937  48.833 -20.653  1.00  0.00     0.168 C 
HETATM    6  C16 UNL     1      -2.685  47.484 -20.656  1.00  0.00     0.041 C 
HETATM    7  C17 UNL     1      -4.153  47.886 -20.777  1.00  0.00     0.004 C 
HETATM    8  C18 UNL     1      -5.237  46.849 -20.453  1.00  0.00    -0.001 C 
HETATM    9  C19 UNL     1      -5.028  45.572 -21.290  1.00  0.00     0.010 C 
HETATM   10  C20 UNL     1      -6.162  44.570 -21.116  1.00  0.00     0.036 C 
HETATM   11  C21 UNL     1      -7.485  45.232 -21.404  1.00  0.00    -0.064 A 
HETATM   12  C22 UNL     1      -8.267  44.783 -22.402  1.00  0.00     0.058 A 
HETATM   13  C23 UNL     1      -9.541  45.445 -22.750  1.00  0.00     0.172 A 
HETATM   14  O6  UNL     1     -10.248  45.030 -23.660  1.00  0.00    -0.289 OA
HETATM   15  C24 UNL     1      -9.922  46.631 -21.962  1.00  0.00     0.052 A 
HETATM   16  C25 UNL     1      -9.143  47.082 -20.971  1.00  0.00    -0.009 A 
HETATM   17  C26 UNL     1      -7.817  46.459 -20.542  1.00  0.00     0.004 A 
HETATM   18  C27 UNL     1      -8.015  45.988 -19.084  1.00  0.00     0.025 C 
HETATM   19  C28 UNL     1      -6.640  47.491 -20.736  1.00  0.00     0.035 C 
HETATM   20  C29 UNL     1      -6.808  48.862 -20.015  1.00  0.00     0.124 C 
HETATM   21  C30 UNL     1      -5.612  49.821 -20.226  1.00  0.00     0.045 C 
HETATM   22  C31 UNL     1      -4.245  49.172 -19.919  1.00  0.00     0.004 C 
HETATM   23  C32 UNL     1      -4.091  48.903 -18.398  1.00  0.00     0.019 C 
ENDROOT
BRANCH   1  24
HETATM   24  C6  UNL     1      -2.494  51.064 -19.536  1.00  0.00     0.188 C 
HETATM   25  O3  UNL     1      -3.274  51.797 -18.921  1.00  0.00    -0.292 OA
BRANCH  24  26
HETATM   26  C5  UNL     1      -0.982  51.295 -19.487  1.00  0.00     0.260 C 
BRANCH  26  27
HETATM   27  O2  UNL     1      -0.580  52.401 -20.297  1.00  0.00    -0.314 OA
BRANCH  27  28
HETATM   28  C4  UNL     1       0.694  52.824 -20.056  1.00  0.00     0.262 C 
HETATM   29  O1  UNL     1       1.179  52.953 -18.937  1.00  0.00    -0.265 OA
BRANCH  28  30
HETATM   30  C2  UNL     1       1.466  53.051 -21.341  1.00  0.00     0.077 C 
HETATM   31  C1  UNL     1       1.726  54.532 -21.602  1.00  0.00     0.020 C 
HETATM   32  C3  UNL     1       0.730  52.397 -22.503  1.00  0.00     0.020 C 
ENDBRANCH  28  30
ENDBRANCH  27  28
ENDBRANCH  26  27
ENDBRANCH  24  26
ENDBRANCH   1  24
BRANCH   3  33
HETATM   33  C9  UNL     1      -2.417  49.854 -23.972  1.00  0.00     0.041 C 
HETATM   34  C10 UNL     1      -3.264  48.570 -24.073  1.00  0.00     0.009 C 
HETATM   35  C11 UNL     1      -4.120  48.496 -25.340  1.00  0.00     0.001 C 
HETATM   36  C12 UNL     1      -3.501  49.277 -26.489  1.00  0.00     0.000 C 
HETATM   37  C13 UNL     1      -3.358  50.761 -26.148  1.00  0.00     0.001 C 
HETATM   38  C14 UNL     1      -3.122  51.029 -24.658  1.00  0.00     0.009 C 
ENDBRANCH   3  33
BRANCH  20  39
HETATM   39  O7  UNL     1      -7.030  48.683 -18.624  1.00  0.00    -0.395 OA
HETATM   40  H39 UNL     1      -7.193  49.558 -18.227  1.00  0.00     0.210 HD
ENDBRANCH  20  39
TORSDOF 7
ENDMDL
