MODEL 1
REMARK minimizedAffinity -9.53430271
REMARK  4 active torsions:
REMARK  status: ('A' for Active; 'I' for Inactive)
REMARK    1  A    between atoms: C4_4  and  C5_5 
REMARK    2  A    between atoms: C5_5  and  C6_7 
REMARK    3  A    between atoms: C6_7  and  C7_8 
REMARK    4  A    between atoms: C7_8  and  C9_10 
ROOT
HETATM    1  C9  UNL     1      -3.405  48.489 -19.850  1.00  0.00    -0.001 C 
HETATM    2  C10 UNL     1      -3.916  47.362 -20.796  1.00  0.00     0.007 C 
HETATM    3  C11 UNL     1      -3.570  47.781 -22.239  1.00  0.00     0.015 C 
HETATM    4  C12 UNL     1      -3.164  49.265 -22.132  1.00  0.00    -0.013 C 
HETATM    5  C13 UNL     1      -4.497  50.082 -22.144  1.00  0.00     0.021 C 
HETATM    6  C14 UNL     1      -2.297  49.855 -23.241  1.00  0.00    -0.070 C 
HETATM    7  C15 UNL     1      -2.417  49.472 -24.526  1.00  0.00    -0.022 C 
HETATM    8  C16 UNL     1      -1.678  50.099 -25.672  1.00  0.00     0.034 C 
HETATM    9  C17 UNL     1      -0.548  51.060 -25.243  1.00  0.00     0.013 C 
HETATM   10  C18 UNL     1       0.179  51.818 -26.420  1.00  0.00     0.018 C 
HETATM   11  C19 UNL     1      -0.505  51.625 -27.791  1.00  0.00     0.023 C 
HETATM   12  C20 UNL     1       1.625  51.287 -26.553  1.00  0.00     0.023 C 
HETATM   13  C21 UNL     1       0.306  53.328 -26.165  1.00  0.00     0.135 C 
HETATM   14  O2  UNL     1       0.248  54.150 -27.084  1.00  0.00    -0.297 OA
HETATM   15  C22 UNL     1       0.613  53.816 -24.770  1.00  0.00     0.080 C 
HETATM   16  C23 UNL     1       0.194  52.860 -23.666  1.00  0.00     0.017 C 
HETATM   17  C24 UNL     1      -1.004  51.955 -24.035  1.00  0.00    -0.031 C 
HETATM   18  C25 UNL     1      -2.239  52.822 -24.379  1.00  0.00     0.016 C 
HETATM   19  C26 UNL     1      -1.327  50.975 -22.836  1.00  0.00     0.024 C 
HETATM   20  C27 UNL     1      -1.749  51.674 -21.521  1.00  0.00     0.010 C 
HETATM   21  C28 UNL     1      -2.107  50.727 -20.348  1.00  0.00     0.011 C 
HETATM   22  C29 UNL     1      -2.398  49.267 -20.761  1.00  0.00    -0.029 C 
HETATM   23  C30 UNL     1      -1.054  48.468 -20.791  1.00  0.00     0.016 C 
ENDROOT
BRANCH   1  24
HETATM   24  C7  UNL     1      -2.931  47.942 -18.474  1.00  0.00    -0.007 C 
HETATM   25  C8  UNL     1      -3.026  46.416 -18.367  1.00  0.00     0.011 C 
BRANCH  24  26
HETATM   26  C6  UNL     1      -1.512  48.423 -18.087  1.00  0.00     0.087 C 
BRANCH  26  27
HETATM   27  C5  UNL     1      -1.419  49.394 -16.918  1.00  0.00     0.149 C 
HETATM   28  O1  UNL     1      -2.086  49.288 -15.895  1.00  0.00    -0.293 OA
BRANCH  27  29
HETATM   29  C4  UNL     1      -0.486  50.549 -17.118  1.00  0.00     0.052 C 
HETATM   30  C2  UNL     1       0.581  50.836 -16.349  1.00  0.00    -0.084 C 
HETATM   31  C1  UNL     1       1.409  52.065 -16.622  1.00  0.00     0.043 C 
HETATM   32  C3  UNL     1       1.058  50.011 -15.183  1.00  0.00     0.043 C 
ENDBRANCH  27  29
ENDBRANCH  26  27
ENDBRANCH  24  26
ENDBRANCH   1  24
TORSDOF 4
ENDMDL
