MODEL 1
REMARK minimizedAffinity -9.18680573
REMARK  8 active torsions:
REMARK  status: ('A' for Active; 'I' for Inactive)
REMARK    1  A    between atoms: C4_4  and  C5_5 
REMARK    2  A    between atoms: C5_5  and  C6_6 
REMARK    3  A    between atoms: C6_6  and  C7_7 
REMARK    4  A    between atoms: C9_9  and  C10_10 
REMARK    5  A    between atoms: C11_11  and  C12_12 
REMARK    6  A    between atoms: C14_14  and  C15_15 
REMARK    7  A    between atoms: C24_25  and  C26_27 
REMARK    8  A    between atoms: C29_31  and  O3_33 
ROOT
HETATM    1  C15 UNL     1      -7.114  47.303 -27.880  1.00  0.00     0.149 C 
HETATM    2  C16 UNL     1      -6.793  46.130 -28.797  1.00  0.00     0.054 C 
HETATM    3  C17 UNL     1      -7.899  46.162 -29.905  1.00  0.00     0.050 C 
HETATM    4  C18 UNL     1      -8.690  47.446 -29.502  1.00  0.00     0.272 C 
HETATM    5  O1  UNL     1      -9.339  48.199 -30.513  1.00  0.00    -0.360 OA
HETATM    6  C19 UNL     1      -8.494  48.895 -31.405  1.00  0.00     0.171 C 
HETATM    7  C20 UNL     1      -8.304  48.105 -32.689  1.00  0.00     0.027 C 
HETATM    8  C21 UNL     1      -8.073  46.606 -32.492  1.00  0.00     0.012 C 
HETATM    9  C22 UNL     1      -7.159  46.282 -31.292  1.00  0.00     0.032 C 
HETATM   10  C23 UNL     1      -6.307  45.029 -31.588  1.00  0.00    -0.066 C 
HETATM   11  C24 UNL     1      -5.134  45.047 -32.273  1.00  0.00    -0.021 C 
HETATM   12  C25 UNL     1      -4.224  43.864 -32.482  1.00  0.00     0.052 C 
HETATM   13  C27 UNL     1      -6.848  43.737 -31.002  1.00  0.00     0.038 C 
HETATM   14  C28 UNL     1      -8.358  43.765 -30.825  1.00  0.00     0.042 C 
HETATM   15  C29 UNL     1      -8.848  44.894 -29.893  1.00  0.00     0.067 C 
HETATM   16  C30 UNL     1      -9.119  44.321 -28.487  1.00  0.00     0.047 C 
HETATM   17  O4  UNL     1      -7.796  48.243 -28.706  1.00  0.00    -0.351 OA
ENDROOT
BRANCH   1  18
HETATM   18  C14 UNL     1      -5.923  47.893 -27.179  1.00  0.00     0.011 C 
HETATM   19  C12 UNL     1      -5.688  48.078 -25.862  1.00  0.00    -0.063 C 
HETATM   20  C13 UNL     1      -6.689  47.765 -24.781  1.00  0.00     0.048 C 
BRANCH  19  21
HETATM   21  C11 UNL     1      -4.395  48.634 -25.456  1.00  0.00     0.006 C 
HETATM   22  C10 UNL     1      -3.971  48.836 -24.196  1.00  0.00     0.001 C 
BRANCH  22  23
HETATM   23  C9  UNL     1      -2.663  49.384 -23.890  1.00  0.00     0.002 C 
HETATM   24  C7  UNL     1      -2.328  50.686 -23.779  1.00  0.00    -0.084 C 
HETATM   25  C8  UNL     1      -3.281  51.841 -23.980  1.00  0.00     0.043 C 
BRANCH  24  26
HETATM   26  C6  UNL     1      -0.919  51.164 -23.435  1.00  0.00     0.037 C 
BRANCH  26  27
HETATM   27  C5  UNL     1      -0.393  52.425 -24.136  1.00  0.00     0.031 C 
BRANCH  27  28
HETATM   28  C4  UNL     1       0.908  52.156 -24.847  1.00  0.00    -0.024 C 
HETATM   29  C2  UNL     1       1.084  51.577 -26.050  1.00  0.00    -0.091 C 
HETATM   30  C1  UNL     1       2.465  51.418 -26.631  1.00  0.00     0.042 C 
HETATM   31  C3  UNL     1      -0.018  51.030 -26.916  1.00  0.00     0.042 C 
ENDBRANCH  27  28
ENDBRANCH  26  27
ENDBRANCH  24  26
ENDBRANCH  22  23
ENDBRANCH  19  21
ENDBRANCH   1  18
BRANCH  15  32
HETATM   32  O3  UNL     1     -10.142  45.277 -30.386  1.00  0.00    -0.389 OA
HETATM   33  H44 UNL     1     -10.709  44.488 -30.445  1.00  0.00     0.210 HD
ENDBRANCH  15  32
BRANCH  11  34
HETATM   34  C26 UNL     1      -4.602  46.296 -32.910  1.00  0.00     0.265 C 
HETATM   35  O2  UNL     1      -3.808  47.041 -32.344  1.00  0.00    -0.302 OA
ENDBRANCH  11  34
TORSDOF 8
ENDMDL
