MODEL 1
REMARK minimizedAffinity -8.83966637
REMARK  5 active torsions:
REMARK  status: ('A' for Active; 'I' for Inactive)
REMARK    1  A    between atoms: C2_2  and  C3_3 
REMARK    2  A    between atoms: C4_5  and  C5_6 
REMARK    3  A    between atoms: C5_6  and  C6_7 
REMARK    4  A    between atoms: C6_7  and  C7_8 
REMARK    5  A    between atoms: C7_8  and  C9_10 
ROOT
HETATM    1  C9  UNL     1      -5.990   7.411  14.557  1.00  0.00    -0.002 C 
HETATM    2  C10 UNL     1      -5.653   8.706  15.332  1.00  0.00     0.007 C 
HETATM    3  C11 UNL     1      -4.141   8.963  15.124  1.00  0.00     0.015 C 
HETATM    4  C12 UNL     1      -3.728   8.037  13.958  1.00  0.00    -0.005 C 
HETATM    5  C13 UNL     1      -4.098   8.771  12.633  1.00  0.00     0.021 C 
HETATM    6  C14 UNL     1      -2.279   7.615  13.760  1.00  0.00    -0.000 C 
HETATM    7  C15 UNL     1      -1.956   6.423  13.194  1.00  0.00    -0.060 C 
HETATM    8  C16 UNL     1      -3.058   5.408  12.825  1.00  0.00     0.036 C 
HETATM    9  C17 UNL     1      -4.519   5.792  13.137  1.00  0.00     0.015 C 
HETATM   10  C18 UNL     1      -4.598   6.766  14.314  1.00  0.00    -0.028 C 
HETATM   11  C19 UNL     1      -4.082   6.037  15.591  1.00  0.00     0.016 C 
HETATM   12  C20 UNL     1      -0.500   5.974  12.920  1.00  0.00    -0.014 C 
HETATM   13  C21 UNL     1      -0.136   4.907  13.991  1.00  0.00     0.020 C 
HETATM   14  C22 UNL     1      -0.385   5.308  11.516  1.00  0.00     0.021 C 
HETATM   15  C23 UNL     1       1.010   5.407  10.924  1.00  0.00     0.080 C 
HETATM   16  C24 UNL     1       1.331   6.859  10.656  1.00  0.00     0.135 C 
HETATM   17  O2  UNL     1       1.958   7.175   9.644  1.00  0.00    -0.297 OA
HETATM   18  C25 UNL     1       0.859   7.898  11.692  1.00  0.00     0.018 C 
HETATM   19  C26 UNL     1       2.025   8.895  11.884  1.00  0.00     0.023 C 
HETATM   20  C27 UNL     1      -0.323   8.664  11.081  1.00  0.00     0.023 C 
HETATM   21  C28 UNL     1       0.545   7.149  13.039  1.00  0.00     0.020 C 
HETATM   22  C29 UNL     1       0.207   8.054  14.228  1.00  0.00     0.090 C 
HETATM   23  C30 UNL     1      -1.204   8.566  14.173  1.00  0.00     0.157 C 
HETATM   24  O3  UNL     1      -1.461   9.722  14.498  1.00  0.00    -0.293 OA
ENDROOT
BRANCH   1  25
HETATM   25  C7  UNL     1      -7.211   6.575  15.027  1.00  0.00    -0.014 C 
HETATM   26  C8  UNL     1      -7.397   6.748  16.547  1.00  0.00     0.010 C 
BRANCH  25  27
HETATM   27  C6  UNL     1      -7.362   5.084  14.656  1.00  0.00     0.008 C 
BRANCH  27  28
HETATM   28  C5  UNL     1      -8.011   4.744  13.312  1.00  0.00     0.028 C 
BRANCH  28  29
HETATM   29  C4  UNL     1      -6.989   4.198  12.351  1.00  0.00    -0.017 C 
HETATM   30  C2  UNL     1      -6.684   2.906  12.133  1.00  0.00    -0.028 C 
HETATM   31  C1  UNL     1      -7.319   1.709  12.766  1.00  0.00     0.051 C 
BRANCH  30  32
HETATM   32  C3  UNL     1      -5.611   2.601  11.136  1.00  0.00     0.265 C 
HETATM   33  O1  UNL     1      -5.464   3.205  10.081  1.00  0.00    -0.302 OA
ENDBRANCH  30  32
ENDBRANCH  28  29
ENDBRANCH  27  28
ENDBRANCH  25  27
ENDBRANCH   1  25
TORSDOF 5
ENDMDL
