MODEL 1
REMARK minimizedAffinity -6.95523071
REMARK CNNscore 0.432166338
REMARK CNNaffinity 6.39980459
REMARK  9 active torsions:
REMARK  status: ('A' for Active; 'I' for Inactive)
REMARK    1  A    between atoms: C12_14  and  C13_15 
REMARK    2  A    between atoms: C13_15  and  C15_17 
REMARK    3  A    between atoms: C15_17  and  C16_18 
REMARK    4  A    between atoms: C16_18  and  C17_19 
REMARK    5  A    between atoms: C18_20  and  C20_22 
REMARK    6  A    between atoms: C26_29  and  C27_30 
REMARK    7  A    between atoms: C27_30  and  C28_31 
REMARK    8  A    between atoms: C28_31  and  C29_32 
REMARK    9  A    between atoms: C29_32  and  O5_34 
ROOT
HETATM    1  C1  UNL     1     -10.798  44.598 -20.269  1.00  0.00     0.025 C 
HETATM    2  C2  UNL     1     -10.002  45.288 -21.097  1.00  0.00     0.015 C 
HETATM    3  C3  UNL     1      -9.273  44.597 -22.183  1.00  0.00     0.289 C 
HETATM    4  O1  UNL     1      -9.079  43.399 -22.281  1.00  0.00    -0.260 OA
HETATM    5  O2  UNL     1      -8.850  45.544 -23.059  1.00  0.00    -0.311 OA
HETATM    6  C4  UNL     1      -9.404  46.817 -22.700  1.00  0.00     0.142 C 
HETATM    7  C5  UNL     1      -8.433  47.922 -23.075  1.00  0.00     0.039 C 
HETATM    8  C6  UNL     1      -7.100  47.767 -22.327  1.00  0.00     0.006 C 
HETATM    9  C7  UNL     1      -7.332  47.880 -20.803  1.00  0.00    -0.027 A 
HETATM   10  C8  UNL     1      -6.608  49.035 -20.101  1.00  0.00     0.011 C 
HETATM   11  C9  UNL     1      -5.161  49.324 -20.546  1.00  0.00     0.011 C 
HETATM   12  C10 UNL     1      -4.754  48.681 -21.879  1.00  0.00    -0.032 C 
HETATM   13  C11 UNL     1      -4.243  47.237 -21.587  1.00  0.00     0.016 C 
HETATM   14  C12 UNL     1      -3.668  49.437 -22.716  1.00  0.00    -0.002 C 
HETATM   15  C21 UNL     1      -3.953  48.939 -24.164  1.00  0.00     0.006 C 
HETATM   16  C22 UNL     1      -5.356  48.309 -24.176  1.00  0.00     0.011 C 
HETATM   17  C23 UNL     1      -5.994  48.736 -22.841  1.00  0.00    -0.032 C 
HETATM   18  C24 UNL     1      -6.570  50.170 -23.075  1.00  0.00     0.016 C 
HETATM   19  C25 UNL     1      -7.436  46.598 -19.997  1.00  0.00     0.022 A 
HETATM   20  C26 UNL     1      -8.708  47.372 -20.255  1.00  0.00    -0.021 A 
HETATM   21  C30 UNL     1      -9.758  46.758 -21.216  1.00  0.00     0.063 C 
ENDROOT
BRANCH  14  22
HETATM   22  C13 UNL     1      -2.160  49.318 -22.336  1.00  0.00    -0.014 C 
HETATM   23  C14 UNL     1      -1.875  48.050 -21.522  1.00  0.00     0.010 C 
BRANCH  22  24
HETATM   24  C15 UNL     1      -1.703  50.575 -21.542  1.00  0.00     0.008 C 
BRANCH  24  25
HETATM   25  C16 UNL     1      -0.210  50.586 -21.193  1.00  0.00     0.028 C 
BRANCH  25  26
HETATM   26  C17 UNL     1       0.344  51.983 -21.241  1.00  0.00    -0.017 C 
HETATM   27  C18 UNL     1       0.473  52.844 -20.213  1.00  0.00    -0.028 C 
HETATM   28  C19 UNL     1       0.049  52.625 -18.796  1.00  0.00     0.051 C 
BRANCH  27  29
HETATM   29  C20 UNL     1       1.079  54.182 -20.495  1.00  0.00     0.265 C 
HETATM   30  O3  UNL     1       1.877  54.398 -21.399  1.00  0.00    -0.302 OA
ENDBRANCH  27  29
ENDBRANCH  25  26
ENDBRANCH  24  25
ENDBRANCH  22  24
ENDBRANCH  14  22
BRANCH  20  31
HETATM   31  C27 UNL     1      -9.324  48.169 -19.096  1.00  0.00     0.021 C 
BRANCH  31  32
HETATM   32  C28 UNL     1     -10.759  47.784 -18.755  1.00  0.00     0.111 C 
BRANCH  32  33
HETATM   33  C29 UNL     1     -10.965  47.668 -17.268  1.00  0.00     0.139 C 
HETATM   34  O4  UNL     1     -10.140  47.834 -16.388  1.00  0.00    -0.650 OA
BRANCH  33  35
HETATM   35  O5  UNL     1     -12.238  47.343 -16.966  1.00  0.00    -0.776 OA
HETATM   36  H41 UNL     1     -12.245  47.292 -15.987  1.00  0.00     0.167 HD
ENDBRANCH  33  35
ENDBRANCH  32  33
ENDBRANCH  31  32
ENDBRANCH  20  31
TORSDOF 9
ENDMDL
