MODEL 1
REMARK minimizedAffinity -9.20328236
REMARK CNNscore 0.594024241
REMARK CNNaffinity 7.03901529
REMARK  14 active torsions:
REMARK  status: ('A' for Active; 'I' for Inactive)
REMARK    1  A    between atoms: C19_20  and  O2_21 
REMARK    2  A    between atoms: C19_20  and  C20_22 
REMARK    3  A    between atoms: C20_22  and  C21_24 
REMARK    4  A    between atoms: C21_24  and  O4_25 
REMARK    5  A    between atoms: O4_25  and  C22_26 
REMARK    6  A    between atoms: C22_26  and  C23_28 
REMARK    7  A    between atoms: C23_28  and  C24_29 
REMARK    8  A    between atoms: C24_29  and  C25_30 
REMARK       I    between atoms: C25_30  and  N1_32 
REMARK    9  A    between atoms: N1_32  and  C26_33 
REMARK   10  A    between atoms: C26_33  and  C27_34 
REMARK   11  A    between atoms: C27_34  and  C28_35 
REMARK   12  A    between atoms: C27_34  and  C30_39 
REMARK   13  A    between atoms: C28_35  and  C29_36 
REMARK   14  A    between atoms: C29_36  and  O8_38 
ROOT
HETATM    1  C20 UNL     1      -5.793  47.764 -30.639  1.00  0.00     0.185 C 
HETATM    2  O3  UNL     1      -5.287  46.906 -31.374  1.00  0.00    -0.292 OA
ENDROOT
BRANCH   1   3
HETATM    3  C19 UNL     1      -7.339  47.877 -30.582  1.00  0.00     0.128 C 
HETATM    4  C14 UNL     1      -8.127  46.992 -29.565  1.00  0.00    -0.002 C 
HETATM    5  C13 UNL     1      -8.007  47.390 -28.084  1.00  0.00     0.013 C 
HETATM    6  C15 UNL     1      -7.796  45.487 -29.716  1.00  0.00     0.019 C 
HETATM    7  C16 UNL     1      -9.578  47.323 -30.016  1.00  0.00     0.002 C 
HETATM    8  C12 UNL     1      -9.064  46.685 -27.215  1.00  0.00     0.007 C 
HETATM    9  C11 UNL     1     -10.517  46.899 -27.722  1.00  0.00     0.002 C 
HETATM   10  C2  UNL     1     -11.617  46.205 -26.830  1.00  0.00    -0.016 C 
HETATM   11  C10 UNL     1     -10.656  46.556 -29.239  1.00  0.00    -0.004 C 
HETATM   12  C1  UNL     1     -11.391  44.681 -26.716  1.00  0.00     0.020 C 
HETATM   13  C3  UNL     1     -11.556  46.830 -25.404  1.00  0.00     0.022 C 
HETATM   14  C7  UNL     1     -13.000  46.443 -27.452  1.00  0.00    -0.068 C 
HETATM   15  C4  UNL     1     -12.794  46.558 -24.560  1.00  0.00     0.084 C 
HETATM   16  C5  UNL     1     -14.027  47.029 -25.285  1.00  0.00     0.149 C 
HETATM   17  O1  UNL     1     -14.997  47.498 -24.700  1.00  0.00    -0.293 OA
HETATM   18  C6  UNL     1     -14.077  46.849 -26.752  1.00  0.00     0.053 C 
HETATM   19  C8  UNL     1     -13.132  46.179 -28.933  1.00  0.00     0.035 C 
HETATM   20  C9  UNL     1     -12.063  46.913 -29.735  1.00  0.00     0.010 C 
HETATM   21  C17 UNL     1      -9.512  47.173 -31.534  1.00  0.00     0.009 C 
HETATM   22  C18 UNL     1      -8.093  47.656 -31.914  1.00  0.00     0.047 C 
BRANCH   3  23
HETATM   23  O2  UNL     1      -7.593  49.265 -30.228  1.00  0.00    -0.381 OA
HETATM   24  H27 UNL     1      -6.757  49.757 -30.379  1.00  0.00     0.211 HD
ENDBRANCH   3  23
ENDBRANCH   1   3
BRANCH   1  25
HETATM   25  C21 UNL     1      -4.881  48.683 -29.833  1.00  0.00     0.260 C 
BRANCH  25  26
HETATM   26  O4  UNL     1      -4.553  48.267 -28.514  1.00  0.00    -0.314 OA
BRANCH  26  27
HETATM   27  C22 UNL     1      -3.627  49.050 -27.888  1.00  0.00     0.259 C 
HETATM   28  O5  UNL     1      -3.283  50.155 -28.272  1.00  0.00    -0.265 OA
BRANCH  27  29
HETATM   29  C23 UNL     1      -3.126  48.379 -26.635  1.00  0.00     0.120 C 
BRANCH  29  30
HETATM   30  C24 UNL     1      -3.832  48.972 -25.425  1.00  0.00     0.112 C 
BRANCH  30  31
HETATM   31  C25 UNL     1      -2.961  49.986 -24.707  1.00  0.00     0.218 C 
HETATM   32  O6  UNL     1      -2.354  49.734 -23.674  1.00  0.00    -0.274 OA
HETATM   33  N1  UNL     1      -2.980  51.230 -25.301  1.00  0.00    -0.360 N 
HETATM   34  H34 UNL     1      -3.344  51.301 -26.243  1.00  0.00     0.162 HD
BRANCH  33  35
HETATM   35  C26 UNL     1      -2.061  52.279 -24.884  1.00  0.00     0.132 C 
BRANCH  35  36
HETATM   36  C27 UNL     1      -0.641  51.741 -24.571  1.00  0.00     0.046 C 
BRANCH  36  37
HETATM   37  C28 UNL     1       0.050  52.562 -23.470  1.00  0.00     0.120 C 
BRANCH  37  38
HETATM   38  C29 UNL     1      -0.150  51.984 -22.095  1.00  0.00     0.140 C 
HETATM   39  O7  UNL     1       0.697  51.742 -21.254  1.00  0.00    -0.650 OA
BRANCH  38  40
HETATM   40  O8  UNL     1      -1.451  51.740 -21.841  1.00  0.00    -0.776 OA
HETATM   41  H40 UNL     1      -1.450  51.390 -20.926  1.00  0.00     0.167 HD
ENDBRANCH  38  40
ENDBRANCH  37  38
ENDBRANCH  36  37
BRANCH  36  42
HETATM   42  C30 UNL     1       0.232  51.711 -25.825  1.00  0.00    -0.052 A 
HETATM   43  C31 UNL     1       1.635  51.691 -25.756  1.00  0.00     0.007 A 
HETATM   44  C32 UNL     1       2.403  51.693 -26.922  1.00  0.00     0.001 A 
HETATM   45  C33 UNL     1       1.782  51.709 -28.171  1.00  0.00     0.000 A 
HETATM   46  C34 UNL     1       0.393  51.719 -28.253  1.00  0.00     0.001 A 
HETATM   47  C35 UNL     1      -0.379  51.722 -27.089  1.00  0.00     0.007 A 
ENDBRANCH  36  42
ENDBRANCH  35  36
ENDBRANCH  33  35
ENDBRANCH  30  31
ENDBRANCH  29  30
ENDBRANCH  27  29
ENDBRANCH  26  27
ENDBRANCH  25  26
ENDBRANCH   1  25
TORSDOF 14
ENDMDL
