MODEL 1
REMARK minimizedAffinity -7.19095373
REMARK CNNscore 0.319162965
REMARK CNNaffinity 6.44796133
REMARK  13 active torsions:
REMARK  status: ('A' for Active; 'I' for Inactive)
REMARK    1  A    between atoms: C3_3  and  C4_4 
REMARK    2  A    between atoms: C5_6  and  O2_7 
REMARK    3  A    between atoms: C5_6  and  C6_8 
REMARK    4  A    between atoms: C6_8  and  C8_10 
REMARK    5  A    between atoms: C8_10  and  O3_11 
REMARK    6  A    between atoms: C8_10  and  C9_12 
REMARK    7  A    between atoms: C9_12  and  C11_14 
REMARK    8  A    between atoms: C12_15  and  O4_16 
REMARK    9  A    between atoms: C22_26  and  O5_27 
REMARK   10  A    between atoms: C23_28  and  C24_29 
REMARK   11  A    between atoms: C26_31  and  O6_32 
REMARK   12  A    between atoms: C33_39  and  O7_40 
REMARK   13  A    between atoms: C39_48  and  O10_49 
ROOT
HETATM    1  C11 UNL     1     -13.038  10.965  20.686  1.00  0.00     0.032 C 
HETATM    2  C12 UNL     1     -11.690  11.149  19.886  1.00  0.00     0.154 C 
HETATM    3  C14 UNL     1     -11.513  10.087  18.800  1.00  0.00    -0.051 C 
HETATM    4  C15 UNL     1     -11.149  10.331  17.523  1.00  0.00     0.006 C 
HETATM    5  C16 UNL     1     -11.033   9.364  16.451  1.00  0.00     0.003 C 
HETATM    6  C17 UNL     1     -10.708   9.615  15.165  1.00  0.00    -0.083 C 
HETATM    7  C18 UNL     1     -10.366  10.972  14.611  1.00  0.00     0.043 C 
HETATM    8  C19 UNL     1     -10.583   8.452  14.193  1.00  0.00     0.040 C 
HETATM    9  C20 UNL     1     -11.788   8.154  13.260  1.00  0.00     0.014 C 
HETATM   10  C21 UNL     1     -11.959   9.260  12.218  1.00  0.00     0.012 C 
HETATM   11  C22 UNL     1     -13.095   7.793  14.038  1.00  0.00     0.128 C 
HETATM   12  C23 UNL     1     -14.255   7.248  13.127  1.00  0.00     0.044 C 
HETATM   13  C26 UNL     1     -15.141   8.382  12.507  1.00  0.00     0.132 C 
HETATM   14  C27 UNL     1     -16.346   8.906  13.347  1.00  0.00     0.034 C 
HETATM   15  C28 UNL     1     -17.178   9.912  12.536  1.00  0.00     0.017 C 
HETATM   16  C29 UNL     1     -15.920   9.590  14.626  1.00  0.00    -0.013 C 
HETATM   17  C30 UNL     1     -16.361   9.369  15.883  1.00  0.00    -0.062 C 
HETATM   18  C31 UNL     1     -17.447   8.385  16.228  1.00  0.00     0.048 C 
HETATM   19  C32 UNL     1     -15.761  10.153  16.967  1.00  0.00     0.047 C 
HETATM   20  C33 UNL     1     -15.843   9.984  18.303  1.00  0.00     0.123 C 
HETATM   21  C35 UNL     1     -15.006  10.777  19.197  1.00  0.00     0.257 C 
HETATM   22  O8  UNL     1     -15.520  11.855  19.587  1.00  0.00    -0.281 OA
HETATM   23  O9  UNL     1     -13.955  10.130  19.931  1.00  0.00     0.000 OA
HETATM   24  C36 UNL     1     -13.483   8.852  19.470  1.00  0.00     0.005 C 
HETATM   25  C37 UNL     1     -11.970   8.758  19.325  1.00  0.00     0.037 C 
ENDROOT
BRANCH   1  26
HETATM   26  C9  UNL     1     -12.866  10.403  22.154  1.00  0.00     0.018 C 
HETATM   27  C10 UNL     1     -11.428  10.637  22.702  1.00  0.00     0.013 C 
BRANCH  26  28
HETATM   28  C8  UNL     1     -13.126   8.862  22.291  1.00  0.00     0.131 C 
BRANCH  28  29
HETATM   29  C6  UNL     1     -14.185   8.373  23.319  1.00  0.00     0.073 C 
HETATM   30  C7  UNL     1     -13.734   8.677  24.754  1.00  0.00     0.018 C 
BRANCH  29  31
HETATM   31  C5  UNL     1     -14.514   6.850  23.121  1.00  0.00     0.170 C 
HETATM   32  O1  UNL     1     -13.549   6.081  23.848  1.00  0.00    -0.345 OA
HETATM   33  C4  UNL     1     -13.960   4.729  24.062  1.00  0.00     0.153 C 
HETATM   34  C40 UNL     1     -15.098   4.696  25.106  1.00  0.00     0.043 C 
HETATM   35  C39 UNL     1     -16.041   5.899  24.919  1.00  0.00     0.129 C 
HETATM   36  C41 UNL     1     -14.604   4.692  26.561  1.00  0.00     0.015 C 
HETATM   37  C38 UNL     1     -15.961   6.486  23.514  1.00  0.00     0.101 C 
BRANCH  33  38
HETATM   38  C3  UNL     1     -12.784   3.848  24.406  1.00  0.00     0.001 C 
HETATM   39  C2  UNL     1     -12.675   2.523  24.207  1.00  0.00    -0.033 C 
HETATM   40  C1  UNL     1     -11.472   1.718  24.581  1.00  0.00     0.036 C 
ENDBRANCH  33  38
BRANCH  35  41
HETATM   41  O10 UNL     1     -17.381   5.468  25.172  1.00  0.00    -0.395 OA
HETATM   42  H63 UNL     1     -17.940   6.260  25.242  1.00  0.00     0.210 HD
ENDBRANCH  35  41
BRANCH  31  43
HETATM   43  O2  UNL     1     -14.345   6.611  21.725  1.00  0.00    -0.365 OA
HETATM   44  H7  UNL     1     -14.796   5.787  21.483  1.00  0.00     0.213 HD
ENDBRANCH  31  43
ENDBRANCH  29  31
ENDBRANCH  28  29
BRANCH  28  45
HETATM   45  O3  UNL     1     -11.869   8.260  22.638  1.00  0.00    -0.395 OA
HETATM   46  H13 UNL     1     -12.037   7.295  22.665  1.00  0.00     0.210 HD
ENDBRANCH  28  45
ENDBRANCH  26  28
ENDBRANCH   1  26
BRANCH   2  47
HETATM   47  O4  UNL     1     -11.643  12.466  19.323  1.00  0.00    -0.386 OA
HETATM   48  C13 UNL     1     -12.347  13.448  20.074  1.00  0.00     0.202 C 
ENDBRANCH   2  47
BRANCH  20  49
HETATM   49  O7  UNL     1     -16.506   8.916  18.889  1.00  0.00    -0.352 OA
HETATM   50  C34 UNL     1     -17.591   9.373  19.700  1.00  0.00     0.210 C 
ENDBRANCH  20  49
BRANCH  11  51
HETATM   51  O5  UNL     1     -12.734   6.799  15.012  1.00  0.00    -0.395 OA
HETATM   52  H35 UNL     1     -12.377   6.031  14.530  1.00  0.00     0.210 HD
ENDBRANCH  11  51
BRANCH  13  53
HETATM   53  O6  UNL     1     -15.647   7.904  11.247  1.00  0.00    -0.394 OA
HETATM   54  H43 UNL     1     -14.888   7.765  10.656  1.00  0.00     0.210 HD
ENDBRANCH  13  53
BRANCH  12  55
HETATM   55  C24 UNL     1     -15.083   6.122  13.811  1.00  0.00     0.005 C 
HETATM   56  C25 UNL     1     -14.978   6.088  15.331  1.00  0.00     0.005 C 
ENDBRANCH  12  55
TORSDOF 13
ENDMDL
