MODEL 1
REMARK minimizedAffinity -9.73515034
REMARK  6 active torsions:
REMARK  status: ('A' for Active; 'I' for Inactive)
REMARK    1  A    between atoms: C4_4  and  C5_5 
REMARK    2  A    between atoms: C5_5  and  C6_6 
REMARK    3  A    between atoms: C6_6  and  C7_7 
REMARK    4  A    between atoms: C7_7  and  C9_9 
REMARK    5  A    between atoms: C16_16  and  O1_17 
REMARK    6  A    between atoms: C19_20  and  O2_21 
ROOT
HETATM    1  C9  UNL     1      -4.953  49.564 -22.848  1.00  0.00    -0.002 C 
HETATM    2  C10 UNL     1      -5.033  48.117 -22.290  1.00  0.00     0.006 C 
HETATM    3  C11 UNL     1      -4.215  48.088 -20.980  1.00  0.00     0.011 C 
HETATM    4  C12 UNL     1      -3.124  49.140 -21.214  1.00  0.00    -0.032 C 
HETATM    5  C13 UNL     1      -2.069  48.474 -22.147  1.00  0.00     0.016 C 
HETATM    6  C14 UNL     1      -2.394  49.708 -19.966  1.00  0.00     0.006 C 
HETATM    7  C15 UNL     1      -1.732  48.664 -19.062  1.00  0.00     0.038 C 
HETATM    8  C16 UNL     1      -1.166  49.357 -17.823  1.00  0.00     0.123 C 
HETATM    9  C17 UNL     1      -0.042  50.358 -18.152  1.00  0.00     0.026 C 
HETATM   10  C18 UNL     1       0.215  51.249 -16.924  1.00  0.00     0.039 C 
HETATM   11  C19 UNL     1       1.391  52.201 -17.139  1.00  0.00     0.118 C 
HETATM   12  C20 UNL     1       1.445  52.787 -18.552  1.00  0.00     0.032 C 
HETATM   13  C21 UNL     1       0.099  52.672 -19.266  1.00  0.00     0.013 C 
HETATM   14  C22 UNL     1      -0.309  51.212 -19.408  1.00  0.00    -0.025 A 
HETATM   15  C23 UNL     1       0.026  50.534 -20.720  1.00  0.00     0.021 A 
HETATM   16  C24 UNL     1      -1.426  50.829 -20.404  1.00  0.00    -0.027 A 
HETATM   17  C25 UNL     1      -2.083  51.920 -21.269  1.00  0.00     0.011 C 
HETATM   18  C26 UNL     1      -3.004  51.378 -22.390  1.00  0.00     0.011 C 
HETATM   19  C27 UNL     1      -3.969  50.300 -21.867  1.00  0.00    -0.032 C 
HETATM   20  C28 UNL     1      -4.935  51.034 -20.859  1.00  0.00     0.016 C 
ENDROOT
BRANCH   1  21
HETATM   21  C7  UNL     1      -4.785  49.770 -24.381  1.00  0.00    -0.014 C 
HETATM   22  C8  UNL     1      -3.842  50.881 -24.839  1.00  0.00     0.010 C 
BRANCH  21  23
HETATM   23  C6  UNL     1      -4.452  48.446 -25.125  1.00  0.00     0.008 C 
BRANCH  23  24
HETATM   24  C5  UNL     1      -3.279  48.495 -26.106  1.00  0.00     0.028 C 
BRANCH  24  25
HETATM   25  C4  UNL     1      -3.767  48.481 -27.531  1.00  0.00    -0.025 C 
HETATM   26  C2  UNL     1      -4.983  48.112 -27.978  1.00  0.00    -0.091 C 
HETATM   27  C1  UNL     1      -6.131  47.680 -27.106  1.00  0.00     0.042 C 
HETATM   28  C3  UNL     1      -5.294  48.119 -29.453  1.00  0.00     0.042 C 
ENDBRANCH  24  25
ENDBRANCH  23  24
ENDBRANCH  21  23
ENDBRANCH   1  21
BRANCH   8  29
HETATM   29  O1  UNL     1      -0.671  48.354 -16.930  1.00  0.00    -0.395 OA
HETATM   30  H28 UNL     1      -0.003  47.832 -17.407  1.00  0.00     0.210 HD
ENDBRANCH   8  29
BRANCH  11  31
HETATM   31  O2  UNL     1       1.281  53.255 -16.182  1.00  0.00    -0.396 OA
HETATM   32  H33 UNL     1       2.059  53.829 -16.284  1.00  0.00     0.210 HD
ENDBRANCH  11  31
TORSDOF 6
ENDMDL
