MODEL 1
REMARK minimizedAffinity -8.07642651
REMARK  11 active torsions:
REMARK  status: ('A' for Active; 'I' for Inactive)
REMARK    1  A    between atoms: C2_2  and  O2_4 
REMARK    2  A    between atoms: O2_4  and  C3_5 
REMARK    3  A    between atoms: C3_5  and  C4_6 
REMARK    4  A    between atoms: C5_7  and  C6_8 
REMARK    5  A    between atoms: C5_7  and  C9_13 
REMARK    6  A    between atoms: C6_8  and  O3_9 
REMARK    7  A    between atoms: O3_9  and  C7_10 
REMARK    8  A    between atoms: C9_13  and  C10_14 
REMARK    9  A    between atoms: C9_13  and  O6_29 
REMARK   10  A    between atoms: C10_14  and  C11_15 
REMARK   11  A    between atoms: O6_29  and  C24_30 
ROOT
HETATM    1  C9  UNL     1      -1.777  51.258 -25.070  1.00  0.00     0.163 C 
ENDROOT
BRANCH   1   2
HETATM    2  C5  UNL     1      -0.579  52.065 -24.564  1.00  0.00    -0.028 C 
HETATM    3  C4  UNL     1      -0.186  52.089 -23.271  1.00  0.00     0.007 C 
BRANCH   3   4
HETATM    4  C3  UNL     1       0.952  52.838 -22.640  1.00  0.00     0.206 C 
BRANCH   4   5
HETATM    5  O2  UNL     1       1.070  52.421 -21.273  1.00  0.00    -0.318 OA
BRANCH   5   6
HETATM    6  C2  UNL     1       1.237  53.412 -20.359  1.00  0.00     0.255 C 
HETATM    7  C1  UNL     1       0.863  52.917 -18.996  1.00  0.00     0.126 C 
HETATM    8  O1  UNL     1       1.644  54.541 -20.595  1.00  0.00    -0.266 OA
ENDBRANCH   5   6
ENDBRANCH   4   5
ENDBRANCH   3   4
BRANCH   2   9
HETATM    9  C6  UNL     1       0.144  52.794 -25.678  1.00  0.00     0.215 C 
BRANCH   9  10
HETATM   10  O3  UNL     1       1.545  52.541 -25.531  1.00  0.00    -0.317 OA
BRANCH  10  11
HETATM   11  C7  UNL     1       2.045  51.674 -26.451  1.00  0.00     0.255 C 
HETATM   12  C8  UNL     1       1.386  51.899 -27.778  1.00  0.00     0.126 C 
HETATM   13  O4  UNL     1       2.912  50.838 -26.241  1.00  0.00    -0.266 OA
ENDBRANCH  10  11
ENDBRANCH   9  10
ENDBRANCH   2   9
ENDBRANCH   1   2
BRANCH   1  14
HETATM   14  C10 UNL     1      -1.994  49.808 -24.554  1.00  0.00     0.047 C 
BRANCH  14  15
HETATM   15  C11 UNL     1      -3.448  49.251 -24.293  1.00  0.00    -0.033 C 
HETATM   16  C12 UNL     1      -3.925  48.479 -25.560  1.00  0.00     0.016 C 
HETATM   17  C13 UNL     1      -4.432  50.473 -24.142  1.00  0.00    -0.010 C 
HETATM   18  C14 UNL     1      -3.906  51.596 -23.229  1.00  0.00     0.011 C 
HETATM   19  C15 UNL     1      -5.882  50.070 -23.789  1.00  0.00     0.006 C 
HETATM   20  C16 UNL     1      -6.051  48.766 -23.008  1.00  0.00     0.017 C 
HETATM   21  C17 UNL     1      -4.839  48.408 -22.140  1.00  0.00     0.021 C 
HETATM   22  C18 UNL     1      -4.743  49.408 -20.966  1.00  0.00     0.024 C 
HETATM   23  C19 UNL     1      -5.060  47.024 -21.491  1.00  0.00     0.135 C 
HETATM   24  C23 UNL     1      -3.574  48.250 -23.055  1.00  0.00     0.010 C 
HETATM   25  O5  UNL     1      -6.184  46.573 -21.267  1.00  0.00    -0.297 OA
HETATM   26  C20 UNL     1      -3.824  46.210 -21.141  1.00  0.00     0.079 C 
HETATM   27  C21 UNL     1      -2.594  47.093 -20.974  1.00  0.00     0.008 C 
HETATM   28  C22 UNL     1      -2.321  47.987 -22.195  1.00  0.00     0.007 C 
ENDBRANCH  14  15
ENDBRANCH   1  14
BRANCH   1  29
HETATM   29  O6  UNL     1      -1.546  51.173 -26.501  1.00  0.00    -0.312 OA
BRANCH  29  30
HETATM   30  C24 UNL     1      -2.454  51.760 -27.321  1.00  0.00     0.255 C 
HETATM   31  C25 UNL     1      -3.148  50.717 -28.142  1.00  0.00     0.126 C 
HETATM   32  O7  UNL     1      -2.681  52.958 -27.397  1.00  0.00    -0.266 OA
ENDBRANCH  29  30
ENDBRANCH   1  29
TORSDOF 11
ENDMDL
