MODEL 1
REMARK minimizedAffinity -9.35352898
REMARK  5 active torsions:
REMARK  status: ('A' for Active; 'I' for Inactive)
REMARK    1  A    between atoms: C2_2  and  C4_4 
REMARK    2  A    between atoms: C7_7  and  C8_8 
REMARK    3  A    between atoms: C8_8  and  O2_10 
REMARK    4  A    between atoms: C11_13  and  C12_14 
REMARK    5  A    between atoms: C12_14  and  O4_16 
ROOT
HETATM    1  C4  UNL     1      -6.084  47.506 -27.126  1.00  0.00     0.019 C 
HETATM    2  C5  UNL     1      -7.475  47.342 -27.803  1.00  0.00     0.011 C 
HETATM    3  C6  UNL     1      -8.532  47.800 -26.776  1.00  0.00     0.021 C 
HETATM    4  C7  UNL     1      -7.811  47.667 -25.426  1.00  0.00     0.050 C 
HETATM    5  C9  UNL     1      -8.421  48.437 -24.236  1.00  0.00     0.022 C 
HETATM    6  C10 UNL     1      -7.569  49.598 -23.691  1.00  0.00     0.023 C 
HETATM    7  C11 UNL     1      -6.003  49.401 -23.587  1.00  0.00     0.057 C 
HETATM    8  C13 UNL     1      -5.528  48.300 -24.601  1.00  0.00     0.011 C 
HETATM    9  C14 UNL     1      -4.018  48.302 -24.808  1.00  0.00     0.007 C 
HETATM   10  C15 UNL     1      -3.264  48.667 -23.518  1.00  0.00     0.006 C 
HETATM   11  C16 UNL     1      -4.008  48.242 -22.219  1.00  0.00     0.003 C 
HETATM   12  C17 UNL     1      -3.095  48.218 -20.883  1.00  0.00    -0.035 C 
HETATM   13  C18 UNL     1      -3.374  46.834 -20.194  1.00  0.00     0.016 C 
HETATM   14  C19 UNL     1      -1.570  48.201 -21.216  1.00  0.00     0.017 C 
HETATM   15  C20 UNL     1      -0.684  48.471 -20.012  1.00  0.00     0.080 C 
HETATM   16  C21 UNL     1      -0.908  49.880 -19.525  1.00  0.00     0.135 C 
HETATM   17  O5  UNL     1       0.028  50.506 -19.020  1.00  0.00    -0.297 OA
HETATM   18  C22 UNL     1      -2.321  50.484 -19.665  1.00  0.00     0.017 C 
HETATM   19  C23 UNL     1      -2.560  51.311 -18.375  1.00  0.00     0.023 C 
HETATM   20  C24 UNL     1      -2.295  51.465 -20.844  1.00  0.00     0.023 C 
HETATM   21  C25 UNL     1      -3.382  49.319 -19.783  1.00  0.00     0.009 C 
HETATM   22  C26 UNL     1      -4.851  49.761 -19.758  1.00  0.00     0.007 C 
HETATM   23  C27 UNL     1      -5.402  50.106 -21.127  1.00  0.00     0.011 C 
HETATM   24  C28 UNL     1      -5.452  48.928 -22.121  1.00  0.00    -0.022 C 
HETATM   25  C29 UNL     1      -6.454  47.879 -21.543  1.00  0.00     0.017 C 
HETATM   26  C30 UNL     1      -6.437  48.264 -25.832  1.00  0.00     0.018 C 
ENDROOT
BRANCH   4  27
HETATM   27  C8  UNL     1      -7.914  46.173 -25.065  1.00  0.00     0.149 C 
HETATM   28  O1  UNL     1      -7.974  45.259 -25.877  1.00  0.00    -0.649 OA
BRANCH  27  29
HETATM   29  O2  UNL     1      -7.948  45.876 -23.759  1.00  0.00    -0.776 OA
HETATM   30  H11 UNL     1      -8.006  44.898 -23.745  1.00  0.00     0.167 HD
ENDBRANCH  27  29
ENDBRANCH   4  27
BRANCH   1  31
HETATM   31  C2  UNL     1      -5.083  48.096 -28.105  1.00  0.00    -0.088 C 
HETATM   32  C1  UNL     1      -3.917  48.670 -27.766  1.00  0.00     0.014 C 
HETATM   33  C3  UNL     1      -5.495  48.024 -29.553  1.00  0.00     0.043 C 
ENDBRANCH   1  31
BRANCH   7  34
HETATM   34  C12 UNL     1      -5.515  50.832 -23.963  1.00  0.00     0.149 C 
HETATM   35  O3  UNL     1      -4.616  51.109 -24.744  1.00  0.00    -0.649 OA
BRANCH  34  36
HETATM   36  O4  UNL     1      -6.069  51.841 -23.277  1.00  0.00    -0.776 OA
HETATM   37  H16 UNL     1      -5.609  52.635 -23.623  1.00  0.00     0.167 HD
ENDBRANCH  34  36
ENDBRANCH   7  34
TORSDOF 5
ENDMDL
