MODEL 1
REMARK minimizedAffinity -7.63998604
REMARK CNNscore 0.676731169
REMARK CNNaffinity 7.43806696
REMARK  21 active torsions:
REMARK  status: ('A' for Active; 'I' for Inactive)
REMARK    1  A    between atoms: C2_2  and  C3_3 
REMARK    2  A    between atoms: C2_2  and  C29_36 
REMARK    3  A    between atoms: C4_4  and  C5_5 
REMARK    4  A    between atoms: C6_6  and  C7_7 
REMARK    5  A    between atoms: C6_6  and  C10_12 
REMARK    6  A    between atoms: C7_7  and  O1_8 
REMARK    7  A    between atoms: O1_8  and  C8_9 
REMARK    8  A    between atoms: C8_9  and  C9_10 
REMARK    9  A    between atoms: C9_10  and  O2_11 
REMARK   10  A    between atoms: C14_16  and  O3_17 
REMARK   11  A    between atoms: C15_18  and  C16_19 
REMARK   12  A    between atoms: C16_19  and  C17_20 
REMARK   13  A    between atoms: C17_20  and  C18_21 
REMARK   14  A    between atoms: C18_21  and  O4_22 
REMARK   15  A    between atoms: C20_24  and  C22_26 
REMARK   16  A    between atoms: C25_30  and  O6_31 
REMARK   17  A    between atoms: C25_30  and  C26_32 
REMARK   18  A    between atoms: C26_32  and  C27_33 
REMARK   19  A    between atoms: C27_33  and  N1_34 
REMARK   20  A    between atoms: C29_36  and  C30_37 
REMARK   21  A    between atoms: C30_37  and  C31_38 
ROOT
HETATM    1  C10 UNL     1      -0.490   8.408  13.466  1.00  0.00     0.046 C 
HETATM    2  C11 UNL     1       0.110   7.488  14.542  1.00  0.00     0.013 C 
HETATM    3  C12 UNL     1       1.232   6.687  13.864  1.00  0.00     0.017 C 
HETATM    4  C13 UNL     1       1.605   7.419  12.533  1.00  0.00     0.025 C 
HETATM    5  C14 UNL     1       0.783   8.749  12.663  1.00  0.00     0.138 C 
HETATM    6  C15 UNL     1       1.119   6.509  11.298  1.00  0.00     0.029 C 
HETATM    7  C19 UNL     1       1.801   6.981  10.009  1.00  0.00    -0.066 C 
HETATM    8  C20 UNL     1       1.329   7.724   8.974  1.00  0.00    -0.021 C 
HETATM    9  C21 UNL     1       2.098   7.990   7.699  1.00  0.00     0.052 C 
HETATM   10  C23 UNL     1       3.261   6.537  10.040  1.00  0.00     0.038 C 
HETATM   11  C24 UNL     1       3.873   6.643  11.448  1.00  0.00     0.043 C 
HETATM   12  C25 UNL     1       3.201   7.702  12.359  1.00  0.00     0.070 C 
ENDROOT
BRANCH   5  13
HETATM   13  O3  UNL     1       1.524   9.722  13.404  1.00  0.00    -0.394 OA
HETATM   14  H19 UNL     1       2.319   9.923  12.866  1.00  0.00     0.210 HD
ENDBRANCH   5  13
BRANCH   6  15
HETATM   15  C16 UNL     1      -0.366   6.061  11.220  1.00  0.00     0.012 C 
BRANCH  15  16
HETATM   16  C17 UNL     1      -0.590   4.534  11.165  1.00  0.00     0.027 C 
BRANCH  16  17
HETATM   17  C18 UNL     1       0.603   3.671  11.553  1.00  0.00     0.164 C 
BRANCH  17  18
HETATM   18  O4  UNL     1       0.426   2.359  11.042  1.00  0.00    -0.401 OA
HETATM   19  H27 UNL     1       1.281   1.896  11.107  1.00  0.00     0.209 HD
ENDBRANCH  17  18
ENDBRANCH  16  17
ENDBRANCH  15  16
ENDBRANCH   6  15
BRANCH  12  20
HETATM   20  O6  UNL     1       3.355   9.002  11.735  1.00  0.00    -0.389 OA
HETATM   21  H36 UNL     1       3.252   8.914  10.773  1.00  0.00     0.210 HD
ENDBRANCH  12  20
BRANCH  12  22
HETATM   22  C26 UNL     1       3.985   7.804  13.704  1.00  0.00     0.068 C 
BRANCH  22  23
HETATM   23  C27 UNL     1       5.527   7.801  13.617  1.00  0.00     0.272 C 
BRANCH  23  24
HETATM   24  N1  UNL     1       6.214   7.157  14.745  1.00  0.00     0.079 N 
HETATM   25  C28 UNL     1       7.557   7.682  14.955  1.00  0.00     0.306 C 
HETATM   26  H41 UNL     1       6.289   6.157  14.540  1.00  0.00     0.315 HD
ENDBRANCH  23  24
ENDBRANCH  22  23
ENDBRANCH  12  22
BRANCH   1  27
HETATM   27  C6  UNL     1      -1.448   9.482  14.014  1.00  0.00    -0.050 C 
HETATM   28  C5  UNL     1      -2.710   9.329  14.479  1.00  0.00     0.005 C 
BRANCH  28  29
HETATM   29  C4  UNL     1      -3.533   8.143  14.602  1.00  0.00     0.001 C 
HETATM   30  C3  UNL     1      -4.382   7.738  13.644  1.00  0.00     0.006 C 
BRANCH  30  31
HETATM   31  C2  UNL     1      -5.229   6.545  13.694  1.00  0.00    -0.067 C 
HETATM   32  C1  UNL     1      -6.557   6.713  13.795  1.00  0.00     0.019 C 
BRANCH  31  33
HETATM   33  C29 UNL     1      -4.549   5.182  13.622  1.00  0.00     0.041 C 
BRANCH  33  34
HETATM   34  C30 UNL     1      -3.921   4.781  12.280  1.00  0.00     0.032 C 
BRANCH  34  35
HETATM   35  C31 UNL     1      -4.284   3.367  11.903  1.00  0.00    -0.024 C 
HETATM   36  C32 UNL     1      -5.520   2.850  11.757  1.00  0.00    -0.091 C 
HETATM   37  C33 UNL     1      -5.703   1.395  11.412  1.00  0.00     0.042 C 
HETATM   38  C34 UNL     1      -6.803   3.622  11.900  1.00  0.00     0.042 C 
ENDBRANCH  34  35
ENDBRANCH  33  34
ENDBRANCH  31  33
ENDBRANCH  30  31
ENDBRANCH  28  29
BRANCH  27  39
HETATM   39  C7  UNL     1      -0.780  10.859  14.112  1.00  0.00     0.202 C 
BRANCH  39  40
HETATM   40  O1  UNL     1      -1.704  11.932  13.912  1.00  0.00    -0.385 OA
BRANCH  40  41
HETATM   41  C8  UNL     1      -1.299  13.143  14.545  1.00  0.00     0.194 C 
BRANCH  41  42
HETATM   42  C9  UNL     1      -2.146  14.331  14.091  1.00  0.00     0.190 C 
BRANCH  42  43
HETATM   43  O2  UNL     1      -2.000  14.558  12.693  1.00  0.00    -0.399 OA
HETATM   44  H12 UNL     1      -1.070  14.788  12.525  1.00  0.00     0.209 HD
ENDBRANCH  42  43
ENDBRANCH  41  42
ENDBRANCH  40  41
ENDBRANCH  39  40
ENDBRANCH  27  39
ENDBRANCH   1  27
BRANCH   8  45
HETATM   45  C22 UNL     1      -0.018   8.384   8.952  1.00  0.00     0.265 C 
HETATM   46  O5  UNL     1      -0.728   8.398   7.950  1.00  0.00    -0.302 OA
ENDBRANCH   8  45
TORSDOF 21
ENDMDL
