MODEL 1
REMARK minimizedAffinity -7.68125963
REMARK CNNscore 0.695564985
REMARK CNNaffinity 6.99817038
REMARK  9 active torsions:
REMARK  status: ('A' for Active; 'I' for Inactive)
REMARK    1  A    between atoms: C2_2  and  C3_3 
REMARK    2  A    between atoms: C3_3  and  C5_5 
REMARK    3  A    between atoms: C3_3  and  C6_7 
REMARK    4  A    between atoms: C5_5  and  O1_6 
REMARK    5  A    between atoms: C7_8  and  O2_9 
REMARK    6  A    between atoms: C18_22  and  O5_23 
REMARK    7  A    between atoms: O5_23  and  C19_24 
REMARK    8  A    between atoms: C19_24  and  C20_26 
REMARK    9  A    between atoms: C29_36  and  O8_37 
ROOT
HETATM    1  C6  UNL     1      -4.249   3.620  11.869  1.00  0.00     0.023 A 
HETATM    2  C7  UNL     1      -5.408   2.816  11.745  1.00  0.00     0.076 A 
HETATM    3  C8  UNL     1      -6.659   3.224  12.211  1.00  0.00     0.053 A 
HETATM    4  C9  UNL     1      -6.797   4.458  12.844  1.00  0.00     0.034 A 
HETATM    5  C10 UNL     1      -8.123   4.861  13.341  1.00  0.00     0.192 C 
HETATM    6  O3  UNL     1      -9.045   4.054  13.326  1.00  0.00    -0.287 OA
HETATM    7  C11 UNL     1      -8.299   6.231  13.888  1.00  0.00     0.035 C 
HETATM    8  C12 UNL     1      -7.217   6.978  14.157  1.00  0.00     0.131 C 
HETATM    9  O4  UNL     1      -7.268   8.178  14.842  1.00  0.00    -0.336 OA
HETATM   10  C13 UNL     1      -8.477   8.493  15.564  1.00  0.00     0.065 C 
HETATM   11  C14 UNL     1      -8.471   7.747  16.907  1.00  0.00     0.046 C 
HETATM   12  C15 UNL     1      -8.377  10.000  15.852  1.00  0.00     0.046 C 
HETATM   13  C16 UNL     1      -9.693   8.179  14.666  1.00  0.00     0.031 C 
HETATM   14  C17 UNL     1     -11.064   8.549  15.246  1.00  0.00     0.041 C 
HETATM   15  C18 UNL     1     -12.171   8.354  14.200  1.00  0.00     0.136 C 
HETATM   16  C23 UNL     1     -12.148   6.932  13.607  1.00  0.00     0.012 C 
HETATM   17  C24 UNL     1     -13.169   6.795  12.472  1.00  0.00     0.012 C 
HETATM   18  C25 UNL     1     -10.744   6.541  13.112  1.00  0.00     0.017 C 
HETATM   19  C26 UNL     1      -9.699   6.691  14.239  1.00  0.00     0.033 C 
HETATM   20  C27 UNL     1      -5.848   6.539  13.757  1.00  0.00     0.219 C 
HETATM   21  O7  UNL     1      -4.853   7.216  14.008  1.00  0.00    -0.284 OA
HETATM   22  C28 UNL     1      -5.686   5.265  13.032  1.00  0.00     0.065 A 
HETATM   23  C29 UNL     1      -4.419   4.844  12.558  1.00  0.00     0.091 A 
ENDROOT
BRANCH   1  24
HETATM   24  C3  UNL     1      -2.884   3.107  11.301  1.00  0.00     0.027 C 
HETATM   25  C4  UNL     1      -2.638   1.579  11.409  1.00  0.00     0.027 C 
BRANCH  24  26
HETATM   26  C2  UNL     1      -1.725   3.681  12.143  1.00  0.00    -0.021 C 
HETATM   27  C1  UNL     1      -0.414   3.653  11.863  1.00  0.00     0.008 C 
ENDBRANCH  24  26
BRANCH  24  28
HETATM   28  C5  UNL     1      -2.855   3.496   9.782  1.00  0.00     0.182 C 
BRANCH  28  29
HETATM   29  O1  UNL     1      -4.137   3.520   9.146  1.00  0.00    -0.399 OA
HETATM   30  H9  UNL     1      -4.639   4.260   9.530  1.00  0.00     0.209 HD
ENDBRANCH  28  29
ENDBRANCH  24  28
ENDBRANCH   1  24
BRANCH   2  31
HETATM   31  O2  UNL     1      -5.317   1.576  11.175  1.00  0.00    -0.360 OA
HETATM   32  H10 UNL     1      -6.196   1.167  11.099  1.00  0.00     0.217 HD
ENDBRANCH   2  31
BRANCH  23  33
HETATM   33  O8  UNL     1      -3.317   5.625  12.797  1.00  0.00    -0.359 OA
HETATM   34  H36 UNL     1      -3.576   6.430  13.302  1.00  0.00     0.217 HD
ENDBRANCH  23  33
BRANCH  15  35
HETATM   35  O5  UNL     1     -13.451   8.550  14.832  1.00  0.00    -0.315 OA
BRANCH  35  36
HETATM   36  C19 UNL     1     -14.082   9.727  14.571  1.00  0.00     0.262 C 
HETATM   37  O6  UNL     1     -14.478  10.082  13.468  1.00  0.00    -0.265 OA
BRANCH  36  38
HETATM   38  C20 UNL     1     -14.192  10.583  15.818  1.00  0.00     0.077 C 
HETATM   39  C21 UNL     1     -13.093  11.639  15.818  1.00  0.00     0.020 C 
HETATM   40  C22 UNL     1     -14.167   9.741  17.090  1.00  0.00     0.020 C 
ENDBRANCH  36  38
ENDBRANCH  35  36
ENDBRANCH  15  35
TORSDOF 9
ENDMDL
