MODEL 1
REMARK minimizedAffinity -7.53909874
REMARK CNNscore 0.673763573
REMARK CNNaffinity 6.9282856
REMARK  10 active torsions:
REMARK  status: ('A' for Active; 'I' for Inactive)
REMARK    1  A    between atoms: C19_21  and  O3_22 
REMARK    2  A    between atoms: C19_21  and  C20_23 
REMARK    3  A    between atoms: C20_23  and  C21_25 
REMARK    4  A    between atoms: C21_25  and  O5_26 
REMARK    5  A    between atoms: O5_26  and  C22_27 
REMARK    6  A    between atoms: C22_27  and  C23_29 
REMARK    7  A    between atoms: C23_29  and  C24_30 
REMARK    8  A    between atoms: C24_30  and  C25_31 
REMARK       I    between atoms: C25_31  and  N1_33 
REMARK    9  A    between atoms: N1_33  and  C26_34 
REMARK   10  A    between atoms: C26_34  and  C27_35 
ROOT
HETATM    1  C1  UNL     1      -6.908   6.768  13.676  1.00  0.00     0.021 C 
HETATM    2  C2  UNL     1      -8.118   5.909  14.103  1.00  0.00    -0.009 C 
HETATM    3  C3  UNL     1      -7.647   4.753  15.036  1.00  0.00     0.022 C 
HETATM    4  C4  UNL     1      -6.843   3.674  14.323  1.00  0.00     0.084 C 
HETATM    5  C5  UNL     1      -7.618   3.123  13.157  1.00  0.00     0.149 C 
HETATM    6  O1  UNL     1      -7.477   1.970  12.757  1.00  0.00    -0.293 OA
HETATM    7  C6  UNL     1      -8.525   4.037  12.425  1.00  0.00     0.053 C 
HETATM    8  C7  UNL     1      -8.726   5.307  12.822  1.00  0.00    -0.067 C 
HETATM    9  C8  UNL     1      -9.553   6.229  11.955  1.00  0.00     0.035 C 
HETATM   10  C9  UNL     1     -10.613   6.968  12.760  1.00  0.00     0.010 C 
HETATM   11  C10 UNL     1      -9.982   7.732  13.930  1.00  0.00     0.003 C 
HETATM   12  C11 UNL     1      -9.216   6.744  14.860  1.00  0.00     0.072 C 
HETATM   13  C12 UNL     1      -8.733   7.483  16.125  1.00  0.00     0.133 C 
HETATM   14  O2  UNL     1      -7.586   7.402  16.562  1.00  0.00    -0.297 OA
HETATM   15  C13 UNL     1      -9.776   8.294  16.883  1.00  0.00     0.091 C 
HETATM   16  C14 UNL     1     -10.448   9.289  15.926  1.00  0.00     0.005 C 
HETATM   17  C15 UNL     1      -9.399  10.338  15.472  1.00  0.00     0.019 C 
HETATM   18  C16 UNL     1     -11.047   8.472  14.753  1.00  0.00     0.002 C 
HETATM   19  C17 UNL     1     -11.947   9.475  14.040  1.00  0.00     0.009 C 
HETATM   20  C18 UNL     1     -12.484  10.389  15.160  1.00  0.00     0.047 C 
HETATM   21  C19 UNL     1     -11.738   9.985  16.451  1.00  0.00     0.128 C 
ENDROOT
BRANCH  21  22
HETATM   22  O3  UNL     1     -12.559   9.004  17.116  1.00  0.00    -0.381 OA
HETATM   23  H25 UNL     1     -12.300   9.017  18.062  1.00  0.00     0.211 HD
ENDBRANCH  21  22
BRANCH  21  24
HETATM   24  C20 UNL     1     -11.479  11.090  17.492  1.00  0.00     0.185 C 
HETATM   25  O4  UNL     1     -10.704  12.010  17.200  1.00  0.00    -0.292 OA
BRANCH  24  26
HETATM   26  C21 UNL     1     -12.200  11.035  18.833  1.00  0.00     0.260 C 
BRANCH  26  27
HETATM   27  O5  UNL     1     -11.580  10.112  19.728  1.00  0.00    -0.314 OA
BRANCH  27  28
HETATM   28  C22 UNL     1     -11.123  10.666  20.880  1.00  0.00     0.259 C 
HETATM   29  O6  UNL     1     -10.264  11.541  20.931  1.00  0.00    -0.265 OA
BRANCH  28  30
HETATM   30  C23 UNL     1     -11.762  10.081  22.117  1.00  0.00     0.120 C 
BRANCH  30  31
HETATM   31  C24 UNL     1     -10.849   9.962  23.332  1.00  0.00     0.112 C 
BRANCH  31  32
HETATM   32  C25 UNL     1     -10.692  11.284  24.060  1.00  0.00     0.218 C 
HETATM   33  O7  UNL     1     -11.546  11.753  24.805  1.00  0.00    -0.274 OA
HETATM   34  N1  UNL     1      -9.499  11.911  23.773  1.00  0.00    -0.356 N 
HETATM   35  H32 UNL     1      -8.778  11.385  23.299  1.00  0.00     0.162 HD
BRANCH  34  36
HETATM   36  C26 UNL     1      -9.101  13.124  24.454  1.00  0.00     0.168 C 
BRANCH  36  37
HETATM   37  C27 UNL     1      -7.914  13.704  23.748  1.00  0.00     0.000 A 
HETATM   38  C28 UNL     1      -6.990  13.063  22.941  1.00  0.00     0.017 A 
HETATM   39  C29 UNL     1      -5.988  13.950  22.452  1.00  0.00     0.008 A 
HETATM   40  C30 UNL     1      -6.186  15.242  22.888  1.00  0.00     0.050 A 
HETATM   41  S1  UNL     1      -7.568  15.379  23.883  1.00  0.00    -0.105 SA
ENDBRANCH  36  37
ENDBRANCH  34  36
ENDBRANCH  31  32
ENDBRANCH  30  31
ENDBRANCH  28  30
ENDBRANCH  27  28
ENDBRANCH  26  27
ENDBRANCH  24  26
ENDBRANCH  21  24
TORSDOF 10
ENDMDL
