MODEL 1
REMARK minimizedAffinity -7.22538853
REMARK CNNscore 0.802071214
REMARK CNNaffinity 6.87878752
REMARK  14 active torsions:
REMARK  status: ('A' for Active; 'I' for Inactive)
REMARK    1  A    between atoms: C2_2  and  C3_3 
REMARK    2  A    between atoms: C3_3  and  N1_4 
REMARK    3  A    between atoms: N1_4  and  C4_5 
REMARK    4  A    between atoms: C4_5  and  C5_6 
REMARK    5  A    between atoms: C5_6  and  C6_7 
REMARK    6  A    between atoms: C15_17  and  O2_18 
REMARK    7  A    between atoms: C20_23  and  O3_24 
REMARK    8  A    between atoms: C22_26  and  C23_27 
REMARK    9  A    between atoms: C23_27  and  C25_29 
REMARK   10  A    between atoms: C25_29  and  C26_30 
REMARK   11  A    between atoms: C26_30  and  O4_31 
REMARK   12  A    between atoms: C26_30  and  C27_32 
REMARK   13  A    between atoms: C28_33  and  C30_35 
REMARK   14  A    between atoms: C30_35  and  O6_37 
ROOT
HETATM    1  C6  UNL     1      -1.209  52.218 -10.866  1.00  0.00     0.023 C 
HETATM    2  C7  UNL     1      -1.253  52.410 -12.401  1.00  0.00     0.024 C 
HETATM    3  C8  UNL     1      -2.549  52.820 -10.397  1.00  0.00     0.135 C 
HETATM    4  O1  UNL     1      -3.526  52.119 -10.127  1.00  0.00    -0.297 OA
HETATM    5  C9  UNL     1      -2.683  54.325 -10.359  1.00  0.00     0.080 C 
HETATM    6  C10 UNL     1      -1.351  55.040 -10.185  1.00  0.00     0.022 C 
HETATM    7  C11 UNL     1      -0.340  54.240  -9.332  1.00  0.00    -0.008 C 
HETATM    8  C12 UNL     1      -0.955  53.802  -7.969  1.00  0.00     0.021 C 
HETATM    9  C13 UNL     1       0.911  55.104  -9.015  1.00  0.00     0.002 C 
HETATM   10  C14 UNL     1       2.166  54.834  -9.457  1.00  0.00    -0.029 C 
HETATM   11  C15 UNL     1       2.430  53.674 -10.382  1.00  0.00     0.149 C 
HETATM   12  C16 UNL     1       1.183  53.177 -11.099  1.00  0.00     0.043 C 
HETATM   13  C17 UNL     1       0.015  52.923 -10.134  1.00  0.00     0.017 C 
HETATM   14  C18 UNL     1       3.364  55.681  -9.000  1.00  0.00     0.017 C 
HETATM   15  C19 UNL     1       3.412  56.898  -9.980  1.00  0.00     0.023 C 
HETATM   16  C20 UNL     1       4.778  55.034  -8.926  1.00  0.00     0.132 C 
HETATM   17  C21 UNL     1       5.561  55.893  -7.912  1.00  0.00     0.038 C 
HETATM   18  C22 UNL     1       4.521  56.778  -7.168  1.00  0.00     0.001 C 
HETATM   19  C31 UNL     1       3.169  56.061  -7.477  1.00  0.00    -0.019 C 
HETATM   20  C32 UNL     1       2.985  54.814  -6.559  1.00  0.00     0.017 C 
HETATM   21  C33 UNL     1       1.910  56.918  -7.367  1.00  0.00     0.094 C 
HETATM   22  C34 UNL     1       0.716  56.287  -8.073  1.00  0.00     0.157 C 
HETATM   23  O7  UNL     1      -0.407  56.748  -7.873  1.00  0.00    -0.293 OA
ENDROOT
BRANCH  18  24
HETATM   24  C23 UNL     1       4.994  57.203  -5.746  1.00  0.00    -0.011 C 
HETATM   25  C24 UNL     1       4.018  58.080  -4.948  1.00  0.00     0.010 C 
BRANCH  24  26
HETATM   26  C25 UNL     1       6.400  57.849  -5.686  1.00  0.00     0.040 C 
BRANCH  26  27
HETATM   27  C26 UNL     1       7.469  57.055  -4.913  1.00  0.00     0.142 C 
BRANCH  27  28
HETATM   28  O4  UNL     1       7.046  56.994  -3.551  1.00  0.00    -0.392 OA
HETATM   29  H43 UNL     1       7.733  56.516  -3.056  1.00  0.00     0.210 HD
ENDBRANCH  27  28
BRANCH  27  30
HETATM   30  C27 UNL     1       8.829  57.682  -4.899  1.00  0.00     0.018 C 
HETATM   31  C28 UNL     1      10.028  57.065  -4.863  1.00  0.00     0.010 C 
HETATM   32  C29 UNL     1      10.270  55.586  -4.849  1.00  0.00     0.055 C 
BRANCH  31  33
HETATM   33  C30 UNL     1      11.220  57.950  -4.886  1.00  0.00     0.171 C 
HETATM   34  O5  UNL     1      11.221  59.167  -4.942  1.00  0.00    -0.646 OA
BRANCH  33  35
HETATM   35  O6  UNL     1      12.368  57.257  -4.843  1.00  0.00    -0.773 OA
HETATM   36  H48 UNL     1      13.059  57.952  -4.863  1.00  0.00     0.167 HD
ENDBRANCH  33  35
ENDBRANCH  31  33
ENDBRANCH  27  30
ENDBRANCH  26  27
ENDBRANCH  24  26
ENDBRANCH  18  24
BRANCH  16  37
HETATM   37  O3  UNL     1       5.481  55.018 -10.158  1.00  0.00    -0.394 OA
HETATM   38  H32 UNL     1       4.903  54.548 -10.795  1.00  0.00     0.210 HD
ENDBRANCH  16  37
BRANCH  11  39
HETATM   39  O2  UNL     1       3.381  54.046 -11.377  1.00  0.00    -0.391 OA
HETATM   40  H24 UNL     1       2.916  54.584 -12.044  1.00  0.00     0.210 HD
ENDBRANCH  11  39
BRANCH   1  41
HETATM   41  C5  UNL     1      -1.242  50.691 -10.509  1.00  0.00     0.047 C 
BRANCH  41  42
HETATM   42  C4  UNL     1      -0.019  49.825 -10.842  1.00  0.00     0.270 C 
BRANCH  42  43
HETATM   43  N1  UNL     1      -0.354  48.717 -11.731  1.00  0.00     0.083 N 
HETATM   44  H8  UNL     1       0.281  47.939 -11.549  1.00  0.00     0.315 HD
BRANCH  43  45
HETATM   45  C3  UNL     1      -0.260  49.108 -13.138  1.00  0.00     0.269 C 
BRANCH  45  46
HETATM   46  C2  UNL     1       0.296  47.969 -13.998  1.00  0.00     0.025 C 
HETATM   47  C1  UNL     1       0.650  48.388 -15.417  1.00  0.00     0.007 C 
ENDBRANCH  45  46
ENDBRANCH  43  45
ENDBRANCH  42  43
ENDBRANCH  41  42
ENDBRANCH   1  41
TORSDOF 14
ENDMDL
