MODEL 1
REMARK minimizedAffinity -6.59092426
REMARK CNNscore 0.774070501
REMARK CNNaffinity 6.53549528
REMARK  12 active torsions:
REMARK  status: ('A' for Active; 'I' for Inactive)
REMARK    1  A    between atoms: C3_4  and  O2_5 
REMARK    2  A    between atoms: O2_5  and  C4_6 
REMARK    3  A    between atoms: C7_9  and  C8_10 
REMARK    4  A    between atoms: N1_11  and  C9_13 
REMARK    5  A    between atoms: C9_13  and  C10_14 
REMARK    6  A    between atoms: C10_14  and  C11_15 
REMARK    7  A    between atoms: C11_15  and  O3_16 
REMARK    8  A    between atoms: C17_22  and  C18_23 
REMARK    9  A    between atoms: C24_31  and  O6_32 
REMARK   10  A    between atoms: C28_36  and  O7_37 
REMARK   11  A    between atoms: C31_40  and  O8_41 
REMARK   12  A    between atoms: C32_42  and  O9_43 
ROOT
HETATM    1  C4  UNL     1     -11.738 -12.129  26.143  1.00  0.00     0.127 C 
HETATM    2  C5  UNL     1     -12.989 -11.769  25.327  1.00  0.00     0.033 C 
HETATM    3  C6  UNL     1     -13.649 -10.493  25.838  1.00  0.00     0.021 C 
HETATM    4  C7  UNL     1     -14.089 -10.552  27.338  1.00  0.00     0.026 C 
HETATM    5  C12 UNL     1     -13.753  -9.149  28.000  1.00  0.00     0.009 C 
HETATM    6  C13 UNL     1     -14.456  -7.948  27.326  1.00  0.00     0.007 C 
HETATM    7  C14 UNL     1     -14.042  -6.616  27.947  1.00  0.00     0.013 C 
HETATM    8  C15 UNL     1     -14.281  -6.542  29.484  1.00  0.00    -0.005 C 
HETATM    9  C16 UNL     1     -15.801  -6.470  29.734  1.00  0.00     0.019 C 
HETATM   10  C17 UNL     1     -13.495  -5.298  30.037  1.00  0.00     0.028 C 
HETATM   11  C22 UNL     1     -12.100  -5.843  30.430  1.00  0.00     0.013 C 
HETATM   12  C23 UNL     1     -12.114  -7.352  30.175  1.00  0.00     0.040 C 
HETATM   13  C24 UNL     1     -13.599  -7.744  30.186  1.00  0.00     0.070 C 
HETATM   14  C25 UNL     1     -13.926  -9.124  29.542  1.00  0.00     0.026 C 
HETATM   15  C26 UNL     1     -13.105 -10.260  30.178  1.00  0.00     0.011 C 
HETATM   16  C27 UNL     1     -13.499 -11.615  29.616  1.00  0.00     0.039 C 
HETATM   17  C28 UNL     1     -13.360 -11.725  28.090  1.00  0.00     0.073 C 
HETATM   18  C29 UNL     1     -11.885 -11.803  27.644  1.00  0.00     0.071 C 
ENDROOT
BRANCH   1  19
HETATM   19  O2  UNL     1     -11.408 -13.520  26.030  1.00  0.00    -0.356 OA
BRANCH  19  20
HETATM   20  C3  UNL     1     -10.807 -13.871  24.783  1.00  0.00     0.263 C 
HETATM   21  O1  UNL     1     -10.098 -15.110  24.848  1.00  0.00    -0.354 OA
HETATM   22  C2  UNL     1      -8.857 -15.122  25.580  1.00  0.00     0.151 C 
HETATM   23  C1  UNL     1      -9.061 -15.125  27.091  1.00  0.00     0.042 C 
HETATM   24  C32 UNL     1      -7.918 -14.007  25.095  1.00  0.00     0.175 C 
HETATM   25  C31 UNL     1      -8.640 -12.649  25.128  1.00  0.00     0.154 C 
HETATM   26  C30 UNL     1      -9.925 -12.715  24.318  1.00  0.00     0.095 C 
BRANCH  24  27
HETATM   27  O9  UNL     1      -7.500 -14.322  23.750  1.00  0.00    -0.390 OA
HETATM   28  H49 UNL     1      -8.277 -14.666  23.273  1.00  0.00     0.210 HD
ENDBRANCH  24  27
BRANCH  25  29
HETATM   29  O8  UNL     1      -7.792 -11.619  24.619  1.00  0.00    -0.393 OA
HETATM   30  H47 UNL     1      -8.297 -10.788  24.611  1.00  0.00     0.210 HD
ENDBRANCH  25  29
ENDBRANCH  19  20
ENDBRANCH   1  19
BRANCH  17  31
HETATM   31  O7  UNL     1     -13.962 -12.991  27.754  1.00  0.00    -0.389 OA
HETATM   32  H41 UNL     1     -13.364 -13.700  28.050  1.00  0.00     0.210 HD
ENDBRANCH  17  31
BRANCH   4  33
HETATM   33  C8  UNL     1     -15.585 -10.904  27.332  1.00  0.00     0.068 C 
HETATM   34  N1  UNL     1     -16.340 -10.764  26.296  1.00  0.00    -0.401 N 
ATOM     35  H1  UNL     1     -15.985 -10.427  25.401  1.00  0.00     0.158 HD
BRANCH  34  36
HETATM   36  C9  UNL     1     -17.747 -11.127  26.501  1.00  0.00     0.121 C 
BRANCH  36  37
HETATM   37  C10 UNL     1     -18.305 -11.862  25.280  1.00  0.00     0.045 C 
BRANCH  37  38
HETATM   38  C11 UNL     1     -19.828 -11.814  25.244  1.00  0.00     0.165 C 
BRANCH  38  39
HETATM   39  O3  UNL     1     -20.373 -12.416  26.417  1.00  0.00    -0.401 OA
HETATM   40  H18 UNL     1     -20.110 -11.862  27.176  1.00  0.00     0.209 HD
ENDBRANCH  38  39
ENDBRANCH  37  38
ENDBRANCH  36  37
ENDBRANCH  34  36
ENDBRANCH   4  33
BRANCH  13  41
HETATM   41  O6  UNL     1     -14.017  -7.764  31.559  1.00  0.00    -0.389 OA
HETATM   42  H35 UNL     1     -13.490  -8.421  32.042  1.00  0.00     0.210 HD
ENDBRANCH  13  41
BRANCH  10  43
HETATM   43  C18 UNL     1     -14.111  -4.469  31.136  1.00  0.00    -0.045 A 
HETATM   44  C19 UNL     1     -13.587  -4.307  32.354  1.00  0.00     0.087 A 
HETATM   45  C20 UNL     1     -14.518  -3.486  33.124  1.00  0.00     0.283 A 
HETATM   46  O4  UNL     1     -14.351  -3.153  34.283  1.00  0.00    -0.260 OA
HETATM   47  O5  UNL     1     -15.588  -3.182  32.349  1.00  0.00    -0.314 OA
HETATM   48  C21 UNL     1     -15.402  -3.741  31.045  1.00  0.00     0.213 A 
ENDBRANCH  10  43
TORSDOF 12
ENDMDL
