MODEL 1
REMARK minimizedAffinity -9.45638943
REMARK  5 active torsions:
REMARK  status: ('A' for Active; 'I' for Inactive)
REMARK    1  A    between atoms: C2_2  and  C3_3 
REMARK    2  A    between atoms: C4_5  and  C5_6 
REMARK    3  A    between atoms: C5_6  and  C6_7 
REMARK    4  A    between atoms: C6_7  and  C7_8 
REMARK    5  A    between atoms: C7_8  and  C9_10 
ROOT
HETATM    1  C9  UNL     1      -4.199  50.308 -24.809  1.00  0.00    -0.001 C 
HETATM    2  C10 UNL     1      -5.583  49.865 -24.253  1.00  0.00     0.007 C 
HETATM    3  C11 UNL     1      -5.474  49.830 -22.719  1.00  0.00     0.015 C 
HETATM    4  C12 UNL     1      -4.168  50.580 -22.394  1.00  0.00    -0.004 C 
HETATM    5  C13 UNL     1      -4.500  52.103 -22.393  1.00  0.00     0.021 C 
HETATM    6  C14 UNL     1      -3.443  50.327 -21.081  1.00  0.00     0.007 C 
HETATM    7  C15 UNL     1      -2.107  50.506 -20.936  1.00  0.00     0.007 C 
HETATM    8  C16 UNL     1      -1.317  50.899 -22.177  1.00  0.00     0.157 C 
HETATM    9  O2  UNL     1      -0.133  51.221 -22.089  1.00  0.00    -0.293 OA
HETATM   10  C17 UNL     1      -1.976  50.911 -23.552  1.00  0.00     0.094 C 
HETATM   11  C18 UNL     1      -3.263  50.088 -23.580  1.00  0.00    -0.022 C 
HETATM   12  C19 UNL     1      -2.883  48.574 -23.480  1.00  0.00     0.017 C 
HETATM   13  C20 UNL     1      -1.327  50.320 -19.607  1.00  0.00    -0.007 C 
HETATM   14  C21 UNL     1      -0.515  49.010 -19.760  1.00  0.00     0.021 C 
HETATM   15  C22 UNL     1      -0.339  51.500 -19.332  1.00  0.00     0.022 C 
HETATM   16  C23 UNL     1      -0.059  51.817 -17.865  1.00  0.00     0.080 C 
HETATM   17  C24 UNL     1      -0.274  50.619 -16.975  1.00  0.00     0.135 C 
HETATM   18  O3  UNL     1       0.615  50.219 -16.225  1.00  0.00    -0.297 OA
HETATM   19  C25 UNL     1      -1.675  49.997 -16.999  1.00  0.00     0.018 C 
HETATM   20  C26 UNL     1      -1.590  48.505 -16.624  1.00  0.00     0.023 C 
HETATM   21  C27 UNL     1      -2.489  50.705 -15.894  1.00  0.00     0.023 C 
HETATM   22  C28 UNL     1      -2.328  50.272 -18.397  1.00  0.00     0.021 C 
HETATM   23  C29 UNL     1      -3.515  49.361 -18.699  1.00  0.00     0.090 C 
HETATM   24  C30 UNL     1      -4.250  49.895 -19.899  1.00  0.00     0.157 C 
HETATM   25  O4  UNL     1      -5.476  49.946 -19.908  1.00  0.00    -0.293 OA
ENDROOT
BRANCH   1  26
HETATM   26  C7  UNL     1      -3.872  49.619 -26.169  1.00  0.00    -0.014 C 
HETATM   27  C8  UNL     1      -4.578  48.263 -26.305  1.00  0.00     0.010 C 
BRANCH  26  28
HETATM   28  C6  UNL     1      -2.339  49.412 -26.333  1.00  0.00     0.008 C 
BRANCH  28  29
HETATM   29  C5  UNL     1      -1.609  50.586 -27.005  1.00  0.00     0.028 C 
BRANCH  29  30
HETATM   30  C4  UNL     1      -0.263  50.901 -26.421  1.00  0.00    -0.017 C 
HETATM   31  C2  UNL     1       0.795  51.431 -27.066  1.00  0.00    -0.028 C 
HETATM   32  C1  UNL     1       0.851  51.864 -28.495  1.00  0.00     0.051 C 
BRANCH  31  33
HETATM   33  C3  UNL     1       2.052  51.646 -26.284  1.00  0.00     0.265 C 
HETATM   34  O1  UNL     1       3.017  50.893 -26.319  1.00  0.00    -0.302 OA
ENDBRANCH  31  33
ENDBRANCH  29  30
ENDBRANCH  28  29
ENDBRANCH  26  28
ENDBRANCH   1  26
TORSDOF 5
ENDMDL
