MODEL 1
REMARK minimizedAffinity -9.31277466
REMARK  6 active torsions:
REMARK  status: ('A' for Active; 'I' for Inactive)
REMARK    1  A    between atoms: C2_2  and  C30_31 
REMARK    2  A    between atoms: C3_3  and  C4_4 
REMARK    3  A    between atoms: C4_4  and  C5_5 
REMARK    4  A    between atoms: C5_5  and  C6_6 
REMARK    5  A    between atoms: C6_6  and  C8_8 
REMARK    6  A    between atoms: C30_31  and  O2_32 
ROOT
HETATM    1  C8  UNL     1      -3.124  50.780 -24.950  1.00  0.00    -0.002 C 
HETATM    2  C9  UNL     1      -4.624  50.346 -24.843  1.00  0.00     0.006 C 
HETATM    3  C10 UNL     1      -4.932  50.084 -23.356  1.00  0.00     0.011 C 
HETATM    4  C11 UNL     1      -3.567  49.692 -22.786  1.00  0.00    -0.032 C 
HETATM    5  C12 UNL     1      -3.291  48.223 -23.284  1.00  0.00     0.016 C 
HETATM    6  C13 UNL     1      -3.426  49.612 -21.244  1.00  0.00     0.004 C 
HETATM    7  C14 UNL     1      -3.949  50.807 -20.374  1.00  0.00     0.007 C 
HETATM    8  C15 UNL     1      -2.945  51.332 -19.294  1.00  0.00     0.007 C 
HETATM    9  C16 UNL     1      -2.340  50.166 -18.499  1.00  0.00     0.010 C 
HETATM   10  C17 UNL     1      -1.237  50.311 -17.450  1.00  0.00     0.018 C 
HETATM   11  C18 UNL     1      -1.681  51.235 -16.309  1.00  0.00     0.023 C 
HETATM   12  C19 UNL     1       0.070  50.839 -18.049  1.00  0.00     0.023 C 
HETATM   13  C20 UNL     1      -1.013  48.886 -16.868  1.00  0.00     0.135 C 
HETATM   14  O1  UNL     1      -0.036  48.636 -16.157  1.00  0.00    -0.297 OA
HETATM   15  C21 UNL     1      -2.094  47.806 -17.099  1.00  0.00     0.080 C 
HETATM   16  C22 UNL     1      -2.697  47.770 -18.527  1.00  0.00     0.018 C 
HETATM   17  C23 UNL     1      -2.091  48.916 -19.322  1.00  0.00    -0.026 A 
HETATM   18  C24 UNL     1      -1.169  48.260 -20.299  1.00  0.00     0.021 A 
HETATM   19  C25 UNL     1      -1.975  49.364 -20.861  1.00  0.00    -0.027 A 
HETATM   20  C26 UNL     1      -0.973  50.318 -21.559  1.00  0.00     0.011 C 
HETATM   21  C27 UNL     1      -1.178  50.403 -23.092  1.00  0.00     0.011 C 
HETATM   22  C28 UNL     1      -2.630  50.767 -23.450  1.00  0.00    -0.032 C 
HETATM   23  C29 UNL     1      -2.841  52.245 -22.989  1.00  0.00     0.016 C 
ENDROOT
BRANCH   1  24
HETATM   24  C6  UNL     1      -2.250  50.039 -26.007  1.00  0.00    -0.014 C 
HETATM   25  C7  UNL     1      -2.796  48.633 -26.314  1.00  0.00     0.010 C 
BRANCH  24  26
HETATM   26  C5  UNL     1      -2.199  50.850 -27.334  1.00  0.00     0.008 C 
BRANCH  26  27
HETATM   27  C4  UNL     1      -1.131  51.953 -27.369  1.00  0.00     0.028 C 
BRANCH  27  28
HETATM   28  C3  UNL     1       0.281  51.453 -27.240  1.00  0.00    -0.022 C 
HETATM   29  C2  UNL     1       1.154  51.719 -26.247  1.00  0.00    -0.064 C 
HETATM   30  C1  UNL     1       0.875  52.636 -25.085  1.00  0.00     0.045 C 
BRANCH  29  31
HETATM   31  C30 UNL     1       2.536  51.118 -26.252  1.00  0.00     0.197 C 
BRANCH  31  32
HETATM   32  O2  UNL     1       3.236  51.560 -27.405  1.00  0.00    -0.397 OA
HETATM   33  H48 UNL     1       3.119  52.526 -27.443  1.00  0.00     0.209 HD
ENDBRANCH  31  32
ENDBRANCH  29  31
ENDBRANCH  27  28
ENDBRANCH  26  27
ENDBRANCH  24  26
ENDBRANCH   1  24
TORSDOF 6
ENDMDL
