MODEL 1
REMARK minimizedAffinity -8.98057365
REMARK CNNscore 0.249736473
REMARK CNNaffinity 6.53398657
REMARK  12 active torsions:
REMARK  status: ('A' for Active; 'I' for Inactive)
REMARK    1  A    between atoms: C3_3  and  O1_4 
REMARK    2  A    between atoms: N1_14  and  O2_16 
REMARK    3  A    between atoms: O2_16  and  C13_17 
REMARK    4  A    between atoms: C13_17  and  C14_18 
REMARK       I    between atoms: C14_18  and  N2_20 
REMARK    5  A    between atoms: N2_20  and  C15_21 
REMARK    6  A    between atoms: C15_21  and  C16_22 
REMARK    7  A    between atoms: C15_21  and  C26_36 
REMARK       I    between atoms: C16_22  and  N3_24 
REMARK    8  A    between atoms: N3_24  and  C17_25 
REMARK    9  A    between atoms: C17_25  and  C18_26 
REMARK   10  A    between atoms: C17_25  and  C25_33 
REMARK   11  A    between atoms: C18_26  and  C19_27 
REMARK   12  A    between atoms: C25_33  and  O6_35 
ROOT
HETATM    1  C1  UNL     1       2.701   5.344   7.057  1.00  0.00     0.015 C 
HETATM    2  C2  UNL     1       2.933   5.852   8.121  1.00  0.00    -0.078 C 
HETATM    3  C3  UNL     1       3.244   6.484   9.426  1.00  0.00     0.128 C 
HETATM    4  C4  UNL     1       3.180   8.018   9.261  1.00  0.00     0.052 C 
HETATM    5  C5  UNL     1       1.848   8.456   9.879  1.00  0.00     0.010 C 
HETATM    6  C6  UNL     1       1.053   7.164  10.172  1.00  0.00     0.002 C 
HETATM    7  C7  UNL     1      -0.114   7.274  11.195  1.00  0.00    -0.004 C 
HETATM    8  C8  UNL     1      -0.723   8.698  11.195  1.00  0.00     0.010 C 
HETATM    9  C9  UNL     1      -1.825   8.907  12.224  1.00  0.00     0.035 C 
HETATM   10  C10 UNL     1      -1.281   8.520  13.574  1.00  0.00    -0.069 C 
HETATM   11  C11 UNL     1      -1.139   9.451  14.530  1.00  0.00     0.030 C 
HETATM   12  C12 UNL     1      -0.435   9.170  15.803  1.00  0.00     0.032 C 
HETATM   13  N1  UNL     1      -0.386  10.126  16.688  1.00  0.00    -0.271 N 
ATOM     14  H1  UNL     1      -0.825  11.038  16.566  1.00  0.00     0.194 HD
HETATM   15  C29 UNL     1       0.277   7.840  15.931  1.00  0.00     0.060 C 
HETATM   16  C30 UNL     1      -0.437   6.729  15.170  1.00  0.00     0.020 C 
HETATM   17  C31 UNL     1      -0.861   7.067  13.710  1.00  0.00    -0.016 C 
HETATM   18  C32 UNL     1      -2.101   6.156  13.445  1.00  0.00     0.020 C 
HETATM   19  C33 UNL     1       0.228   6.721  12.620  1.00  0.00     0.002 C 
HETATM   20  C34 UNL     1       1.679   7.063  12.970  1.00  0.00     0.007 C 
HETATM   21  C35 UNL     1       2.711   6.492  11.972  1.00  0.00     0.014 C 
HETATM   22  C36 UNL     1       2.179   6.170  10.540  1.00  0.00     0.003 C 
HETATM   23  C37 UNL     1       1.743   4.688  10.479  1.00  0.00     0.020 C 
ENDROOT
BRANCH   3  24
HETATM   24  O1  UNL     1       4.552   6.060   9.785  1.00  0.00    -0.377 OA
HETATM   25  H2  UNL     1       4.875   6.614  10.507  1.00  0.00     0.211 HD
ENDBRANCH   3  24
BRANCH  13  26
HETATM   26  O2  UNL     1       0.339   9.752  17.826  1.00  0.00    -0.271 OA
BRANCH  26  27
HETATM   27  C13 UNL     1       0.650  10.921  18.577  1.00  0.00     0.303 C 
BRANCH  27  28
HETATM   28  C14 UNL     1       1.792  10.639  19.539  1.00  0.00     0.244 C 
HETATM   29  O3  UNL     1       2.787   9.999  19.209  1.00  0.00    -0.271 OA
HETATM   30  N2  UNL     1       1.654  11.214  20.781  1.00  0.00    -0.346 N 
HETATM   31  H16 UNL     1       0.754  11.612  21.044  1.00  0.00     0.163 HD
BRANCH  30  32
HETATM   32  C15 UNL     1       2.637  11.016  21.849  1.00  0.00     0.180 C 
BRANCH  32  33
HETATM   33  C16 UNL     1       3.801  11.998  21.585  1.00  0.00     0.241 C 
HETATM   34  O4  UNL     1       4.755  11.707  20.861  1.00  0.00    -0.271 OA
HETATM   35  N3  UNL     1       3.695  13.220  22.202  1.00  0.00    -0.345 N 
HETATM   36  H18 UNL     1       2.808  13.487  22.621  1.00  0.00     0.163 HD
BRANCH  35  37
HETATM   37  C17 UNL     1       4.608  14.329  21.910  1.00  0.00     0.186 C 
BRANCH  37  38
HETATM   38  C18 UNL     1       5.672  14.533  23.001  1.00  0.00     0.074 C 
BRANCH  38  39
HETATM   39  C19 UNL     1       6.992  13.836  22.746  1.00  0.00    -0.056 A 
HETATM   40  C20 UNL     1       7.984  14.455  21.976  1.00  0.00     0.007 A 
HETATM   41  C21 UNL     1       9.195  13.808  21.717  1.00  0.00     0.001 A 
HETATM   42  C22 UNL     1       9.429  12.535  22.231  1.00  0.00     0.000 A 
HETATM   43  C23 UNL     1       8.457  11.915  23.013  1.00  0.00     0.001 A 
HETATM   44  C24 UNL     1       7.247  12.562  23.275  1.00  0.00     0.007 A 
ENDBRANCH  38  39
ENDBRANCH  37  38
BRANCH  37  45
HETATM   45  C25 UNL     1       3.819  15.615  21.650  1.00  0.00     0.163 C 
HETATM   46  O5  UNL     1       3.402  16.391  22.495  1.00  0.00    -0.648 OA
BRANCH  45  47
HETATM   47  O6  UNL     1       3.591  15.859  20.339  1.00  0.00    -0.775 OA
HETATM   48  H27 UNL     1       3.095  16.707  20.345  1.00  0.00     0.167 HD
ENDBRANCH  45  47
ENDBRANCH  37  45
ENDBRANCH  35  37
ENDBRANCH  32  33
BRANCH  32  49
HETATM   49  C26 UNL     1       3.054   9.530  21.950  1.00  0.00     0.009 C 
HETATM   50  C27 UNL     1       4.245   9.308  22.881  1.00  0.00     0.012 C 
HETATM   51  C28 UNL     1       1.890   8.620  22.340  1.00  0.00     0.012 C 
ENDBRANCH  32  49
ENDBRANCH  30  32
ENDBRANCH  27  28
ENDBRANCH  26  27
ENDBRANCH  13  26
TORSDOF 12
ENDMDL
