MODEL 1
REMARK minimizedAffinity -7.97275019
REMARK CNNscore 0.402395368
REMARK CNNaffinity 7.542624
REMARK  10 active torsions:
REMARK  status: ('A' for Active; 'I' for Inactive)
REMARK    1  A    between atoms: C2_2  and  C3_3 
REMARK    2  A    between atoms: C5_5  and  S1_6 
REMARK    3  A    between atoms: C14_18  and  C15_19 
REMARK    4  A    between atoms: C15_19  and  O4_20 
REMARK    5  A    between atoms: C21_26  and  O5_27 
REMARK    6  A    between atoms: C33_40  and  C34_41 
REMARK    7  A    between atoms: C33_40  and  N1_50 
REMARK    8  A    between atoms: C34_41  and  C35_42 
REMARK    9  A    between atoms: C35_42  and  C36_43 
REMARK   10  A    between atoms: C36_43  and  O7_44 
REMARK       I    between atoms: N1_50  and  C42_52 
REMARK       I    between atoms: C42_52  and  N2_53 
ROOT
HETATM    1  C3  UNL     1       5.751  53.936  -6.866  1.00  0.00     0.019 C 
HETATM    2  C4  UNL     1       4.521  53.228  -6.228  1.00  0.00     0.034 C 
HETATM    3  C5  UNL     1       3.504  52.568  -7.184  1.00  0.00     0.153 C 
HETATM    4  C6  UNL     1       2.787  53.497  -8.226  1.00  0.00     0.119 A 
HETATM    5  C7  UNL     1       2.130  52.653  -9.319  1.00  0.00     0.001 C 
HETATM    6  C8  UNL     1       1.460  53.277 -10.304  1.00  0.00    -0.049 C 
HETATM    7  C9  UNL     1       1.545  54.771 -10.358  1.00  0.00     0.043 C 
HETATM    8  C10 UNL     1       0.970  55.259  -9.027  1.00  0.00     0.016 C 
HETATM    9  C11 UNL     1      -0.581  55.101  -8.980  1.00  0.00     0.039 C 
HETATM   10  C12 UNL     1      -1.244  53.822  -9.574  1.00  0.00     0.123 C 
HETATM   11  C13 UNL     1      -2.778  54.070  -9.616  1.00  0.00     0.039 C 
HETATM   12  C14 UNL     1      -3.721  53.030 -10.279  1.00  0.00     0.023 C 
HETATM   13  C16 UNL     1      -3.948  53.238 -11.794  1.00  0.00     0.101 C 
HETATM   14  C17 UNL     1      -2.848  52.744 -12.625  1.00  0.00    -0.101 C 
HETATM   15  C18 UNL     1      -1.808  52.394 -13.113  1.00  0.00    -0.066 C 
HETATM   16  C19 UNL     1      -0.452  52.063 -13.430  1.00  0.00     0.029 A 
HETATM   17  C20 UNL     1      -0.174  51.584 -14.714  1.00  0.00     0.057 A 
HETATM   18  C21 UNL     1       1.118  51.168 -15.034  1.00  0.00     0.067 A 
HETATM   19  C22 UNL     1       2.134  51.252 -14.094  1.00  0.00     0.037 A 
HETATM   20  C23 UNL     1       1.861  51.756 -12.820  1.00  0.00     0.014 A 
HETATM   21  C24 UNL     1       0.567  52.198 -12.461  1.00  0.00    -0.006 A 
HETATM   22  C25 UNL     1       0.297  52.632 -11.011  1.00  0.00     0.185 C 
HETATM   23  O6  UNL     1      -0.792  53.575 -10.909  1.00  0.00    -0.371 OA
HETATM   24  C26 UNL     1       1.713  54.588  -7.777  1.00  0.00     0.113 A 
HETATM   25  C27 UNL     1       2.255  55.674  -6.845  1.00  0.00    -0.039 A 
HETATM   26  C28 UNL     1       2.043  55.573  -5.463  1.00  0.00     0.009 A 
HETATM   27  C29 UNL     1       2.567  56.523  -4.573  1.00  0.00     0.012 A 
HETATM   28  C30 UNL     1       3.277  57.645  -5.039  1.00  0.00    -0.003 A 
HETATM   29  C31 UNL     1       3.405  57.780  -6.437  1.00  0.00     0.012 A 
HETATM   30  C32 UNL     1       2.950  56.794  -7.317  1.00  0.00     0.009 A 
HETATM   31  C33 UNL     1       3.957  58.698  -4.099  1.00  0.00     0.171 C 
HETATM   32  O8  UNL     1       5.446  58.632  -4.095  1.00  0.00    -0.316 OA
HETATM   33  C43 UNL     1       5.995  57.492  -4.615  1.00  0.00     0.072 C 
HETATM   34  C44 UNL     1       6.453  57.531  -5.932  1.00  0.00     0.037 C 
HETATM   35  C45 UNL     1       6.531  56.334  -6.642  1.00  0.00     0.010 C 
HETATM   36  C46 UNL     1       6.197  55.126  -6.011  1.00  0.00    -0.054 C 
HETATM   37  C47 UNL     1       6.075  55.104  -4.612  1.00  0.00     0.010 C 
HETATM   38  C48 UNL     1       5.961  56.298  -3.909  1.00  0.00     0.037 C 
HETATM   39 NA1  UNL     1       2.260  55.648  -6.717  1.00  0.00    -0.230 Na
ENDROOT
BRANCH  31  40
HETATM   40  C34 UNL     1       3.558  58.516  -2.591  1.00  0.00     0.070 C 
BRANCH  40  41
HETATM   41  C35 UNL     1       2.159  59.015  -2.148  1.00  0.00     0.043 C 
BRANCH  41  42
HETATM   42  C36 UNL     1       2.056  60.259  -1.221  1.00  0.00     0.058 C 
HETATM   43  C37 UNL     1       1.330  59.884   0.090  1.00  0.00     0.038 C 
HETATM   44  C38 UNL     1      -0.170  59.657  -0.082  1.00  0.00     0.003 C 
HETATM   45  C39 UNL     1      -0.848  60.837  -0.770  1.00  0.00     0.000 C 
HETATM   46  C40 UNL     1      -0.153  61.218  -2.072  1.00  0.00     0.003 C 
HETATM   47  C41 UNL     1       1.338  61.461  -1.855  1.00  0.00     0.038 C 
BRANCH  42  48
HETATM   48  O7  UNL     1       3.365  60.691  -0.815  1.00  0.00    -0.390 OA
HETATM   49  H40 UNL     1       4.000  60.332  -1.467  1.00  0.00     0.210 HD
ENDBRANCH  42  48
ENDBRANCH  41  42
ENDBRANCH  40  41
ENDBRANCH  31  40
BRANCH  31  50
HETATM   50  N1  UNL     1       3.538  60.072  -4.470  1.00  0.00    -0.331 N 
HETATM   51  C42 UNL     1       4.141  61.142  -4.126  1.00  0.00     0.146 C 
HETATM   52  N2  UNL     1       3.642  62.334  -4.530  1.00  0.00    -0.274 NA
HETATM   53  N3  UNL     1       5.245  61.366  -3.387  1.00  0.00    -0.376 N 
HETATM   54  H51 UNL     1       2.749  62.208  -4.999  1.00  0.00     0.127 HD
HETATM   55  H52 UNL     1       3.574  63.001  -3.776  1.00  0.00     0.127 HD
HETATM   56  H53 UNL     1       5.762  62.200  -3.639  1.00  0.00     0.158 HD
HETATM   57  H54 UNL     1       5.839  60.573  -3.178  1.00  0.00     0.158 HD
ATOM     58  H1  UNL     1       2.701  60.169  -5.047  1.00  0.00     0.165 HD
ENDBRANCH  31  50
BRANCH   1  59
HETATM   59  C2  UNL     1       6.919  53.004  -7.245  1.00  0.00     0.005 C 
HETATM   60  C1  UNL     1       6.895  52.432  -8.657  1.00  0.00     0.006 C 
ENDBRANCH   1  59
BRANCH   3  61
HETATM   61  S1  UNL     1       2.366  51.462  -6.256  1.00  0.00     0.108 S 
HETATM   62  O1  UNL     1       3.002  51.266  -4.954  1.00  0.00    -0.595 OA
HETATM   63  O2  UNL     1       2.341  50.261  -7.090  1.00  0.00    -0.595 OA
HETATM   64  O3  UNL     1       1.085  52.155  -6.180  1.00  0.00    -0.595 OA
ENDBRANCH   3  61
BRANCH  12  65
HETATM   65  C15 UNL     1      -3.384  51.582  -9.916  1.00  0.00     0.169 C 
BRANCH  65  66
HETATM   66  O4  UNL     1      -2.666  51.561  -8.683  1.00  0.00    -0.400 OA
HETATM   67  H23 UNL     1      -1.764  51.231  -8.869  1.00  0.00     0.209 HD
ENDBRANCH  65  66
ENDBRANCH  12  65
BRANCH  18  68
HETATM   68  O5  UNL     1       1.425  50.644 -16.255  1.00  0.00    -0.361 OA
HETATM   69  H27 UNL     1       0.628  50.668 -16.806  1.00  0.00     0.217 HD
ENDBRANCH  18  68
TORSDOF 10
ENDMDL
