MODEL 1
REMARK minimizedAffinity -8.5768528
REMARK  10 active torsions:
REMARK  status: ('A' for Active; 'I' for Inactive)
REMARK    1  A    between atoms: C12_14  and  C13_15 
REMARK    2  A    between atoms: C13_15  and  C15_17 
REMARK    3  A    between atoms: C15_17  and  C16_18 
REMARK    4  A    between atoms: C16_18  and  C17_19 
REMARK    5  A    between atoms: C18_20  and  C20_22 
REMARK    6  A    between atoms: C20_22  and  O3_23 
REMARK    7  A    between atoms: C26_29  and  C27_30 
REMARK    8  A    between atoms: C27_30  and  C28_31 
REMARK    9  A    between atoms: C28_31  and  C29_32 
REMARK   10  A    between atoms: C29_32  and  O5_34 
ROOT
HETATM    1  C1  UNL     1       4.191   8.598   9.581  1.00  0.00     0.025 C 
HETATM    2  C2  UNL     1       4.013   8.342  10.882  1.00  0.00     0.015 C 
HETATM    3  C3  UNL     1       4.617   9.218  11.917  1.00  0.00     0.289 C 
HETATM    4  O1  UNL     1       5.488  10.049  11.747  1.00  0.00    -0.260 OA
HETATM    5  O2  UNL     1       4.041   8.895  13.111  1.00  0.00    -0.311 OA
HETATM    6  C4  UNL     1       2.930   8.004  12.891  1.00  0.00     0.142 C 
HETATM    7  C5  UNL     1       1.648   8.825  12.862  1.00  0.00     0.039 C 
HETATM    8  C6  UNL     1       0.373   8.042  12.512  1.00  0.00     0.006 C 
HETATM    9  C7  UNL     1       0.569   6.986  11.384  1.00  0.00    -0.027 A 
HETATM   10  C8  UNL     1      -0.679   6.108  11.114  1.00  0.00     0.011 C 
HETATM   11  C9  UNL     1      -1.500   5.673  12.341  1.00  0.00     0.011 C 
HETATM   12  C10 UNL     1      -1.760   6.852  13.286  1.00  0.00    -0.032 C 
HETATM   13  C11 UNL     1      -2.649   7.892  12.541  1.00  0.00     0.016 C 
HETATM   14  C12 UNL     1      -2.413   6.494  14.658  1.00  0.00    -0.002 C 
HETATM   15  C21 UNL     1      -1.942   7.641  15.589  1.00  0.00     0.006 C 
HETATM   16  C22 UNL     1      -0.775   8.356  14.871  1.00  0.00     0.011 C 
HETATM   17  C23 UNL     1      -0.351   7.401  13.739  1.00  0.00    -0.032 C 
HETATM   18  C24 UNL     1       0.579   6.325  14.386  1.00  0.00     0.016 C 
HETATM   19  C25 UNL     1       1.149   7.470  10.074  1.00  0.00     0.022 A 
HETATM   20  C26 UNL     1       2.029   6.603  10.940  1.00  0.00    -0.021 A 
HETATM   21  C31 UNL     1       3.240   7.278  11.595  1.00  0.00     0.063 C 
ENDROOT
BRANCH  14  22
HETATM   22  C13 UNL     1      -3.933   6.129  14.719  1.00  0.00    -0.014 C 
HETATM   23  C14 UNL     1      -4.679   7.290  15.406  1.00  0.00     0.010 C 
BRANCH  22  24
HETATM   24  C15 UNL     1      -4.595   5.826  13.352  1.00  0.00     0.008 C 
BRANCH  24  25
HETATM   25  C16 UNL     1      -4.568   4.349  12.931  1.00  0.00     0.028 C 
BRANCH  25  26
HETATM   26  C17 UNL     1      -5.906   3.664  12.909  1.00  0.00    -0.022 C 
HETATM   27  C18 UNL     1      -7.119   4.257  12.941  1.00  0.00    -0.064 C 
HETATM   28  C19 UNL     1      -7.342   5.737  13.089  1.00  0.00     0.045 C 
BRANCH  27  29
HETATM   29  C20 UNL     1      -8.384   3.442  12.860  1.00  0.00     0.197 C 
BRANCH  29  30
HETATM   30  O3  UNL     1      -8.041   2.077  12.678  1.00  0.00    -0.397 OA
HETATM   31  H29 UNL     1      -7.392   1.862  13.370  1.00  0.00     0.209 HD
ENDBRANCH  29  30
ENDBRANCH  27  29
ENDBRANCH  25  26
ENDBRANCH  24  25
ENDBRANCH  22  24
ENDBRANCH  14  22
BRANCH  20  32
HETATM   32  C27 UNL     1       2.309   5.145  10.532  1.00  0.00     0.021 C 
BRANCH  32  33
HETATM   33  C28 UNL     1       3.550   4.944   9.658  1.00  0.00     0.112 C 
BRANCH  33  34
HETATM   34  C29 UNL     1       3.298   4.905   8.171  1.00  0.00     0.258 C 
HETATM   35  O4  UNL     1       2.567   5.699   7.588  1.00  0.00    -0.265 OA
BRANCH  34  36
HETATM   36  O5  UNL     1       3.935   3.862   7.577  1.00  0.00    -0.326 OA
HETATM   37  C30 UNL     1       4.832   3.164   8.440  1.00  0.00     0.213 C 
ENDBRANCH  34  36
ENDBRANCH  33  34
ENDBRANCH  32  33
ENDBRANCH  20  32
TORSDOF 10
ENDMDL
