MODEL 1
REMARK minimizedAffinity -7.43709755
REMARK CNNscore 0.75159812
REMARK CNNaffinity 4.43158484
REMARK  12 active torsions:
REMARK  status: ('A' for Active; 'I' for Inactive)
REMARK    1  A    between atoms: C3_3  and  O1_4 
REMARK    2  A    between atoms: O1_4  and  C4_5 
REMARK    3  A    between atoms: C5_7  and  C6_8 
REMARK    4  A    between atoms: C6_8  and  O3_9 
REMARK    5  A    between atoms: C7_10  and  O4_11 
REMARK    6  A    between atoms: C8_12  and  O5_13 
REMARK    7  A    between atoms: C9_14  and  O6_15 
REMARK    8  A    between atoms: C10_16  and  O7_17 
REMARK    9  A    between atoms: C15_22  and  O8_23 
REMARK   10  A    between atoms: C15_22  and  C16_24 
REMARK   11  A    between atoms: C17_25  and  C18_26 
REMARK   12  A    between atoms: C18_26  and  O9_28 
ROOT
HETATM    1  C1  UNL     1       2.398  66.269 -36.844  1.00  0.00     0.016 C 
HETATM    2  C2  UNL     1       3.531  67.257 -37.199  1.00  0.00     0.052 C 
HETATM    3  C3  UNL     1       3.756  67.311 -38.730  1.00  0.00     0.160 C 
HETATM    4  C10 UNL     1       4.970  68.180 -39.134  1.00  0.00     0.148 C 
HETATM    5  C11 UNL     1       6.204  67.970 -38.256  1.00  0.00     0.046 C 
HETATM    6  C12 UNL     1       5.932  68.094 -36.744  1.00  0.00    -0.010 C 
HETATM    7  C13 UNL     1       7.276  67.866 -36.003  1.00  0.00     0.018 C 
HETATM    8  C14 UNL     1       5.509  69.547 -36.406  1.00  0.00     0.018 C 
HETATM    9  C15 UNL     1       4.819  67.049 -36.336  1.00  0.00     0.088 C 
ENDROOT
BRANCH   3  10
HETATM   10  O1  UNL     1       2.514  67.799 -39.279  1.00  0.00    -0.350 OA
BRANCH  10  11
HETATM   11  C4  UNL     1       1.792  66.901 -40.109  1.00  0.00     0.292 C 
HETATM   12  O2  UNL     1       2.004  67.171 -41.496  1.00  0.00    -0.348 OA
HETATM   13  C5  UNL     1       1.561  68.462 -41.958  1.00  0.00     0.179 C 
HETATM   14  C7  UNL     1       0.484  69.118 -41.081  1.00  0.00     0.180 C 
HETATM   15  C8  UNL     1      -0.458  68.022 -40.599  1.00  0.00     0.183 C 
HETATM   16  C9  UNL     1       0.286  66.984 -39.751  1.00  0.00     0.204 C 
BRANCH  13  17
HETATM   17  C6  UNL     1       2.744  69.397 -42.257  1.00  0.00     0.198 C 
BRANCH  17  18
HETATM   18  O3  UNL     1       2.716  69.914 -43.582  1.00  0.00    -0.398 OA
HETATM   19  H10 UNL     1       3.541  70.415 -43.707  1.00  0.00     0.209 HD
ENDBRANCH  17  18
ENDBRANCH  13  17
BRANCH  14  20
HETATM   20  O4  UNL     1      -0.261  70.081 -41.842  1.00  0.00    -0.390 OA
HETATM   21  H12 UNL     1      -1.056  70.260 -41.298  1.00  0.00     0.210 HD
ENDBRANCH  14  20
BRANCH  15  22
HETATM   22  O5  UNL     1      -1.541  68.611 -39.855  1.00  0.00    -0.390 OA
HETATM   23  H14 UNL     1      -2.038  67.868 -39.462  1.00  0.00     0.210 HD
ENDBRANCH  15  22
BRANCH  16  24
HETATM   24  O6  UNL     1      -0.375  65.715 -39.947  1.00  0.00    -0.388 OA
HETATM   25  H16 UNL     1      -0.103  65.387 -40.826  1.00  0.00     0.210 HD
ENDBRANCH  16  24
ENDBRANCH  10  11
ENDBRANCH   3  10
BRANCH   4  26
HETATM   26  O7  UNL     1       5.373  67.884 -40.482  1.00  0.00    -0.393 OA
HETATM   27  H18 UNL     1       5.740  66.986 -40.505  1.00  0.00     0.210 HD
ENDBRANCH   4  26
BRANCH   9  28
HETATM   28  O8  UNL     1       4.405  67.324 -34.983  1.00  0.00    -0.385 OA
HETATM   29  H27 UNL     1       5.189  67.327 -34.413  1.00  0.00     0.211 HD
ENDBRANCH   9  28
BRANCH   9  30
HETATM   30  C16 UNL     1       5.375  65.631 -36.271  1.00  0.00     0.010 C 
HETATM   31  C17 UNL     1       5.295  64.700 -35.300  1.00  0.00     0.003 C 
BRANCH  31  32
HETATM   32  C18 UNL     1       5.885  63.313 -35.360  1.00  0.00     0.136 C 
HETATM   33  C19 UNL     1       7.148  63.222 -34.516  1.00  0.00     0.043 C 
BRANCH  32  34
HETATM   34  O9  UNL     1       4.957  62.345 -34.889  1.00  0.00    -0.392 OA
HETATM   35  H34 UNL     1       4.181  62.395 -35.477  1.00  0.00     0.210 HD
ENDBRANCH  32  34
ENDBRANCH  31  32
ENDBRANCH   9  30
TORSDOF 12
ENDMDL
