MODEL 1
REMARK minimizedAffinity -9.41291714
REMARK  8 active torsions:
REMARK  status: ('A' for Active; 'I' for Inactive)
REMARK    1  A    between atoms: C2_2  and  C3_3 
REMARK    2  A    between atoms: C2_2  and  C9_11 
REMARK    3  A    between atoms: C3_3  and  C4_4 
REMARK    4  A    between atoms: C4_4  and  C5_5 
REMARK    5  A    between atoms: C6_6  and  C7_7 
REMARK    6  A    between atoms: C6_6  and  C8_9 
REMARK    7  A    between atoms: C7_7  and  O1_8 
REMARK    8  A    between atoms: C8_9  and  O2_10 
ROOT
HETATM    1  C9  UNL     1      -0.889  51.904 -21.056  1.00  0.00     0.018 C 
HETATM    2  C10 UNL     1      -0.566  51.010 -19.832  1.00  0.00     0.010 C 
HETATM    3  C11 UNL     1      -1.852  50.199 -19.567  1.00  0.00     0.011 C 
HETATM    4  C12 UNL     1      -2.439  49.939 -20.975  1.00  0.00    -0.032 C 
HETATM    5  C13 UNL     1      -1.542  48.845 -21.632  1.00  0.00     0.016 C 
HETATM    6  C14 UNL     1      -2.227  51.345 -21.603  1.00  0.00     0.002 C 
HETATM    7  C15 UNL     1      -2.567  51.387 -23.082  1.00  0.00     0.006 C 
HETATM    8  C16 UNL     1      -4.036  50.968 -23.288  1.00  0.00     0.006 C 
HETATM    9  C17 UNL     1      -4.392  49.605 -22.626  1.00  0.00     0.003 C 
HETATM   10  C18 UNL     1      -5.823  49.035 -23.016  1.00  0.00    -0.035 C 
HETATM   11  C19 UNL     1      -6.967  50.009 -22.656  1.00  0.00     0.016 C 
HETATM   12  C20 UNL     1      -5.867  48.853 -24.574  1.00  0.00     0.017 C 
HETATM   13  C21 UNL     1      -6.699  47.681 -25.085  1.00  0.00     0.080 C 
HETATM   14  C22 UNL     1      -7.790  47.288 -24.124  1.00  0.00     0.135 C 
HETATM   15  O3  UNL     1      -8.961  47.216 -24.499  1.00  0.00    -0.297 OA
HETATM   16  C23 UNL     1      -7.352  46.894 -22.707  1.00  0.00     0.017 C 
HETATM   17  C24 UNL     1      -8.503  47.184 -21.725  1.00  0.00     0.023 C 
HETATM   18  C25 UNL     1      -7.134  45.366 -22.726  1.00  0.00     0.023 C 
HETATM   19  C26 UNL     1      -6.001  47.619 -22.356  1.00  0.00     0.009 C 
HETATM   20  C27 UNL     1      -5.689  47.620 -20.847  1.00  0.00     0.007 C 
HETATM   21  C28 UNL     1      -4.275  48.130 -20.552  1.00  0.00     0.011 C 
HETATM   22  C29 UNL     1      -3.998  49.559 -21.088  1.00  0.00    -0.032 C 
HETATM   23  C30 UNL     1      -4.859  50.537 -20.237  1.00  0.00     0.016 C 
ENDROOT
BRANCH   1  24
HETATM   24  C2  UNL     1       0.241  52.216 -22.036  1.00  0.00    -0.084 C 
HETATM   25  C1  UNL     1       1.428  52.610 -21.537  1.00  0.00     0.014 C 
BRANCH  24  26
HETATM   26  C3  UNL     1      -0.032  52.091 -23.529  1.00  0.00     0.037 C 
BRANCH  26  27
HETATM   27  C4  UNL     1       0.537  53.148 -24.499  1.00  0.00     0.032 C 
BRANCH  27  28
HETATM   28  C5  UNL     1       0.305  52.794 -25.947  1.00  0.00    -0.019 C 
HETATM   29  C6  UNL     1       1.107  52.077 -26.763  1.00  0.00    -0.037 C 
BRANCH  29  30
HETATM   30  C7  UNL     1       0.729  51.861 -28.206  1.00  0.00     0.200 C 
BRANCH  30  31
HETATM   31  O1  UNL     1      -0.684  51.712 -28.282  1.00  0.00    -0.397 OA
HETATM   32  H10 UNL     1      -0.882  51.431 -29.192  1.00  0.00     0.209 HD
ENDBRANCH  30  31
ENDBRANCH  29  30
BRANCH  29  33
HETATM   33  C8  UNL     1       2.404  51.429 -26.355  1.00  0.00     0.200 C 
BRANCH  33  34
HETATM   34  O2  UNL     1       3.327  51.485 -27.432  1.00  0.00    -0.397 OA
HETATM   35  H13 UNL     1       2.798  51.320 -28.241  1.00  0.00     0.209 HD
ENDBRANCH  33  34
ENDBRANCH  29  33
ENDBRANCH  27  28
ENDBRANCH  26  27
ENDBRANCH  24  26
ENDBRANCH   1  24
TORSDOF 8
ENDMDL
