MODEL 1
REMARK minimizedAffinity -8.15752411
REMARK CNNscore 0.584092438
REMARK CNNaffinity 8.15209866
REMARK  10 active torsions:
REMARK  status: ('A' for Active; 'I' for Inactive)
REMARK    1  A    between atoms: C2_2  and  C3_3 
REMARK    2  A    between atoms: C5_5  and  S1_6 
REMARK    3  A    between atoms: C14_18  and  C15_19 
REMARK    4  A    between atoms: C15_19  and  O4_20 
REMARK    5  A    between atoms: C21_26  and  O5_27 
REMARK    6  A    between atoms: C33_40  and  C34_41 
REMARK    7  A    between atoms: C33_40  and  N1_45 
REMARK    8  A    between atoms: C34_41  and  C35_42 
REMARK    9  A    between atoms: C35_42  and  C36_43 
REMARK   10  A    between atoms: C36_43  and  O7_44 
REMARK       I    between atoms: N1_45  and  C37_47 
REMARK       I    between atoms: C37_47  and  N3_49 
ROOT
HETATM    1  C3  UNL     1       4.433  54.767  -7.904  1.00  0.00     0.019 C 
HETATM    2  C4  UNL     1       3.279  55.276  -6.987  1.00  0.00     0.034 C 
HETATM    3  C5  UNL     1       3.474  55.996  -5.637  1.00  0.00     0.157 C 
HETATM    4  C6  UNL     1       2.267  55.652  -4.678  1.00  0.00     0.121 A 
HETATM    5  C7  UNL     1       2.607  55.959  -3.224  1.00  0.00     0.005 C 
HETATM    6  C8  UNL     1       1.625  55.929  -2.302  1.00  0.00    -0.048 C 
HETATM    7  C9  UNL     1       0.303  55.348  -2.710  1.00  0.00     0.044 C 
HETATM    8  C10 UNL     1      -0.222  56.186  -3.884  1.00  0.00     0.019 C 
HETATM    9  C11 UNL     1      -0.704  57.598  -3.416  1.00  0.00     0.039 C 
HETATM   10  C12 UNL     1       0.244  58.369  -2.463  1.00  0.00     0.123 C 
HETATM   11  C13 UNL     1      -0.306  59.762  -2.078  1.00  0.00     0.039 C 
HETATM   12  C14 UNL     1      -1.454  59.766  -1.022  1.00  0.00     0.023 C 
HETATM   13  C16 UNL     1      -0.977  60.167   0.403  1.00  0.00     0.101 C 
HETATM   14  C17 UNL     1      -0.117  59.150   1.019  1.00  0.00    -0.101 C 
HETATM   15  C18 UNL     1       0.592  58.228   1.319  1.00  0.00    -0.066 C 
HETATM   16  C19 UNL     1       1.394  57.042   1.409  1.00  0.00     0.029 A 
HETATM   17  C20 UNL     1       1.713  56.562   2.686  1.00  0.00     0.057 A 
HETATM   18  C21 UNL     1       2.494  55.418   2.821  1.00  0.00     0.067 A 
HETATM   19  C22 UNL     1       2.950  54.726   1.706  1.00  0.00     0.037 A 
HETATM   20  C23 UNL     1       2.627  55.190   0.429  1.00  0.00     0.014 A 
HETATM   21  C24 UNL     1       1.844  56.357   0.248  1.00  0.00    -0.006 A 
HETATM   22  C25 UNL     1       1.640  56.915  -1.158  1.00  0.00     0.185 C 
HETATM   23  O6  UNL     1       0.394  57.614  -1.258  1.00  0.00    -0.371 OA
HETATM   24  C26 UNL     1       0.839  56.267  -5.060  1.00  0.00     0.115 A 
HETATM   25  C27 UNL     1       0.220  55.644  -6.320  1.00  0.00    -0.035 A 
HETATM   26  C28 UNL     1      -0.099  54.283  -6.400  1.00  0.00     0.010 A 
HETATM   27  C29 UNL     1      -0.527  53.713  -7.611  1.00  0.00     0.012 A 
HETATM   28  C30 UNL     1      -0.667  54.483  -8.782  1.00  0.00    -0.003 A 
HETATM   29  C31 UNL     1      -0.412  55.863  -8.673  1.00  0.00     0.012 A 
HETATM   30  C32 UNL     1       0.024  56.429  -7.467  1.00  0.00     0.010 A 
HETATM   31  C33 UNL     1      -0.981  53.820 -10.163  1.00  0.00     0.171 C 
HETATM   32  O8  UNL     1       0.079  54.066 -11.163  1.00  0.00    -0.316 OA
HETATM   33  C38 UNL     1       1.366  54.012 -10.694  1.00  0.00     0.072 C 
HETATM   34  C39 UNL     1       2.128  55.166 -10.871  1.00  0.00     0.037 C 
HETATM   35  C40 UNL     1       3.272  55.348 -10.100  1.00  0.00     0.010 C 
HETATM   36  C41 UNL     1       3.666  54.358  -9.183  1.00  0.00    -0.054 C 
HETATM   37  C42 UNL     1       3.034  53.103  -9.221  1.00  0.00     0.010 C 
HETATM   38  C43 UNL     1       1.874  52.931  -9.979  1.00  0.00     0.037 C 
HETATM   39 NA1  UNL     1       0.762  55.785  -5.504  1.00  0.00    -0.404 Na
ATOM     40  HA1 UNL     1       0.151  55.381  -6.215  1.00  0.00     0.154 HD
ENDROOT
BRANCH  31  41
HETATM   41  C34 UNL     1      -2.220  54.548 -10.794  1.00  0.00     0.069 C 
BRANCH  41  42
HETATM   42  C35 UNL     1      -3.621  53.951 -10.557  1.00  0.00     0.031 C 
BRANCH  42  43
HETATM   43  C36 UNL     1      -4.200  53.120 -11.694  1.00  0.00     0.164 C 
BRANCH  43  44
HETATM   44  O7  UNL     1      -4.204  53.877 -12.900  1.00  0.00    -0.401 OA
HETATM   45  H42 UNL     1      -4.478  53.267 -13.602  1.00  0.00     0.209 HD
ENDBRANCH  43  44
ENDBRANCH  42  43
ENDBRANCH  41  42
ENDBRANCH  31  41
BRANCH  31  46
HETATM   46  N1  UNL     1      -1.362  52.399  -9.978  1.00  0.00    -0.331 N 
HETATM   47  C37 UNL     1      -1.297  51.553 -10.938  1.00  0.00     0.146 C 
HETATM   48  N2  UNL     1      -1.643  50.270 -10.708  1.00  0.00    -0.376 N 
HETATM   49  N3  UNL     1      -0.865  51.710 -12.210  1.00  0.00    -0.274 NA
HETATM   50  H43 UNL     1      -2.014  49.739 -11.477  1.00  0.00     0.158 HD
HETATM   51  H44 UNL     1      -2.093  50.132  -9.809  1.00  0.00     0.158 HD
HETATM   52  H45 UNL     1      -0.570  52.661 -12.410  1.00  0.00     0.127 HD
HETATM   53  H46 UNL     1      -1.504  51.381 -12.923  1.00  0.00     0.127 HD
ATOM     54  H1  UNL     1      -1.686  52.087  -9.061  1.00  0.00     0.165 HD
ENDBRANCH  31  46
BRANCH   1  55
HETATM   55  C2  UNL     1       5.602  55.722  -8.187  1.00  0.00     0.005 C 
HETATM   56  C1  UNL     1       6.705  55.056  -9.003  1.00  0.00     0.006 C 
ENDBRANCH   1  55
BRANCH   3  57
HETATM   57  S1  UNL     1       3.723  57.801  -5.835  1.00  0.00     0.108 S 
HETATM   58  O1  UNL     1       2.932  58.414  -4.765  1.00  0.00    -0.595 OA
HETATM   59  O2  UNL     1       5.165  58.019  -5.704  1.00  0.00    -0.595 OA
HETATM   60  O3  UNL     1       3.227  58.063  -7.185  1.00  0.00    -0.595 OA
ENDBRANCH   3  57
BRANCH  12  61
HETATM   61  C15 UNL     1      -2.571  60.729  -1.461  1.00  0.00     0.169 C 
BRANCH  61  62
HETATM   62  O4  UNL     1      -3.386  60.179  -2.489  1.00  0.00    -0.400 OA
HETATM   63  H23 UNL     1      -3.678  59.298  -2.215  1.00  0.00     0.209 HD
ENDBRANCH  61  62
ENDBRANCH  12  61
BRANCH  18  64
HETATM   64  O5  UNL     1       2.807  54.992   4.084  1.00  0.00    -0.361 OA
HETATM   65  H27 UNL     1       3.420  54.247   4.017  1.00  0.00     0.217 HD
ENDBRANCH  18  64
TORSDOF 10
ENDMDL
