MODEL 1
REMARK minimizedAffinity -9.23702335
REMARK CNNscore 0.741011679
REMARK CNNaffinity 7.92163324
REMARK  12 active torsions:
REMARK  status: ('A' for Active; 'I' for Inactive)
REMARK    1  A    between atoms: C2_2  and  C3_3 
REMARK    2  A    between atoms: C4_5  and  C5_6 
REMARK    3  A    between atoms: C5_6  and  C7_8 
REMARK    4  A    between atoms: C7_8  and  C8_9 
REMARK    5  A    between atoms: C9_10  and  C10_11 
REMARK    6  A    between atoms: C17_19  and  C18_20 
REMARK    7  A    between atoms: C18_20  and  C19_21 
REMARK    8  A    between atoms: C28_33  and  C29_34 
REMARK    9  A    between atoms: C29_34  and  C30_36 
REMARK   10  A    between atoms: C30_36  and  C31_37 
REMARK   11  A    between atoms: C31_37  and  C32_38 
REMARK   12  A    between atoms: C32_38  and  O5_39 
ROOT
HETATM    1  C10 UNL     1      -1.067  49.664 -19.200  1.00  0.00     0.066 C 
HETATM    2  C11 UNL     1      -2.037  48.510 -19.367  1.00  0.00     0.166 A 
HETATM    3  O2  UNL     1      -1.528  47.356 -20.042  1.00  0.00    -0.368 OA
HETATM    4  C12 UNL     1      -2.448  48.174 -20.781  1.00  0.00     0.088 A 
HETATM    5  C13 UNL     1      -3.777  47.529 -21.009  1.00  0.00     0.049 C 
HETATM    6  C14 UNL     1      -1.794  49.017 -21.854  1.00  0.00     0.026 C 
HETATM    7  C15 UNL     1      -2.213  48.653 -23.278  1.00  0.00     0.014 C 
HETATM    8  C16 UNL     1      -1.915  50.535 -21.525  1.00  0.00     0.041 C 
HETATM    9  C17 UNL     1      -3.305  51.146 -21.812  1.00  0.00     0.095 C 
HETATM   10  N2  UNL     1      -3.864  51.375 -20.509  1.00  0.00    -0.355 N 
HETATM   11  C27 UNL     1      -2.967  51.302 -19.478  1.00  0.00     0.235 C 
HETATM   12  O3  UNL     1      -3.271  51.563 -18.327  1.00  0.00    -0.272 OA
HETATM   13  C28 UNL     1      -1.605  50.890 -20.008  1.00  0.00     0.116 C 
HETATM   14  H33 UNL     1      -4.828  51.643 -20.331  1.00  0.00     0.162 HD
ENDROOT
BRANCH   9  15
HETATM   15  C18 UNL     1      -3.254  52.460 -22.620  1.00  0.00     0.066 C 
BRANCH  15  16
HETATM   16  C19 UNL     1      -3.006  52.242 -24.078  1.00  0.00    -0.028 A 
HETATM   17  C20 UNL     1      -3.971  52.169 -25.066  1.00  0.00     0.096 A 
HETATM   18  N1  UNL     1      -3.347  51.938 -26.262  1.00  0.00    -0.365 N 
HETATM   19  C21 UNL     1      -1.986  51.857 -26.081  1.00  0.00     0.042 A 
HETATM   20  H28 UNL     1      -3.809  51.836 -27.154  1.00  0.00     0.165 HD
HETATM   21  C22 UNL     1      -0.967  51.623 -27.012  1.00  0.00     0.030 A 
HETATM   22  C26 UNL     1      -1.738  52.058 -24.723  1.00  0.00    -0.002 A 
HETATM   23  C23 UNL     1       0.347  51.590 -26.539  1.00  0.00     0.002 A 
HETATM   24  C24 UNL     1       0.630  51.785 -25.191  1.00  0.00     0.001 A 
HETATM   25  C25 UNL     1      -0.401  52.022 -24.276  1.00  0.00     0.014 A 
ENDBRANCH  15  16
ENDBRANCH   9  15
BRANCH  13  26
HETATM   26  C29 UNL     1      -0.545  51.995 -19.978  1.00  0.00     0.146 C 
HETATM   27  O4  UNL     1      -0.690  52.955 -19.212  1.00  0.00    -0.297 OA
BRANCH  26  28
HETATM   28  C30 UNL     1       0.718  51.872 -20.818  1.00  0.00     0.081 C 
BRANCH  28  29
HETATM   29  C31 UNL     1       1.545  53.163 -20.787  1.00  0.00     0.033 C 
BRANCH  29  30
HETATM   30  C32 UNL     1       1.268  54.065 -21.985  1.00  0.00     0.164 C 
BRANCH  30  31
HETATM   31  O5  UNL     1       2.217  55.120 -22.073  1.00  0.00    -0.401 OA
HETATM   32  H40 UNL     1       2.045  55.757 -21.360  1.00  0.00     0.209 HD
ENDBRANCH  30  31
ENDBRANCH  29  30
ENDBRANCH  28  29
ENDBRANCH  26  28
ENDBRANCH  13  26
BRANCH   1  33
HETATM   33  C9  UNL     1      -0.634  49.987 -17.776  1.00  0.00    -0.022 C 
HETATM   34  C8  UNL     1       0.321  50.849 -17.389  1.00  0.00    -0.029 C 
BRANCH  34  35
HETATM   35  C7  UNL     1       0.685  51.121 -15.955  1.00  0.00     0.035 C 
BRANCH  35  36
HETATM   36  C5  UNL     1       1.823  52.153 -15.792  1.00  0.00     0.008 C 
HETATM   37  C6  UNL     1       2.508  52.492 -17.122  1.00  0.00     0.014 C 
BRANCH  36  38
HETATM   38  C4  UNL     1       2.854  51.605 -14.829  1.00  0.00    -0.013 C 
HETATM   39  C2  UNL     1       2.766  50.505 -14.057  1.00  0.00    -0.028 C 
HETATM   40  C1  UNL     1       1.613  49.556 -13.951  1.00  0.00     0.051 C 
BRANCH  39  41
HETATM   41  C3  UNL     1       3.940  50.163 -13.192  1.00  0.00     0.265 C 
HETATM   42  O1  UNL     1       4.989  49.688 -13.611  1.00  0.00    -0.302 OA
ENDBRANCH  39  41
ENDBRANCH  36  38
ENDBRANCH  35  36
ENDBRANCH  34  35
ENDBRANCH   1  33
TORSDOF 12
ENDMDL
