MODEL 1
REMARK minimizedAffinity -7.01743793
REMARK CNNscore 0.695733726
REMARK CNNaffinity 7.30134916
REMARK  9 active torsions:
REMARK  status: ('A' for Active; 'I' for Inactive)
REMARK    1  A    between atoms: N1_2  and  C2_3 
REMARK    2  A    between atoms: C2_3  and  C3_4 
REMARK    3  A    between atoms: C7_8  and  O1_9 
REMARK    4  A    between atoms: C13_15  and  O2_16 
REMARK    5  A    between atoms: C17_20  and  C18_21 
REMARK    6  A    between atoms: C18_21  and  C20_23 
REMARK    7  A    between atoms: C28_31  and  O3_32 
REMARK    8  A    between atoms: C31_35  and  C32_36 
REMARK    9  A    between atoms: C33_38  and  O5_39 
ROOT
HETATM    1  C3  UNL     1      -7.826  -8.447  -1.698  1.00  0.00    -0.022 C 
HETATM    2  C4  UNL     1      -8.163  -8.832  -0.441  1.00  0.00    -0.014 C 
HETATM    3  C5  UNL     1      -7.560 -10.069   0.176  1.00  0.00     0.021 C 
HETATM    4  C6  UNL     1      -7.372 -10.151   1.690  1.00  0.00     0.051 C 
HETATM    5  C7  UNL     1      -6.607 -11.488   1.809  1.00  0.00     0.098 C 
HETATM    6  C8  UNL     1      -5.522 -11.399   0.656  1.00  0.00    -0.002 C 
HETATM    7  C9  UNL     1      -5.213 -12.758   0.010  1.00  0.00     0.019 C 
HETATM    8  C10 UNL     1      -4.175 -10.805   1.175  1.00  0.00     0.013 C 
HETATM    9  C11 UNL     1      -3.708 -11.335   2.527  1.00  0.00     0.010 C 
HETATM   10  C12 UNL     1      -4.791 -11.056   3.588  1.00  0.00     0.041 C 
HETATM   11  C13 UNL     1      -6.059 -11.853   3.229  1.00  0.00     0.095 C 
HETATM   12  C14 UNL     1      -7.115 -11.786   4.349  1.00  0.00     0.049 C 
HETATM   13  C15 UNL     1      -6.911 -10.669   5.401  1.00  0.00     0.025 C 
HETATM   14  C16 UNL     1      -8.102 -10.809   6.398  1.00  0.00     0.012 C 
HETATM   15  C17 UNL     1      -8.376  -9.757   7.503  1.00  0.00    -0.010 C 
HETATM   16  C25 UNL     1      -7.109  -9.224   8.197  1.00  0.00     0.005 C 
HETATM   17  C26 UNL     1      -6.162  -8.490   7.259  1.00  0.00     0.010 C 
HETATM   18  C27 UNL     1      -5.073  -9.326   6.572  1.00  0.00     0.050 C 
HETATM   19  C28 UNL     1      -3.791  -9.413   7.437  1.00  0.00     0.125 C 
HETATM   20  C29 UNL     1      -2.714 -10.282   6.792  1.00  0.00     0.033 C 
HETATM   21  C30 UNL     1      -2.989 -10.524   5.316  1.00  0.00     0.023 C 
HETATM   22  C31 UNL     1      -4.343 -11.277   5.071  1.00  0.00     0.051 C 
HETATM   23  C33 UNL     1      -5.487 -10.740   6.058  1.00  0.00     0.082 C 
HETATM   24  C34 UNL     1      -6.133 -10.349  -0.353  1.00  0.00     0.036 C 
HETATM   25  C35 UNL     1      -6.293 -10.443  -1.835  1.00  0.00    -0.035 C 
HETATM   26  C36 UNL     1      -6.280 -11.436  -2.717  1.00  0.00     0.088 C 
HETATM   27  C37 UNL     1      -6.807 -10.878  -3.965  1.00  0.00     0.284 C 
HETATM   28  O6  UNL     1      -6.944 -11.505  -4.998  1.00  0.00    -0.260 OA
HETATM   29  O7  UNL     1      -7.162  -9.576  -3.776  1.00  0.00    -0.304 OA
HETATM   30  C38 UNL     1      -6.735  -9.169  -2.484  1.00  0.00     0.192 C 
ENDROOT
BRANCH  15  31
HETATM   31  C18 UNL     1      -9.417 -10.344   8.546  1.00  0.00    -0.011 C 
HETATM   32  C19 UNL     1     -10.310  -9.256   9.170  1.00  0.00     0.011 C 
BRANCH  31  33
HETATM   33  C20 UNL     1     -10.251 -11.514   7.953  1.00  0.00    -0.010 C 
HETATM   34  C21 UNL     1     -10.531 -12.668   8.925  1.00  0.00     0.005 C 
HETATM   35  C22 UNL     1     -11.704 -13.393   8.280  1.00  0.00     0.000 C 
HETATM   36  C23 UNL     1     -12.584 -12.259   7.780  1.00  0.00     0.000 C 
HETATM   37  C24 UNL     1     -11.628 -11.134   7.377  1.00  0.00     0.005 C 
ENDBRANCH  31  33
ENDBRANCH  15  31
BRANCH  23  38
HETATM   38  O5  UNL     1      -5.590 -11.653   7.160  1.00  0.00    -0.388 OA
HETATM   39  H52 UNL     1      -5.086 -11.302   7.927  1.00  0.00     0.210 HD
ENDBRANCH  23  38
BRANCH  11  40
HETATM   40  O2  UNL     1      -5.704 -13.253   3.163  1.00  0.00    -0.386 OA
HETATM   41  H20 UNL     1      -6.276 -13.656   2.477  1.00  0.00     0.210 HD
ENDBRANCH  11  40
BRANCH  22  42
HETATM   42  C32 UNL     1      -4.076 -12.774   5.329  1.00  0.00     0.244 C 
HETATM   43  O4  UNL     1      -4.865 -13.531   5.896  1.00  0.00    -0.306 OA
ENDBRANCH  22  42
BRANCH  19  44
HETATM   44  O3  UNL     1      -4.103  -9.982   8.707  1.00  0.00    -0.395 OA
HETATM   45  H46 UNL     1      -3.305  -9.916   9.265  1.00  0.00     0.210 HD
ENDBRANCH  19  44
BRANCH   5  46
HETATM   46  O1  UNL     1      -7.536 -12.550   1.454  1.00  0.00    -0.386 OA
HETATM   47  H11 UNL     1      -8.283 -12.546   2.072  1.00  0.00     0.210 HD
ENDBRANCH   5  46
BRANCH   1  48
HETATM   48  C2  UNL     1      -8.471  -7.303  -2.446  1.00  0.00     0.306 C 
BRANCH  48  49
HETATM   49  N1  UNL     1      -9.344  -7.734  -3.542  1.00  0.00     0.083 N 
HETATM   50  C1  UNL     1     -10.732  -7.808  -3.104  1.00  0.00     0.307 C 
HETATM   51  H4  UNL     1      -9.048  -8.659  -3.842  1.00  0.00     0.315 HD
ENDBRANCH  48  49
ENDBRANCH   1  48
TORSDOF 9
ENDMDL
