MODEL 1
REMARK minimizedAffinity -8.18862915
REMARK  5 active torsions:
REMARK  status: ('A' for Active; 'I' for Inactive)
REMARK    1  A    between atoms: C1_2  and  C2_3 
REMARK       I    between atoms: C1_2  and  N3_15 
REMARK    2  A    between atoms: C2_3  and  C3_4 
REMARK    3  A    between atoms: C5_7  and  N1_8 
REMARK    4  A    between atoms: N3_15  and  C10_16 
REMARK    5  A    between atoms: C10_16  and  C11_17 
ROOT
HETATM    1  O1  UNL     1       1.163  55.233 -24.041  1.00  0.00    -0.273 OA
HETATM    2  C1  UNL     1       1.187  54.293 -23.248  1.00  0.00     0.223 C 
HETATM    3  N3  UNL     1       0.726  53.028 -23.557  1.00  0.00    -0.360 N 
HETATM    4  H8  UNL     1       0.682  52.339 -22.810  1.00  0.00     0.162 HD
ENDROOT
BRANCH   2   5
HETATM    5  C2  UNL     1       1.692  54.454 -21.828  1.00  0.00     0.160 C 
BRANCH   5   6
HETATM    6  C3  UNL     1       0.973  53.550 -20.883  1.00  0.00     0.026 A 
HETATM    7  C4  UNL     1      -0.192  52.847 -21.135  1.00  0.00     0.078 A 
HETATM    8  S1  UNL     1      -0.651  51.944 -19.749  1.00  0.00    -0.063 SA
HETATM    9  C5  UNL     1       0.708  52.558 -18.925  1.00  0.00     0.154 A 
HETATM   10  N2  UNL     1       1.480  53.389 -19.595  1.00  0.00    -0.339 N 
ATOM     11  H2  UNL     1       2.316  53.843 -19.229  1.00  0.00     0.168 HD
BRANCH   9  12
HETATM   12  N1  UNL     1       0.960  52.182 -17.596  1.00  0.00    -0.313 N 
HETATM   13  C6  UNL     1       0.185  51.409 -16.743  1.00  0.00     0.098 A 
HETATM   14  C7  UNL     1       0.818  51.294 -15.524  1.00  0.00     0.019 A 
HETATM   15  C8  UNL     1       2.028  52.015 -15.610  1.00  0.00     0.019 A 
HETATM   16  C9  UNL     1       2.094  52.543 -16.880  1.00  0.00     0.098 A 
ENDBRANCH   9  12
ENDBRANCH   5   6
ENDBRANCH   2   5
BRANCH   3  17
HETATM   17  C10 UNL     1       0.123  52.733 -24.842  1.00  0.00     0.129 C 
BRANCH  17  18
HETATM   18  C11 UNL     1       0.679  51.444 -25.479  1.00  0.00     0.037 C 
HETATM   19  C12 UNL     1       1.940  51.718 -26.333  1.00  0.00     0.010 C 
HETATM   20  C13 UNL     1       1.666  51.802 -27.835  1.00  0.00     0.031 C 
HETATM   21  C14 UNL     1       0.237  52.234 -28.140  1.00  0.00     0.273 C 
HETATM   22  N4  UNL     1      -0.732  51.280 -27.601  1.00  0.00     0.093 N 
HETATM   23  C15 UNL     1      -2.108  51.758 -27.685  1.00  0.00     0.273 C 
HETATM   24  C19 UNL     1      -0.370  50.658 -26.315  1.00  0.00     0.228 C 
HETATM   25  C16 UNL     1      -3.099  50.606 -27.479  1.00  0.00     0.030 C 
HETATM   26  C17 UNL     1      -2.671  49.621 -26.389  1.00  0.00     0.004 C 
HETATM   27  C18 UNL     1      -1.604  50.233 -25.487  1.00  0.00     0.036 C 
ENDBRANCH  17  18
ENDBRANCH   3  17
TORSDOF 5
ENDMDL
