MODEL 1
REMARK minimizedAffinity -7.620368
REMARK CNNscore 0.812446773
REMARK CNNaffinity 7.23155212
REMARK  7 active torsions:
REMARK  status: ('A' for Active; 'I' for Inactive)
REMARK    1  A    between atoms: O1_2  and  C2_3 
REMARK    2  A    between atoms: C2_3  and  C3_5 
REMARK    3  A    between atoms: C5_7  and  C6_8 
REMARK    4  A    between atoms: C6_8  and  C7_9 
REMARK    5  A    between atoms: C7_9  and  C8_10 
REMARK    6  A    between atoms: C8_10  and  C10_12 
REMARK    7  A    between atoms: C17_19  and  O3_20 
ROOT
HETATM    1  C10 UNL     1      -2.263  52.941  -9.273  1.00  0.00    -0.002 C 
HETATM    2  C11 UNL     1      -1.971  51.955  -8.132  1.00  0.00     0.007 C 
HETATM    3  C12 UNL     1      -0.551  52.279  -7.708  1.00  0.00     0.015 C 
HETATM    4  C13 UNL     1       0.217  52.427  -9.040  1.00  0.00    -0.005 C 
HETATM    5  C14 UNL     1       0.488  51.012  -9.635  1.00  0.00     0.021 C 
HETATM    6  C15 UNL     1       1.566  53.151  -8.809  1.00  0.00     0.002 C 
HETATM    7  C16 UNL     1       1.915  54.352  -9.338  1.00  0.00    -0.032 C 
HETATM    8  C17 UNL     1       0.877  55.144 -10.119  1.00  0.00     0.149 C 
HETATM    9  C18 UNL     1      -0.566  54.742  -9.808  1.00  0.00     0.047 C 
HETATM   10  C19 UNL     1      -0.839  53.220  -9.941  1.00  0.00    -0.026 C 
HETATM   11  C20 UNL     1      -0.743  52.821 -11.431  1.00  0.00     0.016 C 
HETATM   12  C21 UNL     1       3.321  55.030  -9.159  1.00  0.00    -0.012 C 
HETATM   13  C22 UNL     1       3.784  55.556 -10.541  1.00  0.00     0.021 C 
HETATM   14  C23 UNL     1       3.170  56.221  -8.175  1.00  0.00     0.021 C 
HETATM   15  C24 UNL     1       4.484  56.900  -7.819  1.00  0.00     0.080 C 
HETATM   16  C25 UNL     1       5.483  55.909  -7.272  1.00  0.00     0.135 C 
HETATM   17  O4  UNL     1       6.076  56.152  -6.220  1.00  0.00    -0.297 OA
HETATM   18  C26 UNL     1       5.774  54.660  -8.116  1.00  0.00     0.018 C 
HETATM   19  C27 UNL     1       6.695  55.063  -9.289  1.00  0.00     0.023 C 
HETATM   20  C28 UNL     1       6.602  53.667  -7.261  1.00  0.00     0.023 C 
HETATM   21  C29 UNL     1       4.399  54.023  -8.593  1.00  0.00     0.020 C 
HETATM   22  C30 UNL     1       3.772  53.207  -7.457  1.00  0.00     0.090 C 
HETATM   23  C31 UNL     1       2.526  52.482  -7.871  1.00  0.00     0.157 C 
HETATM   24  O5  UNL     1       2.280  51.389  -7.362  1.00  0.00    -0.293 OA
ENDROOT
BRANCH   1  25
HETATM   25  C8  UNL     1      -3.468  52.493 -10.153  1.00  0.00    -0.014 C 
HETATM   26  C9  UNL     1      -3.936  53.619 -11.098  1.00  0.00     0.010 C 
BRANCH  25  27
HETATM   27  C7  UNL     1      -3.215  51.214 -10.988  1.00  0.00     0.008 C 
BRANCH  27  28
HETATM   28  C6  UNL     1      -3.909  49.943 -10.482  1.00  0.00     0.028 C 
BRANCH  28  29
HETATM   29  C5  UNL     1      -5.387  50.175 -10.316  1.00  0.00    -0.014 C 
HETATM   30  C3  UNL     1      -6.383  49.287 -10.521  1.00  0.00     0.009 C 
HETATM   31  C4  UNL     1      -6.206  47.872 -10.993  1.00  0.00     0.054 C 
BRANCH  30  32
HETATM   32  C2  UNL     1      -7.816  49.659 -10.283  1.00  0.00     0.288 C 
HETATM   33  O2  UNL     1      -8.678  49.572 -11.147  1.00  0.00    -0.260 OA
BRANCH  32  34
HETATM   34  O1  UNL     1      -8.017  50.107  -9.016  1.00  0.00    -0.323 OA
HETATM   35  C1  UNL     1      -8.960  49.335  -8.272  1.00  0.00     0.213 C 
ENDBRANCH  32  34
ENDBRANCH  30  32
ENDBRANCH  28  29
ENDBRANCH  27  28
ENDBRANCH  25  27
ENDBRANCH   1  25
BRANCH   8  36
HETATM   36  O3  UNL     1       1.143  55.014 -11.508  1.00  0.00    -0.391 OA
HETATM   37  H25 UNL     1       0.480  55.541 -11.984  1.00  0.00     0.210 HD
ENDBRANCH   8  36
TORSDOF 7
ENDMDL
