MODEL 1
REMARK minimizedAffinity -8.95128727
REMARK  7 active torsions:
REMARK  status: ('A' for Active; 'I' for Inactive)
REMARK    1  A    between atoms: O1_2  and  C2_3 
REMARK    2  A    between atoms: C19_21  and  C20_22 
REMARK    3  A    between atoms: C20_22  and  C22_24 
REMARK    4  A    between atoms: C22_24  and  C23_25 
REMARK    5  A    between atoms: C23_25  and  C24_26 
REMARK    6  A    between atoms: C25_27  and  C27_29 
REMARK    7  A    between atoms: C27_29  and  O4_31 
ROOT
HETATM    1  C2  UNL     1       2.007   6.318  10.708  1.00  0.00     0.151 C 
HETATM    2  C3  UNL     1       3.181   7.255  10.407  1.00  0.00     0.043 C 
HETATM    3  C4  UNL     1       4.109   7.373  11.625  1.00  0.00     0.016 C 
HETATM    4  C5  UNL     1       5.491   8.039  11.301  1.00  0.00     0.018 C 
HETATM    5  C6  UNL     1       5.416   9.171  10.257  1.00  0.00     0.023 C 
HETATM    6  C7  UNL     1       6.464   6.972  10.752  1.00  0.00     0.023 C 
HETATM    7  C8  UNL     1       6.113   8.573  12.596  1.00  0.00     0.135 C 
HETATM    8  O2  UNL     1       6.933   9.492  12.605  1.00  0.00    -0.297 OA
HETATM    9  C9  UNL     1       5.745   7.862  13.874  1.00  0.00     0.080 C 
HETATM   10  C10 UNL     1       4.238   7.779  14.105  1.00  0.00     0.021 C 
HETATM   11  C11 UNL     1       3.346   7.998  12.847  1.00  0.00    -0.015 C 
HETATM   12  C12 UNL     1       3.085   9.514  12.669  1.00  0.00     0.020 C 
HETATM   13  C13 UNL     1       1.963   7.316  13.041  1.00  0.00    -0.066 C 
HETATM   14  C14 UNL     1       1.389   6.547  12.074  1.00  0.00    -0.039 C 
HETATM   15  C15 UNL     1       0.056   5.848  12.361  1.00  0.00    -0.010 C 
HETATM   16  C16 UNL     1       0.441   4.490  13.031  1.00  0.00     0.021 C 
HETATM   17  C17 UNL     1      -0.915   5.529  11.205  1.00  0.00     0.015 C 
HETATM   18  C18 UNL     1      -2.297   5.358  11.876  1.00  0.00     0.007 C 
HETATM   19  C19 UNL     1      -2.182   5.969  13.292  1.00  0.00    -0.002 C 
HETATM   20  C28 UNL     1      -0.863   6.792  13.230  1.00  0.00    -0.029 C 
HETATM   21  C29 UNL     1      -1.096   8.178  12.563  1.00  0.00     0.016 C 
HETATM   22  C30 UNL     1      -0.167   7.010  14.575  1.00  0.00     0.015 C 
HETATM   23  C31 UNL     1       1.255   7.577  14.386  1.00  0.00     0.036 C 
ENDROOT
BRANCH  19  24
HETATM   24  C20 UNL     1      -3.472   6.537  13.950  1.00  0.00    -0.014 C 
HETATM   25  C21 UNL     1      -3.520   6.117  15.431  1.00  0.00     0.010 C 
BRANCH  24  26
HETATM   26  C22 UNL     1      -4.862   6.384  13.289  1.00  0.00     0.008 C 
BRANCH  26  27
HETATM   27  C23 UNL     1      -5.708   5.122  13.489  1.00  0.00     0.028 C 
BRANCH  27  28
HETATM   28  C24 UNL     1      -5.491   4.035  12.477  1.00  0.00    -0.013 C 
HETATM   29  C25 UNL     1      -6.310   2.996  12.213  1.00  0.00     0.008 C 
HETATM   30  C26 UNL     1      -7.597   2.696  12.918  1.00  0.00     0.055 C 
BRANCH  29  31
HETATM   31  C27 UNL     1      -5.874   2.066  11.141  1.00  0.00     0.171 C 
HETATM   32  O3  UNL     1      -5.875   0.848  11.186  1.00  0.00    -0.646 OA
BRANCH  31  33
HETATM   33  O4  UNL     1      -5.446   2.712  10.044  1.00  0.00    -0.773 OA
HETATM   34  H41 UNL     1      -5.196   1.986   9.437  1.00  0.00     0.167 HD
ENDBRANCH  31  33
ENDBRANCH  29  31
ENDBRANCH  27  28
ENDBRANCH  26  27
ENDBRANCH  24  26
ENDBRANCH  19  24
BRANCH   1  35
HETATM   35  O1  UNL     1       2.470   4.963  10.667  1.00  0.00    -0.386 OA
HETATM   36  C1  UNL     1       3.356   4.706   9.586  1.00  0.00     0.202 C 
ENDBRANCH   1  35
TORSDOF 7
ENDMDL
