MODEL 1
REMARK minimizedAffinity -8.9309721
REMARK CNNscore 0.589292526
REMARK CNNaffinity 7.37263536
REMARK  12 active torsions:
REMARK  status: ('A' for Active; 'I' for Inactive)
REMARK    1  A    between atoms: C4_4  and  C5_5 
REMARK    2  A    between atoms: C5_5  and  C6_6 
REMARK    3  A    between atoms: C6_6  and  C7_7 
REMARK    4  A    between atoms: C7_7  and  C9_9 
REMARK    5  A    between atoms: C18_18  and  C20_20 
REMARK    6  A    between atoms: C20_20  and  O2_22 
REMARK    7  A    between atoms: C21_23  and  O3_24 
REMARK    8  A    between atoms: O3_24  and  C22_25 
REMARK    9  A    between atoms: C24_28  and  O5_29 
REMARK   10  A    between atoms: C25_30  and  O6_31 
REMARK   11  A    between atoms: C26_32  and  O7_33 
REMARK   12  A    between atoms: C28_35  and  O8_36 
ROOT
HETATM    1  C9  UNL     1      -7.806   6.159  14.252  1.00  0.00    -0.002 C 
HETATM    2  C10 UNL     1      -8.110   5.467  12.897  1.00  0.00     0.006 C 
HETATM    3  C11 UNL     1      -6.765   5.117  12.236  1.00  0.00     0.011 C 
HETATM    4  C12 UNL     1      -5.698   5.400  13.309  1.00  0.00    -0.032 C 
HETATM    5  C13 UNL     1      -5.585   4.102  14.167  1.00  0.00     0.016 C 
HETATM    6  C14 UNL     1      -4.311   5.803  12.743  1.00  0.00     0.004 C 
HETATM    7  C15 UNL     1      -3.573   4.665  12.022  1.00  0.00     0.007 C 
HETATM    8  C16 UNL     1      -2.247   5.165  11.452  1.00  0.00     0.007 C 
HETATM    9  C17 UNL     1      -1.273   5.468  12.602  1.00  0.00     0.018 C 
HETATM   10  C18 UNL     1       0.150   5.937  12.152  1.00  0.00     0.072 C 
HETATM   11  C19 UNL     1       0.110   7.238  11.323  1.00  0.00     0.030 C 
HETATM   12  C21 UNL     1       1.069   6.098  13.406  1.00  0.00     0.146 C 
HETATM   13  C27 UNL     1       0.434   6.997  14.475  1.00  0.00     0.066 C 
HETATM   14  C28 UNL     1      -0.957   6.521  14.880  1.00  0.00     0.130 C 
HETATM   15  C29 UNL     1      -1.868   6.407  13.664  1.00  0.00    -0.001 A 
HETATM   16  C30 UNL     1      -2.602   7.665  13.267  1.00  0.00     0.024 A 
HETATM   17  C31 UNL     1      -3.418   6.499  13.803  1.00  0.00    -0.025 A 
HETATM   18  C32 UNL     1      -4.002   6.660  15.209  1.00  0.00     0.011 C 
HETATM   19  C33 UNL     1      -5.519   6.883  15.337  1.00  0.00     0.011 C 
HETATM   20  C34 UNL     1      -6.327   6.632  14.058  1.00  0.00    -0.032 C 
HETATM   21  C35 UNL     1      -6.320   7.949  13.222  1.00  0.00     0.016 C 
ENDROOT
BRANCH  12  22
HETATM   22  O3  UNL     1       2.330   6.656  12.988  1.00  0.00    -0.352 OA
BRANCH  22  23
HETATM   23  C22 UNL     1       2.696   7.861  13.666  1.00  0.00     0.291 C 
HETATM   24  O4  UNL     1       2.860   8.951  12.759  1.00  0.00    -0.356 OA
HETATM   25  C23 UNL     1       3.810   8.687  11.715  1.00  0.00     0.205 C 
HETATM   26  C24 UNL     1       5.028   7.879  12.171  1.00  0.00     0.173 C 
HETATM   27  C25 UNL     1       5.240   8.094  13.665  1.00  0.00     0.182 C 
HETATM   28  C26 UNL     1       4.010   7.625  14.455  1.00  0.00     0.204 C 
BRANCH  26  29
HETATM   29  O5  UNL     1       6.195   8.276  11.447  1.00  0.00    -0.391 OA
HETATM   30  H39 UNL     1       6.945   7.904  11.956  1.00  0.00     0.210 HD
ENDBRANCH  26  29
BRANCH  27  31
HETATM   31  O6  UNL     1       6.418   7.389  14.093  1.00  0.00    -0.390 OA
HETATM   32  H41 UNL     1       6.412   7.429  15.070  1.00  0.00     0.210 HD
ENDBRANCH  27  31
BRANCH  28  33
HETATM   33  O7  UNL     1       4.015   8.337  15.710  1.00  0.00    -0.388 OA
HETATM   34  H43 UNL     1       3.759   9.260  15.523  1.00  0.00     0.210 HD
ENDBRANCH  28  33
ENDBRANCH  22  23
ENDBRANCH  12  22
BRANCH  10  35
HETATM   35  C20 UNL     1       0.769   4.850  11.271  1.00  0.00     0.151 C 
HETATM   36  O1  UNL     1       1.641   4.997  10.428  1.00  0.00    -0.649 OA
BRANCH  35  37
HETATM   37  O2  UNL     1       0.243   3.624  11.460  1.00  0.00    -0.776 OA
HETATM   38  H33 UNL     1       0.734   3.058  10.826  1.00  0.00     0.167 HD
ENDBRANCH  35  37
ENDBRANCH  10  35
BRANCH  14  39
HETATM   39  O8  UNL     1      -0.846   5.247  15.505  1.00  0.00    -0.395 OA
HETATM   40  H47 UNL     1      -1.750   4.939  15.686  1.00  0.00     0.210 HD
ENDBRANCH  14  39
BRANCH   1  41
HETATM   41  C7  UNL     1      -8.912   7.173  14.676  1.00  0.00    -0.014 C 
HETATM   42  C8  UNL     1      -9.121   7.185  16.197  1.00  0.00     0.010 C 
BRANCH  41  43
HETATM   43  C6  UNL     1     -10.284   6.846  14.017  1.00  0.00     0.008 C 
BRANCH  43  44
HETATM   44  C5  UNL     1     -11.284   8.008  14.039  1.00  0.00     0.028 C 
BRANCH  44  45
HETATM   45  C4  UNL     1     -12.458   7.731  13.135  1.00  0.00    -0.025 C 
HETATM   46  C2  UNL     1     -13.766   7.895  13.409  1.00  0.00    -0.091 C 
HETATM   47  C1  UNL     1     -14.319   8.448  14.693  1.00  0.00     0.042 C 
HETATM   48  C3  UNL     1     -14.816   7.533  12.389  1.00  0.00     0.042 C 
ENDBRANCH  44  45
ENDBRANCH  43  44
ENDBRANCH  41  43
ENDBRANCH   1  41
TORSDOF 12
ENDMDL
