MODEL 1
REMARK minimizedAffinity -9.72060966
REMARK CNNscore 0.625922501
REMARK CNNaffinity 7.3093667
REMARK  9 active torsions:
REMARK  status: ('A' for Active; 'I' for Inactive)
REMARK    1  A    between atoms: C4_4  and  C5_5 
REMARK    2  A    between atoms: C7_7  and  O1_9 
REMARK    3  A    between atoms: C20_21  and  O2_22 
REMARK    4  A    between atoms: O2_22  and  C21_23 
REMARK    5  A    between atoms: C22_25  and  C23_26 
REMARK    6  A    between atoms: C23_26  and  O4_27 
REMARK    7  A    between atoms: C24_28  and  O5_29 
REMARK    8  A    between atoms: C25_30  and  O6_31 
REMARK    9  A    between atoms: C26_32  and  O7_33 
ROOT
HETATM    1  C5  UNL     1      -0.882  51.240 -25.713  1.00  0.00     0.147 C 
HETATM    2  C6  UNL     1      -1.545  50.060 -26.462  1.00  0.00     0.074 C 
HETATM    3  C7  UNL     1      -3.003  49.799 -26.019  1.00  0.00     0.064 C 
HETATM    4  C8  UNL     1      -3.521  48.511 -26.664  1.00  0.00     0.046 C 
HETATM    5  C9  UNL     1      -2.995  49.742 -24.483  1.00  0.00     0.058 C 
HETATM    6  C10 UNL     1      -2.443  51.094 -23.972  1.00  0.00     0.131 C 
HETATM    7  C11 UNL     1      -2.790  51.170 -22.470  1.00  0.00     0.042 C 
HETATM    8  C12 UNL     1      -3.564  49.855 -22.167  1.00  0.00    -0.029 C 
HETATM    9  C13 UNL     1      -2.447  48.849 -21.731  1.00  0.00     0.016 C 
HETATM   10  C14 UNL     1      -4.700  49.954 -21.106  1.00  0.00     0.014 C 
HETATM   11  C15 UNL     1      -4.245  50.452 -19.724  1.00  0.00     0.034 C 
HETATM   12  C16 UNL     1      -4.036  49.388 -18.685  1.00  0.00    -0.022 C 
HETATM   13  C17 UNL     1      -4.310  48.078 -18.820  1.00  0.00    -0.059 C 
HETATM   14  C18 UNL     1      -4.956  47.535 -20.101  1.00  0.00     0.057 C 
HETATM   15  C19 UNL     1      -5.911  46.389 -19.802  1.00  0.00     0.024 C 
HETATM   16  C20 UNL     1      -6.138  45.814 -18.607  1.00  0.00     0.116 C 
HETATM   17  C27 UNL     1      -5.356  46.320 -17.430  1.00  0.00     0.194 C 
HETATM   18  O8  UNL     1      -5.766  46.079 -16.289  1.00  0.00    -0.289 OA
HETATM   19  C28 UNL     1      -4.031  47.046 -17.709  1.00  0.00     0.044 C 
HETATM   20  C29 UNL     1      -3.540  47.667 -16.384  1.00  0.00     0.028 C 
HETATM   21  C30 UNL     1      -2.975  46.018 -18.153  1.00  0.00     0.028 C 
HETATM   22  C31 UNL     1      -5.595  48.653 -21.013  1.00  0.00     0.032 C 
HETATM   23  C32 UNL     1      -6.975  49.093 -20.438  1.00  0.00     0.025 C 
HETATM   24  C33 UNL     1      -5.867  48.035 -22.419  1.00  0.00     0.137 C 
HETATM   25  O9  UNL     1      -6.899  47.394 -22.646  1.00  0.00    -0.297 OA
HETATM   26  C34 UNL     1      -4.814  48.131 -23.521  1.00  0.00     0.089 C 
HETATM   27  C35 UNL     1      -4.223  49.536 -23.574  1.00  0.00    -0.021 C 
HETATM   28  C36 UNL     1      -5.375  50.502 -23.996  1.00  0.00     0.017 C 
HETATM   29  O10 UNL     1      -1.057  51.137 -24.283  1.00  0.00    -0.376 OA
ENDROOT
BRANCH  16  30
HETATM   30  O2  UNL     1      -7.019  44.801 -18.334  1.00  0.00    -0.314 OA
BRANCH  30  31
HETATM   31  C21 UNL     1      -8.011  44.402 -19.277  1.00  0.00     0.298 C 
HETATM   32  O3  UNL     1      -8.473  43.076 -18.981  1.00  0.00    -0.348 OA
HETATM   33  C22 UNL     1      -7.450  42.066 -18.968  1.00  0.00     0.179 C 
HETATM   34  C24 UNL     1      -6.301  42.346 -19.954  1.00  0.00     0.180 C 
HETATM   35  C25 UNL     1      -6.864  43.124 -21.142  1.00  0.00     0.183 C 
HETATM   36  C26 UNL     1      -7.385  44.486 -20.693  1.00  0.00     0.205 C 
BRANCH  33  37
HETATM   37  C23 UNL     1      -6.930  41.829 -17.541  1.00  0.00     0.198 C 
BRANCH  37  38
HETATM   38  O4  UNL     1      -5.586  42.271 -17.378  1.00  0.00    -0.398 OA
HETATM   39  H32 UNL     1      -5.447  43.056 -17.931  1.00  0.00     0.209 HD
ENDBRANCH  37  38
ENDBRANCH  33  37
BRANCH  34  40
HETATM   40  O5  UNL     1      -5.728  41.128 -20.441  1.00  0.00    -0.390 OA
HETATM   41  H34 UNL     1      -5.095  40.809 -19.773  1.00  0.00     0.210 HD
ENDBRANCH  34  40
BRANCH  35  42
HETATM   42  O6  UNL     1      -5.856  43.317 -22.144  1.00  0.00    -0.390 OA
HETATM   43  H36 UNL     1      -5.538  42.415 -22.354  1.00  0.00     0.210 HD
ENDBRANCH  35  42
BRANCH  36  44
HETATM   44  O7  UNL     1      -8.339  44.947 -21.664  1.00  0.00    -0.388 OA
HETATM   45  H38 UNL     1      -7.867  44.913 -22.519  1.00  0.00     0.210 HD
ENDBRANCH  36  44
ENDBRANCH  30  31
ENDBRANCH  16  30
BRANCH   3  46
HETATM   46  O1  UNL     1      -3.810  50.878 -26.492  1.00  0.00    -0.390 OA
HETATM   47  H14 UNL     1      -3.840  50.834 -27.465  1.00  0.00     0.210 HD
ENDBRANCH   3  46
BRANCH   1  48
HETATM   48  C4  UNL     1       0.602  51.246 -25.965  1.00  0.00     0.007 C 
HETATM   49  C2  UNL     1       1.268  51.684 -27.055  1.00  0.00    -0.089 C 
HETATM   50  C1  UNL     1       2.772  51.600 -27.107  1.00  0.00     0.042 C 
HETATM   51  C3  UNL     1       0.639  52.274 -28.285  1.00  0.00     0.042 C 
ENDBRANCH   1  48
TORSDOF 9
ENDMDL
