MODEL 1
REMARK minimizedAffinity -9.09173298
REMARK CNNscore 0.534819722
REMARK CNNaffinity 6.73881912
REMARK  13 active torsions:
REMARK  status: ('A' for Active; 'I' for Inactive)
REMARK    1  A    between atoms: C2_2  and  O2_4 
REMARK    2  A    between atoms: O2_4  and  C3_5 
REMARK    3  A    between atoms: C20_22  and  C21_23 
REMARK    4  A    between atoms: C21_23  and  C22_24 
REMARK    5  A    between atoms: C21_23  and  C28_31 
REMARK    6  A    between atoms: C22_24  and  C23_25 
REMARK    7  A    between atoms: C24_26  and  C25_27 
REMARK    8  A    between atoms: C25_27  and  O3_30 
REMARK    9  A    between atoms: C28_31  and  O5_33 
REMARK   10  A    between atoms: O5_33  and  C29_34 
REMARK   11  A    between atoms: C30_35  and  O6_36 
REMARK   12  A    between atoms: C31_37  and  O7_38 
REMARK   13  A    between atoms: C33_41  and  O9_42 
ROOT
HETATM    1  C3  UNL     1     -16.927  45.265 -24.763  1.00  0.00     0.140 C 
HETATM    2  C4  UNL     1     -16.390  46.687 -24.645  1.00  0.00     0.034 C 
HETATM    3  C5  UNL     1     -14.891  46.812 -24.939  1.00  0.00     0.016 C 
HETATM    4  C6  UNL     1     -14.294  45.758 -25.921  1.00  0.00    -0.016 C 
HETATM    5  C7  UNL     1     -13.700  44.572 -25.118  1.00  0.00     0.020 C 
HETATM    6  C8  UNL     1     -13.117  46.369 -26.734  1.00  0.00    -0.068 C 
HETATM    7  C9  UNL     1     -12.980  46.164 -28.071  1.00  0.00    -0.068 C 
HETATM    8  C10 UNL     1     -13.930  45.322 -28.897  1.00  0.00     0.036 C 
HETATM    9  C11 UNL     1     -14.905  44.495 -28.070  1.00  0.00     0.011 C 
HETATM   10  C12 UNL     1     -15.450  45.319 -26.892  1.00  0.00     0.008 C 
HETATM   11  C13 UNL     1     -16.721  44.688 -26.205  1.00  0.00    -0.016 C 
HETATM   12  C14 UNL     1     -16.661  43.144 -26.103  1.00  0.00     0.018 C 
HETATM   13  C15 UNL     1     -17.953  45.016 -27.100  1.00  0.00     0.018 C 
HETATM   14  C16 UNL     1     -11.876  46.881 -28.845  1.00  0.00    -0.013 C 
HETATM   15  C17 UNL     1     -12.506  48.247 -29.262  1.00  0.00     0.021 C 
HETATM   16  C18 UNL     1     -11.314  46.232 -30.125  1.00  0.00     0.015 C 
HETATM   17  C19 UNL     1      -9.926  46.870 -30.315  1.00  0.00     0.007 C 
HETATM   18  C20 UNL     1      -9.564  47.613 -29.000  1.00  0.00     0.009 C 
HETATM   19  C34 UNL     1     -10.565  46.979 -27.979  1.00  0.00    -0.028 C 
HETATM   20  C35 UNL     1     -10.020  45.589 -27.512  1.00  0.00     0.016 C 
HETATM   21  C36 UNL     1     -10.905  47.803 -26.738  1.00  0.00     0.015 C 
HETATM   22  C37 UNL     1     -12.093  47.205 -25.952  1.00  0.00     0.036 C 
ENDROOT
BRANCH  18  23
HETATM   23  C21 UNL     1      -8.046  47.574 -28.672  1.00  0.00     0.094 C 
BRANCH  23  24
HETATM   24  C22 UNL     1      -7.680  46.822 -27.366  1.00  0.00     0.042 C 
BRANCH  24  25
HETATM   25  C23 UNL     1      -7.036  47.652 -26.292  1.00  0.00    -0.027 C 
HETATM   26  C24 UNL     1      -7.560  47.830 -25.065  1.00  0.00     0.006 C 
BRANCH  26  27
HETATM   27  C25 UNL     1      -6.959  48.622 -23.920  1.00  0.00     0.068 C 
HETATM   28  C26 UNL     1      -5.595  48.050 -23.537  1.00  0.00     0.050 C 
HETATM   29  C27 UNL     1      -7.901  48.615 -22.712  1.00  0.00     0.050 C 
BRANCH  27  30
HETATM   30  O3  UNL     1      -6.755  49.982 -24.311  1.00  0.00    -0.387 OA
HETATM   31  H42 UNL     1      -7.626  50.341 -24.555  1.00  0.00     0.211 HD
ENDBRANCH  27  30
ENDBRANCH  26  27
ENDBRANCH  24  25
ENDBRANCH  23  24
BRANCH  23  32
HETATM   32  C28 UNL     1      -7.238  46.910 -29.774  1.00  0.00     0.264 C 
HETATM   33  O4  UNL     1      -6.954  45.720 -29.786  1.00  0.00    -0.265 OA
BRANCH  32  34
HETATM   34  O5  UNL     1      -6.925  47.791 -30.767  1.00  0.00    -0.308 OA
BRANCH  34  35
HETATM   35  C29 UNL     1      -6.222  47.209 -31.898  1.00  0.00     0.218 C 
HETATM   36  C30 UNL     1      -5.280  48.295 -32.429  1.00  0.00     0.183 C 
HETATM   37  C31 UNL     1      -4.815  47.949 -33.840  1.00  0.00     0.173 C 
HETATM   38  C32 UNL     1      -6.014  47.815 -34.782  1.00  0.00     0.205 C 
HETATM   39  O8  UNL     1      -7.262  47.710 -34.079  1.00  0.00    -0.356 OA
HETATM   40  C33 UNL     1      -7.206  46.766 -33.006  1.00  0.00     0.288 C 
BRANCH  36  41
HETATM   41  O6  UNL     1      -4.120  48.413 -31.588  1.00  0.00    -0.390 OA
HETATM   42  H45 UNL     1      -4.116  49.328 -31.238  1.00  0.00     0.210 HD
ENDBRANCH  36  41
BRANCH  37  43
HETATM   43  O7  UNL     1      -3.920  48.956 -34.316  1.00  0.00    -0.391 OA
HETATM   44  H47 UNL     1      -3.212  49.012 -33.645  1.00  0.00     0.210 HD
ENDBRANCH  37  43
BRANCH  40  45
HETATM   45  O9  UNL     1      -6.841  45.490 -33.519  1.00  0.00    -0.369 OA
HETATM   46  H51 UNL     1      -7.672  45.084 -33.823  1.00  0.00     0.212 HD
ENDBRANCH  40  45
ENDBRANCH  34  35
ENDBRANCH  32  34
ENDBRANCH  23  32
ENDBRANCH  18  23
BRANCH   1  47
HETATM   47  O2  UNL     1     -18.336  45.280 -24.442  1.00  0.00    -0.316 OA
BRANCH  47  48
HETATM   48  C2  UNL     1     -18.874  46.461 -24.017  1.00  0.00     0.255 C 
HETATM   49  C1  UNL     1     -18.846  46.510 -22.518  1.00  0.00     0.126 C 
HETATM   50  O1  UNL     1     -19.314  47.349 -24.732  1.00  0.00    -0.266 OA
ENDBRANCH  47  48
ENDBRANCH   1  47
TORSDOF 13
ENDMDL
