MODEL 1
REMARK minimizedAffinity -9.56244564
REMARK  4 active torsions:
REMARK  status: ('A' for Active; 'I' for Inactive)
REMARK    1  A    between atoms: C2_2  and  C3_3 
REMARK    2  A    between atoms: C2_2  and  C9_9 
REMARK    3  A    between atoms: C3_3  and  C4_4 
REMARK    4  A    between atoms: C4_4  and  C5_5 
ROOT
HETATM    1  C9  UNL     1      -1.421  51.329 -17.062  1.00  0.00     0.018 C 
HETATM    2  C10 UNL     1       0.144  51.337 -17.077  1.00  0.00     0.010 C 
HETATM    3  C11 UNL     1       0.589  51.073 -18.523  1.00  0.00     0.011 C 
HETATM    4  C12 UNL     1      -0.573  51.588 -19.382  1.00  0.00    -0.032 C 
HETATM    5  C13 UNL     1      -0.511  53.156 -19.331  1.00  0.00     0.016 C 
HETATM    6  C14 UNL     1      -1.770  51.033 -18.552  1.00  0.00     0.002 C 
HETATM    7  C15 UNL     1      -3.078  51.570 -19.130  1.00  0.00     0.006 C 
HETATM    8  C16 UNL     1      -3.234  51.130 -20.593  1.00  0.00     0.006 C 
HETATM    9  C17 UNL     1      -2.031  51.493 -21.506  1.00  0.00     0.003 C 
HETATM   10  C18 UNL     1      -2.255  51.160 -23.059  1.00  0.00    -0.035 C 
HETATM   11  C19 UNL     1      -3.054  49.845 -23.222  1.00  0.00     0.016 C 
HETATM   12  C20 UNL     1      -3.122  52.331 -23.624  1.00  0.00     0.017 C 
HETATM   13  C21 UNL     1      -3.293  52.342 -25.129  1.00  0.00     0.080 C 
HETATM   14  C22 UNL     1      -1.943  52.364 -25.802  1.00  0.00     0.135 C 
HETATM   15  O1  UNL     1      -1.699  53.196 -26.678  1.00  0.00    -0.297 OA
HETATM   16  C23 UNL     1      -0.955  51.259 -25.422  1.00  0.00     0.017 C 
HETATM   17  C24 UNL     1       0.427  51.590 -26.039  1.00  0.00     0.023 C 
HETATM   18  C25 UNL     1      -1.415  49.961 -26.126  1.00  0.00     0.023 C 
HETATM   19  C26 UNL     1      -0.877  51.085 -23.847  1.00  0.00     0.009 C 
HETATM   20  C27 UNL     1       0.124  52.047 -23.171  1.00  0.00     0.007 C 
HETATM   21  C28 UNL     1       0.510  51.615 -21.750  1.00  0.00     0.011 C 
HETATM   22  C29 UNL     1      -0.653  51.043 -20.888  1.00  0.00    -0.032 C 
HETATM   23  C30 UNL     1      -0.526  49.492 -20.917  1.00  0.00     0.016 C 
ENDROOT
BRANCH   1  24
HETATM   24  C2  UNL     1      -2.064  50.421 -16.000  1.00  0.00    -0.084 C 
HETATM   25  C1  UNL     1      -1.718  49.134 -15.798  1.00  0.00     0.014 C 
BRANCH  24  26
HETATM   26  C3  UNL     1      -3.117  51.009 -15.074  1.00  0.00     0.037 C 
BRANCH  26  27
HETATM   27  C4  UNL     1      -2.714  50.931 -13.598  1.00  0.00     0.031 C 
BRANCH  27  28
HETATM   28  C5  UNL     1      -3.002  52.223 -12.879  1.00  0.00    -0.024 C 
HETATM   29  C6  UNL     1      -3.640  52.393 -11.705  1.00  0.00    -0.091 C 
HETATM   30  C7  UNL     1      -4.236  51.288 -10.877  1.00  0.00     0.042 C 
HETATM   31  C8  UNL     1      -3.821  53.769 -11.122  1.00  0.00     0.042 C 
ENDBRANCH  27  28
ENDBRANCH  26  27
ENDBRANCH  24  26
ENDBRANCH   1  24
TORSDOF 4
ENDMDL
