MODEL 1
REMARK minimizedAffinity -8.62989235
REMARK CNNscore 0.554817855
REMARK CNNaffinity 7.62388849
REMARK  12 active torsions:
REMARK  status: ('A' for Active; 'I' for Inactive)
REMARK    1  A    between atoms: C19_21  and  O3_22 
REMARK    2  A    between atoms: C19_21  and  C20_23 
REMARK    3  A    between atoms: C20_23  and  C21_25 
REMARK    4  A    between atoms: C21_25  and  O5_26 
REMARK    5  A    between atoms: O5_26  and  C22_27 
REMARK    6  A    between atoms: C22_27  and  C23_29 
REMARK    7  A    between atoms: C23_29  and  C24_30 
REMARK    8  A    between atoms: C24_30  and  C25_31 
REMARK       I    between atoms: C25_31  and  N1_33 
REMARK    9  A    between atoms: N1_33  and  C26_34 
REMARK   10  A    between atoms: C26_34  and  C27_35 
REMARK   11  A    between atoms: C27_35  and  C28_36 
REMARK   12  A    between atoms: C31_39  and  O8_40 
ROOT
HETATM    1  C1  UNL     1      -5.229   7.621  13.367  1.00  0.00     0.021 C 
HETATM    2  C2  UNL     1      -5.102   7.348  14.888  1.00  0.00    -0.009 C 
HETATM    3  C3  UNL     1      -5.468   5.855  15.165  1.00  0.00     0.022 C 
HETATM    4  C4  UNL     1      -6.945   5.539  14.973  1.00  0.00     0.084 C 
HETATM    5  C5  UNL     1      -7.785   6.447  15.831  1.00  0.00     0.149 C 
HETATM    6  O1  UNL     1      -8.873   6.106  16.285  1.00  0.00    -0.293 OA
HETATM    7  C6  UNL     1      -7.312   7.835  16.042  1.00  0.00     0.053 C 
HETATM    8  C7  UNL     1      -6.125   8.263  15.573  1.00  0.00    -0.067 C 
HETATM    9  C8  UNL     1      -5.806   9.736  15.667  1.00  0.00     0.035 C 
HETATM   10  C9  UNL     1      -4.338  10.086  15.416  1.00  0.00     0.010 C 
HETATM   11  C10 UNL     1      -3.418   9.038  16.039  1.00  0.00     0.003 C 
HETATM   12  C11 UNL     1      -3.644   7.600  15.464  1.00  0.00     0.072 C 
HETATM   13  C12 UNL     1      -2.522   7.078  14.533  1.00  0.00     0.133 C 
HETATM   14  O2  UNL     1      -2.723   6.193  13.698  1.00  0.00    -0.297 OA
HETATM   15  C13 UNL     1      -1.098   7.545  14.763  1.00  0.00     0.091 C 
HETATM   16  C14 UNL     1      -1.041   9.061  14.940  1.00  0.00     0.005 C 
HETATM   17  C15 UNL     1      -1.468   9.753  13.627  1.00  0.00     0.019 C 
HETATM   18  C16 UNL     1      -1.932   9.406  16.150  1.00  0.00     0.002 C 
HETATM   19  C17 UNL     1      -1.531  10.839  16.511  1.00  0.00     0.009 C 
HETATM   20  C18 UNL     1      -0.048  10.957  16.105  1.00  0.00     0.047 C 
HETATM   21  C19 UNL     1       0.328   9.618  15.446  1.00  0.00     0.128 C 
ENDROOT
BRANCH  21  22
HETATM   22  O3  UNL     1       0.821   8.770  16.503  1.00  0.00    -0.381 OA
HETATM   23  H25 UNL     1       1.384   8.088  16.078  1.00  0.00     0.211 HD
ENDBRANCH  21  22
BRANCH  21  24
HETATM   24  C20 UNL     1       1.446   9.643  14.388  1.00  0.00     0.185 C 
HETATM   25  O4  UNL     1       2.213  10.617  14.358  1.00  0.00    -0.292 OA
BRANCH  24  26
HETATM   26  C21 UNL     1       1.590   8.476  13.416  1.00  0.00     0.260 C 
BRANCH  26  27
HETATM   27  O5  UNL     1       1.410   8.877  12.055  1.00  0.00    -0.314 OA
BRANCH  27  28
HETATM   28  C22 UNL     1       1.712   7.905  11.147  1.00  0.00     0.259 C 
HETATM   29  O6  UNL     1       2.759   7.846  10.516  1.00  0.00    -0.265 OA
BRANCH  28  30
HETATM   30  C23 UNL     1       0.564   6.940  11.016  1.00  0.00     0.120 C 
BRANCH  30  31
HETATM   31  C24 UNL     1       1.075   5.549  10.661  1.00  0.00     0.112 C 
BRANCH  31  32
HETATM   32  C25 UNL     1       0.162   4.457  11.169  1.00  0.00     0.218 C 
HETATM   33  O7  UNL     1       0.523   3.302  11.358  1.00  0.00    -0.274 OA
HETATM   34  N1  UNL     1      -1.120   4.905  11.400  1.00  0.00    -0.361 N 
HETATM   35  H32 UNL     1      -1.327   5.890  11.286  1.00  0.00     0.162 HD
BRANCH  34  36
HETATM   36  C26 UNL     1      -2.158   4.043  11.933  1.00  0.00     0.127 C 
BRANCH  36  37
HETATM   37  C27 UNL     1      -2.957   3.348  10.828  1.00  0.00     0.058 C 
BRANCH  37  38
HETATM   38  C28 UNL     1      -4.342   2.969  11.292  1.00  0.00    -0.057 A 
HETATM   39  C29 UNL     1      -4.835   1.674  11.072  1.00  0.00     0.010 A 
HETATM   40  C30 UNL     1      -6.107   1.315  11.522  1.00  0.00     0.037 A 
HETATM   41  C31 UNL     1      -6.884   2.251  12.195  1.00  0.00     0.065 A 
HETATM   42  C32 UNL     1      -6.411   3.538  12.425  1.00  0.00     0.037 A 
HETATM   43  C33 UNL     1      -5.140   3.898  11.975  1.00  0.00     0.010 A 
BRANCH  41  44
HETATM   44  O8  UNL     1      -8.131   1.942  12.652  1.00  0.00    -0.361 OA
HETATM   45  H39 UNL     1      -8.340   1.030  12.389  1.00  0.00     0.217 HD
ENDBRANCH  41  44
ENDBRANCH  37  38
ENDBRANCH  36  37
ENDBRANCH  34  36
ENDBRANCH  31  32
ENDBRANCH  30  31
ENDBRANCH  28  30
ENDBRANCH  27  28
ENDBRANCH  26  27
ENDBRANCH  24  26
ENDBRANCH  21  24
TORSDOF 12
ENDMDL
