MODEL 1
REMARK minimizedAffinity -9.20737648
REMARK  9 active torsions:
REMARK  status: ('A' for Active; 'I' for Inactive)
REMARK    1  A    between atoms: C2_2  and  C30_33 
REMARK    2  A    between atoms: C3_3  and  C4_4 
REMARK    3  A    between atoms: C4_4  and  C5_5 
REMARK    4  A    between atoms: C5_5  and  C6_6 
REMARK    5  A    between atoms: C6_6  and  C8_8 
REMARK    6  A    between atoms: C10_10  and  O1_11 
REMARK    7  A    between atoms: C23_24  and  O2_25 
REMARK    8  A    between atoms: C29_31  and  O3_32 
REMARK    9  A    between atoms: C30_33  and  O4_34 
ROOT
HETATM    1  C8  UNL     1      -5.381   6.625  14.260  1.00  0.00     0.001 C 
HETATM    2  C9  UNL     1      -5.463   7.772  15.303  1.00  0.00     0.038 C 
HETATM    3  C10 UNL     1      -4.049   8.394  15.381  1.00  0.00     0.132 C 
HETATM    4  C11 UNL     1      -3.343   7.924  14.084  1.00  0.00     0.016 C 
HETATM    5  C12 UNL     1      -3.827   8.818  12.890  1.00  0.00     0.023 C 
HETATM    6  C13 UNL     1      -1.818   7.950  14.010  1.00  0.00    -0.037 C 
HETATM    7  C14 UNL     1      -1.177   7.095  13.167  1.00  0.00    -0.065 C 
HETATM    8  C15 UNL     1      -1.945   5.999  12.401  1.00  0.00     0.036 C 
HETATM    9  C16 UNL     1      -3.458   5.845  12.675  1.00  0.00     0.015 C 
HETATM   10  C17 UNL     1      -3.850   6.432  14.035  1.00  0.00    -0.026 C 
HETATM   11  C18 UNL     1      -3.225   5.539  15.143  1.00  0.00     0.016 C 
HETATM   12  C19 UNL     1       0.371   7.132  12.981  1.00  0.00    -0.016 C 
HETATM   13  C20 UNL     1       0.906   5.927  13.792  1.00  0.00     0.020 C 
HETATM   14  C21 UNL     1       0.748   6.977  11.475  1.00  0.00     0.016 C 
HETATM   15  C22 UNL     1       1.944   7.805  10.988  1.00  0.00     0.033 C 
HETATM   16  C23 UNL     1       3.034   7.985  12.037  1.00  0.00     0.126 C 
HETATM   17  C24 UNL     1       2.501   8.709  13.312  1.00  0.00    -0.017 C 
HETATM   18  C25 UNL     1       2.747  10.233  13.107  1.00  0.00     0.018 C 
HETATM   19  C26 UNL     1       3.320   8.309  14.558  1.00  0.00     0.018 C 
HETATM   20  C27 UNL     1       0.943   8.505  13.482  1.00  0.00     0.011 C 
HETATM   21  C28 UNL     1       0.423   8.831  14.891  1.00  0.00     0.043 C 
HETATM   22  C29 UNL     1      -1.101   8.940  14.905  1.00  0.00     0.148 C 
ENDROOT
BRANCH   1  23
HETATM   23  C6  UNL     1      -6.320   5.404  14.500  1.00  0.00    -0.013 C 
HETATM   24  C7  UNL     1      -7.212   5.474  15.748  1.00  0.00     0.010 C 
BRANCH  23  25
HETATM   25  C5  UNL     1      -7.223   5.198  13.244  1.00  0.00     0.008 C 
BRANCH  25  26
HETATM   26  C4  UNL     1      -7.014   3.856  12.523  1.00  0.00     0.028 C 
BRANCH  26  27
HETATM   27  C3  UNL     1      -5.575   3.487  12.303  1.00  0.00    -0.022 C 
HETATM   28  C2  UNL     1      -5.072   2.366  11.748  1.00  0.00    -0.064 C 
HETATM   29  C1  UNL     1      -5.887   1.221  11.207  1.00  0.00     0.045 C 
BRANCH  28  30
HETATM   30  C30 UNL     1      -3.579   2.170  11.637  1.00  0.00     0.197 C 
BRANCH  30  31
HETATM   31  O4  UNL     1      -3.304   0.806  11.364  1.00  0.00    -0.397 OA
HETATM   32  H50 UNL     1      -3.895   0.542  10.639  1.00  0.00     0.209 HD
ENDBRANCH  30  31
ENDBRANCH  28  30
ENDBRANCH  26  27
ENDBRANCH  25  26
ENDBRANCH  23  25
ENDBRANCH   1  23
BRANCH   3  33
HETATM   33  O1  UNL     1      -4.101   9.811  15.499  1.00  0.00    -0.394 OA
HETATM   34  H17 UNL     1      -4.699  10.017  16.240  1.00  0.00     0.210 HD
ENDBRANCH   3  33
BRANCH  22  35
HETATM   35  O3  UNL     1      -1.455  10.264  14.518  1.00  0.00    -0.391 OA
HETATM   36  H47 UNL     1      -2.386  10.384  14.798  1.00  0.00     0.210 HD
ENDBRANCH  22  35
BRANCH  16  37
HETATM   37  O2  UNL     1       3.595   6.710  12.338  1.00  0.00    -0.395 OA
HETATM   38  H36 UNL     1       3.960   6.347  11.512  1.00  0.00     0.210 HD
ENDBRANCH  16  37
TORSDOF 9
ENDMDL
