MODEL 1
REMARK minimizedAffinity -9.04354763
REMARK CNNscore 0.444198877
REMARK CNNaffinity 6.34050131
REMARK  18 active torsions:
REMARK  status: ('A' for Active; 'I' for Inactive)
REMARK    1  A    between atoms: C2_2  and  C4_4 
REMARK    2  A    between atoms: C4_4  and  N1_5 
REMARK    3  A    between atoms: C4_4  and  C30_38 
REMARK       I    between atoms: N1_5  and  C5_6 
REMARK    4  A    between atoms: C5_6  and  C6_8 
REMARK    5  A    between atoms: C6_8  and  C7_9 
REMARK    6  A    between atoms: C7_9  and  C8_10 
REMARK    7  A    between atoms: C8_10  and  O3_12 
REMARK    8  A    between atoms: O3_12  and  C9_13 
REMARK    9  A    between atoms: C9_13  and  C10_14 
REMARK   10  A    between atoms: C10_14  and  C11_16 
REMARK   11  A    between atoms: C11_16  and  O5_17 
REMARK   12  A    between atoms: C26_33  and  O7_34 
REMARK       I    between atoms: C30_38  and  N2_40 
REMARK   13  A    between atoms: N2_40  and  C31_41 
REMARK   14  A    between atoms: C31_41  and  C32_42 
REMARK   15  A    between atoms: C32_42  and  C33_43 
REMARK   16  A    between atoms: C32_42  and  C35_47 
REMARK   17  A    between atoms: C33_43  and  C34_44 
REMARK   18  A    between atoms: C34_44  and  O10_46 
ROOT
HETATM    1  C8  UNL     1      -8.348  48.437 -19.709  1.00  0.00     0.259 C 
HETATM    2  O2  UNL     1      -7.404  48.568 -18.942  1.00  0.00    -0.265 OA
ENDROOT
BRANCH   1   3
HETATM    3  C7  UNL     1      -9.779  48.315 -19.269  1.00  0.00     0.120 C 
BRANCH   3   4
HETATM    4  C6  UNL     1     -10.454  47.220 -20.081  1.00  0.00     0.112 C 
BRANCH   4   5
HETATM    5  C5  UNL     1     -11.960  47.337 -20.037  1.00  0.00     0.218 C 
HETATM    6  N1  UNL     1     -12.592  46.116 -20.072  1.00  0.00    -0.347 N 
HETATM    7  H9  UNL     1     -12.056  45.296 -19.808  1.00  0.00     0.163 HD
HETATM    8  O1  UNL     1     -12.565  48.402 -19.943  1.00  0.00    -0.274 OA
BRANCH   6   9
HETATM    9  C4  UNL     1     -14.055  45.998 -20.019  1.00  0.00     0.179 C 
BRANCH   9  10
HETATM   10  C2  UNL     1     -14.609  46.524 -18.673  1.00  0.00     0.009 C 
HETATM   11  C1  UNL     1     -13.498  46.620 -17.616  1.00  0.00     0.012 C 
HETATM   12  C3  UNL     1     -15.263  47.903 -18.824  1.00  0.00     0.012 C 
ENDBRANCH   9  10
BRANCH   9  13
HETATM   13  C30 UNL     1     -14.629  46.765 -21.241  1.00  0.00     0.240 C 
HETATM   14  O8  UNL     1     -14.205  47.854 -21.618  1.00  0.00    -0.271 OA
HETATM   15  N2  UNL     1     -15.671  46.104 -21.865  1.00  0.00    -0.359 N 
HETATM   16  H43 UNL     1     -15.937  45.192 -21.502  1.00  0.00     0.162 HD
BRANCH  15  17
HETATM   17  C31 UNL     1     -16.394  46.668 -22.991  1.00  0.00     0.132 C 
BRANCH  17  18
HETATM   18  C32 UNL     1     -17.917  46.428 -22.943  1.00  0.00     0.046 C 
BRANCH  18  19
HETATM   19  C33 UNL     1     -18.353  45.452 -24.051  1.00  0.00     0.120 C 
BRANCH  19  20
HETATM   20  C34 UNL     1     -19.310  46.083 -25.025  1.00  0.00     0.140 C 
HETATM   21  O9  UNL     1     -19.944  45.504 -25.891  1.00  0.00    -0.650 OA
BRANCH  20  22
HETATM   22  O10 UNL     1     -19.351  47.426 -24.922  1.00  0.00    -0.776 OA
HETATM   23  H49 UNL     1     -19.945  47.710 -25.648  1.00  0.00     0.167 HD
ENDBRANCH  20  22
ENDBRANCH  19  20
ENDBRANCH  18  19
BRANCH  18  24
HETATM   24  C35 UNL     1     -18.381  46.065 -21.535  1.00  0.00    -0.052 A 
HETATM   25  C36 UNL     1     -18.839  44.759 -21.288  1.00  0.00     0.007 A 
HETATM   26  C37 UNL     1     -19.307  44.388 -20.026  1.00  0.00     0.001 A 
HETATM   27  C38 UNL     1     -19.326  45.318 -18.990  1.00  0.00     0.000 A 
HETATM   28  C39 UNL     1     -18.884  46.617 -19.218  1.00  0.00     0.001 A 
HETATM   29  C40 UNL     1     -18.418  46.991 -20.480  1.00  0.00     0.007 A 
ENDBRANCH  18  24
ENDBRANCH  17  18
ENDBRANCH  15  17
ENDBRANCH   9  13
ENDBRANCH   6   9
ENDBRANCH   4   5
ENDBRANCH   3   4
ENDBRANCH   1   3
BRANCH   1  30
HETATM   30  O3  UNL     1      -8.273  48.457 -21.066  1.00  0.00    -0.314 OA
BRANCH  30  31
HETATM   31  C9  UNL     1      -6.979  48.194 -21.635  1.00  0.00     0.260 C 
BRANCH  31  32
HETATM   32  C10 UNL     1      -6.720  49.183 -22.763  1.00  0.00     0.185 C 
HETATM   33  O4  UNL     1      -7.429  49.191 -23.782  1.00  0.00    -0.292 OA
BRANCH  32  34
HETATM   34  C11 UNL     1      -5.541  50.183 -22.674  1.00  0.00     0.128 C 
HETATM   35  C12 UNL     1      -4.917  50.378 -21.272  1.00  0.00     0.047 C 
HETATM   36  C13 UNL     1      -3.443  50.785 -21.511  1.00  0.00     0.009 C 
HETATM   37  C14 UNL     1      -3.344  50.993 -23.023  1.00  0.00     0.002 C 
HETATM   38  C15 UNL     1      -1.961  51.012 -23.693  1.00  0.00    -0.002 C 
HETATM   39  C28 UNL     1      -4.311  49.932 -23.601  1.00  0.00     0.001 C 
HETATM   40  C16 UNL     1      -1.045  52.048 -23.005  1.00  0.00     0.010 C 
HETATM   41  C25 UNL     1      -2.156  51.331 -25.220  1.00  0.00     0.031 C 
HETATM   42  C17 UNL     1       0.262  52.298 -23.758  1.00  0.00     0.035 C 
HETATM   43  C18 UNL     1      -0.048  52.608 -25.202  1.00  0.00    -0.068 C 
HETATM   44  C19 UNL     1       0.198  53.838 -25.693  1.00  0.00     0.053 C 
HETATM   45  C23 UNL     1      -0.786  51.508 -25.976  1.00  0.00    -0.014 C 
HETATM   46  C20 UNL     1      -0.364  54.270 -26.993  1.00  0.00     0.149 C 
HETATM   47  O6  UNL     1      -0.073  55.375 -27.440  1.00  0.00    -0.293 OA
HETATM   48  C21 UNL     1      -1.369  53.367 -27.662  1.00  0.00     0.084 C 
HETATM   49  C22 UNL     1      -0.952  51.920 -27.469  1.00  0.00     0.022 C 
HETATM   50  C24 UNL     1       0.077  50.219 -25.998  1.00  0.00     0.020 C 
HETATM   51  C26 UNL     1      -3.200  50.392 -25.892  1.00  0.00     0.124 C 
HETATM   52  C27 UNL     1      -4.516  50.259 -25.095  1.00  0.00     0.045 C 
HETATM   53  C29 UNL     1      -3.785  48.486 -23.421  1.00  0.00     0.019 C 
BRANCH  34  54
HETATM   54  O5  UNL     1      -6.114  51.470 -23.011  1.00  0.00    -0.381 OA
HETATM   55  H16 UNL     1      -6.910  51.293 -23.556  1.00  0.00     0.211 HD
ENDBRANCH  34  54
BRANCH  51  56
HETATM   56  O7  UNL     1      -2.694  49.096 -26.176  1.00  0.00    -0.395 OA
HETATM   57  H37 UNL     1      -2.036  48.853 -25.509  1.00  0.00     0.210 HD
ENDBRANCH  51  56
ENDBRANCH  32  34
ENDBRANCH  31  32
ENDBRANCH  30  31
ENDBRANCH   1  30
TORSDOF 18
ENDMDL
