MODEL 1
REMARK minimizedAffinity -8.72003937
REMARK  14 active torsions:
REMARK  status: ('A' for Active; 'I' for Inactive)
REMARK    1  A    between atoms: O1_2  and  C2_3 
REMARK    2  A    between atoms: C2_3  and  C3_4 
REMARK    3  A    between atoms: C2_3  and  C24_30 
REMARK    4  A    between atoms: C3_4  and  C5_6 
REMARK    5  A    between atoms: C6_8  and  C8_10 
REMARK    6  A    between atoms: C8_10  and  C9_11 
REMARK    7  A    between atoms: C9_11  and  O3_13 
REMARK    8  A    between atoms: C9_11  and  C11_14 
REMARK    9  A    between atoms: C12_15  and  C13_16 
REMARK   10  A    between atoms: C14_17  and  C16_19 
REMARK   11  A    between atoms: C17_21  and  C18_22 
REMARK   12  A    between atoms: C18_22  and  C19_23 
REMARK   13  A    between atoms: C19_23  and  O6_25 
REMARK   14  A    between atoms: C24_30  and  O7_32 
ROOT
HETATM    1  C9  UNL     1      -3.742   3.137  11.875  1.00  0.00     0.075 C 
HETATM    2  C10 UNL     1      -3.487   1.637  11.699  1.00  0.00     0.050 C 
ENDROOT
BRANCH   1   3
HETATM    3  C8  UNL     1      -5.080   3.595  11.253  1.00  0.00     0.082 C 
BRANCH   3   4
HETATM    4  C6  UNL     1      -6.247   3.681  12.219  1.00  0.00     0.087 A 
HETATM    5  C5  UNL     1      -6.812   5.056  12.580  1.00  0.00     0.163 A 
HETATM    6  O2  UNL     1      -5.894   4.366  13.436  1.00  0.00    -0.369 OA
HETATM    7  C7  UNL     1      -7.021   2.420  12.473  1.00  0.00     0.049 C 
BRANCH   5   8
HETATM    8  C3  UNL     1      -8.189   5.277  13.163  1.00  0.00     0.045 C 
HETATM    9  C4  UNL     1      -9.119   5.763  12.041  1.00  0.00     0.015 C 
BRANCH   8  10
HETATM   10  C2  UNL     1      -8.128   6.293  14.342  1.00  0.00     0.155 C 
BRANCH  10  11
HETATM   11  O1  UNL     1      -9.464   6.720  14.673  1.00  0.00    -0.388 OA
HETATM   12  C1  UNL     1      -9.632   8.129  14.612  1.00  0.00     0.202 C 
ENDBRANCH  10  11
BRANCH  10  13
HETATM   13  C24 UNL     1      -7.459   5.681  15.607  1.00  0.00     0.143 C 
HETATM   14  C25 UNL     1      -7.269   6.706  16.720  1.00  0.00     0.042 C 
BRANCH  13  15
HETATM   15  O7  UNL     1      -8.239   4.601  16.126  1.00  0.00    -0.393 OA
HETATM   16  H42 UNL     1      -7.760   4.230  16.885  1.00  0.00     0.210 HD
ENDBRANCH  13  15
ENDBRANCH  10  13
ENDBRANCH   8  10
ENDBRANCH   5   8
ENDBRANCH   3   4
ENDBRANCH   1   3
BRANCH   1  17
HETATM   17  O3  UNL     1      -3.757   3.415  13.277  1.00  0.00    -0.386 OA
HETATM   18  H18 UNL     1      -2.891   3.145  13.629  1.00  0.00     0.211 HD
ENDBRANCH   1  17
BRANCH   1  19
HETATM   19  C11 UNL     1      -2.610   3.912  11.224  1.00  0.00     0.010 C 
HETATM   20  C12 UNL     1      -1.802   4.803  11.825  1.00  0.00    -0.001 C 
BRANCH  20  21
HETATM   21  C13 UNL     1      -0.741   5.487  11.118  1.00  0.00     0.005 C 
HETATM   22  C14 UNL     1      -0.259   6.724  11.360  1.00  0.00    -0.055 C 
HETATM   23  C15 UNL     1      -0.751   7.655  12.437  1.00  0.00     0.046 C 
BRANCH  22  24
HETATM   24  C16 UNL     1       0.890   7.288  10.531  1.00  0.00     0.154 C 
HETATM   25  O4  UNL     1       1.902   6.271  10.455  1.00  0.00    -0.375 OA
HETATM   26  C17 UNL     1       3.109   6.729   9.831  1.00  0.00     0.132 C 
HETATM   27  C20 UNL     1       2.812   7.113   8.379  1.00  0.00     0.033 C 
HETATM   28  C21 UNL     1       1.713   8.170   8.318  1.00  0.00     0.009 C 
HETATM   29  C22 UNL     1       0.473   7.721   9.106  1.00  0.00     0.015 C 
HETATM   30  C23 UNL     1      -0.579   8.830   9.104  1.00  0.00     0.012 C 
BRANCH  26  31
HETATM   31  C18 UNL     1       4.123   5.593   9.927  1.00  0.00     0.141 C 
BRANCH  31  32
HETATM   32  C19 UNL     1       3.633   4.340   9.271  1.00  0.00     0.141 C 
HETATM   33  O5  UNL     1       3.780   4.037   8.099  1.00  0.00    -0.650 OA
BRANCH  32  34
HETATM   34  O6  UNL     1       2.958   3.528  10.105  1.00  0.00    -0.776 OA
HETATM   35  H29 UNL     1       2.678   2.783   9.534  1.00  0.00     0.167 HD
ENDBRANCH  32  34
ENDBRANCH  31  32
ENDBRANCH  26  31
ENDBRANCH  22  24
ENDBRANCH  20  21
ENDBRANCH   1  19
TORSDOF 14
ENDMDL
