MODEL 1
REMARK minimizedAffinity -7.57983494
REMARK CNNscore 0.798528254
REMARK CNNaffinity 7.35053635
REMARK  4 active torsions:
REMARK  status: ('A' for Active; 'I' for Inactive)
REMARK    1  A    between atoms: C4_4  and  C5_5 
REMARK    2  A    between atoms: C5_5  and  C6_6 
REMARK    3  A    between atoms: C6_6  and  C7_7 
REMARK    4  A    between atoms: C7_7  and  C9_9 
ROOT
HETATM    1  C9  UNL     1       3.612  55.551  -8.237  1.00  0.00    -0.002 C 
HETATM    2  C10 UNL     1       2.710  56.665  -7.644  1.00  0.00     0.007 C 
HETATM    3  C11 UNL     1       1.249  56.259  -7.950  1.00  0.00     0.015 C 
HETATM    4  C12 UNL     1       1.329  54.781  -8.400  1.00  0.00    -0.013 C 
HETATM    5  C13 UNL     1       1.352  53.942  -7.080  1.00  0.00     0.021 C 
HETATM    6  C14 UNL     1       0.220  54.172  -9.256  1.00  0.00    -0.070 C 
HETATM    7  C15 UNL     1      -0.977  54.761  -9.421  1.00  0.00    -0.022 C 
HETATM    8  C16 UNL     1      -2.140  54.137 -10.135  1.00  0.00     0.038 C 
HETATM    9  C17 UNL     1      -2.048  52.584 -10.295  1.00  0.00    -0.019 C 
HETATM   10  C18 UNL     1      -2.231  51.982  -8.857  1.00  0.00     0.017 C 
HETATM   11  C19 UNL     1      -3.211  52.023 -11.267  1.00  0.00     0.021 C 
HETATM   12  C20 UNL     1      -3.748  53.073 -12.277  1.00  0.00     0.024 C 
HETATM   13  C21 UNL     1      -4.468  51.518 -10.516  1.00  0.00     0.024 C 
HETATM   14  C22 UNL     1      -2.700  50.812 -12.071  1.00  0.00     0.135 C 
HETATM   15  O1  UNL     1      -3.174  50.503 -13.167  1.00  0.00    -0.297 OA
HETATM   16  C23 UNL     1      -1.657  49.932 -11.433  1.00  0.00     0.080 C 
HETATM   17  C24 UNL     1      -0.420  50.692 -10.971  1.00  0.00     0.018 C 
HETATM   18  C25 UNL     1      -0.582  52.235 -10.842  1.00  0.00    -0.028 C 
HETATM   19  C26 UNL     1      -0.338  52.852 -12.251  1.00  0.00     0.016 C 
HETATM   20  C27 UNL     1       0.532  52.777  -9.830  1.00  0.00     0.024 C 
HETATM   21  C28 UNL     1       1.994  52.634 -10.365  1.00  0.00     0.010 C 
HETATM   22  C29 UNL     1       3.079  53.354  -9.542  1.00  0.00     0.011 C 
HETATM   23  C30 UNL     1       2.665  54.801  -9.220  1.00  0.00    -0.029 C 
HETATM   24  C31 UNL     1       2.533  55.581 -10.562  1.00  0.00     0.016 C 
ENDROOT
BRANCH   1  25
HETATM   25  C7  UNL     1       5.025  55.987  -8.734  1.00  0.00    -0.014 C 
HETATM   26  C8  UNL     1       5.429  55.060  -9.897  1.00  0.00     0.010 C 
BRANCH  25  27
HETATM   27  C6  UNL     1       6.137  55.992  -7.657  1.00  0.00     0.008 C 
BRANCH  27  28
HETATM   28  C5  UNL     1       5.666  56.398  -6.249  1.00  0.00     0.028 C 
BRANCH  28  29
HETATM   29  C4  UNL     1       6.182  57.733  -5.790  1.00  0.00    -0.025 C 
HETATM   30  C2  UNL     1       7.378  58.024  -5.242  1.00  0.00    -0.091 C 
HETATM   31  C1  UNL     1       8.472  57.033  -4.954  1.00  0.00     0.042 C 
HETATM   32  C3  UNL     1       7.713  59.440  -4.850  1.00  0.00     0.042 C 
ENDBRANCH  28  29
ENDBRANCH  27  28
ENDBRANCH  25  27
ENDBRANCH   1  25
TORSDOF 4
ENDMDL
