MODEL 1
REMARK minimizedAffinity -6.9732337
REMARK CNNscore 0.642390966
REMARK CNNaffinity 6.09792185
REMARK  7 active torsions:
REMARK  status: ('A' for Active; 'I' for Inactive)
REMARK    1  A    between atoms: C2_2  and  C30_33 
REMARK    2  A    between atoms: C3_3  and  C4_4 
REMARK    3  A    between atoms: C4_4  and  C5_5 
REMARK    4  A    between atoms: C5_5  and  C6_6 
REMARK    5  A    between atoms: C6_6  and  C8_8 
REMARK    6  A    between atoms: C15_15  and  O1_16 
REMARK    7  A    between atoms: C30_33  and  O5_35 
ROOT
HETATM    1  C8  UNL     1     -17.805   3.860  14.789  1.00  0.00    -0.002 C 
HETATM    2  C9  UNL     1     -17.554   3.817  16.313  1.00  0.00     0.007 C 
HETATM    3  C10 UNL     1     -16.926   2.435  16.618  1.00  0.00     0.015 C 
HETATM    4  C11 UNL     1     -16.493   1.872  15.246  1.00  0.00    -0.005 C 
HETATM    5  C12 UNL     1     -15.106   2.506  14.912  1.00  0.00     0.021 C 
HETATM    6  C13 UNL     1     -16.283   0.378  15.025  1.00  0.00     0.002 C 
HETATM    7  C14 UNL     1     -16.525  -0.197  13.811  1.00  0.00    -0.032 C 
HETATM    8  C15 UNL     1     -17.028   0.640  12.633  1.00  0.00     0.149 C 
HETATM    9  C16 UNL     1     -17.366   2.125  12.897  1.00  0.00     0.047 C 
HETATM   10  C17 UNL     1     -17.711   2.368  14.367  1.00  0.00    -0.026 C 
HETATM   11  C18 UNL     1     -19.029   1.606  14.696  1.00  0.00     0.016 C 
HETATM   12  C19 UNL     1     -16.414  -1.737  13.628  1.00  0.00    -0.012 C 
HETATM   13  C20 UNL     1     -17.745  -2.305  14.193  1.00  0.00     0.021 C 
HETATM   14  C21 UNL     1     -16.298  -2.278  12.171  1.00  0.00     0.021 C 
HETATM   15  C22 UNL     1     -14.862  -2.465  11.707  1.00  0.00     0.080 C 
HETATM   16  C23 UNL     1     -14.209  -3.538  12.554  1.00  0.00     0.135 C 
HETATM   17  O2  UNL     1     -13.465  -4.373  12.038  1.00  0.00    -0.297 OA
HETATM   18  C24 UNL     1     -14.499  -3.528  14.068  1.00  0.00     0.018 C 
HETATM   19  C25 UNL     1     -15.379  -4.739  14.395  1.00  0.00     0.023 C 
HETATM   20  C26 UNL     1     -13.146  -3.705  14.793  1.00  0.00     0.023 C 
HETATM   21  C27 UNL     1     -15.131  -2.146  14.434  1.00  0.00     0.020 C 
HETATM   22  C28 UNL     1     -15.344  -1.886  15.925  1.00  0.00     0.090 C 
HETATM   23  C29 UNL     1     -15.776  -0.453  16.173  1.00  0.00     0.157 C 
HETATM   24  O3  UNL     1     -15.707   0.012  17.309  1.00  0.00    -0.293 OA
ENDROOT
BRANCH   1  25
HETATM   25  C6  UNL     1     -18.930   4.792  14.259  1.00  0.00    -0.014 C 
HETATM   26  C7  UNL     1     -18.942   4.763  12.720  1.00  0.00     0.010 C 
BRANCH  25  27
HETATM   27  C5  UNL     1     -19.107   6.237  14.785  1.00  0.00     0.008 C 
BRANCH  27  28
HETATM   28  C4  UNL     1     -17.901   7.138  15.071  1.00  0.00     0.028 C 
BRANCH  28  29
HETATM   29  C3  UNL     1     -17.167   7.636  13.861  1.00  0.00    -0.013 C 
HETATM   30  C2  UNL     1     -15.994   7.180  13.378  1.00  0.00     0.008 C 
HETATM   31  C1  UNL     1     -15.156   6.100  13.992  1.00  0.00     0.055 C 
BRANCH  30  32
HETATM   32  C30 UNL     1     -15.488   7.830  12.141  1.00  0.00     0.171 C 
HETATM   33  O4  UNL     1     -15.935   7.702  11.015  1.00  0.00    -0.646 OA
BRANCH  32  34
HETATM   34  O5  UNL     1     -14.427   8.618  12.377  1.00  0.00    -0.773 OA
HETATM   35  H44 UNL     1     -14.204   8.969  11.490  1.00  0.00     0.167 HD
ENDBRANCH  32  34
ENDBRANCH  30  32
ENDBRANCH  28  29
ENDBRANCH  27  28
ENDBRANCH  25  27
ENDBRANCH   1  25
BRANCH   8  36
HETATM   36  O1  UNL     1     -16.041   0.601  11.605  1.00  0.00    -0.391 OA
HETATM   37  H22 UNL     1     -15.248   1.048  11.944  1.00  0.00     0.210 HD
ENDBRANCH   8  36
TORSDOF 7
ENDMDL
