MODEL 1
REMARK minimizedAffinity -6.39307308
REMARK CNNscore 0.655125976
REMARK CNNaffinity 4.63190794
REMARK  11 active torsions:
REMARK  status: ('A' for Active; 'I' for Inactive)
REMARK    1  A    between atoms: C4_4  and  O1_5 
REMARK    2  A    between atoms: O1_5  and  C5_6 
REMARK    3  A    between atoms: C6_8  and  C7_9 
REMARK    4  A    between atoms: C7_9  and  O3_10 
REMARK    5  A    between atoms: C8_11  and  O4_12 
REMARK    6  A    between atoms: C9_13  and  O5_14 
REMARK    7  A    between atoms: C10_15  and  O6_16 
REMARK    8  A    between atoms: C15_21  and  O7_22 
REMARK    9  A    between atoms: C15_21  and  C16_23 
REMARK   10  A    between atoms: C17_24  and  C18_25 
REMARK   11  A    between atoms: C18_25  and  O8_27 
ROOT
HETATM    1  C1  UNL     1       1.778  51.945  -8.283  1.00  0.00     0.013 C 
HETATM    2  C2  UNL     1       1.990  53.459  -8.148  1.00  0.00     0.023 C 
HETATM    3  C3  UNL     1       0.693  54.244  -8.426  1.00  0.00     0.039 C 
HETATM    4  C4  UNL     1       0.388  54.469  -9.909  1.00  0.00     0.126 C 
HETATM    5  C11 UNL     1       1.595  55.083 -10.633  1.00  0.00     0.044 C 
HETATM    6  C12 UNL     1       2.944  54.332 -10.445  1.00  0.00    -0.010 C 
HETATM    7  C13 UNL     1       2.970  53.038 -11.296  1.00  0.00     0.018 C 
HETATM    8  C14 UNL     1       4.057  55.226 -11.067  1.00  0.00     0.018 C 
HETATM    9  C15 UNL     1       3.217  54.049  -8.914  1.00  0.00     0.086 C 
ENDROOT
BRANCH   4  10
HETATM   10  O1  UNL     1       0.031  53.271 -10.595  1.00  0.00    -0.353 OA
BRANCH  10  11
HETATM   11  C5  UNL     1      -1.327  53.229 -11.063  1.00  0.00     0.292 C 
HETATM   12  O2  UNL     1      -2.202  52.837 -10.009  1.00  0.00    -0.348 OA
HETATM   13  C6  UNL     1      -3.470  52.278 -10.417  1.00  0.00     0.179 C 
HETATM   14  C8  UNL     1      -3.845  52.556 -11.881  1.00  0.00     0.180 C 
HETATM   15  C9  UNL     1      -2.729  52.154 -12.856  1.00  0.00     0.183 C 
HETATM   16  C10 UNL     1      -1.343  52.205 -12.208  1.00  0.00     0.204 C 
BRANCH  13  17
HETATM   17  C7  UNL     1      -3.475  50.781 -10.078  1.00  0.00     0.198 C 
BRANCH  17  18
HETATM   18  O3  UNL     1      -4.743  50.426  -9.521  1.00  0.00    -0.398 OA
HETATM   19  H12 UNL     1      -4.941  51.112  -8.855  1.00  0.00     0.209 HD
ENDBRANCH  17  18
ENDBRANCH  13  17
BRANCH  14  20
HETATM   20  O4  UNL     1      -4.076  53.969 -12.032  1.00  0.00    -0.390 OA
HETATM   21  H14 UNL     1      -4.857  54.198 -11.495  1.00  0.00     0.210 HD
ENDBRANCH  14  20
BRANCH  15  22
HETATM   22  O5  UNL     1      -2.962  50.826 -13.347  1.00  0.00    -0.390 OA
HETATM   23  H16 UNL     1      -2.268  50.668 -14.018  1.00  0.00     0.210 HD
ENDBRANCH  15  22
BRANCH  16  24
HETATM   24  O6  UNL     1      -0.356  52.500 -13.210  1.00  0.00    -0.388 OA
HETATM   25  H18 UNL     1       0.458  52.705 -12.706  1.00  0.00     0.210 HD
ENDBRANCH  16  24
ENDBRANCH  10  11
ENDBRANCH   4  10
BRANCH   9  26
HETATM   26  O7  UNL     1       4.303  53.125  -8.787  1.00  0.00    -0.385 OA
HETATM   27  H27 UNL     1       5.084  53.537  -9.194  1.00  0.00     0.211 HD
ENDBRANCH   9  26
BRANCH   9  28
HETATM   28  C16 UNL     1       3.620  55.329  -8.173  1.00  0.00     0.010 C 
HETATM   29  C17 UNL     1       3.340  56.594  -8.544  1.00  0.00     0.003 C 
BRANCH  29  30
HETATM   30  C18 UNL     1       3.764  57.808  -7.772  1.00  0.00     0.136 C 
HETATM   31  C19 UNL     1       2.717  58.226  -6.750  1.00  0.00     0.043 C 
BRANCH  30  32
HETATM   32  O8  UNL     1       4.983  57.498  -7.106  1.00  0.00    -0.392 OA
HETATM   33  H34 UNL     1       4.790  56.810  -6.448  1.00  0.00     0.210 HD
ENDBRANCH  30  32
ENDBRANCH  29  30
ENDBRANCH   9  28
TORSDOF 11
ENDMDL
