MODEL 1
REMARK minimizedAffinity -5.26807165
REMARK CNNscore 0.827646136
REMARK CNNaffinity 6.621737
REMARK  13 active torsions:
REMARK  status: ('A' for Active; 'I' for Inactive)
REMARK    1  A    between atoms: C2_2  and  C3_3 
REMARK    2  A    between atoms: C3_3  and  C4_4 
REMARK    3  A    between atoms: C4_4  and  O2_6 
REMARK    4  A    between atoms: O2_6  and  C5_7 
REMARK    5  A    between atoms: C7_9  and  C8_10 
REMARK    6  A    between atoms: C15_18  and  O4_20 
REMARK    7  A    between atoms: C17_21  and  O5_22 
REMARK    8  A    between atoms: C20_25  and  O6_27 
REMARK    9  A    between atoms: O6_27  and  C22_28 
REMARK   10  A    between atoms: C22_28  and  C23_30 
REMARK   11  A    between atoms: C23_30  and  C24_31 
REMARK   12  A    between atoms: C27_34  and  O8_36 
REMARK   13  A    between atoms: O8_36  and  C29_37 
ROOT
HETATM    1  C5  UNL     1       5.231  53.060  -7.844  1.00  0.00     0.167 C 
HETATM    2  C6  UNL     1       4.868  53.634  -9.214  1.00  0.00     0.041 C 
HETATM    3  C7  UNL     1       3.473  54.275  -9.285  1.00  0.00    -0.002 C 
HETATM    4  C11 UNL     1       2.755  54.524  -7.923  1.00  0.00     0.032 C 
HETATM    5  C12 UNL     1       1.659  53.459  -7.648  1.00  0.00     0.161 C 
HETATM    6  O3  UNL     1       1.689  53.172  -6.252  1.00  0.00    -0.377 OA
HETATM    7  C13 UNL     1       2.818  53.737  -5.621  1.00  0.00     0.132 C 
HETATM    8  C14 UNL     1       2.393  54.458  -4.323  1.00  0.00     0.072 C 
HETATM    9  C15 UNL     1       1.414  55.667  -4.303  1.00  0.00     0.082 C 
HETATM   10  C16 UNL     1       1.868  56.880  -5.124  1.00  0.00     0.049 C 
HETATM   11  C17 UNL     1      -0.109  55.333  -4.449  1.00  0.00     0.152 C 
HETATM   12  C18 UNL     1      -0.647  54.449  -5.574  1.00  0.00     0.038 C 
HETATM   13  C19 UNL     1      -0.402  54.904  -7.022  1.00  0.00     0.043 C 
HETATM   14  C20 UNL     1       0.179  53.835  -8.009  1.00  0.00     0.093 C 
HETATM   15  C21 UNL     1      -0.742  52.591  -7.966  1.00  0.00     0.049 C 
HETATM   16  C26 UNL     1       3.616  54.561  -6.637  1.00  0.00     0.059 C 
HETATM   17  C27 UNL     1       5.131  54.178  -6.779  1.00  0.00     0.100 C 
HETATM   18  C28 UNL     1       5.766  53.840  -5.415  1.00  0.00     0.050 C 
ENDROOT
BRANCH  14  19
HETATM   19  O6  UNL     1       0.067  54.479  -9.315  1.00  0.00    -0.308 OA
BRANCH  19  20
HETATM   20  C22 UNL     1      -0.718  53.962 -10.296  1.00  0.00     0.259 C 
HETATM   21  O7  UNL     1      -0.429  53.022 -11.019  1.00  0.00    -0.265 OA
BRANCH  20  22
HETATM   22  C23 UNL     1      -2.008  54.746 -10.387  1.00  0.00     0.111 C 
BRANCH  22  23
HETATM   23  C24 UNL     1      -3.216  53.835 -10.196  1.00  0.00     0.005 C 
HETATM   24  C25 UNL     1      -3.861  53.478 -11.526  1.00  0.00     0.005 C 
ENDBRANCH  22  23
ENDBRANCH  20  22
ENDBRANCH  19  20
ENDBRANCH  14  19
BRANCH   3  25
HETATM   25  C8  UNL     1       3.404  55.522 -10.222  1.00  0.00    -0.018 C 
HETATM   26  C9  UNL     1       3.444  56.865  -9.494  1.00  0.00     0.010 C 
HETATM   27  C10 UNL     1       4.495  55.486 -11.300  1.00  0.00     0.010 C 
ENDBRANCH   3  25
BRANCH  11  28
HETATM   28  O5  UNL     1      -0.865  56.557  -4.453  1.00  0.00    -0.393 OA
HETATM   29  H29 UNL     1      -0.585  57.021  -3.640  1.00  0.00     0.210 HD
ENDBRANCH  11  28
BRANCH  17  30
HETATM   30  O8  UNL     1       5.742  55.437  -7.255  1.00  0.00    -0.308 OA
BRANCH  30  31
HETATM   31  C29 UNL     1       6.656  56.142  -6.538  1.00  0.00     0.255 C 
HETATM   32  C30 UNL     1       6.011  57.347  -5.921  1.00  0.00     0.126 C 
HETATM   33  O9  UNL     1       7.837  55.874  -6.400  1.00  0.00    -0.266 OA
ENDBRANCH  30  31
ENDBRANCH  17  30
BRANCH   9  34
HETATM   34  O4  UNL     1       1.484  56.179  -2.926  1.00  0.00    -0.388 OA
HETATM   35  H27 UNL     1       2.406  56.435  -2.743  1.00  0.00     0.210 HD
ENDBRANCH   9  34
BRANCH   1  36
HETATM   36  O2  UNL     1       6.553  52.503  -7.980  1.00  0.00    -0.313 OA
BRANCH  36  37
HETATM   37  C4  UNL     1       6.701  51.197  -7.634  1.00  0.00     0.259 C 
HETATM   38  O1  UNL     1       5.866  50.534  -7.032  1.00  0.00    -0.265 OA
BRANCH  37  39
HETATM   39  C3  UNL     1       8.001  50.633  -8.150  1.00  0.00     0.111 C 
BRANCH  39  40
HETATM   40  C2  UNL     1       8.697  49.735  -7.135  1.00  0.00     0.005 C 
HETATM   41  C1  UNL     1      10.187  49.620  -7.420  1.00  0.00     0.005 C 
ENDBRANCH  39  40
ENDBRANCH  37  39
ENDBRANCH  36  37
ENDBRANCH   1  36
TORSDOF 13
ENDMDL
