MODEL 1
REMARK minimizedAffinity -5.02528095
REMARK CNNscore 0.655790627
REMARK CNNaffinity 4.9709096
REMARK  2 active torsions:
REMARK  status: ('A' for Active; 'I' for Inactive)
REMARK    1  A    between atoms: C4_5  and  S1_6 
REMARK    2  A    between atoms: S1_6  and  C5_7 
ROOT
HETATM    1  C5  UNL     1     -13.863   2.147  26.127  1.00  0.00     0.029 A 
HETATM    2  C6  UNL     1     -14.664   2.598  27.187  1.00  0.00     0.046 A 
HETATM    3  C7  UNL     1     -14.143   2.708  28.480  1.00  0.00     0.057 A 
HETATM    4 CL2  UNL     1     -15.203   3.259  29.728  1.00  0.00    -0.083 Cl
HETATM    5  C8  UNL     1     -12.807   2.374  28.724  1.00  0.00     0.057 A 
HETATM    6 CL3  UNL     1     -12.097   2.483  30.294  1.00  0.00    -0.082 Cl
HETATM    7  C9  UNL     1     -11.998   1.936  27.674  1.00  0.00     0.051 A 
HETATM    8  C10 UNL     1     -12.519   1.826  26.379  1.00  0.00     0.052 A 
HETATM    9 CL4  UNL     1     -11.435   1.300  25.138  1.00  0.00    -0.083 Cl
ENDROOT
BRANCH   1  10
HETATM   10  S1  UNL     1     -14.628   2.041  24.510  1.00  0.00    -0.089 SA
BRANCH  10  11
HETATM   11  C4  UNL     1     -14.238   3.654  23.852  1.00  0.00     0.005 A 
HETATM   12  C3  UNL     1     -14.220   3.848  22.466  1.00  0.00     0.020 A 
HETATM   13  C2  UNL     1     -13.913   5.103  21.933  1.00  0.00     0.025 A 
HETATM   14  C1  UNL     1     -13.613   6.162  22.787  1.00  0.00     0.034 A 
HETATM   15 CL1  UNL     1     -13.234   7.707  22.133  1.00  0.00    -0.084 Cl
HETATM   16  C12 UNL     1     -13.615   5.978  24.168  1.00  0.00     0.025 A 
HETATM   17  C11 UNL     1     -13.924   4.722  24.700  1.00  0.00     0.020 A 
ENDBRANCH  10  11
ENDBRANCH   1  10
TORSDOF 2
ENDMDL
