MODEL 1
REMARK minimizedAffinity -8.06006908
REMARK CNNscore 0.505437255
REMARK CNNaffinity 6.66461802
REMARK  12 active torsions:
REMARK  status: ('A' for Active; 'I' for Inactive)
REMARK    1  A    between atoms: C2_2  and  C3_3 
REMARK    2  A    between atoms: C2_2  and  C9_10 
REMARK    3  A    between atoms: C3_3  and  C4_4 
REMARK    4  A    between atoms: C5_5  and  C6_6 
REMARK    5  A    between atoms: C6_6  and  O1_9 
REMARK    6  A    between atoms: C27_29  and  O3_30 
REMARK    7  A    between atoms: O3_30  and  C28_31 
REMARK    8  A    between atoms: C29_33  and  C30_34 
REMARK    9  A    between atoms: C30_34  and  O5_35 
REMARK   10  A    between atoms: C31_36  and  O6_37 
REMARK   11  A    between atoms: C32_38  and  O7_39 
REMARK   12  A    between atoms: C33_40  and  O8_41 
ROOT
HETATM    1  C9  UNL     1      -4.193  14.052  18.087  1.00  0.00    -0.002 C 
HETATM    2  C10 UNL     1      -3.597  15.216  17.242  1.00  0.00     0.006 C 
HETATM    3  C11 UNL     1      -2.526  14.581  16.304  1.00  0.00     0.011 C 
HETATM    4  C12 UNL     1      -2.727  13.052  16.459  1.00  0.00    -0.029 C 
HETATM    5  C13 UNL     1      -3.934  12.711  15.501  1.00  0.00     0.016 C 
HETATM    6  C14 UNL     1      -1.582  12.051  16.061  1.00  0.00     0.028 C 
HETATM    7  C15 UNL     1      -0.226  12.530  15.635  1.00  0.00    -0.021 C 
HETATM    8  C16 UNL     1       0.781  11.642  15.583  1.00  0.00     0.008 C 
HETATM    9  C17 UNL     1       0.618  10.179  16.031  1.00  0.00     0.092 C 
HETATM   10  O2  UNL     1       0.912  10.266  17.434  1.00  0.00    -0.374 OA
HETATM   11  C18 UNL     1      -0.329  10.721  18.062  1.00  0.00     0.179 C 
HETATM   12  C19 UNL     1      -1.466  10.756  16.968  1.00  0.00    -0.004 C 
HETATM   13  C20 UNL     1      -2.824  10.399  17.584  1.00  0.00     0.014 C 
HETATM   14  C21 UNL     1      -3.521  11.539  18.363  1.00  0.00     0.011 C 
HETATM   15  C22 UNL     1      -3.074  12.969  17.987  1.00  0.00    -0.032 C 
HETATM   16  C23 UNL     1      -1.858  13.422  18.846  1.00  0.00     0.016 C 
HETATM   17  C24 UNL     1      -0.838   9.653  16.094  1.00  0.00     0.036 C 
HETATM   18  C25 UNL     1      -1.424   9.233  14.747  1.00  0.00     0.011 C 
HETATM   19  C26 UNL     1      -0.504   9.514  13.558  1.00  0.00     0.033 C 
HETATM   20  C27 UNL     1       0.994   9.156  13.750  1.00  0.00     0.136 C 
HETATM   21  C34 UNL     1       1.494   9.166  15.239  1.00  0.00     0.014 C 
HETATM   22  C35 UNL     1       1.436   7.750  15.877  1.00  0.00     0.021 C 
HETATM   23  C36 UNL     1       2.996   9.539  15.268  1.00  0.00     0.021 C 
ENDROOT
BRANCH  20  24
HETATM   24  O3  UNL     1       1.300   7.878  13.173  1.00  0.00    -0.352 OA
BRANCH  24  25
HETATM   25  C28 UNL     1       1.972   7.941  11.905  1.00  0.00     0.292 C 
HETATM   26  O4  UNL     1       1.055   8.110  10.836  1.00  0.00    -0.348 OA
HETATM   27  C29 UNL     1       1.706   8.375   9.580  1.00  0.00     0.179 C 
HETATM   28  C31 UNL     1       3.022   7.574   9.404  1.00  0.00     0.180 C 
HETATM   29  C32 UNL     1       3.046   6.296  10.263  1.00  0.00     0.183 C 
HETATM   30  C33 UNL     1       2.727   6.606  11.738  1.00  0.00     0.204 C 
BRANCH  27  31
HETATM   31  C30 UNL     1       0.676   8.072   8.480  1.00  0.00     0.198 C 
BRANCH  31  32
HETATM   32  O5  UNL     1      -0.339   9.078   8.439  1.00  0.00    -0.398 OA
HETATM   33  H46 UNL     1      -0.849   8.925   7.623  1.00  0.00     0.209 HD
ENDBRANCH  31  32
ENDBRANCH  27  31
BRANCH  28  34
HETATM   34  O6  UNL     1       4.107   8.450   9.776  1.00  0.00    -0.390 OA
HETATM   35  H48 UNL     1       4.723   7.964  10.364  1.00  0.00     0.210 HD
ENDBRANCH  28  34
BRANCH  29  36
HETATM   36  O7  UNL     1       2.170   5.279   9.762  1.00  0.00    -0.390 OA
HETATM   37  H50 UNL     1       1.350   5.709   9.435  1.00  0.00     0.210 HD
ENDBRANCH  29  36
BRANCH  30  38
HETATM   38  O8  UNL     1       3.964   6.682  12.483  1.00  0.00    -0.388 OA
HETATM   39  H52 UNL     1       3.717   6.545  13.422  1.00  0.00     0.210 HD
ENDBRANCH  30  38
ENDBRANCH  24  25
ENDBRANCH  20  24
BRANCH   1  40
HETATM   40  C2  UNL     1      -4.904  14.422  19.428  1.00  0.00    -0.010 C 
HETATM   41  C1  UNL     1      -3.817  14.846  20.443  1.00  0.00     0.010 C 
BRANCH  40  42
HETATM   42  C3  UNL     1      -5.835  13.359  20.045  1.00  0.00     0.031 C 
BRANCH  42  43
HETATM   43  C4  UNL     1      -6.624  13.708  21.285  1.00  0.00    -0.027 C 
HETATM   44  C5  UNL     1      -7.754  13.133  21.738  1.00  0.00     0.006 C 
BRANCH  44  45
HETATM   45  C6  UNL     1      -8.506  13.511  22.997  1.00  0.00     0.068 C 
HETATM   46  C7  UNL     1      -8.038  14.878  23.497  1.00  0.00     0.050 C 
HETATM   47  C8  UNL     1     -10.019  13.525  22.737  1.00  0.00     0.050 C 
BRANCH  45  48
HETATM   48  O1  UNL     1      -8.246  12.558  24.033  1.00  0.00    -0.387 OA
HETATM   49  H15 UNL     1      -8.611  11.709  23.720  1.00  0.00     0.211 HD
ENDBRANCH  45  48
ENDBRANCH  44  45
ENDBRANCH  42  43
ENDBRANCH  40  42
ENDBRANCH   1  40
TORSDOF 12
ENDMDL
