MODEL 1
REMARK minimizedAffinity -8.66912079
REMARK  4 active torsions:
REMARK  status: ('A' for Active; 'I' for Inactive)
REMARK    1  A    between atoms: C4_4  and  C5_5 
REMARK    2  A    between atoms: C5_5  and  C6_6 
REMARK    3  A    between atoms: C6_6  and  C7_7 
REMARK    4  A    between atoms: C7_7  and  C9_9 
ROOT
HETATM    1  C9  UNL     1      -2.735   8.757  14.598  1.00  0.00    -0.002 C 
HETATM    2  C10 UNL     1      -2.647   7.735  15.755  1.00  0.00     0.006 C 
HETATM    3  C11 UNL     1      -1.337   6.968  15.593  1.00  0.00     0.011 C 
HETATM    4  C12 UNL     1      -0.477   7.759  14.568  1.00  0.00    -0.032 C 
HETATM    5  C13 UNL     1       0.197   8.904  15.377  1.00  0.00     0.016 C 
HETATM    6  C14 UNL     1       0.597   6.790  13.911  1.00  0.00     0.004 C 
HETATM    7  C15 UNL     1       2.082   7.227  13.933  1.00  0.00     0.007 C 
HETATM    8  C16 UNL     1       2.477   8.182  12.819  1.00  0.00     0.007 C 
HETATM    9  C17 UNL     1       2.125   7.733  11.393  1.00  0.00     0.010 C 
HETATM   10  C18 UNL     1       3.319   7.344  10.460  1.00  0.00     0.018 C 
HETATM   11  C19 UNL     1       4.139   8.593  10.090  1.00  0.00     0.023 C 
HETATM   12  C20 UNL     1       4.265   6.298  11.067  1.00  0.00     0.023 C 
HETATM   13  C21 UNL     1       2.740   6.779   9.146  1.00  0.00     0.135 C 
HETATM   14  O1  UNL     1       3.416   6.103   8.368  1.00  0.00    -0.297 OA
HETATM   15  C22 UNL     1       1.320   7.171   8.792  1.00  0.00     0.080 C 
HETATM   16  C23 UNL     1       0.338   6.766   9.889  1.00  0.00     0.018 C 
HETATM   17  C24 UNL     1       0.992   6.715  11.267  1.00  0.00    -0.026 A 
HETATM   18  C25 UNL     1       1.127   5.321  11.852  1.00  0.00     0.021 A 
HETATM   19  C26 UNL     1       0.189   6.307  12.514  1.00  0.00    -0.027 A 
HETATM   20  C27 UNL     1      -1.268   5.960  12.416  1.00  0.00     0.011 C 
HETATM   21  C28 UNL     1      -2.174   7.155  12.661  1.00  0.00     0.011 C 
HETATM   22  C29 UNL     1      -1.619   8.275  13.592  1.00  0.00    -0.032 C 
HETATM   23  C30 UNL     1      -1.115   9.448  12.727  1.00  0.00     0.016 C 
ENDROOT
BRANCH   1  24
HETATM   24  C7  UNL     1      -4.206   8.962  14.122  1.00  0.00    -0.014 C 
HETATM   25  C8  UNL     1      -5.177   9.267  15.263  1.00  0.00     0.010 C 
BRANCH  24  26
HETATM   26  C6  UNL     1      -4.744   7.774  13.278  1.00  0.00     0.008 C 
BRANCH  26  27
HETATM   27  C5  UNL     1      -5.761   6.868  13.983  1.00  0.00     0.028 C 
BRANCH  27  28
HETATM   28  C4  UNL     1      -5.659   5.461  13.458  1.00  0.00    -0.025 C 
HETATM   29  C2  UNL     1      -6.634   4.692  12.932  1.00  0.00    -0.091 C 
HETATM   30  C1  UNL     1      -6.328   3.296  12.449  1.00  0.00     0.042 C 
HETATM   31  C3  UNL     1      -8.070   5.100  12.756  1.00  0.00     0.042 C 
ENDBRANCH  27  28
ENDBRANCH  26  27
ENDBRANCH  24  26
ENDBRANCH   1  24
TORSDOF 4
ENDMDL
