MODEL 1
REMARK minimizedAffinity -8.82667446
REMARK  6 active torsions:
REMARK  status: ('A' for Active; 'I' for Inactive)
REMARK    1  A    between atoms: C9_10  and  C10_11 
REMARK    2  A    between atoms: C11_13  and  O3_14 
REMARK    3  A    between atoms: C12_15  and  C13_16 
REMARK    4  A    between atoms: C14_18  and  O5_19 
REMARK    5  A    between atoms: C16_21  and  C17_22 
REMARK    6  A    between atoms: C17_22  and  C18_23 
ROOT
HETATM    1  C1  UNL     1      -6.754  46.448 -20.282  1.00  0.00     0.043 C 
HETATM    2  C2  UNL     1      -6.814  47.405 -21.454  1.00  0.00    -0.087 C 
HETATM    3  C3  UNL     1      -6.226  47.053 -22.615  1.00  0.00    -0.024 C 
HETATM    4  C4  UNL     1      -6.145  47.740 -23.948  1.00  0.00     0.030 C 
HETATM    5  C5  UNL     1      -6.115  49.267 -24.029  1.00  0.00     0.042 C 
HETATM    6  C6  UNL     1      -4.746  49.980 -23.817  1.00  0.00     0.069 C 
HETATM    7  C7  UNL     1      -5.019  51.496 -23.905  1.00  0.00     0.047 C 
HETATM    8  O1  UNL     1      -4.048  49.586 -25.056  1.00  0.00    -0.338 OA
HETATM    9  C8  UNL     1      -2.835  50.177 -25.267  1.00  0.00     0.095 A 
HETATM   10  C9  UNL     1      -2.468  50.471 -26.589  1.00  0.00     0.070 A 
HETATM   11  C11 UNL     1      -1.283  51.174 -26.851  1.00  0.00     0.097 A 
HETATM   12  C12 UNL     1      -0.479  51.585 -25.787  1.00  0.00     0.069 A 
HETATM   13  C14 UNL     1      -0.844  51.257 -24.469  1.00  0.00     0.091 A 
HETATM   14  C15 UNL     1      -1.999  50.500 -24.197  1.00  0.00     0.015 A 
HETATM   15  C16 UNL     1      -2.363  50.057 -22.793  1.00  0.00     0.032 C 
HETATM   16  C21 UNL     1      -3.841  49.500 -22.647  1.00  0.00     0.034 C 
HETATM   17  C22 UNL     1      -4.218  49.482 -21.170  1.00  0.00     0.006 A 
HETATM   18  C23 UNL     1      -5.459  49.703 -20.323  1.00  0.00    -0.001 A 
HETATM   19  C24 UNL     1      -6.824  49.954 -20.853  1.00  0.00     0.010 C 
HETATM   20  C25 UNL     1      -7.611  48.668 -21.184  1.00  0.00     0.034 C 
HETATM   21  C26 UNL     1      -4.315  50.708 -20.245  1.00  0.00    -0.039 A 
HETATM   22  C27 UNL     1      -4.553  52.120 -20.706  1.00  0.00     0.015 C 
HETATM   23  C28 UNL     1      -3.418  50.661 -19.023  1.00  0.00     0.015 C 
ENDROOT
BRANCH  15  24
HETATM   24  C17 UNL     1      -1.277  49.142 -22.130  1.00  0.00     0.014 C 
BRANCH  24  25
HETATM   25  C18 UNL     1      -0.515  49.548 -20.842  1.00  0.00    -0.022 C 
HETATM   26  C19 UNL     1      -0.851  48.691 -19.620  1.00  0.00     0.009 C 
HETATM   27  C20 UNL     1      -0.580  51.026 -20.476  1.00  0.00     0.009 C 
ENDBRANCH  24  25
ENDBRANCH  15  24
BRANCH  13  28
HETATM   28  O5  UNL     1      -0.094  51.675 -23.397  1.00  0.00    -0.359 OA
HETATM   29  H15 UNL     1       0.690  52.170 -23.732  1.00  0.00     0.217 HD
ENDBRANCH  13  28
BRANCH  10  30
HETATM   30  C10 UNL     1      -3.354  50.058 -27.696  1.00  0.00     0.275 C 
HETATM   31  O2  UNL     1      -3.463  48.870 -27.992  1.00  0.00    -0.301 OA
ENDBRANCH  10  30
BRANCH  12  32
HETATM   32  C13 UNL     1       0.749  52.360 -26.060  1.00  0.00     0.275 C 
HETATM   33  O4  UNL     1       0.682  53.476 -26.572  1.00  0.00    -0.301 OA
ENDBRANCH  12  32
BRANCH  11  34
HETATM   34  O3  UNL     1      -0.897  51.491 -28.130  1.00  0.00    -0.359 OA
HETATM   35  H13 UNL     1      -1.574  51.149 -28.760  1.00  0.00     0.217 HD
ENDBRANCH  11  34
TORSDOF 6
ENDMDL
