MODEL 1
REMARK minimizedAffinity -9.93401241
REMARK  7 active torsions:
REMARK  status: ('A' for Active; 'I' for Inactive)
REMARK    1  A    between atoms: C2_2  and  C30_33 
REMARK    2  A    between atoms: C3_3  and  C4_4 
REMARK    3  A    between atoms: C4_4  and  C5_5 
REMARK    4  A    between atoms: C5_5  and  C6_6 
REMARK    5  A    between atoms: C6_6  and  C8_8 
REMARK    6  A    between atoms: C10_10  and  O1_11 
REMARK    7  A    between atoms: C30_33  and  O5_35 
ROOT
HETATM    1  C8  UNL     1      -0.915  49.861 -18.025  1.00  0.00     0.001 C 
HETATM    2  C9  UNL     1      -1.910  48.673 -18.023  1.00  0.00     0.038 C 
HETATM    3  C10 UNL     1      -2.427  48.524 -19.476  1.00  0.00     0.131 C 
HETATM    4  C11 UNL     1      -1.440  49.366 -20.333  1.00  0.00     0.014 C 
HETATM    5  C12 UNL     1      -0.175  48.490 -20.621  1.00  0.00     0.023 C 
HETATM    6  C13 UNL     1      -1.847  49.897 -21.708  1.00  0.00    -0.058 C 
HETATM    7  C14 UNL     1      -1.232  50.986 -22.248  1.00  0.00    -0.000 C 
HETATM    8  C15 UNL     1      -0.322  51.836 -21.362  1.00  0.00     0.157 C 
HETATM    9  O2  UNL     1       0.191  52.867 -21.796  1.00  0.00    -0.293 OA
HETATM   10  C16 UNL     1      -0.061  51.425 -19.917  1.00  0.00     0.094 C 
HETATM   11  C17 UNL     1      -1.213  50.583 -19.371  1.00  0.00    -0.019 C 
HETATM   12  C18 UNL     1      -2.463  51.508 -19.233  1.00  0.00     0.017 C 
HETATM   13  C19 UNL     1      -1.446  51.439 -23.722  1.00  0.00    -0.008 C 
HETATM   14  C20 UNL     1      -2.353  52.690 -23.651  1.00  0.00     0.021 C 
HETATM   15  C21 UNL     1      -0.106  51.832 -24.435  1.00  0.00     0.022 C 
HETATM   16  C22 UNL     1       0.224  51.052 -25.701  1.00  0.00     0.080 C 
HETATM   17  C23 UNL     1      -0.956  50.991 -26.639  1.00  0.00     0.135 C 
HETATM   18  O3  UNL     1      -0.824  51.276 -27.836  1.00  0.00    -0.297 OA
HETATM   19  C24 UNL     1      -2.276  50.459 -26.059  1.00  0.00     0.018 C 
HETATM   20  C25 UNL     1      -3.412  51.416 -26.461  1.00  0.00     0.023 C 
HETATM   21  C26 UNL     1      -2.533  49.090 -26.740  1.00  0.00     0.023 C 
HETATM   22  C27 UNL     1      -2.091  50.247 -24.521  1.00  0.00     0.014 C 
HETATM   23  C28 UNL     1      -3.327  49.708 -23.790  1.00  0.00     0.011 C 
HETATM   24  C29 UNL     1      -2.900  49.104 -22.453  1.00  0.00     0.036 C 
ENDROOT
BRANCH   1  25
HETATM   25  C6  UNL     1      -0.833  50.707 -16.720  1.00  0.00    -0.013 C 
HETATM   26  C7  UNL     1       0.601  50.619 -16.159  1.00  0.00     0.010 C 
BRANCH  25  27
HETATM   27  C5  UNL     1      -1.831  50.309 -15.606  1.00  0.00     0.008 C 
BRANCH  27  28
HETATM   28  C4  UNL     1      -1.423  50.820 -14.217  1.00  0.00     0.028 C 
BRANCH  28  29
HETATM   29  C3  UNL     1      -2.382  51.870 -13.725  1.00  0.00    -0.013 C 
HETATM   30  C2  UNL     1      -2.986  51.925 -12.519  1.00  0.00     0.008 C 
HETATM   31  C1  UNL     1      -2.839  50.920 -11.418  1.00  0.00     0.055 C 
BRANCH  30  32
HETATM   32  C30 UNL     1      -3.890  53.055 -12.171  1.00  0.00     0.171 C 
HETATM   33  O4  UNL     1      -4.273  53.328 -11.048  1.00  0.00    -0.646 OA
BRANCH  32  34
HETATM   34  O5  UNL     1      -4.263  53.803 -13.226  1.00  0.00    -0.773 OA
HETATM   35  H44 UNL     1      -4.837  54.486 -12.823  1.00  0.00     0.167 HD
ENDBRANCH  32  34
ENDBRANCH  30  32
ENDBRANCH  28  29
ENDBRANCH  27  28
ENDBRANCH  25  27
ENDBRANCH   1  25
BRANCH   3  36
HETATM   36  O1  UNL     1      -2.483  47.144 -19.807  1.00  0.00    -0.394 OA
HETATM   37  H17 UNL     1      -2.848  47.056 -20.703  1.00  0.00     0.210 HD
ENDBRANCH   3  36
TORSDOF 7
ENDMDL
