MODEL 1
REMARK minimizedAffinity -7.02648258
REMARK CNNscore 0.80008781
REMARK CNNaffinity 5.25310278
REMARK  11 active torsions:
REMARK  status: ('A' for Active; 'I' for Inactive)
REMARK    1  A    between atoms: C1_2  and  C2_3 
REMARK    2  A    between atoms: C1_2  and  O4_13 
REMARK    3  A    between atoms: C3_4  and  C4_5 
REMARK    4  A    between atoms: C7_8  and  O2_9 
REMARK    5  A    between atoms: C8_10  and  O3_11 
REMARK    6  A    between atoms: O4_13  and  C10_14 
REMARK    7  A    between atoms: C12_16  and  O5_17 
REMARK    8  A    between atoms: C12_16  and  C13_18 
REMARK    9  A    between atoms: C13_18  and  O7_20 
REMARK   10  A    between atoms: C15_22  and  O8_23 
REMARK   11  A    between atoms: C16_24  and  O9_25 
ROOT
HETATM    1  C10 UNL     1      -1.721  51.264 -19.429  1.00  0.00     0.166 C 
HETATM    2  C11 UNL     1      -0.680  51.712 -18.396  1.00  0.00     0.084 C 
HETATM    3  C12 UNL     1      -0.630  50.779 -17.184  1.00  0.00     0.147 C 
HETATM    4  C14 UNL     1      -0.383  49.327 -17.609  1.00  0.00     0.083 C 
HETATM    5  C15 UNL     1      -1.413  48.855 -18.636  1.00  0.00     0.152 C 
HETATM    6  C16 UNL     1      -1.495  49.800 -19.845  1.00  0.00     0.176 C 
ENDROOT
BRANCH   1   7
HETATM    7  O4  UNL     1      -1.585  52.085 -20.613  1.00  0.00    -0.310 OA
BRANCH   7   8
HETATM    8  C1  UNL     1      -0.369  52.068 -21.209  1.00  0.00     0.283 C 
HETATM    9  O1  UNL     1       0.714  52.006 -20.653  1.00  0.00    -0.260 OA
BRANCH   8  10
HETATM   10  C2  UNL     1      -0.577  52.120 -22.670  1.00  0.00     0.083 C 
HETATM   11  C3  UNL     1       0.479  52.202 -23.493  1.00  0.00     0.017 C 
BRANCH  11  12
HETATM   12  C4  UNL     1       0.375  52.275 -24.956  1.00  0.00    -0.033 A 
HETATM   13  C5  UNL     1       1.406  51.831 -25.802  1.00  0.00     0.014 A 
HETATM   14  C6  UNL     1       1.288  51.939 -27.190  1.00  0.00     0.040 A 
HETATM   15  C7  UNL     1       0.141  52.501 -27.729  1.00  0.00     0.098 A 
HETATM   16  C8  UNL     1      -0.883  52.958 -26.905  1.00  0.00     0.099 A 
HETATM   17  C9  UNL     1      -0.772  52.855 -25.521  1.00  0.00     0.050 A 
BRANCH  15  18
HETATM   18  O2  UNL     1       0.027  52.608 -29.085  1.00  0.00    -0.358 OA
HETATM   19  H5  UNL     1      -0.847  53.027 -29.223  1.00  0.00     0.217 HD
ENDBRANCH  15  18
BRANCH  16  20
HETATM   20  O3  UNL     1      -1.983  53.506 -27.505  1.00  0.00    -0.358 OA
HETATM   21  H6  UNL     1      -2.611  53.765 -26.808  1.00  0.00     0.217 HD
ENDBRANCH  16  20
ENDBRANCH  11  12
ENDBRANCH   8  10
ENDBRANCH   7   8
ENDBRANCH   1   7
BRANCH   6  22
HETATM   22  O9  UNL     1      -2.574  49.369 -20.688  1.00  0.00    -0.390 OA
HETATM   23  H18 UNL     1      -3.267  49.040 -20.079  1.00  0.00     0.210 HD
ENDBRANCH   6  22
BRANCH   3  24
HETATM   24  O5  UNL     1      -1.905  50.821 -16.524  1.00  0.00    -0.379 OA
HETATM   25  H11 UNL     1      -1.868  51.597 -15.925  1.00  0.00     0.211 HD
ENDBRANCH   3  24
BRANCH   3  26
HETATM   26  C13 UNL     1       0.491  51.246 -16.244  1.00  0.00     0.176 C 
HETATM   27  O6  UNL     1       1.052  52.328 -16.244  1.00  0.00    -0.648 OA
BRANCH  26  28
HETATM   28  O7  UNL     1       0.799  50.304 -15.323  1.00  0.00    -0.774 OA
HETATM   29  H12 UNL     1       1.512  50.715 -14.786  1.00  0.00     0.167 HD
ENDBRANCH  26  28
ENDBRANCH   3  26
BRANCH   5  30
HETATM   30  O8  UNL     1      -2.718  48.748 -18.046  1.00  0.00    -0.393 OA
HETATM   31  H16 UNL     1      -2.783  49.428 -17.340  1.00  0.00     0.210 HD
ENDBRANCH   5  30
TORSDOF 11
ENDMDL
