MODEL 1
REMARK minimizedAffinity -7.47451687
REMARK CNNscore 0.462288469
REMARK CNNaffinity 7.43230963
REMARK  11 active torsions:
REMARK  status: ('A' for Active; 'I' for Inactive)
REMARK    1  A    between atoms: C13_13  and  S1_14 
REMARK    2  A    between atoms: C22_26  and  C23_27 
REMARK    3  A    between atoms: C23_27  and  O4_28 
REMARK    4  A    between atoms: C29_34  and  O5_35 
REMARK    5  A    between atoms: C41_48  and  C42_49 
REMARK    6  A    between atoms: C41_48  and  N1_60 
REMARK    7  A    between atoms: C42_49  and  C43_50 
REMARK    8  A    between atoms: C43_50  and  C44_51 
REMARK    9  A    between atoms: C43_50  and  C45_53 
REMARK   10  A    between atoms: C44_51  and  O7_52 
REMARK   11  A    between atoms: C45_53  and  C46_54 
REMARK       I    between atoms: C52_62  and  N2_63 
REMARK       I    between atoms: C52_62  and  N3_64 
ROOT
HETATM    1  C1  UNL     1       4.060   9.356  22.277  1.00  0.00     0.010 C 
HETATM    2  C2  UNL     1       4.432  10.653  23.014  1.00  0.00    -0.010 C 
HETATM    3  C3  UNL     1       3.185  11.508  23.302  1.00  0.00     0.009 C 
HETATM    4  C4  UNL     1       2.741  12.446  22.166  1.00  0.00     0.039 C 
HETATM    5  C5  UNL     1       3.587  12.421  20.924  1.00  0.00    -0.049 C 
HETATM    6  C6  UNL     1       3.055  12.887  19.706  1.00  0.00     0.044 C 
HETATM    7  C7  UNL     1       3.807  12.828  18.532  1.00  0.00     0.073 C 
HETATM    8  C8  UNL     1       5.031  12.167  18.540  1.00  0.00     0.037 C 
HETATM    9  C9  UNL     1       5.589  11.761  19.753  1.00  0.00     0.011 C 
HETATM   10  C10 UNL     1       4.905  11.937  20.961  1.00  0.00    -0.047 C 
HETATM   11  C11 UNL     1       5.527  11.476  22.265  1.00  0.00     0.024 C 
HETATM   12  C12 UNL     1       6.032  12.614  23.206  1.00  0.00     0.033 C 
HETATM   13  C13 UNL     1       7.396  13.351  23.013  1.00  0.00     0.140 C 
HETATM   14  C14 UNL     1       7.277  14.847  22.550  1.00  0.00     0.050 C 
HETATM   15  C15 UNL     1       7.578  15.799  23.721  1.00  0.00    -0.013 C 
HETATM   16  C16 UNL     1       8.654  16.616  23.730  1.00  0.00    -0.050 C 
HETATM   17  C17 UNL     1       9.634  16.511  22.598  1.00  0.00     0.043 C 
HETATM   18  C18 UNL     1       8.785  16.672  21.343  1.00  0.00     0.013 C 
HETATM   19  C19 UNL     1       7.942  18.000  21.359  1.00  0.00     0.038 C 
HETATM   20  C20 UNL     1       8.413  19.114  22.338  1.00  0.00     0.123 C 
HETATM   21  C21 UNL     1       7.795  20.479  21.940  1.00  0.00     0.039 C 
HETATM   22  C22 UNL     1       8.480  21.706  22.622  1.00  0.00     0.023 C 
HETATM   23  C24 UNL     1       7.727  22.234  23.869  1.00  0.00     0.101 C 
HETATM   24  C25 UNL     1       7.778  21.309  25.006  1.00  0.00    -0.101 C 
HETATM   25  C26 UNL     1       7.815  20.413  25.805  1.00  0.00    -0.066 C 
HETATM   26  C27 UNL     1       7.863  19.184  26.547  1.00  0.00     0.029 A 
HETATM   27  C28 UNL     1       7.483  19.206  27.894  1.00  0.00     0.057 A 
HETATM   28  C29 UNL     1       7.548  18.041  28.649  1.00  0.00     0.067 A 
HETATM   29  C30 UNL     1       8.011  16.861  28.088  1.00  0.00     0.037 A 
HETATM   30  C31 UNL     1       8.390  16.832  26.743  1.00  0.00     0.014 A 
HETATM   31  C32 UNL     1       8.286  17.978  25.928  1.00  0.00    -0.006 A 
HETATM   32  C33 UNL     1       8.734  17.932  24.463  1.00  0.00     0.185 C 
HETATM   33  O6  UNL     1       7.940  18.830  23.663  1.00  0.00    -0.371 OA
HETATM   34  C34 UNL     1       7.952  15.343  21.198  1.00  0.00     0.102 A 
HETATM   35  C35 UNL     1       7.008  15.415  20.002  1.00  0.00     0.081 A 
HETATM   36  C36 UNL     1       5.687  15.866  20.104  1.00  0.00     0.006 C 
HETATM   37  C37 UNL     1       4.798  15.715  19.040  1.00  0.00     0.010 C 
HETATM   38  C38 UNL     1       5.202  15.111  17.838  1.00  0.00    -0.003 C 
HETATM   39  C39 UNL     1       6.573  14.855  17.672  1.00  0.00     0.010 C 
HETATM   40  C40 UNL     1       7.458  14.985  18.749  1.00  0.00     0.006 C 
HETATM   41  C41 UNL     1       4.099  14.583  16.864  1.00  0.00     0.171 C 
HETATM   42  O8  UNL     1       3.311  13.465  17.422  1.00  0.00    -0.316 OA
HETATM   43 NA1  UNL     1       5.616  15.362  20.235  1.00  0.00    -0.223 Na
ENDROOT
BRANCH  41  44
HETATM   44  C42 UNL     1       4.707  14.012  15.532  1.00  0.00     0.074 C 
BRANCH  44  45
HETATM   45  C43 UNL     1       3.737  13.306  14.537  1.00  0.00     0.018 C 
BRANCH  45  46
HETATM   46  C44 UNL     1       3.951  11.782  14.640  1.00  0.00     0.169 C 
BRANCH  46  47
HETATM   47  O7  UNL     1       4.489  11.261  13.430  1.00  0.00    -0.400 OA
HETATM   48  H47 UNL     1       4.486  10.291  13.511  1.00  0.00     0.209 HD
ENDBRANCH  46  47
ENDBRANCH  45  46
BRANCH  45  49
HETATM   49  C45 UNL     1       3.918  13.807  13.088  1.00  0.00     0.045 C 
BRANCH  49  50
HETATM   50  C46 UNL     1       2.756  14.596  12.522  1.00  0.00    -0.058 A 
HETATM   51  C47 UNL     1       1.616  14.853  13.297  1.00  0.00     0.007 A 
HETATM   52  C48 UNL     1       0.559  15.598  12.774  1.00  0.00     0.001 A 
HETATM   53  C49 UNL     1       0.631  16.100  11.476  1.00  0.00     0.000 A 
HETATM   54  C50 UNL     1       1.761  15.853  10.697  1.00  0.00     0.001 A 
HETATM   55  C51 UNL     1       2.817  15.104  11.217  1.00  0.00     0.007 A 
ENDBRANCH  49  50
ENDBRANCH  45  49
ENDBRANCH  44  45
ENDBRANCH  41  44
BRANCH  41  56
HETATM   56  N1  UNL     1       3.342  15.785  16.426  1.00  0.00    -0.336 N 
HETATM   57  C52 UNL     1       2.099  15.929  16.658  1.00  0.00     0.124 C 
HETATM   58  N2  UNL     1       1.191  15.093  17.221  1.00  0.00    -0.279 NA
HETATM   59  N3  UNL     1       1.491  17.061  16.231  1.00  0.00    -0.279 NA
HETATM   60  H55 UNL     1       0.598  14.716  16.489  1.00  0.00     0.126 HD
HETATM   61  H56 UNL     1       0.541  15.594  17.812  1.00  0.00     0.126 HD
HETATM   62  H57 UNL     1       2.211  17.679  15.855  1.00  0.00     0.126 HD
HETATM   63  H58 UNL     1       0.989  17.552  16.961  1.00  0.00     0.126 HD
ATOM     64  H1  UNL     1       3.836  16.520  15.921  1.00  0.00     0.165 HD
ENDBRANCH  41  56
BRANCH  13  65
HETATM   65  S1  UNL     1       8.733  12.348  22.396  1.00  0.00     0.106 S 
HETATM   66  O1  UNL     1       8.709  11.163  23.247  1.00  0.00    -0.595 OA
HETATM   67  O2  UNL     1       8.340  12.084  21.012  1.00  0.00    -0.595 OA
HETATM   68  O3  UNL     1       9.929  13.168  22.536  1.00  0.00    -0.595 OA
ENDBRANCH  13  65
BRANCH  22  69
HETATM   69  C23 UNL     1       8.604  22.841  21.583  1.00  0.00     0.169 C 
BRANCH  69  70
HETATM   70  O4  UNL     1       7.944  22.514  20.368  1.00  0.00    -0.400 OA
HETATM   71  H29 UNL     1       8.537  21.954  19.840  1.00  0.00     0.209 HD
ENDBRANCH  69  70
ENDBRANCH  22  69
BRANCH  28  72
HETATM   72  O5  UNL     1       7.163  18.019  29.956  1.00  0.00    -0.361 OA
HETATM   73  H33 UNL     1       6.764  18.876  30.174  1.00  0.00     0.217 HD
ENDBRANCH  28  72
TORSDOF 11
ENDMDL
