MODEL 1
REMARK minimizedAffinity -9.09710598
REMARK  4 active torsions:
REMARK  status: ('A' for Active; 'I' for Inactive)
REMARK    1  A    between atoms: C4_4  and  C5_5 
REMARK    2  A    between atoms: C5_5  and  C6_6 
REMARK    3  A    between atoms: C6_6  and  C7_7 
REMARK    4  A    between atoms: C7_7  and  C9_9 
ROOT
HETATM    1  C9  UNL     1      -3.560  48.332 -19.737  1.00  0.00    -0.002 C 
HETATM    2  C10 UNL     1      -4.118  47.231 -20.690  1.00  0.00     0.007 C 
HETATM    3  C11 UNL     1      -3.827  47.676 -22.135  1.00  0.00     0.015 C 
HETATM    4  C12 UNL     1      -3.410  49.155 -22.012  1.00  0.00    -0.013 C 
HETATM    5  C13 UNL     1      -4.742  49.972 -21.947  1.00  0.00     0.021 C 
HETATM    6  C14 UNL     1      -2.592  49.768 -23.144  1.00  0.00    -0.070 C 
HETATM    7  C15 UNL     1      -2.739  49.386 -24.425  1.00  0.00    -0.022 C 
HETATM    8  C16 UNL     1      -2.052  50.031 -25.589  1.00  0.00     0.034 C 
HETATM    9  C17 UNL     1      -0.949  51.048 -25.218  1.00  0.00     0.013 C 
HETATM   10  C18 UNL     1      -0.438  51.872 -26.458  1.00  0.00     0.018 C 
HETATM   11  C19 UNL     1      -1.530  52.249 -27.478  1.00  0.00     0.023 C 
HETATM   12  C20 UNL     1       0.629  51.052 -27.216  1.00  0.00     0.023 C 
HETATM   13  C21 UNL     1       0.253  53.152 -25.975  1.00  0.00     0.135 C 
HETATM   14  O1  UNL     1       0.350  54.161 -26.672  1.00  0.00    -0.297 OA
HETATM   15  C22 UNL     1       0.895  53.094 -24.617  1.00  0.00     0.080 C 
HETATM   16  C23 UNL     1      -0.133  52.817 -23.531  1.00  0.00     0.017 C 
HETATM   17  C24 UNL     1      -1.328  51.898 -23.947  1.00  0.00    -0.031 C 
HETATM   18  C25 UNL     1      -2.557  52.799 -24.217  1.00  0.00     0.016 C 
HETATM   19  C26 UNL     1      -1.620  50.886 -22.763  1.00  0.00     0.024 C 
HETATM   20  C27 UNL     1      -1.989  51.551 -21.415  1.00  0.00     0.010 C 
HETATM   21  C28 UNL     1      -2.261  50.572 -20.247  1.00  0.00     0.011 C 
HETATM   22  C29 UNL     1      -2.587  49.124 -20.674  1.00  0.00    -0.029 C 
HETATM   23  C30 UNL     1      -1.253  48.316 -20.782  1.00  0.00     0.016 C 
ENDROOT
BRANCH   1  24
HETATM   24  C7  UNL     1      -3.041  47.738 -18.391  1.00  0.00    -0.014 C 
HETATM   25  C8  UNL     1      -3.108  46.207 -18.379  1.00  0.00     0.010 C 
BRANCH  24  26
HETATM   26  C6  UNL     1      -1.582  48.209 -18.127  1.00  0.00     0.008 C 
BRANCH  26  27
HETATM   27  C5  UNL     1      -1.374  49.119 -16.907  1.00  0.00     0.028 C 
BRANCH  27  28
HETATM   28  C4  UNL     1      -0.531  50.326 -17.216  1.00  0.00    -0.025 C 
HETATM   29  C2  UNL     1       0.528  50.803 -16.533  1.00  0.00    -0.091 C 
HETATM   30  C1  UNL     1       1.109  50.200 -15.283  1.00  0.00     0.042 C 
HETATM   31  C3  UNL     1       1.242  52.045 -17.002  1.00  0.00     0.042 C 
ENDBRANCH  27  28
ENDBRANCH  26  27
ENDBRANCH  24  26
ENDBRANCH   1  24
TORSDOF 4
ENDMDL
