MODEL 1
REMARK minimizedAffinity -9.66576767
REMARK CNNscore 0.589290679
REMARK CNNaffinity 7.35895395
REMARK  4 active torsions:
REMARK  status: ('A' for Active; 'I' for Inactive)
REMARK    1  A    between atoms: C2_2  and  C4_4 
REMARK    2  A    between atoms: C4_4  and  C5_5 
REMARK    3  A    between atoms: C5_5  and  O1_6 
REMARK    4  A    between atoms: C8_9  and  C9_10 
ROOT
HETATM    1  C9  UNL     1       0.550   6.207  13.181  1.00  0.00     0.001 C 
HETATM    2  C10 UNL     1       0.871   6.945  14.508  1.00  0.00     0.007 C 
HETATM    3  C11 UNL     1      -0.470   7.187  15.226  1.00  0.00     0.011 C 
HETATM    4  C12 UNL     1      -1.486   6.280  14.503  1.00  0.00    -0.032 C 
HETATM    5  C13 UNL     1      -1.334   4.861  15.138  1.00  0.00     0.016 C 
HETATM    6  C14 UNL     1      -2.960   6.756  14.590  1.00  0.00     0.004 C 
HETATM    7  C15 UNL     1      -3.590   6.607  15.984  1.00  0.00     0.007 C 
HETATM    8  C16 UNL     1      -5.003   7.188  15.989  1.00  0.00     0.007 C 
HETATM    9  C17 UNL     1      -5.938   6.314  15.139  1.00  0.00     0.010 C 
HETATM   10  C18 UNL     1      -7.410   6.833  15.028  1.00  0.00     0.018 C 
HETATM   11  C19 UNL     1      -7.517   8.331  14.699  1.00  0.00     0.023 C 
HETATM   12  C20 UNL     1      -8.163   6.567  16.345  1.00  0.00     0.023 C 
HETATM   13  C21 UNL     1      -8.137   6.035  13.930  1.00  0.00     0.135 C 
HETATM   14  O2  UNL     1      -9.179   6.428  13.402  1.00  0.00    -0.297 OA
HETATM   15  C22 UNL     1      -7.563   4.684  13.586  1.00  0.00     0.080 C 
HETATM   16  C23 UNL     1      -6.133   4.830  13.080  1.00  0.00     0.018 C 
HETATM   17  C24 UNL     1      -5.370   5.968  13.756  1.00  0.00    -0.026 A 
HETATM   18  C25 UNL     1      -4.852   7.061  12.852  1.00  0.00     0.021 A 
HETATM   19  C26 UNL     1      -3.846   6.120  13.490  1.00  0.00    -0.027 A 
HETATM   20  C27 UNL     1      -3.184   5.095  12.564  1.00  0.00     0.011 C 
HETATM   21  C28 UNL     1      -1.712   5.332  12.177  1.00  0.00     0.011 C 
HETATM   22  C29 UNL     1      -0.991   6.399  13.011  1.00  0.00    -0.032 C 
HETATM   23  C30 UNL     1      -1.283   7.782  12.362  1.00  0.00     0.016 C 
ENDROOT
BRANCH   1  24
HETATM   24  C8  UNL     1       1.558   6.500  12.037  1.00  0.00     0.014 C 
HETATM   25  C7  UNL     1       1.511   5.489  10.891  1.00  0.00     0.010 C 
HETATM   26  C6  UNL     1       2.699   5.726   9.964  1.00  0.00     0.041 C 
HETATM   27  C4  UNL     1       2.807   7.204   9.494  1.00  0.00     0.085 C 
HETATM   28  O3  UNL     1       1.766   8.014  10.080  1.00  0.00    -0.377 OA
HETATM   29  C31 UNL     1       1.618   7.938  11.500  1.00  0.00     0.174 C 
BRANCH  27  30
HETATM   30  C2  UNL     1       2.610   7.280   7.935  1.00  0.00     0.014 C 
HETATM   31  C1  UNL     1       1.308   7.960   7.487  1.00  0.00     0.012 C 
HETATM   32  C3  UNL     1       2.652   5.889   7.275  1.00  0.00     0.012 C 
ENDBRANCH  27  30
BRANCH  27  33
HETATM   33  C5  UNL     1       4.191   7.769   9.927  1.00  0.00     0.202 C 
BRANCH  33  34
HETATM   34  O1  UNL     1       5.124   6.735  10.233  1.00  0.00    -0.398 OA
HETATM   35  H10 UNL     1       4.867   5.973   9.681  1.00  0.00     0.209 HD
ENDBRANCH  33  34
ENDBRANCH  27  33
ENDBRANCH   1  24
TORSDOF 4
ENDMDL
