MODEL 1
REMARK minimizedAffinity -8.05196285
REMARK CNNscore 0.312246114
REMARK CNNaffinity 6.55190229
REMARK  13 active torsions:
REMARK  status: ('A' for Active; 'I' for Inactive)
REMARK    1  A    between atoms: O1_2  and  C2_3 
REMARK    2  A    between atoms: C8_9  and  O2_10 
REMARK    3  A    between atoms: O2_10  and  C9_11 
REMARK    4  A    between atoms: C10_13  and  C11_14 
REMARK    5  A    between atoms: C11_14  and  O4_15 
REMARK    6  A    between atoms: C12_16  and  O5_17 
REMARK    7  A    between atoms: C13_18  and  O6_19 
REMARK    8  A    between atoms: C14_20  and  O7_21 
REMARK    9  A    between atoms: C24_31  and  C25_32 
REMARK   10  A    between atoms: C25_32  and  C27_34 
REMARK   11  A    between atoms: C27_34  and  C28_35 
REMARK   12  A    between atoms: C29_36  and  C30_37 
REMARK   13  A    between atoms: C30_37  and  O8_40 
ROOT
HETATM    1  C2  UNL     1      -0.767   9.864  15.014  1.00  0.00     0.149 C 
HETATM    2  C3  UNL     1       0.451  10.631  15.436  1.00  0.00     0.009 C 
HETATM    3  C4  UNL     1       1.638  10.558  14.799  1.00  0.00    -0.066 C 
HETATM    4  C5  UNL     1       1.742   9.583  13.626  1.00  0.00     0.024 C 
HETATM    5  C6  UNL     1       3.183   9.427  13.100  1.00  0.00     0.012 C 
HETATM    6  C7  UNL     1       3.930  10.740  12.875  1.00  0.00     0.034 C 
HETATM    7  C8  UNL     1       3.445  11.928  13.715  1.00  0.00     0.136 C 
HETATM    8  C15 UNL     1       2.824  11.498  15.084  1.00  0.00     0.002 C 
HETATM    9  C16 UNL     1       2.390  12.793  15.827  1.00  0.00     0.022 C 
HETATM   10  C17 UNL     1       3.854  10.805  16.003  1.00  0.00     0.022 C 
HETATM   11  C18 UNL     1       1.036   8.198  13.955  1.00  0.00    -0.030 C 
HETATM   12  C19 UNL     1       1.839   7.473  15.079  1.00  0.00     0.016 C 
HETATM   13  C20 UNL     1       1.079   7.275  12.690  1.00  0.00     0.011 C 
HETATM   14  C21 UNL     1       0.095   6.087  12.611  1.00  0.00     0.011 C 
HETATM   15  C22 UNL     1      -1.252   6.285  13.332  1.00  0.00    -0.032 C 
HETATM   16  C23 UNL     1      -1.213   5.456  14.658  1.00  0.00     0.016 C 
HETATM   17  C24 UNL     1      -2.550   5.850  12.559  1.00  0.00    -0.002 C 
HETATM   18  C33 UNL     1      -3.658   6.677  13.277  1.00  0.00     0.006 C 
HETATM   19  C34 UNL     1      -2.957   7.799  14.065  1.00  0.00     0.011 C 
HETATM   20  C35 UNL     1      -1.521   7.828  13.516  1.00  0.00    -0.029 C 
HETATM   21  C36 UNL     1      -1.567   8.604  12.152  1.00  0.00     0.016 C 
HETATM   22  C37 UNL     1      -0.450   8.433  14.478  1.00  0.00     0.036 C 
ENDROOT
BRANCH   7  23
HETATM   23  O2  UNL     1       4.513  12.865  13.946  1.00  0.00    -0.352 OA
BRANCH  23  24
HETATM   24  C9  UNL     1       4.408  14.087  13.197  1.00  0.00     0.292 C 
HETATM   25  O3  UNL     1       3.108  14.207  12.621  1.00  0.00    -0.348 OA
HETATM   26  C10 UNL     1       2.958  15.393  11.822  1.00  0.00     0.179 C 
HETATM   27  C12 UNL     1       3.976  15.426  10.663  1.00  0.00     0.180 C 
HETATM   28  C13 UNL     1       5.397  15.255  11.211  1.00  0.00     0.183 C 
HETATM   29  C14 UNL     1       5.466  13.996  12.076  1.00  0.00     0.204 C 
BRANCH  26  30
HETATM   30  C11 UNL     1       1.513  15.450  11.298  1.00  0.00     0.198 C 
BRANCH  30  31
HETATM   31  O4  UNL     1       0.579  15.079  12.311  1.00  0.00    -0.398 OA
HETATM   32  H16 UNL     1      -0.294  15.016  11.886  1.00  0.00     0.209 HD
ENDBRANCH  30  31
ENDBRANCH  26  30
BRANCH  27  33
HETATM   33  O5  UNL     1       3.903  16.678   9.963  1.00  0.00    -0.390 OA
HETATM   34  H18 UNL     1       4.356  16.547   9.108  1.00  0.00     0.210 HD
ENDBRANCH  27  33
BRANCH  28  35
HETATM   35  O6  UNL     1       5.738  16.427  11.975  1.00  0.00    -0.390 OA
HETATM   36  H20 UNL     1       5.486  17.192  11.420  1.00  0.00     0.210 HD
ENDBRANCH  28  35
BRANCH  29  37
HETATM   37  O7  UNL     1       6.787  13.810  12.604  1.00  0.00    -0.388 OA
HETATM   38  H22 UNL     1       6.685  13.158  13.321  1.00  0.00     0.210 HD
ENDBRANCH  29  37
ENDBRANCH  23  24
ENDBRANCH   7  23
BRANCH   1  39
HETATM   39  O1  UNL     1      -1.454  10.657  14.043  1.00  0.00    -0.386 OA
HETATM   40  C1  UNL     1      -1.716  11.988  14.468  1.00  0.00     0.202 C 
ENDBRANCH   1  39
BRANCH  17  41
HETATM   41  C25 UNL     1      -2.905   4.337  12.445  1.00  0.00    -0.010 C 
HETATM   42  C26 UNL     1      -1.818   3.541  11.714  1.00  0.00     0.010 C 
BRANCH  41  43
HETATM   43  C27 UNL     1      -4.283   4.084  11.776  1.00  0.00     0.031 C 
BRANCH  43  44
HETATM   44  C28 UNL     1      -5.451   3.988  12.724  1.00  0.00    -0.027 C 
HETATM   45  C29 UNL     1      -6.618   4.630  12.539  1.00  0.00     0.006 C 
BRANCH  45  46
HETATM   46  C30 UNL     1      -7.842   4.594  13.430  1.00  0.00     0.068 C 
HETATM   47  C31 UNL     1      -7.417   4.723  14.897  1.00  0.00     0.050 C 
HETATM   48  C32 UNL     1      -8.920   5.634  13.111  1.00  0.00     0.050 C 
BRANCH  46  49
HETATM   49  O8  UNL     1      -8.454   3.313  13.255  1.00  0.00    -0.387 OA
HETATM   50  H54 UNL     1      -7.774   2.635  13.403  1.00  0.00     0.211 HD
ENDBRANCH  46  49
ENDBRANCH  45  46
ENDBRANCH  43  44
ENDBRANCH  41  43
ENDBRANCH  17  41
TORSDOF 13
ENDMDL
