MODEL 1
REMARK minimizedAffinity -10.3946867
REMARK  4 active torsions:
REMARK  status: ('A' for Active; 'I' for Inactive)
REMARK    1  A    between atoms: C4_4  and  O1_5 
REMARK    2  A    between atoms: C4_4  and  C5_6 
REMARK    3  A    between atoms: C5_6  and  C6_7 
REMARK    4  A    between atoms: C6_7  and  C8_9 
ROOT
HETATM    1  C8  UNL     1      -4.036   7.028  14.853  1.00  0.00    -0.001 C 
HETATM    2  C9  UNL     1      -3.553   5.719  15.531  1.00  0.00     0.007 C 
HETATM    3  C10 UNL     1      -2.135   5.437  14.972  1.00  0.00     0.015 C 
HETATM    4  C11 UNL     1      -1.745   6.715  14.187  1.00  0.00    -0.013 C 
HETATM    5  C12 UNL     1      -1.161   7.720  15.234  1.00  0.00     0.021 C 
HETATM    6  C13 UNL     1      -0.684   6.614  13.090  1.00  0.00    -0.070 C 
HETATM    7  C14 UNL     1       0.396   5.828  13.228  1.00  0.00    -0.022 C 
HETATM    8  C15 UNL     1       1.528   5.774  12.258  1.00  0.00     0.034 C 
HETATM    9  C16 UNL     1       1.269   6.451  10.887  1.00  0.00     0.013 C 
HETATM   10  C17 UNL     1       2.588   6.590  10.039  1.00  0.00     0.018 C 
HETATM   11  C18 UNL     1       2.291   6.226   8.562  1.00  0.00     0.023 C 
HETATM   12  C19 UNL     1       3.744   5.661  10.482  1.00  0.00     0.023 C 
HETATM   13  C20 UNL     1       3.131   8.025  10.098  1.00  0.00     0.135 C 
HETATM   14  O2  UNL     1       3.876   8.467   9.217  1.00  0.00    -0.297 OA
HETATM   15  C21 UNL     1       2.826   8.875  11.313  1.00  0.00     0.080 C 
HETATM   16  C22 UNL     1       1.380   8.813  11.809  1.00  0.00     0.017 C 
HETATM   17  C23 UNL     1       0.474   7.803  11.068  1.00  0.00    -0.031 C 
HETATM   18  C24 UNL     1       0.073   8.412   9.694  1.00  0.00     0.016 C 
HETATM   19  C25 UNL     1      -0.870   7.505  11.857  1.00  0.00     0.024 C 
HETATM   20  C26 UNL     1      -1.728   8.761  12.176  1.00  0.00     0.010 C 
HETATM   21  C27 UNL     1      -3.056   8.495  12.929  1.00  0.00     0.011 C 
HETATM   22  C28 UNL     1      -3.144   7.103  13.576  1.00  0.00    -0.029 C 
HETATM   23  C29 UNL     1      -3.616   6.054  12.513  1.00  0.00     0.016 C 
ENDROOT
BRANCH   1  24
HETATM   24  C6  UNL     1      -5.576   7.275  14.827  1.00  0.00    -0.008 C 
HETATM   25  C7  UNL     1      -5.835   8.770  15.095  1.00  0.00     0.010 C 
BRANCH  24  26
HETATM   26  C5  UNL     1      -6.432   6.373  15.743  1.00  0.00     0.078 C 
BRANCH  26  27
HETATM   27  C4  UNL     1      -7.344   5.332  15.056  1.00  0.00     0.191 A 
HETATM   28  C3  UNL     1      -8.303   5.982  14.131  1.00  0.00     0.054 A 
HETATM   29  C2  UNL     1      -8.132   5.554  12.882  1.00  0.00     0.015 A 
HETATM   30  C1  UNL     1      -8.833   5.921  11.635  1.00  0.00     0.054 C 
HETATM   31  C30 UNL     1      -7.046   4.572  12.935  1.00  0.00     0.291 A 
HETATM   32  O3  UNL     1      -6.600   4.462  14.214  1.00  0.00    -0.276 OA
HETATM   33  O4  UNL     1      -6.599   3.960  11.980  1.00  0.00    -0.260 OA
BRANCH  27  34
HETATM   34  O1  UNL     1      -8.107   4.597  15.989  1.00  0.00    -0.362 OA
HETATM   35  H5  UNL     1      -7.472   4.070  16.501  1.00  0.00     0.213 HD
ENDBRANCH  27  34
ENDBRANCH  26  27
ENDBRANCH  24  26
ENDBRANCH   1  24
TORSDOF 4
ENDMDL
