MODEL 1
REMARK minimizedAffinity -9.00972843
REMARK  4 active torsions:
REMARK  status: ('A' for Active; 'I' for Inactive)
REMARK    1  A    between atoms: C4_4  and  C5_5 
REMARK    2  A    between atoms: C5_5  and  C6_6 
REMARK    3  A    between atoms: C6_6  and  C7_7 
REMARK    4  A    between atoms: C7_7  and  C9_9 
ROOT
HETATM    1  C9  UNL     1      -1.859  51.434 -23.460  1.00  0.00    -0.002 C 
HETATM    2  C10 UNL     1      -2.821  52.536 -24.012  1.00  0.00     0.007 C 
HETATM    3  C11 UNL     1      -4.258  51.985 -23.926  1.00  0.00     0.015 C 
HETATM    4  C12 UNL     1      -4.073  50.474 -23.694  1.00  0.00    -0.013 C 
HETATM    5  C13 UNL     1      -3.802  49.863 -25.106  1.00  0.00     0.021 C 
HETATM    6  C14 UNL     1      -5.189  49.654 -23.048  1.00  0.00    -0.070 C 
HETATM    7  C15 UNL     1      -6.372  50.168 -22.668  1.00  0.00    -0.022 C 
HETATM    8  C16 UNL     1      -7.400  49.421 -21.869  1.00  0.00     0.034 C 
HETATM    9  C17 UNL     1      -6.832  48.147 -21.206  1.00  0.00     0.013 C 
HETATM   10  C18 UNL     1      -7.856  47.317 -20.337  1.00  0.00     0.018 C 
HETATM   11  C19 UNL     1      -9.283  47.904 -20.345  1.00  0.00     0.023 C 
HETATM   12  C20 UNL     1      -7.383  47.302 -18.865  1.00  0.00     0.023 C 
HETATM   13  C21 UNL     1      -7.944  45.842 -20.763  1.00  0.00     0.135 C 
HETATM   14  O1  UNL     1      -9.009  45.218 -20.738  1.00  0.00    -0.297 OA
HETATM   15  C22 UNL     1      -6.678  45.106 -21.138  1.00  0.00     0.080 C 
HETATM   16  C23 UNL     1      -5.544  46.022 -21.569  1.00  0.00     0.017 C 
HETATM   17  C24 UNL     1      -6.024  47.318 -22.255  1.00  0.00    -0.031 C 
HETATM   18  C25 UNL     1      -6.897  46.948 -23.493  1.00  0.00     0.016 C 
HETATM   19  C26 UNL     1      -4.812  48.186 -22.787  1.00  0.00     0.024 C 
HETATM   20  C27 UNL     1      -3.515  48.124 -21.945  1.00  0.00     0.010 C 
HETATM   21  C28 UNL     1      -2.376  49.025 -22.482  1.00  0.00     0.011 C 
HETATM   22  C29 UNL     1      -2.839  50.482 -22.706  1.00  0.00    -0.029 C 
HETATM   23  C30 UNL     1      -3.178  51.096 -21.310  1.00  0.00     0.016 C 
ENDROOT
BRANCH   1  24
HETATM   24  C7  UNL     1      -0.635  52.062 -22.721  1.00  0.00    -0.014 C 
HETATM   25  C8  UNL     1      -0.248  51.276 -21.465  1.00  0.00     0.010 C 
BRANCH  24  26
HETATM   26  C6  UNL     1       0.577  52.149 -23.694  1.00  0.00     0.008 C 
BRANCH  26  27
HETATM   27  C5  UNL     1       0.553  53.288 -24.723  1.00  0.00     0.028 C 
BRANCH  27  28
HETATM   28  C4  UNL     1       0.281  52.823 -26.126  1.00  0.00    -0.025 C 
HETATM   29  C2  UNL     1       1.084  52.083 -26.914  1.00  0.00    -0.091 C 
HETATM   30  C1  UNL     1       0.676  51.739 -28.323  1.00  0.00     0.042 C 
HETATM   31  C3  UNL     1       2.418  51.525 -26.501  1.00  0.00     0.042 C 
ENDBRANCH  27  28
ENDBRANCH  26  27
ENDBRANCH  24  26
ENDBRANCH   1  24
TORSDOF 4
ENDMDL
