MODEL 1
REMARK minimizedAffinity -9.30710697
REMARK CNNscore 0.512276173
REMARK CNNaffinity 6.80221605
REMARK  12 active torsions:
REMARK  status: ('A' for Active; 'I' for Inactive)
REMARK    1  A    between atoms: O1_2  and  C2_3 
REMARK    2  A    between atoms: C2_3  and  C5_6 
REMARK    3  A    between atoms: C6_7  and  C7_8 
REMARK    4  A    between atoms: C7_8  and  C8_9 
REMARK    5  A    between atoms: C8_9  and  C10_11 
REMARK    6  A    between atoms: C28_30  and  O3_31 
REMARK    7  A    between atoms: O3_31  and  C29_32 
REMARK    8  A    between atoms: C30_34  and  C31_35 
REMARK    9  A    between atoms: C31_35  and  O5_36 
REMARK   10  A    between atoms: C32_37  and  O6_38 
REMARK   11  A    between atoms: C33_39  and  O7_40 
REMARK   12  A    between atoms: C34_41  and  O8_42 
ROOT
HETATM    1  C10 UNL     1      -2.565  12.735  17.945  1.00  0.00    -0.002 C 
HETATM    2  C11 UNL     1      -1.229  12.515  18.716  1.00  0.00     0.006 C 
HETATM    3  C12 UNL     1      -0.665  11.149  18.274  1.00  0.00     0.011 C 
HETATM    4  C13 UNL     1      -1.442  10.797  16.992  1.00  0.00    -0.029 C 
HETATM    5  C14 UNL     1      -0.751  11.598  15.850  1.00  0.00     0.016 C 
HETATM    6  C15 UNL     1      -1.500   9.279  16.645  1.00  0.00     0.028 C 
HETATM    7  C16 UNL     1      -0.167   8.625  16.348  1.00  0.00    -0.021 C 
HETATM    8  C17 UNL     1      -0.041   7.696  15.384  1.00  0.00     0.008 C 
HETATM    9  C18 UNL     1      -1.214   7.304  14.492  1.00  0.00     0.092 C 
HETATM   10  O2  UNL     1      -2.086   6.529  15.337  1.00  0.00    -0.374 OA
HETATM   11  C19 UNL     1      -3.069   7.434  15.886  1.00  0.00     0.179 C 
HETATM   12  C20 UNL     1      -2.604   8.902  15.574  1.00  0.00    -0.004 C 
HETATM   13  C21 UNL     1      -3.854   9.826  15.534  1.00  0.00     0.014 C 
HETATM   14  C22 UNL     1      -3.735  11.255  16.094  1.00  0.00     0.011 C 
HETATM   15  C23 UNL     1      -2.886  11.317  17.371  1.00  0.00    -0.032 C 
HETATM   16  C24 UNL     1      -3.596  10.472  18.464  1.00  0.00     0.016 C 
HETATM   17  C25 UNL     1      -2.048   8.560  14.172  1.00  0.00     0.036 C 
HETATM   18  C26 UNL     1      -1.267   9.543  13.310  1.00  0.00     0.011 C 
HETATM   19  C27 UNL     1      -0.814   8.858  12.013  1.00  0.00     0.033 C 
HETATM   20  C28 UNL     1      -0.057   7.533  12.248  1.00  0.00     0.136 C 
HETATM   21  C35 UNL     1      -0.828   6.545  13.181  1.00  0.00     0.014 C 
HETATM   22  C36 UNL     1      -2.086   5.976  12.468  1.00  0.00     0.021 C 
HETATM   23  C37 UNL     1       0.060   5.309  13.475  1.00  0.00     0.021 C 
ENDROOT
BRANCH  20  24
HETATM   24  O3  UNL     1       0.157   6.905  10.978  1.00  0.00    -0.352 OA
BRANCH  24  25
HETATM   25  C29 UNL     1       1.500   6.985  10.495  1.00  0.00     0.292 C 
HETATM   26  O4  UNL     1       1.847   5.715   9.948  1.00  0.00    -0.348 OA
HETATM   27  C30 UNL     1       3.138   5.719   9.306  1.00  0.00     0.179 C 
HETATM   28  C32 UNL     1       4.200   6.503  10.111  1.00  0.00     0.180 C 
HETATM   29  C33 UNL     1       3.778   6.601  11.579  1.00  0.00     0.183 C 
HETATM   30  C34 UNL     1       2.420   7.322  11.695  1.00  0.00     0.204 C 
BRANCH  27  31
HETATM   31  C31 UNL     1       3.530   4.244   9.145  1.00  0.00     0.198 C 
BRANCH  31  32
HETATM   32  O5  UNL     1       2.885   3.425  10.107  1.00  0.00    -0.398 OA
HETATM   33  H48 UNL     1       3.228   2.519   9.988  1.00  0.00     0.209 HD
ENDBRANCH  31  32
ENDBRANCH  27  31
BRANCH  28  34
HETATM   34  O6  UNL     1       4.296   7.860   9.614  1.00  0.00    -0.390 OA
HETATM   35  H50 UNL     1       5.103   8.213  10.048  1.00  0.00     0.210 HD
ENDBRANCH  28  34
BRANCH  29  36
HETATM   36  O7  UNL     1       4.793   7.314  12.309  1.00  0.00    -0.390 OA
HETATM   37  H52 UNL     1       4.328   7.818  13.002  1.00  0.00     0.210 HD
ENDBRANCH  29  36
BRANCH  30  38
HETATM   38  O8  UNL     1       2.628   8.751  11.786  1.00  0.00    -0.388 OA
HETATM   39  H54 UNL     1       3.173   8.982  11.005  1.00  0.00     0.210 HD
ENDBRANCH  30  38
ENDBRANCH  24  25
ENDBRANCH  20  24
BRANCH   1  40
HETATM   40  C8  UNL     1      -3.609  13.601  18.724  1.00  0.00    -0.010 C 
HETATM   41  C9  UNL     1      -3.068  14.797  19.529  1.00  0.00     0.010 C 
BRANCH  40  42
HETATM   42  C7  UNL     1      -4.527  12.724  19.606  1.00  0.00     0.031 C 
BRANCH  42  43
HETATM   43  C6  UNL     1      -5.667  13.472  20.251  1.00  0.00    -0.027 C 
HETATM   44  C5  UNL     1      -5.995  13.332  21.549  1.00  0.00     0.006 C 
BRANCH  44  45
HETATM   45  C2  UNL     1      -7.150  13.971  22.297  1.00  0.00     0.070 C 
HETATM   46  C3  UNL     1      -7.693  12.937  23.296  1.00  0.00     0.050 C 
HETATM   47  C4  UNL     1      -6.812  15.258  23.067  1.00  0.00     0.050 C 
BRANCH  45  48
HETATM   48  O1  UNL     1      -8.223  14.179  21.359  1.00  0.00    -0.382 OA
HETATM   49  C1  UNL     1      -9.163  13.119  21.241  1.00  0.00     0.202 C 
ENDBRANCH  45  48
ENDBRANCH  44  45
ENDBRANCH  42  43
ENDBRANCH  40  42
ENDBRANCH   1  40
TORSDOF 12
ENDMDL
