MODEL 1
REMARK minimizedAffinity -7.64765406
REMARK CNNscore 0.462236106
REMARK CNNaffinity 6.49230051
REMARK  10 active torsions:
REMARK  status: ('A' for Active; 'I' for Inactive)
REMARK    1  A    between atoms: C19_20  and  O2_21 
REMARK    2  A    between atoms: C19_20  and  C20_22 
REMARK    3  A    between atoms: C20_22  and  C21_24 
REMARK    4  A    between atoms: C21_24  and  O4_25 
REMARK    5  A    between atoms: O4_25  and  C22_26 
REMARK    6  A    between atoms: C22_26  and  C23_28 
REMARK    7  A    between atoms: C23_28  and  C24_29 
REMARK    8  A    between atoms: C24_29  and  C25_30 
REMARK       I    between atoms: C25_30  and  N1_32 
REMARK    9  A    between atoms: N1_32  and  C26_33 
REMARK   10  A    between atoms: C26_33  and  C27_34 
ROOT
HETATM    1  C1  UNL     1      -0.668   7.425  11.318  1.00  0.00     0.020 C 
HETATM    2  C2  UNL     1      -0.782   6.636  12.654  1.00  0.00    -0.016 C 
HETATM    3  C3  UNL     1       0.549   5.864  12.880  1.00  0.00     0.022 C 
HETATM    4  C4  UNL     1       0.769   4.720  11.900  1.00  0.00     0.084 C 
HETATM    5  C5  UNL     1      -0.396   3.766  11.963  1.00  0.00     0.149 C 
HETATM    6  O1  UNL     1      -0.277   2.561  11.755  1.00  0.00    -0.293 OA
HETATM    7  C6  UNL     1      -1.744   4.335  12.206  1.00  0.00     0.053 C 
HETATM    8  C7  UNL     1      -1.926   5.638  12.481  1.00  0.00    -0.068 C 
HETATM    9  C8  UNL     1      -3.319   6.202  12.540  1.00  0.00     0.035 C 
HETATM   10  C9  UNL     1      -3.521   7.000  13.808  1.00  0.00     0.010 C 
HETATM   11  C10 UNL     1      -2.519   8.162  13.951  1.00  0.00    -0.004 C 
HETATM   12  C11 UNL     1      -1.030   7.694  13.810  1.00  0.00     0.002 C 
HETATM   13  C12 UNL     1      -0.454   7.388  15.213  1.00  0.00     0.007 C 
HETATM   14  C13 UNL     1      -0.440   8.631  16.142  1.00  0.00     0.013 C 
HETATM   15  C14 UNL     1      -1.604   9.624  15.908  1.00  0.00    -0.002 C 
HETATM   16  C15 UNL     1      -1.141  10.785  14.979  1.00  0.00     0.019 C 
HETATM   17  C16 UNL     1      -2.784   8.831  15.318  1.00  0.00     0.002 C 
HETATM   18  C17 UNL     1      -3.966   9.796  15.397  1.00  0.00     0.009 C 
HETATM   19  C18 UNL     1      -3.677  10.672  16.632  1.00  0.00     0.047 C 
HETATM   20  C19 UNL     1      -2.301  10.218  17.183  1.00  0.00     0.128 C 
ENDROOT
BRANCH  20  21
HETATM   21  O2  UNL     1      -2.575   9.210  18.170  1.00  0.00    -0.381 OA
HETATM   22  H27 UNL     1      -1.721   8.882  18.504  1.00  0.00     0.211 HD
ENDBRANCH  20  21
BRANCH  20  23
HETATM   23  C20 UNL     1      -1.505  11.311  17.913  1.00  0.00     0.185 C 
HETATM   24  O3  UNL     1      -1.432  12.458  17.454  1.00  0.00    -0.292 OA
BRANCH  23  25
HETATM   25  C21 UNL     1      -0.676  10.893  19.128  1.00  0.00     0.260 C 
BRANCH  25  26
HETATM   26  O4  UNL     1       0.661  10.539  18.769  1.00  0.00    -0.314 OA
BRANCH  26  27
HETATM   27  C22 UNL     1       1.608  11.106  19.567  1.00  0.00     0.259 C 
HETATM   28  O5  UNL     1       2.435  11.927  19.183  1.00  0.00    -0.265 OA
BRANCH  27  29
HETATM   29  C23 UNL     1       1.564  10.556  20.975  1.00  0.00     0.120 C 
BRANCH  29  30
HETATM   30  C24 UNL     1       2.704   9.592  21.294  1.00  0.00     0.112 C 
BRANCH  30  31
HETATM   31  C25 UNL     1       3.548  10.096  22.448  1.00  0.00     0.218 C 
HETATM   32  O6  UNL     1       3.211   9.976  23.622  1.00  0.00    -0.274 OA
HETATM   33  N1  UNL     1       4.708  10.720  22.048  1.00  0.00    -0.357 N 
HETATM   34  H34 UNL     1       4.999  10.623  21.084  1.00  0.00     0.162 HD
BRANCH  33  35
HETATM   35  C26 UNL     1       5.707  11.124  23.012  1.00  0.00     0.162 C 
BRANCH  35  36
HETATM   36  C27 UNL     1       5.895  12.613  23.012  1.00  0.00    -0.025 A 
HETATM   37  C28 UNL     1       4.804  13.487  22.992  1.00  0.00     0.011 A 
HETATM   38  C29 UNL     1       5.017  14.863  23.008  1.00  0.00     0.018 A 
HETATM   39  C30 UNL     1       6.321  15.323  23.060  1.00  0.00     0.087 A 
HETATM   40  N2  UNL     1       7.400  14.513  23.099  1.00  0.00    -0.375 N 
HETATM   41  C31 UNL     1       7.162  13.182  23.074  1.00  0.00     0.096 A 
ATOM     42  H2  UNL     1       8.347  14.888  23.146  1.00  0.00     0.164 HD
ENDBRANCH  35  36
ENDBRANCH  33  35
ENDBRANCH  30  31
ENDBRANCH  29  30
ENDBRANCH  27  29
ENDBRANCH  26  27
ENDBRANCH  25  26
ENDBRANCH  23  25
ENDBRANCH  20  23
TORSDOF 10
ENDMDL
