MODEL 1
REMARK minimizedAffinity -8.97404194
REMARK CNNscore 0.829260588
REMARK CNNaffinity 7.44721937
REMARK  9 active torsions:
REMARK  status: ('A' for Active; 'I' for Inactive)
REMARK    1  A    between atoms: C2_2  and  C17_19 
REMARK    2  A    between atoms: C3_3  and  C4_4 
REMARK    3  A    between atoms: C4_4  and  C5_5 
REMARK    4  A    between atoms: C5_5  and  C6_6 
REMARK    5  A    between atoms: C12_12  and  O1_13 
REMARK    6  A    between atoms: C17_19  and  C18_20 
REMARK    7  A    between atoms: C18_20  and  C19_21 
REMARK    8  A    between atoms: C23_25  and  C24_26 
REMARK    9  A    between atoms: C24_26  and  O3_29 
ROOT
HETATM    1  C1  UNL     1      -5.730  50.021 -21.430  1.00  0.00     0.043 C 
HETATM    2  C2  UNL     1      -5.026  48.691 -21.362  1.00  0.00    -0.087 C 
HETATM    3  C3  UNL     1      -4.188  48.323 -20.371  1.00  0.00    -0.024 C 
ENDROOT
BRANCH   2   4
HETATM    4  C17 UNL     1      -5.261  47.762 -22.543  1.00  0.00     0.037 C 
BRANCH   4   5
HETATM    5  C18 UNL     1      -5.839  48.448 -23.791  1.00  0.00     0.032 C 
BRANCH   5   6
HETATM    6  C19 UNL     1      -5.000  48.291 -25.034  1.00  0.00    -0.013 C 
HETATM    7  C20 UNL     1      -4.260  49.220 -25.676  1.00  0.00     0.013 C 
HETATM    8  C21 UNL     1      -3.444  48.841 -26.873  1.00  0.00     0.047 C 
HETATM    9  C27 UNL     1      -4.207  50.638 -25.234  1.00  0.00     0.289 C 
HETATM   10  C22 UNL     1      -2.072  49.480 -26.788  1.00  0.00     0.040 C 
HETATM   11  C23 UNL     1      -2.252  50.991 -26.726  1.00  0.00     0.166 C 
HETATM   12  O4  UNL     1      -3.126  51.355 -25.624  1.00  0.00    -0.309 OA
HETATM   13  O5  UNL     1      -5.065  51.151 -24.527  1.00  0.00    -0.260 OA
BRANCH  11  14
HETATM   14  C24 UNL     1      -0.922  51.774 -26.540  1.00  0.00     0.077 C 
HETATM   15  C25 UNL     1      -0.112  51.806 -27.844  1.00  0.00     0.048 C 
HETATM   16  C26 UNL     1      -0.056  51.191 -25.420  1.00  0.00     0.048 C 
BRANCH  14  17
HETATM   17  O3  UNL     1      -1.219  53.131 -26.186  1.00  0.00    -0.388 OA
HETATM   18  H36 UNL     1      -1.770  53.492 -26.907  1.00  0.00     0.210 HD
ENDBRANCH  14  17
ENDBRANCH  11  14
ENDBRANCH   5   6
ENDBRANCH   4   5
ENDBRANCH   2   4
BRANCH   3  19
HETATM   19  C4  UNL     1      -3.824  49.095 -19.130  1.00  0.00     0.030 C 
BRANCH  19  20
HETATM   20  C5  UNL     1      -2.911  50.281 -19.474  1.00  0.00     0.046 C 
BRANCH  20  21
HETATM   21  C6  UNL     1      -1.499  49.879 -19.965  1.00  0.00     0.082 C 
HETATM   22  C7  UNL     1      -1.136  48.452 -19.527  1.00  0.00     0.051 C 
HETATM   23  C8  UNL     1      -1.482  49.921 -21.480  1.00  0.00     0.012 C 
HETATM   24  C9  UNL     1      -0.807  50.839 -22.177  1.00  0.00     0.013 C 
HETATM   25  C10 UNL     1      -0.064  51.847 -21.436  1.00  0.00     0.000 A 
HETATM   26  C11 UNL     1       0.566  52.899 -22.112  1.00  0.00     0.050 A 
HETATM   27  C16 UNL     1       0.036  51.754 -20.042  1.00  0.00     0.086 A 
HETATM   28  C12 UNL     1       1.286  53.845 -21.387  1.00  0.00     0.067 A 
HETATM   29  C13 UNL     1       1.393  53.756 -20.003  1.00  0.00     0.046 A 
HETATM   30  C14 UNL     1       0.772  52.705 -19.315  1.00  0.00    -0.025 A 
HETATM   31  C15 UNL     1       0.890  52.610 -17.821  1.00  0.00     0.051 C 
HETATM   32  O2  UNL     1      -0.536  50.739 -19.324  1.00  0.00    -0.335 OA
BRANCH  28  33
HETATM   33  O1  UNL     1       1.914  54.886 -22.005  1.00  0.00    -0.361 OA
HETATM   34  H15 UNL     1       1.755  54.825 -22.962  1.00  0.00     0.217 HD
ENDBRANCH  28  33
ENDBRANCH  20  21
ENDBRANCH  19  20
ENDBRANCH   3  19
TORSDOF 9
ENDMDL
