MODEL 1
REMARK minimizedAffinity -9.08758068
REMARK  4 active torsions:
REMARK  status: ('A' for Active; 'I' for Inactive)
REMARK    1  A    between atoms: C13_15  and  C14_16 
REMARK    2  A    between atoms: C14_16  and  C16_18 
REMARK    3  A    between atoms: C16_18  and  C17_19 
REMARK    4  A    between atoms: C17_19  and  C18_20 
ROOT
HETATM    1  C1  UNL     1      -7.715   6.995  16.663  1.00  0.00     0.047 C 
HETATM    2  C2  UNL     1      -7.077   6.773  15.506  1.00  0.00     0.052 C 
HETATM    3  O1  UNL     1      -7.802   6.983  14.301  1.00  0.00    -0.284 OA
HETATM    4  C3  UNL     1      -7.980   5.980  13.386  1.00  0.00     0.263 C 
HETATM    5  O2  UNL     1      -8.608   6.160  12.347  1.00  0.00    -0.265 OA
HETATM    6  C4  UNL     1      -7.349   4.653  13.720  1.00  0.00     0.112 C 
HETATM    7  C5  UNL     1      -5.851   4.686  13.453  1.00  0.00     0.021 C 
HETATM    8  C6  UNL     1      -5.162   5.946  13.981  1.00  0.00    -0.022 A 
HETATM    9  C7  UNL     1      -4.901   7.040  12.975  1.00  0.00     0.022 A 
HETATM   10  C8  UNL     1      -3.709   6.266  13.519  1.00  0.00    -0.027 A 
HETATM   11  C9  UNL     1      -3.040   5.273  12.558  1.00  0.00     0.011 C 
HETATM   12  C10 UNL     1      -1.635   5.610  12.029  1.00  0.00     0.011 C 
HETATM   13  C11 UNL     1      -0.970   6.822  12.693  1.00  0.00    -0.032 C 
HETATM   14  C12 UNL     1      -1.510   8.096  11.991  1.00  0.00     0.016 C 
HETATM   15  C13 UNL     1       0.595   6.829  12.688  1.00  0.00    -0.002 C 
HETATM   16  C22 UNL     1       0.972   7.645  13.956  1.00  0.00     0.006 C 
HETATM   17  C23 UNL     1      -0.317   7.827  14.776  1.00  0.00     0.011 C 
HETATM   18  C24 UNL     1      -1.283   6.757  14.234  1.00  0.00    -0.032 C 
HETATM   19  C25 UNL     1      -0.894   5.410  14.922  1.00  0.00     0.016 C 
HETATM   20  C26 UNL     1      -2.785   7.066  14.470  1.00  0.00     0.004 C 
HETATM   21  C27 UNL     1      -3.228   6.926  15.932  1.00  0.00     0.007 C 
HETATM   22  C28 UNL     1      -4.687   7.340  16.084  1.00  0.00     0.012 C 
HETATM   23  C29 UNL     1      -5.619   6.325  15.403  1.00  0.00     0.051 C 
ENDROOT
BRANCH  15  24
HETATM   24  C14 UNL     1       1.437   7.196  11.427  1.00  0.00    -0.014 C 
HETATM   25  C15 UNL     1       0.670   7.817  10.253  1.00  0.00     0.010 C 
BRANCH  24  26
HETATM   26  C16 UNL     1       2.319   6.004  10.978  1.00  0.00     0.008 C 
BRANCH  26  27
HETATM   27  C17 UNL     1       3.291   6.301   9.825  1.00  0.00     0.028 C 
BRANCH  27  28
HETATM   28  C18 UNL     1       2.645   6.283   8.466  1.00  0.00    -0.025 C 
HETATM   29  C19 UNL     1       2.531   7.294   7.582  1.00  0.00    -0.091 C 
HETATM   30  C20 UNL     1       1.854   7.074   6.254  1.00  0.00     0.042 C 
HETATM   31  C21 UNL     1       3.030   8.698   7.789  1.00  0.00     0.042 C 
ENDBRANCH  27  28
ENDBRANCH  26  27
ENDBRANCH  24  26
ENDBRANCH  15  24
TORSDOF 4
ENDMDL
