MODEL 1
REMARK minimizedAffinity -7.13549757
REMARK CNNscore 0.321812809
REMARK CNNaffinity 6.73583221
REMARK  6 active torsions:
REMARK  status: ('A' for Active; 'I' for Inactive)
REMARK    1  A    between atoms: C3_3  and  C4_4 
REMARK    2  A    between atoms: C4_4  and  O2_6 
REMARK    3  A    between atoms: O2_6  and  C5_7 
REMARK    4  A    between atoms: C5_7  and  C6_8 
REMARK    5  A    between atoms: C6_8  and  C7_9 
REMARK    6  A    between atoms: C13_15  and  C14_16 
ROOT
HETATM    1  C1  UNL     1       3.822  52.551 -15.372  1.00  0.00     0.069 C 
HETATM    2  C2  UNL     1       2.552  51.812 -15.707  1.00  0.00     0.018 A 
HETATM    3  C3  UNL     1       2.056  50.770 -15.000  1.00  0.00     0.052 A 
HETATM    4  C13 UNL     1       0.789  50.036 -15.431  1.00  0.00     0.104 A 
HETATM    5  C23 UNL     1       0.215  50.572 -16.737  1.00  0.00     0.024 A 
HETATM    6  C24 UNL     1       0.758  51.635 -17.364  1.00  0.00     0.020 A 
HETATM    7  C25 UNL     1       0.170  52.239 -18.615  1.00  0.00     0.058 C 
HETATM    8  C26 UNL     1      -1.304  51.888 -18.776  1.00  0.00     0.014 C 
HETATM    9  C27 UNL     1      -1.520  50.390 -18.642  1.00  0.00     0.084 C 
HETATM   10  C28 UNL     1      -0.940  49.857 -17.351  1.00  0.00     0.158 C 
HETATM   11  O5  UNL     1      -1.362  48.814 -16.854  1.00  0.00    -0.293 OA
HETATM   12  N1  UNL     1       1.894  52.234 -16.853  1.00  0.00    -0.362 N 
HETATM   13  H24 UNL     1       2.240  53.071 -17.315  1.00  0.00     0.165 HD
ENDROOT
BRANCH   4  14
HETATM   14  C14 UNL     1      -0.241  50.008 -14.311  1.00  0.00     0.029 A 
HETATM   15  C15 UNL     1      -0.639  48.872 -13.717  1.00  0.00     0.154 A 
HETATM   16  O3  UNL     1      -1.548  48.747 -12.699  1.00  0.00    -0.321 OA
HETATM   17  C16 UNL     1      -2.127  49.892 -12.219  1.00  0.00     0.089 A 
HETATM   18  C17 UNL     1      -3.047  49.756 -11.180  1.00  0.00     0.040 A 
HETATM   19  C21 UNL     1      -1.828  51.154 -12.727  1.00  0.00     0.050 A 
HETATM   20  C18 UNL     1      -3.667  50.890 -10.650  1.00  0.00     0.026 A 
HETATM   21  C19 UNL     1      -3.363  52.153 -11.163  1.00  0.00     0.035 A 
HETATM   22 CL1  UNL     1      -4.130  53.545 -10.506  1.00  0.00    -0.084 Cl
HETATM   23  C20 UNL     1      -2.446  52.294 -12.201  1.00  0.00     0.042 A 
HETATM   24  C22 UNL     1      -0.854  51.270 -13.826  1.00  0.00     0.194 A 
HETATM   25  O4  UNL     1      -0.581  52.366 -14.299  1.00  0.00    -0.287 OA
ENDBRANCH   4  14
BRANCH   3  26
HETATM   26  C4  UNL     1       2.700  50.234 -13.783  1.00  0.00     0.292 C 
HETATM   27  O1  UNL     1       2.843  49.038 -13.573  1.00  0.00    -0.259 OA
BRANCH  26  28
HETATM   28  O2  UNL     1       3.004  51.239 -12.927  1.00  0.00    -0.317 OA
BRANCH  28  29
HETATM   29  C5  UNL     1       1.993  51.555 -11.956  1.00  0.00     0.183 C 
BRANCH  29  30
HETATM   30  C6  UNL     1       2.228  52.947 -11.372  1.00  0.00     0.065 C 
BRANCH  30  31
HETATM   31  C7  UNL     1       1.048  53.423 -10.567  1.00  0.00    -0.056 A 
HETATM   32  C8  UNL     1       0.389  54.612 -10.902  1.00  0.00     0.007 A 
HETATM   33  C9  UNL     1      -0.719  55.038 -10.169  1.00  0.00     0.001 A 
HETATM   34  C10 UNL     1      -1.181  54.276  -9.097  1.00  0.00     0.000 A 
HETATM   35  C11 UNL     1      -0.535  53.089  -8.757  1.00  0.00     0.001 A 
HETATM   36  C12 UNL     1       0.574  52.663  -9.489  1.00  0.00     0.007 A 
ENDBRANCH  30  31
ENDBRANCH  29  30
ENDBRANCH  28  29
ENDBRANCH  26  28
ENDBRANCH   3  26
TORSDOF 6
ENDMDL
