MODEL 1
REMARK minimizedAffinity -8.00706768
REMARK  13 active torsions:
REMARK  status: ('A' for Active; 'I' for Inactive)
REMARK    1  A    between atoms: C4_4  and  C5_5 
REMARK    2  A    between atoms: C5_5  and  C6_6 
REMARK    3  A    between atoms: C6_6  and  C7_7 
REMARK    4  A    between atoms: C9_9  and  C10_10 
REMARK    5  A    between atoms: C11_11  and  C12_12 
REMARK    6  A    between atoms: C14_14  and  C15_15 
REMARK    7  A    between atoms: C18_18  and  O1_19 
REMARK    8  A    between atoms: C19_21  and  C20_22 
REMARK    9  A    between atoms: C20_22  and  C21_23 
REMARK   10  A    between atoms: C21_23  and  C22_24 
REMARK   11  A    between atoms: C22_24  and  O3_25 
REMARK   12  A    between atoms: C24_27  and  C26_29 
REMARK   13  A    between atoms: C29_33  and  O5_35 
ROOT
HETATM    1  C15 UNL     1      -2.280   9.703  16.295  1.00  0.00     0.149 C 
HETATM    2  C16 UNL     1      -1.747   8.544  15.458  1.00  0.00     0.054 C 
HETATM    3  C17 UNL     1      -2.273   8.792  14.028  1.00  0.00     0.050 C 
HETATM    4  C18 UNL     1      -2.393  10.331  14.058  1.00  0.00     0.270 C 
HETATM    5  O2  UNL     1      -2.757  10.703  15.384  1.00  0.00    -0.351 OA
HETATM    6  C19 UNL     1      -1.204   8.295  12.982  1.00  0.00     0.032 C 
HETATM    7  C23 UNL     1      -1.108   6.758  12.994  1.00  0.00    -0.066 C 
HETATM    8  C24 UNL     1       0.005   6.023  13.255  1.00  0.00    -0.021 C 
HETATM    9  C25 UNL     1       0.068   4.517  13.168  1.00  0.00     0.052 C 
HETATM   10  C27 UNL     1      -2.450   6.102  12.706  1.00  0.00     0.038 C 
HETATM   11  C28 UNL     1      -3.525   6.567  13.687  1.00  0.00     0.042 C 
HETATM   12  C29 UNL     1      -3.667   8.102  13.770  1.00  0.00     0.067 C 
HETATM   13  C30 UNL     1      -4.773   8.424  14.788  1.00  0.00     0.047 C 
ENDROOT
BRANCH   4  14
HETATM   14  O1  UNL     1      -1.147  10.969  13.794  1.00  0.00    -0.370 OA
HETATM   15  H26 UNL     1      -1.362  11.918  13.870  1.00  0.00     0.212 HD
ENDBRANCH   4  14
BRANCH   6  16
HETATM   16  C20 UNL     1      -1.409   8.835  11.538  1.00  0.00     0.012 C 
BRANCH  16  17
HETATM   17  C21 UNL     1      -0.161   8.752  10.646  1.00  0.00     0.027 C 
BRANCH  17  18
HETATM   18  C22 UNL     1      -0.428   8.416   9.180  1.00  0.00     0.164 C 
BRANCH  18  19
HETATM   19  O3  UNL     1       0.575   8.951   8.329  1.00  0.00    -0.401 OA
HETATM   20  H34 UNL     1       1.379   8.405   8.448  1.00  0.00     0.209 HD
ENDBRANCH  18  19
ENDBRANCH  17  18
ENDBRANCH  16  17
ENDBRANCH   6  16
BRANCH  12  21
HETATM   21  O5  UNL     1      -4.162   8.562  12.502  1.00  0.00    -0.389 OA
HETATM   22  H46 UNL     1      -5.016   8.129  12.323  1.00  0.00     0.210 HD
ENDBRANCH  12  21
BRANCH   1  23
HETATM   23  C14 UNL     1      -1.235  10.328  17.175  1.00  0.00     0.011 C 
HETATM   24  C12 UNL     1      -1.432  11.089  18.273  1.00  0.00    -0.063 C 
HETATM   25  C13 UNL     1      -2.796  11.402  18.833  1.00  0.00     0.048 C 
BRANCH  24  26
HETATM   26  C11 UNL     1      -0.262  11.631  18.967  1.00  0.00     0.006 C 
HETATM   27  C10 UNL     1       0.330  11.116  20.057  1.00  0.00     0.001 C 
BRANCH  27  28
HETATM   28  C9  UNL     1       1.478  11.737  20.687  1.00  0.00     0.002 C 
HETATM   29  C7  UNL     1       2.531  11.106  21.245  1.00  0.00    -0.084 C 
HETATM   30  C8  UNL     1       2.743   9.614  21.247  1.00  0.00     0.043 C 
BRANCH  29  31
HETATM   31  C6  UNL     1       3.645  11.923  21.886  1.00  0.00     0.037 C 
BRANCH  31  32
HETATM   32  C5  UNL     1       4.307  11.261  23.102  1.00  0.00     0.031 C 
BRANCH  32  33
HETATM   33  C4  UNL     1       5.811  11.261  23.060  1.00  0.00    -0.024 C 
HETATM   34  C2  UNL     1       6.630  12.330  23.086  1.00  0.00    -0.091 C 
HETATM   35  C1  UNL     1       6.174  13.762  23.127  1.00  0.00     0.042 C 
HETATM   36  C3  UNL     1       8.126  12.154  23.061  1.00  0.00     0.042 C 
ENDBRANCH  32  33
ENDBRANCH  31  32
ENDBRANCH  29  31
ENDBRANCH  27  28
ENDBRANCH  24  26
ENDBRANCH   1  23
BRANCH   8  37
HETATM   37  C26 UNL     1       1.312   6.637  13.660  1.00  0.00     0.265 C 
HETATM   38  O4  UNL     1       2.122   7.074  12.850  1.00  0.00    -0.302 OA
ENDBRANCH   8  37
TORSDOF 13
ENDMDL
