MODEL 1
REMARK minimizedAffinity -9.78580952
REMARK CNNscore 0.501542211
REMARK CNNaffinity 7.55811548
REMARK  15 active torsions:
REMARK  status: ('A' for Active; 'I' for Inactive)
REMARK    1  A    between atoms: C2_2  and  C3_3 
REMARK    2  A    between atoms: C2_2  and  C35_44 
REMARK    3  A    between atoms: C3_3  and  C4_4 
REMARK    4  A    between atoms: C4_4  and  C5_5 
REMARK    5  A    between atoms: C5_5  and  C7_7 
REMARK    6  A    between atoms: C9_9  and  O1_10 
REMARK    7  A    between atoms: C10_11  and  C11_12 
REMARK    8  A    between atoms: C11_12  and  O3_14 
REMARK    9  A    between atoms: C22_25  and  O4_26 
REMARK   10  A    between atoms: O4_26  and  C23_27 
REMARK   11  A    between atoms: C24_29  and  C25_30 
REMARK   12  A    between atoms: C25_30  and  O6_31 
REMARK   13  A    between atoms: C26_32  and  O7_33 
REMARK   14  A    between atoms: C28_35  and  O8_36 
REMARK   15  A    between atoms: C29_37  and  O9_38 
ROOT
HETATM    1  C7  UNL     1       3.671   7.845  12.916  1.00  0.00     0.001 C 
HETATM    2  C8  UNL     1       3.929   9.278  13.439  1.00  0.00     0.039 C 
HETATM    3  C9  UNL     1       2.660   9.689  14.232  1.00  0.00     0.142 C 
HETATM    4  C10 UNL     1       1.825   8.376  14.372  1.00  0.00     0.102 C 
HETATM    5  C12 UNL     1       0.316   8.379  14.640  1.00  0.00    -0.054 C 
HETATM    6  C13 UNL     1      -0.474   7.389  14.145  1.00  0.00    -0.067 C 
HETATM    7  C14 UNL     1       0.100   6.228  13.319  1.00  0.00     0.036 C 
HETATM    8  C15 UNL     1       1.591   6.275  12.945  1.00  0.00     0.015 C 
HETATM    9  C16 UNL     1       2.125   7.708  12.967  1.00  0.00    -0.016 C 
HETATM   10  C17 UNL     1       1.441   8.464  11.785  1.00  0.00     0.017 C 
HETATM   11  C18 UNL     1      -2.014   7.418  14.302  1.00  0.00    -0.013 C 
HETATM   12  C19 UNL     1      -2.575   7.891  12.928  1.00  0.00     0.021 C 
HETATM   13  C20 UNL     1      -2.587   6.025  14.678  1.00  0.00     0.017 C 
HETATM   14  C21 UNL     1      -4.113   5.999  14.703  1.00  0.00     0.037 C 
HETATM   15  C22 UNL     1      -4.818   7.183  15.375  1.00  0.00     0.153 C 
HETATM   16  C30 UNL     1      -4.009   8.478  15.512  1.00  0.00    -0.055 C 
HETATM   17  C31 UNL     1      -4.655   9.666  15.655  1.00  0.00     0.017 C 
HETATM   18  C32 UNL     1      -2.479   8.361  15.463  1.00  0.00     0.029 C 
HETATM   19  C33 UNL     1      -1.729   9.700  15.397  1.00  0.00     0.014 C 
HETATM   20  C34 UNL     1      -0.222   9.499  15.489  1.00  0.00     0.036 C 
ENDROOT
BRANCH  15  21
HETATM   21  O4  UNL     1      -5.931   7.486  14.518  1.00  0.00    -0.349 OA
BRANCH  21  22
HETATM   22  C23 UNL     1      -7.183   7.693  15.147  1.00  0.00     0.292 C 
HETATM   23  O5  UNL     1      -8.184   7.771  14.123  1.00  0.00    -0.348 OA
HETATM   24  C24 UNL     1      -8.534   6.514  13.494  1.00  0.00     0.179 C 
HETATM   25  C26 UNL     1      -7.814   5.226  13.972  1.00  0.00     0.183 C 
HETATM   26  C28 UNL     1      -7.516   5.224  15.485  1.00  0.00     0.183 C 
HETATM   27  C29 UNL     1      -7.606   6.605  16.137  1.00  0.00     0.204 C 
BRANCH  24  28
HETATM   28  C25 UNL     1     -10.056   6.373  13.672  1.00  0.00     0.198 C 
BRANCH  28  29
HETATM   29  O6  UNL     1     -10.413   6.576  15.041  1.00  0.00    -0.398 OA
HETATM   30  H36 UNL     1      -9.701   6.169  15.567  1.00  0.00     0.209 HD
ENDBRANCH  28  29
ENDBRANCH  24  28
BRANCH  25  31
HETATM   31  O7  UNL     1      -6.542   5.006  13.333  1.00  0.00    -0.385 OA
HETATM   32  C27 UNL     1      -6.534   4.031  12.303  1.00  0.00     0.202 C 
ENDBRANCH  25  31
BRANCH  26  33
HETATM   33  O8  UNL     1      -8.428   4.349  16.179  1.00  0.00    -0.390 OA
HETATM   34  H42 UNL     1      -8.198   3.444  15.909  1.00  0.00     0.210 HD
ENDBRANCH  26  33
BRANCH  27  35
HETATM   35  O9  UNL     1      -6.842   6.621  17.349  1.00  0.00    -0.388 OA
HETATM   36  H44 UNL     1      -7.185   5.880  17.884  1.00  0.00     0.210 HD
ENDBRANCH  27  35
ENDBRANCH  21  22
ENDBRANCH  15  21
BRANCH   4  37
HETATM   37  C11 UNL     1       2.395   7.610  15.600  1.00  0.00     0.156 C 
HETATM   38  O2  UNL     1       3.562   7.397  15.885  1.00  0.00    -0.649 OA
BRANCH  37  39
HETATM   39  O3  UNL     1       1.450   7.069  16.398  1.00  0.00    -0.775 OA
HETATM   40  H16 UNL     1       1.974   6.569  17.062  1.00  0.00     0.167 HD
ENDBRANCH  37  39
ENDBRANCH   4  37
BRANCH   3  41
HETATM   41  O1  UNL     1       1.975  10.711  13.508  1.00  0.00    -0.394 OA
HETATM   42  H15 UNL     1       2.582  11.463  13.400  1.00  0.00     0.210 HD
ENDBRANCH   3  41
BRANCH   1  43
HETATM   43  C5  UNL     1       4.487   7.348  11.693  1.00  0.00    -0.013 C 
HETATM   44  C6  UNL     1       5.867   8.040  11.671  1.00  0.00     0.010 C 
BRANCH  43  45
HETATM   45  C4  UNL     1       3.885   7.339  10.270  1.00  0.00     0.009 C 
BRANCH  45  46
HETATM   46  C3  UNL     1       3.217   6.045   9.788  1.00  0.00     0.034 C 
BRANCH  46  47
HETATM   47  C2  UNL     1       2.776   6.122   8.334  1.00  0.00    -0.086 C 
HETATM   48  C1  UNL     1       3.043   5.100   7.502  1.00  0.00     0.014 C 
BRANCH  47  49
HETATM   49  C35 UNL     1       2.073   7.374   7.819  1.00  0.00     0.005 C 
HETATM   50  C36 UNL     1       1.795   7.318   6.320  1.00  0.00     0.014 C 
HETATM   51  C37 UNL     1       0.800   7.686   8.606  1.00  0.00     0.014 C 
ENDBRANCH  47  49
ENDBRANCH  46  47
ENDBRANCH  45  46
ENDBRANCH  43  45
ENDBRANCH   1  43
TORSDOF 15
ENDMDL
