MODEL 1
REMARK minimizedAffinity -8.51321316
REMARK CNNscore 0.574454129
REMARK CNNaffinity 7.19878531
REMARK  12 active torsions:
REMARK  status: ('A' for Active; 'I' for Inactive)
REMARK    1  A    between atoms: O1_2  and  C2_3 
REMARK    2  A    between atoms: C2_3  and  C3_4 
REMARK    3  A    between atoms: C2_3  and  C7_8 
REMARK    4  A    between atoms: C7_8  and  C8_9 
REMARK    5  A    between atoms: C8_9  and  C10_11 
REMARK    6  A    between atoms: C28_30  and  O3_31 
REMARK    7  A    between atoms: O3_31  and  C29_32 
REMARK    8  A    between atoms: C30_34  and  C31_35 
REMARK    9  A    between atoms: C31_35  and  O5_36 
REMARK   10  A    between atoms: C32_37  and  O6_38 
REMARK   11  A    between atoms: C33_39  and  O7_40 
REMARK   12  A    between atoms: C34_41  and  O8_42 
ROOT
HETATM    1  C10 UNL     1      -0.175  13.351  19.710  1.00  0.00    -0.002 C 
HETATM    2  C11 UNL     1      -0.328  14.638  18.833  1.00  0.00     0.006 C 
HETATM    3  C12 UNL     1      -1.149  14.257  17.582  1.00  0.00     0.011 C 
HETATM    4  C13 UNL     1      -1.790  12.907  17.948  1.00  0.00    -0.029 C 
HETATM    5  C14 UNL     1      -3.019  13.284  18.860  1.00  0.00     0.016 C 
HETATM    6  C15 UNL     1      -2.353  12.011  16.789  1.00  0.00     0.028 C 
HETATM    7  C16 UNL     1      -1.895  12.217  15.372  1.00  0.00    -0.021 C 
HETATM    8  C17 UNL     1      -1.936  11.207  14.484  1.00  0.00     0.008 C 
HETATM    9  C18 UNL     1      -2.250   9.765  14.877  1.00  0.00     0.092 C 
HETATM   10  O2  UNL     1      -3.676   9.744  15.167  1.00  0.00    -0.374 OA
HETATM   11  C19 UNL     1      -3.854  10.009  16.593  1.00  0.00     0.179 C 
HETATM   12  C20 UNL     1      -2.460  10.473  17.146  1.00  0.00    -0.004 C 
HETATM   13  C21 UNL     1      -2.291  10.186  18.645  1.00  0.00     0.014 C 
HETATM   14  C22 UNL     1      -1.122  10.904  19.358  1.00  0.00     0.011 C 
HETATM   15  C23 UNL     1      -0.618  12.218  18.715  1.00  0.00    -0.032 C 
HETATM   16  C24 UNL     1       0.596  11.932  17.789  1.00  0.00     0.016 C 
HETATM   17  C25 UNL     1      -1.684   9.460  16.271  1.00  0.00     0.036 C 
HETATM   18  C26 UNL     1      -0.195   9.196  16.218  1.00  0.00     0.011 C 
HETATM   19  C27 UNL     1       0.043   7.878  15.456  1.00  0.00     0.033 C 
HETATM   20  C28 UNL     1      -1.137   7.456  14.541  1.00  0.00     0.136 C 
HETATM   21  C35 UNL     1      -1.794   8.677  13.806  1.00  0.00     0.014 C 
HETATM   22  C36 UNL     1      -3.011   8.176  12.995  1.00  0.00     0.021 C 
HETATM   23  C37 UNL     1      -0.767   9.213  12.768  1.00  0.00     0.021 C 
ENDROOT
BRANCH  20  24
HETATM   24  O3  UNL     1      -0.648   6.513  13.579  1.00  0.00    -0.352 OA
BRANCH  24  25
HETATM   25  C29 UNL     1       0.232   7.063  12.596  1.00  0.00     0.292 C 
HETATM   26  O4  UNL     1      -0.195   6.628  11.304  1.00  0.00    -0.348 OA
HETATM   27  C30 UNL     1       0.236   5.317  10.906  1.00  0.00     0.179 C 
HETATM   28  C32 UNL     1       1.776   5.181  10.909  1.00  0.00     0.180 C 
HETATM   29  C33 UNL     1       2.468   6.299  11.697  1.00  0.00     0.183 C 
HETATM   30  C34 UNL     1       1.683   6.662  12.950  1.00  0.00     0.204 C 
BRANCH  27  31
HETATM   31  C31 UNL     1      -0.438   4.215  11.747  1.00  0.00     0.198 C 
BRANCH  31  32
HETATM   32  O5  UNL     1       0.149   2.950  11.460  1.00  0.00    -0.398 OA
HETATM   33  H48 UNL     1       0.071   2.848  10.489  1.00  0.00     0.209 HD
ENDBRANCH  31  32
ENDBRANCH  27  31
BRANCH  28  34
HETATM   34  O6  UNL     1       2.277   5.236   9.559  1.00  0.00    -0.390 OA
HETATM   35  H50 UNL     1       3.203   4.924   9.576  1.00  0.00     0.210 HD
ENDBRANCH  28  34
BRANCH  29  36
HETATM   36  O7  UNL     1       2.624   7.490  10.894  1.00  0.00    -0.390 OA
HETATM   37  H52 UNL     1       2.493   7.207   9.964  1.00  0.00     0.210 HD
ENDBRANCH  29  36
BRANCH  30  38
HETATM   38  O8  UNL     1       2.350   7.742  13.621  1.00  0.00    -0.388 OA
HETATM   39  H54 UNL     1       2.646   8.344  12.906  1.00  0.00     0.210 HD
ENDBRANCH  30  38
ENDBRANCH  24  25
ENDBRANCH  20  24
BRANCH   1  40
HETATM   40  C8  UNL     1       1.223  13.273  20.410  1.00  0.00    -0.011 C 
HETATM   41  C9  UNL     1       1.769  14.666  20.736  1.00  0.00     0.010 C 
BRANCH  40  42
HETATM   42  C7  UNL     1       2.230  12.485  19.517  1.00  0.00     0.040 C 
BRANCH  42  43
HETATM   43  C2  UNL     1       3.471  11.884  20.226  1.00  0.00     0.144 C 
BRANCH  43  44
HETATM   44  O1  UNL     1       4.237  11.117  19.300  1.00  0.00    -0.387 OA
HETATM   45  C1  UNL     1       5.537  11.644  19.071  1.00  0.00     0.202 C 
ENDBRANCH  43  44
BRANCH  43  46
HETATM   46  C3  UNL     1       3.113  11.063  21.448  1.00  0.00     0.007 C 
HETATM   47  C4  UNL     1       3.821  10.814  22.570  1.00  0.00    -0.089 C 
HETATM   48  C5  UNL     1       5.165  11.409  22.888  1.00  0.00     0.042 C 
HETATM   49  C6  UNL     1       3.286   9.886  23.627  1.00  0.00     0.042 C 
ENDBRANCH  43  46
ENDBRANCH  42  43
ENDBRANCH  40  42
ENDBRANCH   1  40
TORSDOF 12
ENDMDL
