MODEL 1
REMARK minimizedAffinity -8.90471458
REMARK  7 active torsions:
REMARK  status: ('A' for Active; 'I' for Inactive)
REMARK    1  A    between atoms: C2_2  and  C4_4 
REMARK    2  A    between atoms: C7_7  and  O1_9 
REMARK    3  A    between atoms: C9_10  and  C10_11 
REMARK    4  A    between atoms: C11_12  and  C12_13 
REMARK    5  A    between atoms: C14_15  and  C15_16 
REMARK    6  A    between atoms: C24_26  and  C26_28 
REMARK    7  A    between atoms: C29_32  and  O4_34 
ROOT
HETATM    1  C15 UNL     1      -4.847  47.811 -28.754  1.00  0.00     0.149 C 
HETATM    2  C16 UNL     1      -5.754  46.718 -29.332  1.00  0.00     0.054 C 
HETATM    3  C17 UNL     1      -6.544  47.379 -30.490  1.00  0.00     0.050 C 
HETATM    4  C18 UNL     1      -5.547  48.516 -30.834  1.00  0.00     0.272 C 
HETATM    5  O2  UNL     1      -4.422  48.102 -31.606  1.00  0.00    -0.360 OA
HETATM    6  C19 UNL     1      -4.639  48.151 -33.003  1.00  0.00     0.171 C 
HETATM    7  C20 UNL     1      -5.116  46.809 -33.528  1.00  0.00     0.027 C 
HETATM    8  C21 UNL     1      -5.637  45.849 -32.462  1.00  0.00     0.012 C 
HETATM    9  C22 UNL     1      -6.847  46.329 -31.630  1.00  0.00     0.032 C 
HETATM   10  C23 UNL     1      -8.042  46.706 -32.535  1.00  0.00    -0.066 C 
HETATM   11  C24 UNL     1      -8.796  45.819 -33.233  1.00  0.00    -0.021 C 
HETATM   12  C25 UNL     1      -9.939  46.195 -34.135  1.00  0.00     0.052 C 
HETATM   13  C27 UNL     1      -8.356  48.183 -32.546  1.00  0.00     0.038 C 
HETATM   14  C28 UNL     1      -8.647  48.724 -31.149  1.00  0.00     0.042 C 
HETATM   15  C29 UNL     1      -7.931  47.977 -29.997  1.00  0.00     0.067 C 
HETATM   16  C30 UNL     1      -8.887  46.918 -29.399  1.00  0.00     0.047 C 
HETATM   17  O5  UNL     1      -5.013  48.965 -29.580  1.00  0.00    -0.351 OA
ENDROOT
BRANCH   1  18
HETATM   18  C14 UNL     1      -5.164  48.184 -27.333  1.00  0.00     0.011 C 
HETATM   19  C12 UNL     1      -4.302  48.460 -26.331  1.00  0.00    -0.064 C 
HETATM   20  C13 UNL     1      -2.804  48.486 -26.506  1.00  0.00     0.048 C 
BRANCH  19  21
HETATM   21  C11 UNL     1      -4.848  48.788 -25.015  1.00  0.00     0.003 C 
HETATM   22  C10 UNL     1      -4.347  48.415 -23.825  1.00  0.00    -0.018 C 
BRANCH  22  23
HETATM   23  C9  UNL     1      -4.892  48.773 -22.457  1.00  0.00     0.050 C 
HETATM   24  C4  UNL     1      -6.132  49.721 -22.378  1.00  0.00     0.024 C 
HETATM   25  C5  UNL     1      -5.998  50.324 -20.970  1.00  0.00     0.013 C 
HETATM   26  C6  UNL     1      -4.512  50.628 -20.860  1.00  0.00     0.039 C 
HETATM   27  C7  UNL     1      -3.830  49.401 -21.484  1.00  0.00     0.062 C 
HETATM   28  C8  UNL     1      -2.484  49.795 -22.091  1.00  0.00     0.046 C 
BRANCH  24  29
HETATM   29  C2  UNL     1      -7.476  49.057 -22.679  1.00  0.00    -0.088 C 
HETATM   30  C1  UNL     1      -8.128  49.147 -23.853  1.00  0.00     0.014 C 
HETATM   31  C3  UNL     1      -8.063  48.208 -21.579  1.00  0.00     0.043 C 
ENDBRANCH  24  29
BRANCH  27  32
HETATM   32  O1  UNL     1      -3.536  48.456 -20.444  1.00  0.00    -0.390 OA
HETATM   33  H14 UNL     1      -4.360  48.250 -19.971  1.00  0.00     0.210 HD
ENDBRANCH  27  32
ENDBRANCH  22  23
ENDBRANCH  19  21
ENDBRANCH   1  18
BRANCH  15  34
HETATM   34  O4  UNL     1      -7.746  48.932 -28.949  1.00  0.00    -0.389 OA
HETATM   35  H44 UNL     1      -8.605  49.331 -28.726  1.00  0.00     0.210 HD
ENDBRANCH  15  34
BRANCH  11  36
HETATM   36  C26 UNL     1      -8.557  44.343 -33.182  1.00  0.00     0.265 C 
HETATM   37  O3  UNL     1      -8.028  43.703 -34.080  1.00  0.00    -0.302 OA
ENDBRANCH  11  36
TORSDOF 7
ENDMDL
