MODEL 1
REMARK minimizedAffinity -10.0696659
REMARK CNNscore 0.629096866
REMARK CNNaffinity 7.36685181
REMARK  12 active torsions:
REMARK  status: ('A' for Active; 'I' for Inactive)
REMARK    1  A    between atoms: O1_2  and  C2_3 
REMARK    2  A    between atoms: C2_3  and  C3_4 
REMARK    3  A    between atoms: C3_4  and  C4_5 
REMARK    4  A    between atoms: C4_5  and  O2_6 
REMARK    5  A    between atoms: O2_6  and  C5_7 
REMARK    6  A    between atoms: C20_23  and  C21_24 
REMARK    7  A    between atoms: C21_24  and  O4_26 
REMARK    8  A    between atoms: C21_24  and  C23_27 
REMARK    9  A    between atoms: C23_27  and  O5_28 
REMARK   10  A    between atoms: C23_27  and  C24_29 
REMARK   11  A    between atoms: C29_36  and  O7_37 
REMARK   12  A    between atoms: C36_44  and  O8_45 
ROOT
HETATM    1  C5  UNL     1      -1.594  52.518 -25.449  1.00  0.00     0.122 C 
HETATM    2  C6  UNL     1      -3.076  52.587 -25.074  1.00  0.00     0.033 C 
HETATM    3  C7  UNL     1      -3.339  52.215 -23.616  1.00  0.00     0.013 C 
HETATM    4  C8  UNL     1      -2.739  50.832 -23.198  1.00  0.00    -0.026 C 
HETATM    5  C9  UNL     1      -3.475  49.726 -23.997  1.00  0.00     0.016 C 
HETATM    6  C10 UNL     1      -1.225  50.833 -23.555  1.00  0.00     0.071 C 
HETATM    7  C11 UNL     1      -0.974  51.173 -25.037  1.00  0.00     0.045 C 
HETATM    8  C12 UNL     1      -0.425  51.798 -22.668  1.00  0.00     0.161 C 
HETATM    9  O3  UNL     1       0.505  52.482 -23.096  1.00  0.00    -0.292 OA
HETATM   10  C13 UNL     1      -0.734  51.829 -21.218  1.00  0.00    -0.006 C 
HETATM   11  C14 UNL     1      -1.833  51.184 -20.791  1.00  0.00    -0.030 C 
HETATM   12  C15 UNL     1      -2.963  50.634 -21.648  1.00  0.00     0.027 C 
HETATM   13  C16 UNL     1      -3.383  49.220 -21.158  1.00  0.00     0.011 C 
HETATM   14  C17 UNL     1      -3.650  49.162 -19.624  1.00  0.00     0.014 C 
HETATM   15  C18 UNL     1      -2.411  49.608 -18.820  1.00  0.00    -0.002 C 
HETATM   16  C19 UNL     1      -1.282  48.571 -19.093  1.00  0.00     0.019 C 
HETATM   17  C20 UNL     1      -2.567  49.945 -17.276  1.00  0.00     0.034 C 
HETATM   18  C32 UNL     1      -1.439  51.065 -17.050  1.00  0.00     0.016 C 
HETATM   19  C33 UNL     1      -0.873  51.367 -18.438  1.00  0.00     0.026 C 
HETATM   20  C34 UNL     1      -0.263  52.701 -18.820  1.00  0.00     0.013 C 
HETATM   21  C35 UNL     1       0.212  52.587 -20.296  1.00  0.00     0.043 C 
HETATM   22  C36 UNL     1      -2.062  51.039 -19.327  1.00  0.00     0.094 C 
ENDROOT
BRANCH  17  23
HETATM   23  C21 UNL     1      -2.556  48.874 -16.131  1.00  0.00     0.087 C 
HETATM   24  C22 UNL     1      -3.476  47.692 -16.520  1.00  0.00     0.049 C 
BRANCH  23  25
HETATM   25  O4  UNL     1      -3.155  49.443 -14.950  1.00  0.00    -0.387 OA
HETATM   26  H33 UNL     1      -2.415  49.870 -14.471  1.00  0.00     0.210 HD
ENDBRANCH  23  25
BRANCH  23  27
HETATM   27  C23 UNL     1      -1.172  48.289 -15.675  1.00  0.00     0.181 C 
BRANCH  27  28
HETATM   28  O5  UNL     1      -1.441  47.212 -14.766  1.00  0.00    -0.390 OA
HETATM   29  H35 UNL     1      -0.749  46.539 -14.876  1.00  0.00     0.210 HD
ENDBRANCH  27  28
BRANCH  27  30
HETATM   30  C24 UNL     1      -0.149  49.320 -15.140  1.00  0.00     0.158 C 
HETATM   31  O6  UNL     1      -0.514  49.819 -13.854  1.00  0.00    -0.373 OA
HETATM   32  C25 UNL     1       0.623  50.499 -13.293  1.00  0.00     0.185 C 
HETATM   33  C26 UNL     1       1.859  49.808 -13.872  1.00  0.00     0.027 C 
HETATM   34  C29 UNL     1       0.565  52.025 -13.581  1.00  0.00     0.383 C 
HETATM   35  C27 UNL     1       2.923  50.810 -14.319  1.00  0.00     0.038 C 
HETATM   36  C30 UNL     1       1.325  48.904 -15.001  1.00  0.00     0.020 C 
HETATM   37  C28 UNL     1       2.379  51.917 -15.224  1.00  0.00     0.273 C 
HETATM   38  N1  UNL     1       1.031  52.379 -14.910  1.00  0.00     0.114 N 
HETATM   39  H43 UNL     1       0.951  53.379 -15.069  1.00  0.00     0.319 HD
HETATM   40  C31 UNL     1       1.590  47.438 -14.665  1.00  0.00     0.013 C 
BRANCH  34  41
HETATM   41  O7  UNL     1       1.326  52.740 -12.625  1.00  0.00    -0.366 OA
HETATM   42  H45 UNL     1       1.155  53.680 -12.802  1.00  0.00     0.212 HD
ENDBRANCH  34  41
ENDBRANCH  27  30
ENDBRANCH  23  27
ENDBRANCH  17  23
BRANCH  22  43
HETATM   43  O8  UNL     1      -3.148  51.944 -19.048  1.00  0.00    -0.384 OA
HETATM   44  H57 UNL     1      -2.857  52.838 -19.288  1.00  0.00     0.211 HD
ENDBRANCH  22  43
BRANCH   1  45
HETATM   45  O2  UNL     1      -1.515  52.712 -26.868  1.00  0.00    -0.386 OA
BRANCH  45  46
HETATM   46  C4  UNL     1      -0.408  53.520 -27.272  1.00  0.00     0.170 C 
BRANCH  46  47
HETATM   47  C3  UNL     1       0.236  52.882 -28.501  1.00  0.00     0.052 C 
BRANCH  47  48
HETATM   48  C2  UNL     1       1.312  51.869 -28.115  1.00  0.00     0.169 C 
BRANCH  48  49
HETATM   49  O1  UNL     1       1.895  52.262 -26.873  1.00  0.00    -0.396 OA
HETATM   50  C1  UNL     1       2.558  51.180 -26.233  1.00  0.00     0.201 C 
ENDBRANCH  48  49
ENDBRANCH  47  48
ENDBRANCH  46  47
ENDBRANCH  45  46
ENDBRANCH   1  45
TORSDOF 12
ENDMDL
