MODEL 1
REMARK minimizedAffinity -8.74153709
REMARK CNNscore 0.610720396
REMARK CNNaffinity 7.38994217
REMARK  14 active torsions:
REMARK  status: ('A' for Active; 'I' for Inactive)
REMARK    1  A    between atoms: C4_4  and  C5_5 
REMARK    2  A    between atoms: C5_5  and  C6_6 
REMARK    3  A    between atoms: C6_6  and  C7_7 
REMARK    4  A    between atoms: C9_10  and  C10_11 
REMARK    5  A    between atoms: C12_13  and  C13_14 
REMARK    6  A    between atoms: C13_14  and  C14_15 
REMARK    7  A    between atoms: C14_15  and  C15_16 
REMARK    8  A    between atoms: C17_18  and  C18_19 
REMARK    9  A    between atoms: C18_19  and  C19_20 
REMARK   10  A    between atoms: C19_20  and  C20_21 
REMARK   11  A    between atoms: C20_21  and  O2_22 
REMARK   12  A    between atoms: C22_24  and  C24_26 
REMARK   13  A    between atoms: C27_30  and  O4_32 
REMARK   14  A    between atoms: C30_34  and  O5_35 
ROOT
HETATM    1  C15 UNL     1      -0.020   7.113  13.041  1.00  0.00    -0.006 C 
HETATM    2  C16 UNL     1       0.039   5.828  13.919  1.00  0.00     0.019 C 
HETATM    3  C17 UNL     1      -0.052   6.757  11.463  1.00  0.00     0.026 C 
HETATM    4  C21 UNL     1       1.317   6.929  10.787  1.00  0.00    -0.066 C 
HETATM    5  C22 UNL     1       1.550   7.493   9.573  1.00  0.00    -0.021 C 
HETATM    6  C23 UNL     1       2.912   7.681   8.959  1.00  0.00     0.052 C 
HETATM    7  C25 UNL     1       2.442   6.456  11.669  1.00  0.00     0.038 C 
HETATM    8  C26 UNL     1       2.563   7.339  12.910  1.00  0.00     0.042 C 
HETATM    9  C27 UNL     1       1.240   8.020  13.360  1.00  0.00     0.062 C 
HETATM   10  C28 UNL     1       1.143   9.434  12.752  1.00  0.00     0.046 C 
ENDROOT
BRANCH   1  11
HETATM   11  C14 UNL     1      -1.391   7.824  13.366  1.00  0.00     0.016 C 
BRANCH  11  12
HETATM   12  C13 UNL     1      -1.939   7.693  14.797  1.00  0.00     0.028 C 
BRANCH  12  13
HETATM   13  C12 UNL     1      -3.130   6.766  14.846  1.00  0.00    -0.022 C 
HETATM   14  C10 UNL     1      -4.413   7.035  14.524  1.00  0.00    -0.059 C 
HETATM   15  C11 UNL     1      -4.880   8.373  14.002  1.00  0.00     0.046 C 
BRANCH  14  16
HETATM   16  C9  UNL     1      -5.523   5.997  14.583  1.00  0.00     0.153 C 
HETATM   17  O1  UNL     1      -6.468   6.230  13.518  1.00  0.00    -0.368 OA
HETATM   18  C7  UNL     1      -7.788   5.830  13.957  1.00  0.00     0.084 C 
HETATM   19  C8  UNL     1      -8.650   7.094  14.037  1.00  0.00     0.049 C 
HETATM   20  C30 UNL     1      -7.580   5.168  15.338  1.00  0.00     0.155 C 
HETATM   21  C29 UNL     1      -6.352   5.882  15.856  1.00  0.00     0.071 C 
BRANCH  18  22
HETATM   22  C6  UNL     1      -8.347   4.791  12.959  1.00  0.00     0.044 C 
BRANCH  22  23
HETATM   23  C5  UNL     1      -7.584   3.459  12.871  1.00  0.00     0.030 C 
BRANCH  23  24
HETATM   24  C4  UNL     1      -6.292   3.565  12.103  1.00  0.00    -0.025 C 
HETATM   25  C2  UNL     1      -5.662   2.606  11.396  1.00  0.00    -0.091 C 
HETATM   26  C1  UNL     1      -4.367   2.907  10.687  1.00  0.00     0.042 C 
HETATM   27  C3  UNL     1      -6.138   1.191  11.224  1.00  0.00     0.042 C 
ENDBRANCH  23  24
ENDBRANCH  22  23
ENDBRANCH  18  22
BRANCH  20  28
HETATM   28  O5  UNL     1      -8.689   5.291  16.211  1.00  0.00    -0.392 OA
HETATM   29  H50 UNL     1      -8.414   4.964  17.087  1.00  0.00     0.210 HD
ENDBRANCH  20  28
ENDBRANCH  14  16
ENDBRANCH  12  13
ENDBRANCH  11  12
ENDBRANCH   1  11
BRANCH   3  30
HETATM   30  C18 UNL     1      -0.693   5.368  11.170  1.00  0.00     0.012 C 
BRANCH  30  31
HETATM   31  C19 UNL     1       0.114   4.147  11.628  1.00  0.00     0.027 C 
BRANCH  31  32
HETATM   32  C20 UNL     1      -0.691   2.853  11.629  1.00  0.00     0.164 C 
BRANCH  32  33
HETATM   33  O2  UNL     1       0.033   1.831  10.952  1.00  0.00    -0.401 OA
HETATM   34  H34 UNL     1       0.188   2.141  10.042  1.00  0.00     0.209 HD
ENDBRANCH  32  33
ENDBRANCH  31  32
ENDBRANCH  30  31
ENDBRANCH   3  30
BRANCH   9  35
HETATM   35  O4  UNL     1       1.361   8.259  14.772  1.00  0.00    -0.389 OA
HETATM   36  H46 UNL     1       1.687   7.456  15.207  1.00  0.00     0.210 HD
ENDBRANCH   9  35
BRANCH   5  37
HETATM   37  C24 UNL     1       0.466   8.020   8.682  1.00  0.00     0.265 C 
HETATM   38  O3  UNL     1      -0.120   9.081   8.854  1.00  0.00    -0.302 OA
ENDBRANCH   5  37
TORSDOF 14
ENDMDL
