MODEL 1
REMARK minimizedAffinity -6.82938862
REMARK CNNscore 0.79986769
REMARK CNNaffinity 7.42619944
REMARK  7 active torsions:
REMARK  status: ('A' for Active; 'I' for Inactive)
REMARK    1  A    between atoms: C2_2  and  C4_4 
REMARK    2  A    between atoms: C4_4  and  O2_6 
REMARK    3  A    between atoms: O2_6  and  C5_7 
REMARK    4  A    between atoms: C5_7  and  C6_8 
REMARK    5  A    between atoms: C6_8  and  C7_10 
REMARK    6  A    between atoms: C8_12  and  C9_13 
REMARK    7  A    between atoms: C29_35  and  O7_36 
ROOT
HETATM    1  C7  UNL     1       1.847  53.531  -9.600  1.00  0.00     0.160 C 
HETATM    2  O4  UNL     1       1.620  53.110  -8.254  1.00  0.00    -0.339 OA
HETATM    3  C8  UNL     1       1.694  54.289  -7.448  1.00  0.00     0.266 C 
HETATM    4  O5  UNL     1       1.388  55.429  -8.245  1.00  0.00    -0.352 OA
HETATM    5  C15 UNL     1       1.394  55.001  -9.605  1.00  0.00     0.168 C 
HETATM    6  C16 UNL     1      -0.043  55.028 -10.162  1.00  0.00     0.041 C 
HETATM    7  C17 UNL     1      -0.444  53.554 -10.209  1.00  0.00     0.004 C 
HETATM    8  C18 UNL     1      -1.678  53.177 -11.060  1.00  0.00    -0.001 C 
HETATM    9  C19 UNL     1      -2.925  53.533 -10.214  1.00  0.00     0.010 C 
HETATM   10  C20 UNL     1      -4.239  53.043 -10.791  1.00  0.00     0.036 C 
HETATM   11  C21 UNL     1      -4.149  51.567 -11.059  1.00  0.00    -0.064 A 
HETATM   12  C22 UNL     1      -5.003  50.708 -10.475  1.00  0.00     0.058 A 
HETATM   13  C23 UNL     1      -4.941  49.253 -10.731  1.00  0.00     0.172 A 
HETATM   14  O6  UNL     1      -5.713  48.476 -10.183  1.00  0.00    -0.289 OA
HETATM   15  C24 UNL     1      -3.914  48.778 -11.676  1.00  0.00     0.052 A 
HETATM   16  C25 UNL     1      -3.061  49.637 -12.251  1.00  0.00    -0.009 A 
HETATM   17  C26 UNL     1      -3.039  51.137 -12.013  1.00  0.00     0.004 A 
HETATM   18  C27 UNL     1      -3.330  51.749 -13.412  1.00  0.00     0.025 C 
HETATM   19  C28 UNL     1      -1.635  51.664 -11.511  1.00  0.00     0.035 C 
HETATM   20  C29 UNL     1      -0.852  50.844 -10.446  1.00  0.00     0.124 C 
HETATM   21  C30 UNL     1       0.625  51.315 -10.312  1.00  0.00     0.045 C 
HETATM   22  C31 UNL     1       0.856  52.820 -10.574  1.00  0.00     0.004 C 
HETATM   23  C32 UNL     1       1.299  53.063 -12.041  1.00  0.00     0.019 C 
ENDROOT
BRANCH   1  24
HETATM   24  C6  UNL     1       3.328  53.358  -9.971  1.00  0.00     0.188 C 
HETATM   25  O3  UNL     1       3.922  52.287  -9.808  1.00  0.00    -0.292 OA
BRANCH  24  26
HETATM   26  C5  UNL     1       4.058  54.606 -10.467  1.00  0.00     0.260 C 
BRANCH  26  27
HETATM   27  O2  UNL     1       5.162  54.957  -9.630  1.00  0.00    -0.314 OA
BRANCH  27  28
HETATM   28  C4  UNL     1       4.908  56.004  -8.797  1.00  0.00     0.262 C 
HETATM   29  O1  UNL     1       4.096  56.892  -9.030  1.00  0.00    -0.265 OA
BRANCH  28  30
HETATM   30  C2  UNL     1       5.699  55.907  -7.506  1.00  0.00     0.077 C 
HETATM   31  C1  UNL     1       5.735  57.229  -6.741  1.00  0.00     0.020 C 
HETATM   32  C3  UNL     1       7.102  55.394  -7.802  1.00  0.00     0.020 C 
ENDBRANCH  28  30
ENDBRANCH  27  28
ENDBRANCH  26  27
ENDBRANCH  24  26
ENDBRANCH   1  24
BRANCH   3  33
HETATM   33  C9  UNL     1       0.700  54.177  -6.282  1.00  0.00     0.041 C 
HETATM   34  C10 UNL     1       0.722  55.439  -5.397  1.00  0.00     0.009 C 
HETATM   35  C11 UNL     1      -0.574  55.666  -4.616  1.00  0.00     0.001 C 
HETATM   36  C12 UNL     1      -1.295  54.361  -4.312  1.00  0.00     0.000 C 
HETATM   37  C13 UNL     1      -1.671  53.608  -5.589  1.00  0.00     0.001 C 
HETATM   38  C14 UNL     1      -0.724  53.872  -6.764  1.00  0.00     0.009 C 
ENDBRANCH   3  33
BRANCH  20  39
HETATM   39  O7  UNL     1      -0.778  49.459 -10.769  1.00  0.00    -0.395 OA
HETATM   40  H39 UNL     1      -0.525  48.980  -9.959  1.00  0.00     0.210 HD
ENDBRANCH  20  39
TORSDOF 7
ENDMDL
