MODEL 1
REMARK minimizedAffinity -9.24802399
REMARK  6 active torsions:
REMARK  status: ('A' for Active; 'I' for Inactive)
REMARK    1  A    between atoms: C2_2  and  C30_31 
REMARK    2  A    between atoms: C3_3  and  C4_4 
REMARK    3  A    between atoms: C4_4  and  C5_5 
REMARK    4  A    between atoms: C5_5  and  C6_6 
REMARK    5  A    between atoms: C6_6  and  C8_8 
REMARK    6  A    between atoms: C30_31  and  O2_32 
ROOT
HETATM    1  C8  UNL     1      -2.573   8.562  15.226  1.00  0.00    -0.002 C 
HETATM    2  C9  UNL     1      -1.676   8.005  16.381  1.00  0.00     0.006 C 
HETATM    3  C10 UNL     1      -0.320   7.602  15.770  1.00  0.00     0.011 C 
HETATM    4  C11 UNL     1      -0.681   7.274  14.320  1.00  0.00    -0.032 C 
HETATM    5  C12 UNL     1      -1.405   5.876  14.355  1.00  0.00     0.016 C 
HETATM    6  C13 UNL     1       0.483   7.083  13.314  1.00  0.00     0.004 C 
HETATM    7  C14 UNL     1       1.621   8.160  13.260  1.00  0.00     0.007 C 
HETATM    8  C15 UNL     1       1.983   8.674  11.826  1.00  0.00     0.007 C 
HETATM    9  C16 UNL     1       2.154   7.499  10.853  1.00  0.00     0.010 C 
HETATM   10  C17 UNL     1       2.391   7.646   9.349  1.00  0.00     0.018 C 
HETATM   11  C18 UNL     1       3.674   8.439   9.070  1.00  0.00     0.023 C 
HETATM   12  C19 UNL     1       1.215   8.321   8.637  1.00  0.00     0.023 C 
HETATM   13  C20 UNL     1       2.579   6.202   8.805  1.00  0.00     0.135 C 
HETATM   14  O1  UNL     1       2.571   5.972   7.592  1.00  0.00    -0.297 OA
HETATM   15  C21 UNL     1       2.891   5.062   9.801  1.00  0.00     0.080 C 
HETATM   16  C22 UNL     1       2.072   5.093  11.117  1.00  0.00     0.018 C 
HETATM   17  C23 UNL     1       1.205   6.342  11.101  1.00  0.00    -0.026 A 
HETATM   18  C24 UNL     1      -0.189   5.840  10.901  1.00  0.00     0.021 A 
HETATM   19  C25 UNL     1      -0.063   6.919  11.903  1.00  0.00    -0.027 A 
HETATM   20  C26 UNL     1      -1.099   8.001  11.505  1.00  0.00     0.011 C 
HETATM   21  C27 UNL     1      -2.217   8.191  12.559  1.00  0.00     0.011 C 
HETATM   22  C28 UNL     1      -1.638   8.468  13.958  1.00  0.00    -0.032 C 
HETATM   23  C29 UNL     1      -0.980   9.884  13.891  1.00  0.00     0.016 C 
ENDROOT
BRANCH   1  24
HETATM   24  C6  UNL     1      -4.014   7.978  15.110  1.00  0.00    -0.014 C 
HETATM   25  C7  UNL     1      -4.858   8.742  14.075  1.00  0.00     0.010 C 
BRANCH  24  26
HETATM   26  C5  UNL     1      -3.961   6.479  14.695  1.00  0.00     0.008 C 
BRANCH  26  27
HETATM   27  C4  UNL     1      -4.667   6.157  13.369  1.00  0.00     0.028 C 
BRANCH  27  28
HETATM   28  C3  UNL     1      -5.398   4.844  13.359  1.00  0.00    -0.022 C 
HETATM   29  C2  UNL     1      -6.715   4.644  13.148  1.00  0.00    -0.064 C 
HETATM   30  C1  UNL     1      -7.723   5.742  12.931  1.00  0.00     0.045 C 
BRANCH  29  31
HETATM   31  C30 UNL     1      -7.295   3.253  13.147  1.00  0.00     0.197 C 
BRANCH  31  32
HETATM   32  O2  UNL     1      -8.712   3.336  13.179  1.00  0.00    -0.397 OA
HETATM   33  H48 UNL     1      -8.965   3.975  12.490  1.00  0.00     0.209 HD
ENDBRANCH  31  32
ENDBRANCH  29  31
ENDBRANCH  27  28
ENDBRANCH  26  27
ENDBRANCH  24  26
ENDBRANCH   1  24
TORSDOF 6
ENDMDL
