MODEL 1
REMARK minimizedAffinity -8.15870762
REMARK CNNscore 0.325204164
REMARK CNNaffinity 6.36184072
REMARK  13 active torsions:
REMARK  status: ('A' for Active; 'I' for Inactive)
REMARK    1  A    between atoms: C3_3  and  O1_4 
REMARK    2  A    between atoms: N1_14  and  O2_16 
REMARK    3  A    between atoms: O2_16  and  C13_17 
REMARK    4  A    between atoms: C13_17  and  C14_18 
REMARK       I    between atoms: C14_18  and  N2_20 
REMARK    5  A    between atoms: N2_20  and  C15_21 
REMARK    6  A    between atoms: C15_21  and  C17_23 
REMARK       I    between atoms: C17_23  and  N3_25 
REMARK    7  A    between atoms: N3_25  and  C18_26 
REMARK    8  A    between atoms: C18_26  and  C19_27 
REMARK    9  A    between atoms: C18_26  and  C22_31 
REMARK   10  A    between atoms: C19_27  and  C20_28 
REMARK   11  A    between atoms: C20_28  and  S1_29 
REMARK   12  A    between atoms: C22_31  and  O6_33 
REMARK   13  A    between atoms: C28_39  and  O7_40 
ROOT
HETATM    1  C1  UNL     1       2.956   8.364   7.666  1.00  0.00     0.015 C 
HETATM    2  C2  UNL     1       2.436   7.722   8.536  1.00  0.00    -0.078 C 
HETATM    3  C3  UNL     1       1.793   6.936   9.602  1.00  0.00     0.128 C 
HETATM    4  C4  UNL     1       0.294   7.253   9.725  1.00  0.00     0.052 C 
HETATM    5  C5  UNL     1      -0.066   7.005  11.195  1.00  0.00     0.010 C 
HETATM    6  C6  UNL     1       1.239   6.604  11.912  1.00  0.00     0.002 C 
HETATM    7  C7  UNL     1       1.350   6.894  13.432  1.00  0.00    -0.002 C 
HETATM    8  C8  UNL     1       0.030   6.590  14.174  1.00  0.00     0.010 C 
HETATM    9  C9  UNL     1      -0.728   7.846  14.578  1.00  0.00     0.035 C 
HETATM   10  C10 UNL     1       0.097   8.713  15.488  1.00  0.00    -0.069 C 
HETATM   11  C11 UNL     1      -0.504   9.419  16.463  1.00  0.00     0.030 C 
HETATM   12  C12 UNL     1       0.279  10.279  17.391  1.00  0.00     0.032 C 
HETATM   13  N1  UNL     1      -0.300  10.659  18.493  1.00  0.00    -0.271 N 
ATOM     14  H1  UNL     1      -1.252  10.407  18.758  1.00  0.00     0.194 HD
HETATM   15  C23 UNL     1       1.714  10.623  17.031  1.00  0.00     0.060 C 
HETATM   16  C24 UNL     1       2.074  10.186  15.610  1.00  0.00     0.020 C 
HETATM   17  C25 UNL     1       1.609   8.745  15.267  1.00  0.00    -0.014 C 
HETATM   18  C26 UNL     1       2.288   7.772  16.280  1.00  0.00     0.020 C 
HETATM   19  C27 UNL     1       2.017   8.266  13.807  1.00  0.00     0.031 C 
HETATM   20  C28 UNL     1       1.876   9.273  12.646  1.00  0.00     0.124 C 
HETATM   21  C29 UNL     1       2.470   8.751  11.321  1.00  0.00     0.045 C 
HETATM   22  C30 UNL     1       2.341   7.229  11.037  1.00  0.00     0.005 C 
HETATM   23  C31 UNL     1       3.700   6.542  11.277  1.00  0.00     0.020 C 
ENDROOT
BRANCH   3  24
HETATM   24  O1  UNL     1       1.951   5.556   9.265  1.00  0.00    -0.377 OA
HETATM   25  H2  UNL     1       1.232   5.044   9.666  1.00  0.00     0.211 HD
ENDBRANCH   3  24
BRANCH  20  26
HETATM   26  O7  UNL     1       2.579  10.486  12.922  1.00  0.00    -0.395 OA
HETATM   27  H40 UNL     1       2.437  11.088  12.170  1.00  0.00     0.210 HD
ENDBRANCH  20  26
BRANCH  13  28
HETATM   28  O2  UNL     1       0.551  11.461  19.273  1.00  0.00    -0.271 OA
BRANCH  28  29
HETATM   29  C13 UNL     1       0.737  10.843  20.542  1.00  0.00     0.303 C 
BRANCH  29  30
HETATM   30  C14 UNL     1       2.186  10.433  20.765  1.00  0.00     0.244 C 
HETATM   31  O3  UNL     1       2.673   9.426  20.250  1.00  0.00    -0.271 OA
HETATM   32  N2  UNL     1       2.880  11.224  21.649  1.00  0.00    -0.346 N 
HETATM   33  H16 UNL     1       2.433  12.057  22.035  1.00  0.00     0.163 HD
BRANCH  32  34
HETATM   34  C15 UNL     1       4.196  10.858  22.158  1.00  0.00     0.172 C 
HETATM   35  C16 UNL     1       4.061   9.861  23.310  1.00  0.00     0.042 C 
BRANCH  34  36
HETATM   36  C17 UNL     1       4.939  12.124  22.632  1.00  0.00     0.240 C 
HETATM   37  O4  UNL     1       4.391  13.026  23.264  1.00  0.00    -0.271 OA
HETATM   38  N3  UNL     1       6.287  12.154  22.315  1.00  0.00    -0.345 N 
HETATM   39  H21 UNL     1       6.708  11.264  22.071  1.00  0.00     0.163 HD
BRANCH  38  40
HETATM   40  C18 UNL     1       7.169  13.113  22.983  1.00  0.00     0.183 C 
BRANCH  40  41
HETATM   41  C19 UNL     1       7.392  14.359  22.120  1.00  0.00     0.046 C 
BRANCH  41  42
HETATM   42  C20 UNL     1       7.139  14.068  20.644  1.00  0.00     0.076 C 
BRANCH  42  43
HETATM   43  S1  UNL     1       8.441  12.999  19.931  1.00  0.00    -0.173 SA
HETATM   44  C21 UNL     1       7.427  11.939  18.870  1.00  0.00     0.089 C 
ENDBRANCH  42  43
ENDBRANCH  41  42
ENDBRANCH  40  41
BRANCH  40  45
HETATM   45  C22 UNL     1       8.514  12.422  23.221  1.00  0.00     0.163 C 
HETATM   46  O5  UNL     1       9.597  12.973  23.347  1.00  0.00    -0.648 OA
BRANCH  45  47
HETATM   47  O6  UNL     1       8.406  11.085  23.322  1.00  0.00    -0.775 OA
HETATM   48  H30 UNL     1       9.332  10.778  23.424  1.00  0.00     0.167 HD
ENDBRANCH  45  47
ENDBRANCH  40  45
ENDBRANCH  38  40
ENDBRANCH  34  36
ENDBRANCH  32  34
ENDBRANCH  29  30
ENDBRANCH  28  29
ENDBRANCH  13  28
TORSDOF 13
ENDMDL
