MODEL 1
REMARK minimizedAffinity -9.68254566
REMARK  4 active torsions:
REMARK  status: ('A' for Active; 'I' for Inactive)
REMARK    1  A    between atoms: C4_4  and  C5_5 
REMARK    2  A    between atoms: C5_5  and  C6_6 
REMARK    3  A    between atoms: C6_6  and  C7_7 
REMARK    4  A    between atoms: C7_7  and  C9_9 
ROOT
HETATM    1  C9  UNL     1      -0.672  52.458 -21.053  1.00  0.00    -0.001 C 
HETATM    2  C10 UNL     1       0.034  52.121 -22.390  1.00  0.00     0.007 C 
HETATM    3  C11 UNL     1      -0.802  51.012 -23.071  1.00  0.00     0.024 C 
HETATM    4  C12 UNL     1      -2.015  50.839 -22.180  1.00  0.00     0.092 C 
HETATM    5  C13 UNL     1      -3.173  51.795 -22.582  1.00  0.00     0.272 C 
HETATM    6  O1  UNL     1      -3.094  52.855 -23.179  1.00  0.00    -0.264 OA
HETATM    7  O2  UNL     1      -4.366  51.245 -22.146  1.00  0.00    -0.305 OA
HETATM    8  C14 UNL     1      -4.088  49.976 -21.508  1.00  0.00     0.113 C 
HETATM    9  C15 UNL     1      -3.795  50.292 -20.002  1.00  0.00     0.043 C 
HETATM   10  C16 UNL     1      -2.717  51.394 -19.803  1.00  0.00     0.014 C 
HETATM   11  C17 UNL     1      -1.503  51.179 -20.737  1.00  0.00    -0.020 C 
HETATM   12  C18 UNL     1      -0.637  50.044 -20.145  1.00  0.00     0.017 C 
HETATM   13  C19 UNL     1      -2.804  49.591 -22.188  1.00  0.00     0.137 A 
HETATM   14  O3  UNL     1      -2.216  48.317 -22.003  1.00  0.00    -0.364 OA
HETATM   15  C20 UNL     1      -2.757  48.577 -23.313  1.00  0.00     0.162 A 
HETATM   16  C21 UNL     1      -3.986  47.791 -23.660  1.00  0.00     0.042 C 
HETATM   17  C22 UNL     1      -5.251  48.607 -23.318  1.00  0.00     0.014 C 
HETATM   18  C23 UNL     1      -6.588  48.055 -23.917  1.00  0.00     0.018 C 
HETATM   19  C24 UNL     1      -6.492  47.985 -25.458  1.00  0.00     0.023 C 
HETATM   20  C25 UNL     1      -7.007  46.672 -23.402  1.00  0.00     0.023 C 
HETATM   21  C26 UNL     1      -7.722  49.039 -23.584  1.00  0.00     0.135 C 
HETATM   22  O4  UNL     1      -8.847  48.924 -24.071  1.00  0.00    -0.297 OA
HETATM   23  C27 UNL     1      -7.410  50.176 -22.638  1.00  0.00     0.080 C 
HETATM   24  C28 UNL     1      -6.656  49.634 -21.433  1.00  0.00     0.020 C 
HETATM   25  C29 UNL     1      -5.282  48.979 -21.778  1.00  0.00    -0.004 C 
HETATM   26  C30 UNL     1      -5.125  47.746 -20.848  1.00  0.00     0.019 C 
ENDROOT
BRANCH   1  27
HETATM   27  C7  UNL     1       0.146  53.204 -19.964  1.00  0.00    -0.014 C 
HETATM   28  C8  UNL     1       1.477  53.696 -20.569  1.00  0.00     0.010 C 
BRANCH  27  29
HETATM   29  C6  UNL     1       0.424  52.575 -18.580  1.00  0.00     0.008 C 
BRANCH  29  30
HETATM   30  C5  UNL     1       1.753  52.914 -17.901  1.00  0.00     0.028 C 
BRANCH  30  31
HETATM   31  C4  UNL     1       1.820  52.302 -16.526  1.00  0.00    -0.025 C 
HETATM   32  C2  UNL     1       2.907  52.083 -15.763  1.00  0.00    -0.091 C 
HETATM   33  C1  UNL     1       2.767  51.472 -14.393  1.00  0.00     0.042 C 
HETATM   34  C3  UNL     1       4.324  52.404 -16.148  1.00  0.00     0.042 C 
ENDBRANCH  30  31
ENDBRANCH  29  30
ENDBRANCH  27  29
ENDBRANCH   1  27
TORSDOF 4
ENDMDL
