MODEL 1
REMARK minimizedAffinity -9.94835281
REMARK  4 active torsions:
REMARK  status: ('A' for Active; 'I' for Inactive)
REMARK    1  A    between atoms: C2_2  and  C4_4 
REMARK    2  A    between atoms: C7_7  and  C8_8 
REMARK    3  A    between atoms: C8_8  and  O1_9 
REMARK    4  A    between atoms: C10_11  and  O2_12 
ROOT
HETATM    1  C4  UNL     1       0.579  52.520 -22.978  1.00  0.00     0.018 C 
HETATM    2  C5  UNL     1       0.984  53.550 -24.069  1.00  0.00     0.010 C 
HETATM    3  C6  UNL     1      -0.194  53.631 -25.054  1.00  0.00     0.013 C 
HETATM    4  C7  UNL     1      -0.956  52.314 -24.844  1.00  0.00    -0.012 C 
HETATM    5  C9  UNL     1      -2.427  52.373 -25.273  1.00  0.00     0.044 C 
HETATM    6  C10 UNL     1      -3.209  51.129 -24.793  1.00  0.00     0.128 C 
HETATM    7  C11 UNL     1      -3.098  50.843 -23.239  1.00  0.00    -0.006 C 
HETATM    8  C12 UNL     1      -3.897  51.988 -22.521  1.00  0.00     0.019 C 
HETATM    9  C13 UNL     1      -1.566  50.908 -22.806  1.00  0.00     0.002 C 
HETATM   10  C14 UNL     1      -1.381  50.648 -21.307  1.00  0.00     0.006 C 
HETATM   11  C15 UNL     1      -2.005  49.327 -20.855  1.00  0.00     0.006 C 
HETATM   12  C16 UNL     1      -3.493  49.187 -21.251  1.00  0.00     0.003 C 
HETATM   13  C17 UNL     1      -4.226  47.974 -20.538  1.00  0.00    -0.035 C 
HETATM   14  C18 UNL     1      -3.496  46.620 -20.768  1.00  0.00     0.016 C 
HETATM   15  C19 UNL     1      -4.183  48.215 -18.991  1.00  0.00     0.017 C 
HETATM   16  C20 UNL     1      -5.315  47.529 -18.247  1.00  0.00     0.080 C 
HETATM   17  C21 UNL     1      -6.635  48.126 -18.662  1.00  0.00     0.135 C 
HETATM   18  O3  UNL     1      -7.536  48.259 -17.830  1.00  0.00    -0.297 OA
HETATM   19  C22 UNL     1      -6.813  48.535 -20.137  1.00  0.00     0.017 C 
HETATM   20  C23 UNL     1      -8.231  48.066 -20.549  1.00  0.00     0.023 C 
HETATM   21  C24 UNL     1      -6.799  50.068 -20.188  1.00  0.00     0.023 C 
HETATM   22  C25 UNL     1      -5.722  47.807 -21.013  1.00  0.00     0.009 C 
HETATM   23  C26 UNL     1      -5.863  47.985 -22.538  1.00  0.00     0.007 C 
HETATM   24  C27 UNL     1      -5.199  49.227 -23.126  1.00  0.00     0.011 C 
HETATM   25  C28 UNL     1      -3.689  49.371 -22.807  1.00  0.00    -0.030 C 
HETATM   26  C29 UNL     1      -2.952  48.261 -23.616  1.00  0.00     0.016 C 
HETATM   27  C30 UNL     1      -0.904  52.214 -23.298  1.00  0.00     0.009 C 
ENDROOT
BRANCH   1  28
HETATM   28  C2  UNL     1       0.896  53.028 -21.581  1.00  0.00    -0.089 C 
HETATM   29  C1  UNL     1       1.050  54.343 -21.342  1.00  0.00     0.014 C 
HETATM   30  C3  UNL     1       1.011  52.031 -20.457  1.00  0.00     0.043 C 
ENDBRANCH   1  28
BRANCH   4  31
HETATM   31  C8  UNL     1      -0.214  51.172 -25.600  1.00  0.00     0.174 C 
BRANCH  31  32
HETATM   32  O1  UNL     1      -0.381  51.331 -27.006  1.00  0.00    -0.400 OA
HETATM   33  H13 UNL     1       0.163  50.650 -27.439  1.00  0.00     0.209 HD
ENDBRANCH  31  32
ENDBRANCH   4  31
BRANCH   6  34
HETATM   34  O2  UNL     1      -4.572  51.301 -25.180  1.00  0.00    -0.395 OA
HETATM   35  H17 UNL     1      -4.586  51.471 -26.137  1.00  0.00     0.210 HD
ENDBRANCH   6  34
TORSDOF 4
ENDMDL
