MODEL 1
REMARK minimizedAffinity -9.86869812
REMARK CNNscore 0.678371787
REMARK CNNaffinity 7.25264883
REMARK  5 active torsions:
REMARK  status: ('A' for Active; 'I' for Inactive)
REMARK    1  A    between atoms: C5_5  and  C6_6 
REMARK    2  A    between atoms: C6_6  and  C7_8 
REMARK    3  A    between atoms: C7_8  and  O2_9 
REMARK    4  A    between atoms: O2_9  and  C8_10 
REMARK    5  A    between atoms: C14_17  and  C15_18 
ROOT
HETATM    1  C8  UNL     1      -1.641  50.229 -22.867  1.00  0.00     0.093 A 
HETATM    2  C9  UNL     1      -0.893  51.390 -23.061  1.00  0.00     0.076 A 
HETATM    3  C10 UNL     1      -0.223  51.969 -21.980  1.00  0.00     0.093 A 
HETATM    4  C11 UNL     1      -0.265  51.428 -20.697  1.00  0.00     0.011 A 
HETATM    5  C12 UNL     1      -1.015  50.265 -20.503  1.00  0.00     0.042 A 
HETATM    6  C13 UNL     1      -1.693  49.673 -21.576  1.00  0.00     0.068 A 
HETATM    7 CL1  UNL     1      -2.607  48.238 -21.255  1.00  0.00    -0.081 Cl
HETATM    8  C14 UNL     1       0.472  52.091 -19.611  1.00  0.00    -0.007 A 
HETATM    9  C21 UNL     1       1.158  53.206 -19.906  1.00  0.00     0.095 A 
HETATM   10  C22 UNL     1       1.206  53.796 -21.252  1.00  0.00     0.289 A 
HETATM   11  O3  UNL     1       1.839  54.825 -21.463  1.00  0.00    -0.260 OA
HETATM   12  O4  UNL     1       0.507  53.142 -22.251  1.00  0.00    -0.275 OA
ENDROOT
BRANCH   1  13
HETATM   13  O2  UNL     1      -2.333  49.569 -23.848  1.00  0.00    -0.342 OA
BRANCH  13  14
HETATM   14  C7  UNL     1      -2.860  50.298 -24.942  1.00  0.00     0.254 C 
BRANCH  14  15
HETATM   15  C6  UNL     1      -2.401  49.845 -26.334  1.00  0.00     0.155 C 
HETATM   16  O1  UNL     1      -2.712  48.754 -26.814  1.00  0.00    -0.295 OA
BRANCH  15  17
HETATM   17  C5  UNL     1      -1.535  50.836 -27.104  1.00  0.00     0.062 C 
HETATM   18  C4  UNL     1      -0.097  50.801 -26.573  1.00  0.00     0.049 C 
HETATM   19  C2  UNL     1       0.707  52.073 -26.923  1.00  0.00     0.054 C 
HETATM   20  C1  UNL     1       2.112  51.677 -27.402  1.00  0.00     0.045 C 
HETATM   21  C3  UNL     1       0.866  53.007 -25.713  1.00  0.00     0.045 C 
HETATM   22  O5  UNL     1       0.093  52.749 -28.026  1.00  0.00    -0.381 OA
HETATM   23  C24 UNL     1      -1.228  53.234 -27.792  1.00  0.00     0.169 C 
HETATM   24  C23 UNL     1      -2.104  52.249 -27.029  1.00  0.00     0.038 C 
ENDBRANCH  15  17
ENDBRANCH  14  15
ENDBRANCH  13  14
ENDBRANCH   1  13
BRANCH   8  25
HETATM   25  C15 UNL     1       0.539  51.634 -18.211  1.00  0.00    -0.025 A 
HETATM   26  C16 UNL     1       1.207  52.406 -17.251  1.00  0.00     0.012 A 
HETATM   27  C17 UNL     1       1.273  51.972 -15.926  1.00  0.00     0.001 A 
HETATM   28  C18 UNL     1       0.674  50.769 -15.553  1.00  0.00     0.000 A 
HETATM   29  C19 UNL     1       0.007  49.997 -16.505  1.00  0.00     0.001 A 
HETATM   30  C20 UNL     1      -0.061  50.427 -17.831  1.00  0.00     0.012 A 
ENDBRANCH   8  25
TORSDOF 5
ENDMDL
