MODEL 1
REMARK minimizedAffinity -8.19110966
REMARK CNNscore 0.377797544
REMARK CNNaffinity 7.20962763
REMARK  19 active torsions:
REMARK  status: ('A' for Active; 'I' for Inactive)
REMARK    1  A    between atoms: O1_2  and  C2_3 
REMARK    2  A    between atoms: C2_3  and  C3_4 
REMARK    3  A    between atoms: C2_3  and  C28_36 
REMARK    4  A    between atoms: C3_4  and  C4_5 
REMARK    5  A    between atoms: C4_5  and  C6_7 
REMARK    6  A    between atoms: C6_7  and  O2_8 
REMARK    7  A    between atoms: C6_7  and  C7_9 
REMARK    8  A    between atoms: C8_10  and  C9_11 
REMARK    9  A    between atoms: C10_12  and  C11_13 
REMARK   10  A    between atoms: C11_13  and  N1_14 
REMARK       I    between atoms: N1_14  and  C12_15 
REMARK   11  A    between atoms: C12_15  and  C13_17 
REMARK   12  A    between atoms: C13_17  and  C16_20 
REMARK   13  A    between atoms: C16_20  and  O4_21 
REMARK   14  A    between atoms: C16_20  and  C17_22 
REMARK   15  A    between atoms: C19_24  and  C20_25 
REMARK   16  A    between atoms: C21_26  and  C22_27 
REMARK   17  A    between atoms: C23_28  and  C24_29 
REMARK   18  A    between atoms: C26_31  and  N2_33 
REMARK   19  A    between atoms: C28_36  and  O7_37 
ROOT
HETATM    1  C9  UNL     1      -7.117   4.908  14.182  1.00  0.00    -0.003 C 
HETATM    2  C10 UNL     1      -7.642   6.081  14.580  1.00  0.00    -0.007 C 
ENDROOT
BRANCH   1   3
HETATM    3  C8  UNL     1      -6.197   4.822  13.068  1.00  0.00    -0.002 C 
HETATM    4  C7  UNL     1      -5.871   3.667  12.464  1.00  0.00     0.005 C 
BRANCH   4   5
HETATM    5  C6  UNL     1      -4.931   3.451  11.299  1.00  0.00     0.144 C 
BRANCH   5   6
HETATM    6  C4  UNL     1      -3.436   3.180  11.591  1.00  0.00     0.016 C 
HETATM    7  C5  UNL     1      -3.066   1.697  11.514  1.00  0.00     0.013 C 
BRANCH   6   8
HETATM    8  C3  UNL     1      -2.876   3.859  12.868  1.00  0.00     0.042 C 
BRANCH   8   9
HETATM    9  C2  UNL     1      -1.654   4.816  12.871  1.00  0.00     0.159 C 
BRANCH   9  10
HETATM   10  O1  UNL     1      -0.458   4.014  12.901  1.00  0.00    -0.388 OA
HETATM   11  C1  UNL     1       0.027   3.635  11.615  1.00  0.00     0.202 C 
ENDBRANCH   9  10
BRANCH   9  12
HETATM   12  C28 UNL     1      -1.495   5.936  13.959  1.00  0.00     0.133 C 
HETATM   13  C29 UNL     1      -2.933   6.444  14.371  1.00  0.00     0.114 C 
HETATM   14  C30 UNL     1      -3.060   6.993  15.792  1.00  0.00     0.023 C 
HETATM   15  C31 UNL     1      -3.199   7.574  13.407  1.00  0.00     0.227 C 
HETATM   16  O8  UNL     1      -4.304   7.975  13.083  1.00  0.00    -0.273 OA
HETATM   17  N3  UNL     1      -1.976   8.095  13.028  1.00  0.00    -0.332 N 
HETATM   18  C32 UNL     1      -1.890   9.011  11.913  1.00  0.00     0.154 C 
HETATM   19  C33 UNL     1      -0.817   7.242  13.477  1.00  0.00     0.183 C 
HETATM   20  C34 UNL     1       0.425   7.207  12.536  1.00  0.00     0.294 C 
HETATM   21  C35 UNL     1       0.184   8.060  14.379  1.00  0.00     0.169 C 
HETATM   22  O9  UNL     1       0.714   6.900  11.402  1.00  0.00    -0.262 OA
HETATM   23  O10 UNL     1       1.256   7.795  13.435  1.00  0.00    -0.311 OA
HETATM   24  C36 UNL     1       0.649   7.695  15.775  1.00  0.00     0.043 C 
BRANCH  12  25
HETATM   25  O7  UNL     1      -0.867   5.386  15.117  1.00  0.00    -0.383 OA
HETATM   26  H42 UNL     1      -1.482   4.730  15.499  1.00  0.00     0.210 HD
ENDBRANCH  12  25
ENDBRANCH   9  12
ENDBRANCH   8   9
ENDBRANCH   6   8
ENDBRANCH   5   6
BRANCH   5  27
HETATM   27  O2  UNL     1      -5.476   2.359  10.558  1.00  0.00    -0.391 OA
HETATM   28  H12 UNL     1      -5.512   1.597  11.168  1.00  0.00     0.210 HD
ENDBRANCH   5  27
ENDBRANCH   4   5
ENDBRANCH   1   3
BRANCH   2  29
HETATM   29  C11 UNL     1      -8.607   6.368  15.685  1.00  0.00     0.149 C 
BRANCH  29  30
HETATM   30  N1  UNL     1      -9.974   6.526  15.238  1.00  0.00    -0.357 N 
HETATM   31  C12 UNL     1     -10.460   7.809  15.032  1.00  0.00     0.228 C 
HETATM   32  O3  UNL     1      -9.755   8.786  15.265  1.00  0.00    -0.273 OA
HETATM   33  H19 UNL     1     -10.379   5.778  14.697  1.00  0.00     0.162 HD
BRANCH  31  34
HETATM   34  C13 UNL     1     -11.877   7.903  14.420  1.00  0.00     0.063 C 
HETATM   35  C14 UNL     1     -12.527   6.505  14.381  1.00  0.00     0.028 C 
HETATM   36  C15 UNL     1     -11.706   8.399  12.963  1.00  0.00     0.028 C 
BRANCH  34  37
HETATM   37  C16 UNL     1     -12.833   8.890  15.190  1.00  0.00     0.164 C 
BRANCH  37  38
HETATM   38  O4  UNL     1     -12.685   8.871  16.609  1.00  0.00    -0.390 OA
HETATM   39  H27 UNL     1     -11.751   8.743  16.843  1.00  0.00     0.210 HD
ENDBRANCH  37  38
BRANCH  37  40
HETATM   40  C17 UNL     1     -14.334   8.811  14.912  1.00  0.00    -0.054 C 
HETATM   41  C18 UNL     1     -14.805   9.423  13.615  1.00  0.00     0.046 C 
HETATM   42  C19 UNL     1     -15.241   8.157  15.673  1.00  0.00     0.005 C 
BRANCH  42  43
HETATM   43  C20 UNL     1     -15.018   7.442  16.915  1.00  0.00     0.000 C 
HETATM   44  C21 UNL     1     -15.820   6.505  17.456  1.00  0.00     0.000 C 
BRANCH  44  45
HETATM   45  C22 UNL     1     -17.084   6.039  16.926  1.00  0.00     0.001 C 
HETATM   46  C23 UNL     1     -17.331   4.988  16.124  1.00  0.00     0.009 C 
BRANCH  46  47
HETATM   47  C24 UNL     1     -16.433   4.053  15.434  1.00  0.00    -0.034 C 
HETATM   48  C25 UNL     1     -15.458   4.652  14.442  1.00  0.00     0.050 C 
HETATM   49  C26 UNL     1     -16.564   2.715  15.621  1.00  0.00     0.082 C 
HETATM   50  C27 UNL     1     -17.471   1.903  16.487  1.00  0.00     0.075 C 
BRANCH  49  51
HETATM   51  N2  UNL     1     -15.649   1.850  14.901  1.00  0.00    -0.120 N 
HETATM   52  O5  UNL     1     -14.449   2.157  14.919  1.00  0.00    -0.532 OA
HETATM   53  O6  UNL     1     -16.140   0.857  14.347  1.00  0.00    -0.532 OA
ENDBRANCH  49  51
ENDBRANCH  46  47
ENDBRANCH  44  45
ENDBRANCH  42  43
ENDBRANCH  37  40
ENDBRANCH  34  37
ENDBRANCH  31  34
ENDBRANCH  29  30
ENDBRANCH   2  29
TORSDOF 19
ENDMDL
