MODEL 1
REMARK minimizedAffinity -8.21476936
REMARK CNNscore 0.15818505
REMARK CNNaffinity 5.78549147
REMARK  6 active torsions:
REMARK  status: ('A' for Active; 'I' for Inactive)
REMARK    1  A    between atoms: C6_7  and  O2_8 
REMARK    2  A    between atoms: C17_21  and  C18_22 
REMARK    3  A    between atoms: C18_22  and  C19_23 
REMARK    4  A    between atoms: C23_27  and  C24_28 
REMARK    5  A    between atoms: C24_28  and  N1_29 
REMARK    6  A    between atoms: C24_28  and  N2_30 
ROOT
HETATM    1  C1  UNL     1      -6.168  15.958  19.539  1.00  0.00     0.077 C 
HETATM    2  C2  UNL     1      -6.950  15.138  20.517  1.00  0.00     0.053 A 
HETATM    3  C3  UNL     1      -6.807  15.269  21.842  1.00  0.00     0.088 A 
HETATM    4  C4  UNL     1      -7.609  14.424  22.737  1.00  0.00     0.190 A 
HETATM    5  O1  UNL     1      -7.513  14.509  23.957  1.00  0.00    -0.287 OA
HETATM    6  C5  UNL     1      -8.532  13.468  22.110  1.00  0.00     0.082 A 
HETATM    7  C6  UNL     1      -9.329  12.601  22.872  1.00  0.00     0.092 A 
HETATM    8  C7  UNL     1     -10.199  11.690  22.250  1.00  0.00     0.016 A 
HETATM    9  C8  UNL     1     -10.235  11.672  20.831  1.00  0.00     0.082 A 
HETATM   10  C9  UNL     1      -9.430  12.532  20.079  1.00  0.00     0.075 A 
HETATM   11  C10 UNL     1      -8.583  13.430  20.719  1.00  0.00     0.095 A 
HETATM   12  O3  UNL     1      -7.823  14.244  19.917  1.00  0.00    -0.314 OA
HETATM   13  O4  UNL     1     -11.017  10.821  20.066  1.00  0.00    -0.337 OA
HETATM   14  C11 UNL     1     -12.106  10.208  20.784  1.00  0.00     0.091 C 
HETATM   15  C12 UNL     1     -13.212  11.275  20.935  1.00  0.00     0.049 C 
HETATM   16  C13 UNL     1     -12.683   8.974  19.960  1.00  0.00     0.041 C 
HETATM   17  C14 UNL     1     -14.115   8.494  20.363  1.00  0.00     0.003 C 
HETATM   18  C15 UNL     1     -14.398   6.976  20.495  1.00  0.00     0.003 C 
HETATM   19  C16 UNL     1     -13.827   6.155  21.678  1.00  0.00     0.042 C 
HETATM   20  C17 UNL     1     -14.339   6.461  23.106  1.00  0.00     0.107 A 
HETATM   21  O5  UNL     1     -14.686   7.814  23.294  1.00  0.00    -0.352 OA
HETATM   22  C26 UNL     1     -13.476   7.427  24.010  1.00  0.00     0.180 A 
HETATM   23  C27 UNL     1     -13.639   7.965  25.425  1.00  0.00     0.052 C 
HETATM   24  C28 UNL     1     -12.827   9.301  25.638  1.00  0.00     0.004 C 
HETATM   25  C29 UNL     1     -13.218  10.494  24.721  1.00  0.00     0.001 C 
HETATM   26  C30 UNL     1     -12.072  11.330  24.055  1.00  0.00     0.012 C 
HETATM   27  C31 UNL     1     -11.014  10.692  23.075  1.00  0.00     0.057 C 
HETATM   28  C32 UNL     1     -11.504   9.645  22.079  1.00  0.00     0.175 C 
HETATM   29  O6  UNL     1     -12.517   8.889  22.651  1.00  0.00    -0.310 OA
HETATM   30  C33 UNL     1     -12.212   7.821  23.373  1.00  0.00     0.297 C 
HETATM   31  O7  UNL     1     -11.131   7.296  23.564  1.00  0.00    -0.262 OA
ENDROOT
BRANCH  20  32
HETATM   32  C18 UNL     1     -15.252   5.463  23.764  1.00  0.00     0.080 C 
BRANCH  32  33
HETATM   33  C19 UNL     1     -14.499   4.535  24.689  1.00  0.00    -0.055 A 
HETATM   34  C20 UNL     1     -14.902   4.392  26.021  1.00  0.00     0.007 A 
HETATM   35  C21 UNL     1     -14.225   3.527  26.877  1.00  0.00     0.001 A 
HETATM   36  C22 UNL     1     -13.140   2.787  26.408  1.00  0.00     0.011 A 
HETATM   37  C23 UNL     1     -12.714   2.899  25.073  1.00  0.00     0.004 A 
HETATM   38  C25 UNL     1     -13.404   3.787  24.227  1.00  0.00     0.018 A 
BRANCH  37  39
HETATM   39  C24 UNL     1     -11.566   2.081  24.520  1.00  0.00     0.479 C 
BRANCH  39  40
HETATM   40  N1  UNL     1     -11.423   0.795  25.140  1.00  0.00     0.116 N 
HETATM   41  H24 UNL     1     -10.754   0.288  24.563  1.00  0.00     0.316 HD
HETATM   42  H25 UNL     1     -12.293   0.283  25.054  1.00  0.00     0.316 HD
ENDBRANCH  39  40
BRANCH  39  43
HETATM   43  N2  UNL     1     -11.730   1.763  23.126  1.00  0.00     0.116 N 
HETATM   44  H26 UNL     1     -11.761   2.643  22.611  1.00  0.00     0.316 HD
HETATM   45  H27 UNL     1     -12.647   1.349  22.988  1.00  0.00     0.316 HD
ENDBRANCH  39  43
ENDBRANCH  37  39
ENDBRANCH  32  33
ENDBRANCH  20  32
BRANCH   7  46
HETATM   46  O2  UNL     1      -9.264  12.593  24.243  1.00  0.00    -0.359 OA
HETATM   47  H5  UNL     1      -8.606  13.265  24.532  1.00  0.00     0.217 HD
ENDBRANCH   7  46
TORSDOF 6
ENDMDL
