MODEL 1
REMARK minimizedAffinity -7.26661634
REMARK CNNscore 0.776841044
REMARK CNNaffinity 7.2132802
REMARK  7 active torsions:
REMARK  status: ('A' for Active; 'I' for Inactive)
REMARK    1  A    between atoms: O1_2  and  C2_3 
REMARK    2  A    between atoms: C19_21  and  C20_22 
REMARK    3  A    between atoms: C20_22  and  C22_24 
REMARK    4  A    between atoms: C22_24  and  C23_25 
REMARK    5  A    between atoms: C23_25  and  C24_26 
REMARK    6  A    between atoms: C25_27  and  C27_29 
REMARK    7  A    between atoms: C27_29  and  O4_31 
ROOT
HETATM    1  C2  UNL     1       1.253  52.456 -10.552  1.00  0.00     0.151 C 
HETATM    2  C3  UNL     1       0.080  51.474 -10.468  1.00  0.00     0.043 C 
HETATM    3  C4  UNL     1      -1.251  52.193 -10.733  1.00  0.00     0.016 C 
HETATM    4  C5  UNL     1      -2.451  51.219 -10.989  1.00  0.00     0.018 C 
HETATM    5  C6  UNL     1      -2.409  49.929 -10.145  1.00  0.00     0.023 C 
HETATM    6  C7  UNL     1      -2.466  50.794 -12.474  1.00  0.00     0.023 C 
HETATM    7  C8  UNL     1      -3.770  51.959 -10.733  1.00  0.00     0.135 C 
HETATM    8  O2  UNL     1      -4.809  51.372 -10.429  1.00  0.00    -0.297 OA
HETATM    9  C9  UNL     1      -3.770  53.450 -10.956  1.00  0.00     0.080 C 
HETATM   10  C10 UNL     1      -2.687  54.178 -10.162  1.00  0.00     0.021 C 
HETATM   11  C11 UNL     1      -1.515  53.293  -9.644  1.00  0.00    -0.015 C 
HETATM   12  C12 UNL     1      -1.905  52.688  -8.273  1.00  0.00     0.020 C 
HETATM   13  C13 UNL     1      -0.245  54.160  -9.416  1.00  0.00    -0.066 C 
HETATM   14  C14 UNL     1       0.987  53.774  -9.852  1.00  0.00    -0.039 C 
HETATM   15  C15 UNL     1       2.182  54.711  -9.653  1.00  0.00    -0.010 C 
HETATM   16  C16 UNL     1       2.178  55.652 -10.902  1.00  0.00     0.021 C 
HETATM   17  C17 UNL     1       3.606  54.132  -9.522  1.00  0.00     0.015 C 
HETATM   18  C18 UNL     1       4.426  55.236  -8.815  1.00  0.00     0.007 C 
HETATM   19  C19 UNL     1       3.406  56.221  -8.199  1.00  0.00    -0.002 C 
HETATM   20  C28 UNL     1       2.061  55.442  -8.260  1.00  0.00    -0.029 C 
HETATM   21  C29 UNL     1       1.936  54.444  -7.072  1.00  0.00     0.016 C 
HETATM   22  C30 UNL     1       0.804  56.313  -8.299  1.00  0.00     0.015 C 
HETATM   23  C31 UNL     1      -0.448  55.478  -8.642  1.00  0.00     0.036 C 
ENDROOT
BRANCH  19  24
HETATM   24  C20 UNL     1       3.833  57.022  -6.936  1.00  0.00    -0.014 C 
HETATM   25  C21 UNL     1       2.891  58.226  -6.749  1.00  0.00     0.010 C 
BRANCH  24  26
HETATM   26  C22 UNL     1       5.304  57.429  -6.686  1.00  0.00     0.008 C 
BRANCH  26  27
HETATM   27  C23 UNL     1       5.959  57.255  -5.312  1.00  0.00     0.028 C 
BRANCH  27  28
HETATM   28  C24 UNL     1       7.107  58.178  -5.023  1.00  0.00    -0.013 C 
HETATM   29  C25 UNL     1       8.421  57.876  -5.058  1.00  0.00     0.008 C 
HETATM   30  C26 UNL     1       9.001  56.527  -5.355  1.00  0.00     0.055 C 
BRANCH  29  31
HETATM   31  C27 UNL     1       9.363  58.983  -4.753  1.00  0.00     0.171 C 
HETATM   32  O3  UNL     1      10.374  59.272  -5.368  1.00  0.00    -0.646 OA
BRANCH  31  33
HETATM   33  O4  UNL     1       8.992  59.687  -3.670  1.00  0.00    -0.773 OA
HETATM   34  H41 UNL     1       9.692  60.366  -3.591  1.00  0.00     0.167 HD
ENDBRANCH  31  33
ENDBRANCH  29  31
ENDBRANCH  27  28
ENDBRANCH  26  27
ENDBRANCH  24  26
ENDBRANCH  19  24
BRANCH   1  35
HETATM   35  O1  UNL     1       1.520  52.746 -11.929  1.00  0.00    -0.386 OA
HETATM   36  C1  UNL     1       2.514  51.903 -12.496  1.00  0.00     0.202 C 
ENDBRANCH   1  35
TORSDOF 7
ENDMDL
