MODEL 1
REMARK minimizedAffinity -7.10782766
REMARK CNNscore 0.5267905
REMARK CNNaffinity 6.35440111
REMARK  15 active torsions:
REMARK  status: ('A' for Active; 'I' for Inactive)
REMARK    1  A    between atoms: C4_5  and  O2_6 
REMARK    2  A    between atoms: C7_10  and  O4_11 
REMARK    3  A    between atoms: O4_11  and  C8_12 
REMARK    4  A    between atoms: C8_12  and  C9_14 
REMARK    5  A    between atoms: C9_14  and  C11_16 
REMARK    6  A    between atoms: C11_16  and  O6_17 
REMARK    7  A    between atoms: C11_16  and  C12_18 
REMARK    8  A    between atoms: C14_20  and  C15_21 
REMARK    9  A    between atoms: C15_21  and  C16_22 
REMARK   10  A    between atoms: C15_21  and  C17_24 
REMARK   11  A    between atoms: C16_22  and  O7_23 
REMARK   12  A    between atoms: C17_24  and  C18_25 
REMARK   13  A    between atoms: C18_25  and  C19_26 
REMARK   14  A    between atoms: C19_26  and  C20_27 
REMARK   15  A    between atoms: C20_27  and  C21_28 
ROOT
HETATM    1  O4  UNL     1      -0.861  51.710 -19.167  1.00  0.00    -0.312 OA
ENDROOT
BRANCH   1   2
HETATM    2  C7  UNL     1      -0.297  50.773 -20.099  1.00  0.00     0.170 C 
HETATM    3  C6  UNL     1      -1.393  49.835 -20.568  1.00  0.00     0.127 A 
HETATM    4  C5  UNL     1      -1.633  48.530 -19.829  1.00  0.00     0.223 A 
HETATM    5  O3  UNL     1      -0.853  48.584 -21.036  1.00  0.00    -0.360 OA
HETATM    6  C27 UNL     1      -2.495  50.409 -21.466  1.00  0.00    -0.003 C 
HETATM    7  C4  UNL     1      -2.916  47.760 -19.940  1.00  0.00     0.199 C 
HETATM    8  O1  UNL     1      -2.642  46.438 -20.413  1.00  0.00    -0.348 OA
HETATM    9  C30 UNL     1      -3.963  48.364 -20.893  1.00  0.00     0.082 C 
HETATM   10  C3  UNL     1      -3.845  45.937 -21.007  1.00  0.00     0.205 C 
HETATM   11  C2  UNL     1      -4.616  47.130 -21.457  1.00  0.00    -0.056 C 
HETATM   12  C1  UNL     1      -5.700  47.102 -22.246  1.00  0.00     0.017 C 
HETATM   13  C29 UNL     1      -3.372  49.242 -22.012  1.00  0.00     0.027 C 
HETATM   14  C25 UNL     1      -1.808  51.159 -22.661  1.00  0.00    -0.007 C 
HETATM   15  C28 UNL     1      -3.408  51.351 -20.647  1.00  0.00     0.019 C 
HETATM   16  C24 UNL     1      -0.736  52.164 -22.182  1.00  0.00     0.007 C 
HETATM   17  C26 UNL     1      -2.784  51.870 -23.604  1.00  0.00     0.011 C 
HETATM   18  C23 UNL     1       0.319  51.490 -21.306  1.00  0.00     0.036 C 
BRANCH   7  19
HETATM   19  O2  UNL     1      -3.484  47.635 -18.638  1.00  0.00    -0.363 OA
HETATM   20  H5  UNL     1      -2.866  47.051 -18.168  1.00  0.00     0.213 HD
ENDBRANCH   7  19
ENDBRANCH   1   2
BRANCH   1  21
HETATM   21  C8  UNL     1      -0.965  51.285 -17.876  1.00  0.00     0.266 C 
HETATM   22  O5  UNL     1      -2.018  51.123 -17.278  1.00  0.00    -0.265 OA
BRANCH  21  23
HETATM   23  C9  UNL     1       0.408  50.995 -17.309  1.00  0.00     0.114 C 
HETATM   24  C10 UNL     1       0.377  49.662 -16.560  1.00  0.00     0.023 C 
BRANCH  23  25
HETATM   25  C11 UNL     1       0.928  52.193 -16.489  1.00  0.00     0.159 C 
BRANCH  25  26
HETATM   26  O6  UNL     1       2.040  52.778 -17.182  1.00  0.00    -0.390 OA
HETATM   27  H13 UNL     1       2.656  52.061 -17.408  1.00  0.00     0.210 HD
ENDBRANCH  25  26
BRANCH  25  28
HETATM   28  C12 UNL     1       1.325  51.903 -15.044  1.00  0.00    -0.058 C 
HETATM   29  C13 UNL     1       0.187  51.881 -14.054  1.00  0.00     0.046 C 
HETATM   30  C14 UNL     1       2.600  51.680 -14.653  1.00  0.00    -0.015 C 
BRANCH  30  31
HETATM   31  C15 UNL     1       3.074  51.311 -13.254  1.00  0.00     0.032 C 
BRANCH  31  32
HETATM   32  C16 UNL     1       2.926  49.797 -13.012  1.00  0.00     0.172 C 
BRANCH  32  33
HETATM   33  O7  UNL     1       4.049  49.066 -13.495  1.00  0.00    -0.400 OA
HETATM   34  H21 UNL     1       4.729  49.102 -12.801  1.00  0.00     0.209 HD
ENDBRANCH  32  33
ENDBRANCH  31  32
BRANCH  31  35
HETATM   35  C17 UNL     1       2.297  52.169 -12.234  1.00  0.00     0.010 C 
BRANCH  35  36
HETATM   36  C18 UNL     1       2.895  52.235 -10.822  1.00  0.00     0.001 C 
BRANCH  36  37
HETATM   37  C19 UNL     1       3.770  53.471 -10.564  1.00  0.00     0.000 C 
BRANCH  37  38
HETATM   38  C20 UNL     1       3.000  54.791 -10.680  1.00  0.00    -0.000 C 
BRANCH  38  39
HETATM   39  C21 UNL     1       3.928  55.990 -10.475  1.00  0.00    -0.005 C 
HETATM   40  C22 UNL     1       3.588  56.743  -9.198  1.00  0.00     0.005 C 
ENDBRANCH  38  39
ENDBRANCH  37  38
ENDBRANCH  36  37
ENDBRANCH  35  36
ENDBRANCH  31  35
ENDBRANCH  30  31
ENDBRANCH  25  28
ENDBRANCH  23  25
ENDBRANCH  21  23
ENDBRANCH   1  21
TORSDOF 15
ENDMDL
