MODEL 1
REMARK minimizedAffinity -9.83817863
REMARK  7 active torsions:
REMARK  status: ('A' for Active; 'I' for Inactive)
REMARK    1  A    between atoms: C2_2  and  C4_4 
REMARK    2  A    between atoms: C7_7  and  C8_8 
REMARK    3  A    between atoms: C8_8  and  O2_10 
REMARK    4  A    between atoms: C15_17  and  O3_18 
REMARK    5  A    between atoms: C21_24  and  O4_25 
REMARK    6  A    between atoms: C22_26  and  C24_28 
REMARK    7  A    between atoms: C24_28  and  O5_29 
ROOT
HETATM    1  C4  UNL     1       0.130  52.106 -23.151  1.00  0.00     0.019 C 
HETATM    2  C5  UNL     1       0.736  52.932 -24.319  1.00  0.00     0.011 C 
HETATM    3  C6  UNL     1      -0.418  53.234 -25.291  1.00  0.00     0.021 C 
HETATM    4  C7  UNL     1      -1.447  52.140 -24.994  1.00  0.00     0.050 C 
HETATM    5  C9  UNL     1      -2.884  52.455 -25.418  1.00  0.00     0.022 C 
HETATM    6  C10 UNL     1      -3.837  51.371 -24.878  1.00  0.00     0.011 C 
HETATM    7  C11 UNL     1      -3.797  51.151 -23.317  1.00  0.00    -0.032 C 
HETATM    8  C12 UNL     1      -4.433  52.451 -22.724  1.00  0.00     0.016 C 
HETATM    9  C13 UNL     1      -2.304  51.020 -22.842  1.00  0.00     0.003 C 
HETATM   10  C14 UNL     1      -2.224  51.001 -21.311  1.00  0.00     0.038 C 
HETATM   11  C15 UNL     1      -3.245  50.084 -20.627  1.00  0.00     0.124 C 
HETATM   12  C16 UNL     1      -3.946  49.078 -21.573  1.00  0.00     0.032 C 
HETATM   13  C17 UNL     1      -4.881  47.993 -20.802  1.00  0.00    -0.033 C 
HETATM   14  C18 UNL     1      -4.834  46.659 -21.610  1.00  0.00     0.016 C 
HETATM   15  C19 UNL     1      -4.306  47.650 -19.390  1.00  0.00     0.012 C 
HETATM   16  C20 UNL     1      -5.209  46.765 -18.526  1.00  0.00     0.033 C 
HETATM   17  C21 UNL     1      -6.613  47.346 -18.372  1.00  0.00     0.128 C 
HETATM   18  C22 UNL     1      -7.319  47.678 -19.723  1.00  0.00     0.007 C 
HETATM   19  C23 UNL     1      -7.762  46.363 -20.402  1.00  0.00     0.020 C 
HETATM   20  C25 UNL     1      -6.344  48.548 -20.622  1.00  0.00     0.007 C 
HETATM   21  C26 UNL     1      -6.931  48.989 -21.974  1.00  0.00     0.007 C 
HETATM   22  C27 UNL     1      -6.103  50.123 -22.573  1.00  0.00     0.011 C 
HETATM   23  C28 UNL     1      -4.614  49.793 -22.847  1.00  0.00    -0.030 C 
HETATM   24  C29 UNL     1      -4.590  48.766 -24.020  1.00  0.00     0.016 C 
HETATM   25  C30 UNL     1      -1.390  52.115 -23.451  1.00  0.00     0.017 C 
ENDROOT
BRANCH   4  26
HETATM   26  C8  UNL     1      -0.972  50.856 -25.692  1.00  0.00     0.149 C 
HETATM   27  O1  UNL     1       0.147  50.598 -26.099  1.00  0.00    -0.649 OA
BRANCH  26  28
HETATM   28  O2  UNL     1      -1.962  49.954 -25.861  1.00  0.00    -0.776 OA
HETATM   29  H11 UNL     1      -1.524  49.204 -26.314  1.00  0.00     0.167 HD
ENDBRANCH  26  28
ENDBRANCH   4  26
BRANCH   1  30
HETATM   30  C2  UNL     1       0.628  52.636 -21.815  1.00  0.00    -0.088 C 
HETATM   31  C1  UNL     1       0.566  51.963 -20.653  1.00  0.00     0.014 C 
HETATM   32  C3  UNL     1       1.193  54.033 -21.856  1.00  0.00     0.043 C 
ENDBRANCH   1  30
BRANCH  11  33
HETATM   33  O3  UNL     1      -4.202  50.845 -19.899  1.00  0.00    -0.395 OA
HETATM   34  H23 UNL     1      -3.714  51.464 -19.328  1.00  0.00     0.210 HD
ENDBRANCH  11  33
BRANCH  18  35
HETATM   35  C24 UNL     1      -8.609  48.489 -19.364  1.00  0.00     0.176 C 
BRANCH  35  36
HETATM   36  O5  UNL     1      -8.459  49.324 -18.220  1.00  0.00    -0.400 OA
HETATM   37  H39 UNL     1      -7.967  50.116 -18.497  1.00  0.00     0.209 HD
ENDBRANCH  35  36
ENDBRANCH  18  35
BRANCH  17  38
HETATM   38  O4  UNL     1      -6.533  48.502 -17.530  1.00  0.00    -0.395 OA
HETATM   39  H33 UNL     1      -6.008  49.186 -17.984  1.00  0.00     0.210 HD
ENDBRANCH  17  38
TORSDOF 7
ENDMDL
