MODEL 1
REMARK minimizedAffinity -9.57954693
REMARK  6 active torsions:
REMARK  status: ('A' for Active; 'I' for Inactive)
REMARK    1  A    between atoms: C4_4  and  C5_5 
REMARK    2  A    between atoms: C5_5  and  C6_6 
REMARK    3  A    between atoms: C6_6  and  C7_7 
REMARK    4  A    between atoms: C7_7  and  C9_9 
REMARK    5  A    between atoms: C24_24  and  O1_25 
REMARK    6  A    between atoms: C27_28  and  O2_29 
ROOT
HETATM    1  C9  UNL     1       1.284   6.475  12.836  1.00  0.00    -0.002 C 
HETATM    2  C10 UNL     1       0.607   7.789  13.324  1.00  0.00     0.007 C 
HETATM    3  C11 UNL     1      -0.912   7.539  13.365  1.00  0.00     0.015 C 
HETATM    4  C12 UNL     1      -1.061   6.013  13.259  1.00  0.00    -0.013 C 
HETATM    5  C13 UNL     1      -0.858   5.432  14.694  1.00  0.00     0.021 C 
HETATM    6  C14 UNL     1      -2.387   5.428  12.784  1.00  0.00    -0.065 C 
HETATM    7  C15 UNL     1      -2.409   4.220  12.164  1.00  0.00    -0.068 C 
HETATM    8  C16 UNL     1      -1.117   3.469  11.830  1.00  0.00     0.036 C 
HETATM    9  C17 UNL     1       0.222   4.154  12.180  1.00  0.00     0.015 C 
HETATM   10  C18 UNL     1       0.085   5.681  12.231  1.00  0.00    -0.029 C 
HETATM   11  C19 UNL     1      -0.206   6.202  10.789  1.00  0.00     0.016 C 
HETATM   12  C20 UNL     1      -3.733   3.567  11.708  1.00  0.00    -0.014 C 
HETATM   13  C21 UNL     1      -3.920   3.936  10.214  1.00  0.00     0.020 C 
HETATM   14  C22 UNL     1      -3.713   2.019  11.851  1.00  0.00     0.016 C 
HETATM   15  C23 UNL     1      -5.052   1.359  11.520  1.00  0.00     0.033 C 
HETATM   16  C24 UNL     1      -6.196   1.941  12.340  1.00  0.00     0.118 C 
HETATM   17  C25 UNL     1      -6.258   3.464  12.251  1.00  0.00     0.039 C 
HETATM   18  C26 UNL     1      -4.901   4.097  12.602  1.00  0.00     0.029 C 
HETATM   19  C27 UNL     1      -4.953   5.629  12.592  1.00  0.00     0.127 C 
HETATM   20  C28 UNL     1      -3.633   6.229  13.094  1.00  0.00     0.067 C 
ENDROOT
BRANCH   1  21
HETATM   21  C7  UNL     1       2.542   6.751  11.965  1.00  0.00    -0.014 C 
HETATM   22  C8  UNL     1       2.561   8.173  11.392  1.00  0.00     0.010 C 
BRANCH  21  23
HETATM   23  C6  UNL     1       2.722   5.725  10.815  1.00  0.00     0.008 C 
BRANCH  23  24
HETATM   24  C5  UNL     1       3.574   6.206   9.635  1.00  0.00     0.028 C 
BRANCH  24  25
HETATM   25  C4  UNL     1       2.762   6.237   8.368  1.00  0.00    -0.025 C 
HETATM   26  C2  UNL     1       2.468   7.302   7.596  1.00  0.00    -0.091 C 
HETATM   27  C1  UNL     1       1.621   7.140   6.361  1.00  0.00     0.042 C 
HETATM   28  C3  UNL     1       2.927   8.713   7.846  1.00  0.00     0.042 C 
ENDBRANCH  24  25
ENDBRANCH  23  24
ENDBRANCH  21  23
ENDBRANCH   1  21
BRANCH  19  29
HETATM   29  O2  UNL     1      -6.022   6.100  13.417  1.00  0.00    -0.395 OA
HETATM   30  H44 UNL     1      -5.890   5.742  14.311  1.00  0.00     0.210 HD
ENDBRANCH  19  29
BRANCH  16  31
HETATM   31  O1  UNL     1      -7.430   1.382  11.901  1.00  0.00    -0.396 OA
HETATM   32  H39 UNL     1      -7.558   1.632  10.970  1.00  0.00     0.210 HD
ENDBRANCH  16  31
TORSDOF 6
ENDMDL
