MODEL 1
REMARK minimizedAffinity -8.19299603
REMARK CNNscore 0.722478032
REMARK CNNaffinity 7.19988775
REMARK  6 active torsions:
REMARK  status: ('A' for Active; 'I' for Inactive)
REMARK    1  A    between atoms: C2_2  and  C30_31 
REMARK    2  A    between atoms: C3_3  and  C4_4 
REMARK    3  A    between atoms: C4_4  and  C5_5 
REMARK    4  A    between atoms: C5_5  and  C6_6 
REMARK    5  A    between atoms: C6_6  and  C8_8 
REMARK    6  A    between atoms: C30_31  and  O3_33 
ROOT
HETATM    1  C8  UNL     1      -0.101  11.177  17.943  1.00  0.00    -0.002 C 
HETATM    2  C9  UNL     1      -1.112  12.357  18.084  1.00  0.00     0.007 C 
HETATM    3  C10 UNL     1      -2.425  11.927  17.394  1.00  0.00     0.015 C 
HETATM    4  C11 UNL     1      -2.263  10.413  17.173  1.00  0.00    -0.013 C 
HETATM    5  C12 UNL     1      -2.623   9.734  18.543  1.00  0.00     0.021 C 
HETATM    6  C13 UNL     1      -3.149   9.717  16.135  1.00  0.00    -0.070 C 
HETATM    7  C14 UNL     1      -4.467   9.980  16.077  1.00  0.00    -0.022 C 
HETATM    8  C15 UNL     1      -5.453   9.107  15.375  1.00  0.00     0.034 C 
HETATM    9  C16 UNL     1      -4.934   7.660  15.231  1.00  0.00     0.013 C 
HETATM   10  C17 UNL     1      -6.000   6.652  14.657  1.00  0.00     0.018 C 
HETATM   11  C18 UNL     1      -6.652   5.903  15.843  1.00  0.00     0.023 C 
HETATM   12  C19 UNL     1      -7.134   7.351  13.867  1.00  0.00     0.023 C 
HETATM   13  C20 UNL     1      -5.432   5.554  13.740  1.00  0.00     0.135 C 
HETATM   14  O1  UNL     1      -6.179   4.876  13.022  1.00  0.00    -0.297 OA
HETATM   15  C21 UNL     1      -3.960   5.233  13.731  1.00  0.00     0.080 C 
HETATM   16  C22 UNL     1      -3.072   6.170  14.523  1.00  0.00     0.017 C 
HETATM   17  C23 UNL     1      -3.538   7.640  14.539  1.00  0.00    -0.031 C 
HETATM   18  C24 UNL     1      -3.633   8.170  13.082  1.00  0.00     0.016 C 
HETATM   19  C25 UNL     1      -2.506   8.585  15.316  1.00  0.00     0.024 C 
HETATM   20  C26 UNL     1      -1.407   7.887  16.151  1.00  0.00     0.010 C 
HETATM   21  C27 UNL     1      -0.331   8.840  16.738  1.00  0.00     0.011 C 
HETATM   22  C28 UNL     1      -0.742  10.329  16.794  1.00  0.00    -0.029 C 
HETATM   23  C29 UNL     1      -0.390  11.028  15.440  1.00  0.00     0.016 C 
ENDROOT
BRANCH   1  24
HETATM   24  C6  UNL     1       1.371  11.662  17.820  1.00  0.00    -0.014 C 
HETATM   25  C7  UNL     1       1.847  11.729  16.365  1.00  0.00     0.010 C 
BRANCH  24  26
HETATM   26  C5  UNL     1       2.356  10.807  18.659  1.00  0.00     0.008 C 
BRANCH  26  27
HETATM   27  C4  UNL     1       1.899  10.484  20.088  1.00  0.00     0.028 C 
BRANCH  27  28
HETATM   28  C3  UNL     1       3.021  10.692  21.069  1.00  0.00    -0.013 C 
HETATM   29  C2  UNL     1       3.324   9.977  22.173  1.00  0.00     0.008 C 
HETATM   30  C1  UNL     1       4.507  10.335  23.030  1.00  0.00     0.055 C 
BRANCH  29  31
HETATM   31  C30 UNL     1       2.492   8.842  22.637  1.00  0.00     0.171 C 
HETATM   32  O2  UNL     1       1.908   8.021  21.956  1.00  0.00    -0.646 OA
BRANCH  31  33
HETATM   33  O3  UNL     1       2.419   8.797  23.980  1.00  0.00    -0.773 OA
HETATM   34  H46 UNL     1       1.859   8.011  24.147  1.00  0.00     0.167 HD
ENDBRANCH  31  33
ENDBRANCH  29  31
ENDBRANCH  27  28
ENDBRANCH  26  27
ENDBRANCH  24  26
ENDBRANCH   1  24
TORSDOF 6
ENDMDL
