MODEL 1
REMARK minimizedAffinity -9.9000864
REMARK  9 active torsions:
REMARK  status: ('A' for Active; 'I' for Inactive)
REMARK    1  A    between atoms: C2_2  and  C3_3 
REMARK    2  A    between atoms: C2_2  and  C9_12 
REMARK    3  A    between atoms: C3_3  and  C4_4 
REMARK    4  A    between atoms: C4_4  and  O1_5 
REMARK    5  A    between atoms: C4_4  and  C5_6 
REMARK    6  A    between atoms: C5_6  and  O2_7 
REMARK    7  A    between atoms: C5_6  and  C6_8 
REMARK    8  A    between atoms: C6_8  and  O3_11 
REMARK    9  A    between atoms: C15_18  and  O4_19 
ROOT
HETATM    1  C9  UNL     1      -0.663  49.530 -18.547  1.00  0.00    -0.002 C 
HETATM    2  C10 UNL     1      -1.958  48.668 -18.432  1.00  0.00     0.006 C 
HETATM    3  C11 UNL     1      -2.854  48.996 -19.641  1.00  0.00     0.011 C 
HETATM    4  C12 UNL     1      -1.944  49.765 -20.607  1.00  0.00    -0.030 C 
HETATM    5  C13 UNL     1      -1.123  48.692 -21.391  1.00  0.00     0.016 C 
HETATM    6  C14 UNL     1      -2.662  50.720 -21.612  1.00  0.00     0.032 C 
HETATM    7  C15 UNL     1      -3.732  50.047 -22.502  1.00  0.00     0.124 C 
HETATM    8  C16 UNL     1      -3.268  49.427 -23.816  1.00  0.00     0.038 C 
HETATM    9  C17 UNL     1      -2.094  50.081 -24.568  1.00  0.00     0.012 C 
HETATM   10  C18 UNL     1      -2.379  50.443 -26.070  1.00  0.00     0.018 C 
HETATM   11  C19 UNL     1      -2.584  49.163 -26.902  1.00  0.00     0.023 C 
HETATM   12  C20 UNL     1      -3.595  51.364 -26.264  1.00  0.00     0.023 C 
HETATM   13  C21 UNL     1      -1.141  51.157 -26.649  1.00  0.00     0.135 C 
HETATM   14  O5  UNL     1      -1.189  51.809 -27.697  1.00  0.00    -0.297 OA
HETATM   15  C22 UNL     1       0.166  50.966 -25.918  1.00  0.00     0.080 C 
HETATM   16  C23 UNL     1       0.041  51.449 -24.473  1.00  0.00     0.018 C 
HETATM   17  C24 UNL     1      -1.350  51.220 -23.877  1.00  0.00    -0.026 A 
HETATM   18  C25 UNL     1      -2.109  52.462 -23.468  1.00  0.00     0.021 A 
HETATM   19  C26 UNL     1      -1.602  51.532 -22.389  1.00  0.00    -0.025 A 
HETATM   20  C27 UNL     1      -0.512  52.172 -21.516  1.00  0.00     0.011 C 
HETATM   21  C28 UNL     1       0.047  51.277 -20.400  1.00  0.00     0.011 C 
HETATM   22  C29 UNL     1      -1.080  50.617 -19.588  1.00  0.00    -0.032 C 
HETATM   23  C30 UNL     1      -1.882  51.732 -18.842  1.00  0.00     0.016 C 
ENDROOT
BRANCH   1  24
HETATM   24  C2  UNL     1      -0.110  49.945 -17.144  1.00  0.00    -0.011 C 
HETATM   25  C1  UNL     1      -0.981  49.414 -16.001  1.00  0.00     0.010 C 
BRANCH  24  26
HETATM   26  C3  UNL     1       0.013  51.494 -17.061  1.00  0.00     0.039 C 
BRANCH  26  27
HETATM   27  C4  UNL     1       1.448  52.050 -16.945  1.00  0.00     0.150 C 
BRANCH  27  28
HETATM   28  O1  UNL     1       1.662  53.053 -17.942  1.00  0.00    -0.393 OA
HETATM   29  H8  UNL     1       0.950  53.713 -17.857  1.00  0.00     0.210 HD
ENDBRANCH  27  28
BRANCH  27  30
HETATM   30  C5  UNL     1       1.727  52.623 -15.525  1.00  0.00     0.180 C 
BRANCH  30  31
HETATM   31  O2  UNL     1       0.529  52.595 -14.743  1.00  0.00    -0.390 OA
HETATM   32  H10 UNL     1      -0.008  53.367 -14.993  1.00  0.00     0.210 HD
ENDBRANCH  30  31
BRANCH  30  33
HETATM   33  C6  UNL     1       2.885  51.897 -14.767  1.00  0.00     0.079 C 
HETATM   34  C7  UNL     1       4.200  51.887 -15.552  1.00  0.00     0.048 C 
HETATM   35  C8  UNL     1       2.486  50.448 -14.453  1.00  0.00     0.048 C 
BRANCH  33  36
HETATM   36  O3  UNL     1       3.116  52.535 -13.502  1.00  0.00    -0.388 OA
HETATM   37  H17 UNL     1       3.340  53.469 -13.695  1.00  0.00     0.210 HD
ENDBRANCH  33  36
ENDBRANCH  30  33
ENDBRANCH  27  30
ENDBRANCH  26  27
ENDBRANCH  24  26
ENDBRANCH   1  24
BRANCH   7  38
HETATM   38  O4  UNL     1      -4.761  51.007 -22.798  1.00  0.00    -0.395 OA
HETATM   39  H28 UNL     1      -5.506  50.529 -23.202  1.00  0.00     0.210 HD
ENDBRANCH   7  38
TORSDOF 9
ENDMDL
