MODEL 1
REMARK minimizedAffinity -9.42401505
REMARK CNNscore 0.547060966
REMARK CNNaffinity 7.94845438
REMARK  23 active torsions:
REMARK  status: ('A' for Active; 'I' for Inactive)
REMARK    1  A    between atoms: C3_3  and  C4_4 
REMARK    2  A    between atoms: C5_5  and  C6_6 
REMARK    3  A    between atoms: C7_8  and  O2_9 
REMARK    4  A    between atoms: C7_8  and  C8_10 
REMARK    5  A    between atoms: C8_10  and  C10_12 
REMARK       I    between atoms: C10_12  and  N1_14 
REMARK    6  A    between atoms: N1_14  and  C11_15 
REMARK    7  A    between atoms: C11_15  and  C12_16 
REMARK    8  A    between atoms: C13_17  and  C14_18 
REMARK    9  A    between atoms: C15_19  and  C17_21 
REMARK   10  A    between atoms: C17_21  and  O4_22 
REMARK   11  A    between atoms: C17_21  and  C19_24 
REMARK   12  A    between atoms: C19_24  and  C21_26 
REMARK   13  A    between atoms: C23_28  and  O5_29 
REMARK   14  A    between atoms: C24_30  and  C25_31 
REMARK   15  A    between atoms: C26_32  and  C27_33 
REMARK   16  A    between atoms: C28_34  and  C29_35 
REMARK   17  A    between atoms: C30_36  and  C31_37 
REMARK   18  A    between atoms: C31_37  and  O7_39 
REMARK   19  A    between atoms: C32_41  and  O9_42 
REMARK   20  A    between atoms: O9_42  and  C33_43 
REMARK   21  A    between atoms: C33_43  and  C34_45 
REMARK   22  A    between atoms: C34_45  and  C35_46 
REMARK   23  A    between atoms: C41_52  and  O11_53 
ROOT
HETATM    1  C10 UNL     1      -6.116  47.803 -27.175  1.00  0.00     0.227 C 
HETATM    2  O3  UNL     1      -5.396  47.769 -28.171  1.00  0.00    -0.273 OA
HETATM    3  N1  UNL     1      -5.696  48.283 -25.958  1.00  0.00    -0.357 N 
HETATM    4  H14 UNL     1      -6.257  48.028 -25.155  1.00  0.00     0.162 HD
ENDROOT
BRANCH   1   5
HETATM    5  C8  UNL     1      -7.522  47.207 -27.190  1.00  0.00     0.139 C 
HETATM    6  C9  UNL     1      -8.155  47.508 -25.830  1.00  0.00     0.026 C 
BRANCH   5   7
HETATM    7  C7  UNL     1      -8.256  47.797 -28.431  1.00  0.00     0.204 C 
HETATM    8  O1  UNL     1      -7.404  47.512 -29.569  1.00  0.00    -0.342 OA
HETATM    9  C6  UNL     1      -8.079  47.598 -30.822  1.00  0.00     0.158 C 
HETATM   10  C42 UNL     1      -9.037  46.368 -30.986  1.00  0.00     0.011 C 
HETATM   11  C41 UNL     1      -9.684  46.032 -29.603  1.00  0.00     0.163 C 
HETATM   12  C43 UNL     1     -10.158  46.758 -31.980  1.00  0.00     0.020 C 
HETATM   13  C44 UNL     1      -8.315  45.129 -31.563  1.00  0.00     0.020 C 
HETATM   14  C32 UNL     1      -9.713  47.279 -28.707  1.00  0.00     0.224 C 
BRANCH   9  15
HETATM   15  C5  UNL     1      -7.076  47.770 -31.940  1.00  0.00     0.006 C 
HETATM   16  C4  UNL     1      -7.324  47.659 -33.256  1.00  0.00    -0.002 C 
BRANCH  16  17
HETATM   17  C3  UNL     1      -6.296  47.833 -34.255  1.00  0.00    -0.005 C 
HETATM   18  C2  UNL     1      -4.984  47.589 -34.116  1.00  0.00    -0.031 C 
HETATM   19  C1  UNL     1      -4.259  47.053 -32.925  1.00  0.00     0.036 C 
ENDBRANCH  16  17
ENDBRANCH   9  15
BRANCH  11  20
HETATM   20  O11 UNL     1      -8.983  44.987 -28.909  1.00  0.00    -0.392 OA
HETATM   21  H53 UNL     1      -9.239  44.143 -29.321  1.00  0.00     0.210 HD
ENDBRANCH  11  20
BRANCH  14  22
HETATM   22  O9  UNL     1     -10.464  46.989 -27.511  1.00  0.00    -0.307 OA
BRANCH  22  23
HETATM   23  C33 UNL     1     -11.435  47.882 -27.148  1.00  0.00     0.263 C 
HETATM   24  O10 UNL     1     -11.380  48.632 -26.183  1.00  0.00    -0.265 OA
BRANCH  23  25
HETATM   25  C34 UNL     1     -12.552  47.843 -28.168  1.00  0.00     0.149 C 
BRANCH  25  26
HETATM   26  C35 UNL     1     -13.633  46.836 -27.851  1.00  0.00    -0.049 A 
HETATM   27  C36 UNL     1     -14.215  46.795 -26.576  1.00  0.00     0.007 A 
HETATM   28  C37 UNL     1     -15.210  45.860 -26.284  1.00  0.00     0.001 A 
HETATM   29  C38 UNL     1     -15.638  44.964 -27.263  1.00  0.00     0.000 A 
HETATM   30  C39 UNL     1     -15.072  45.004 -28.536  1.00  0.00     0.001 A 
HETATM   31  C40 UNL     1     -14.077  45.937 -28.831  1.00  0.00     0.007 A 
ENDBRANCH  25  26
ENDBRANCH  23  25
ENDBRANCH  22  23
ENDBRANCH  14  22
BRANCH   7  32
HETATM   32  O2  UNL     1      -8.384  49.224 -28.307  1.00  0.00    -0.362 OA
HETATM   33  H9  UNL     1      -7.645  49.557 -27.762  1.00  0.00     0.213 HD
ENDBRANCH   7  32
ENDBRANCH   5   7
ENDBRANCH   1   5
BRANCH   3  34
HETATM   34  C11 UNL     1      -4.305  48.567 -25.709  1.00  0.00     0.149 C 
BRANCH  34  35
HETATM   35  C12 UNL     1      -4.008  48.805 -24.262  1.00  0.00    -0.007 C 
HETATM   36  C13 UNL     1      -4.394  48.070 -23.206  1.00  0.00    -0.002 C 
BRANCH  36  37
HETATM   37  C14 UNL     1      -4.074  48.457 -21.848  1.00  0.00     0.005 C 
HETATM   38  C15 UNL     1      -3.649  47.663 -20.843  1.00  0.00    -0.055 C 
HETATM   39  C16 UNL     1      -3.440  46.171 -20.935  1.00  0.00     0.046 C 
BRANCH  38  40
HETATM   40  C17 UNL     1      -3.370  48.274 -19.467  1.00  0.00     0.155 C 
BRANCH  40  41
HETATM   41  O4  UNL     1      -3.889  47.392 -18.467  1.00  0.00    -0.386 OA
HETATM   42  C18 UNL     1      -2.928  47.014 -17.493  1.00  0.00     0.202 C 
ENDBRANCH  40  41
BRANCH  40  43
HETATM   43  C19 UNL     1      -1.863  48.523 -19.187  1.00  0.00     0.044 C 
HETATM   44  C20 UNL     1      -1.055  48.579 -20.497  1.00  0.00     0.015 C 
BRANCH  43  45
HETATM   45  C21 UNL     1      -1.625  49.821 -18.378  1.00  0.00     0.131 C 
HETATM   46  C22 UNL     1      -0.201  50.078 -17.896  1.00  0.00     0.067 C 
HETATM   47  C23 UNL     1      -0.193  51.585 -17.762  1.00  0.00     0.153 C 
HETATM   48  C24 UNL     1      -0.998  52.008 -18.997  1.00  0.00     0.173 C 
HETATM   49  O8  UNL     1      -1.984  50.972 -19.182  1.00  0.00    -0.374 OA
BRANCH  47  50
HETATM   50  O5  UNL     1       1.109  52.141 -17.673  1.00  0.00    -0.393 OA
HETATM   51  H35 UNL     1       1.662  51.518 -17.172  1.00  0.00     0.210 HD
ENDBRANCH  47  50
BRANCH  48  52
HETATM   52  C25 UNL     1      -0.169  52.176 -20.248  1.00  0.00     0.007 C 
HETATM   53  C26 UNL     1      -0.619  52.372 -21.499  1.00  0.00    -0.001 C 
BRANCH  53  54
HETATM   54  C27 UNL     1       0.272  52.483 -22.632  1.00  0.00    -0.000 C 
HETATM   55  C28 UNL     1      -0.044  52.037 -23.858  1.00  0.00     0.000 C 
BRANCH  55  56
HETATM   56  C29 UNL     1       0.860  52.140 -24.983  1.00  0.00     0.007 C 
HETATM   57  C30 UNL     1       0.685  51.471 -26.133  1.00  0.00     0.081 C 
BRANCH  57  58
HETATM   58  C31 UNL     1       1.662  51.630 -27.217  1.00  0.00     0.165 C 
HETATM   59  O6  UNL     1       2.873  51.668 -27.122  1.00  0.00    -0.647 OA
BRANCH  58  60
HETATM   60  O7  UNL     1       1.033  51.744 -28.397  1.00  0.00    -0.773 OA
HETATM   61  H43 UNL     1       1.767  51.854 -29.038  1.00  0.00     0.167 HD
ENDBRANCH  58  60
ENDBRANCH  57  58
ENDBRANCH  55  56
ENDBRANCH  53  54
ENDBRANCH  48  52
ENDBRANCH  43  45
ENDBRANCH  40  43
ENDBRANCH  38  40
ENDBRANCH  36  37
ENDBRANCH  34  35
ENDBRANCH   3  34
TORSDOF 23
ENDMDL
