MODEL 1
REMARK minimizedAffinity -10.2875004
REMARK  7 active torsions:
REMARK  status: ('A' for Active; 'I' for Inactive)
REMARK    1  A    between atoms: C2_2  and  C30_33 
REMARK    2  A    between atoms: C3_3  and  C4_4 
REMARK    3  A    between atoms: C4_4  and  C5_5 
REMARK    4  A    between atoms: C5_5  and  C6_6 
REMARK    5  A    between atoms: C6_6  and  C8_8 
REMARK    6  A    between atoms: C19_20  and  O2_21 
REMARK    7  A    between atoms: C30_33  and  O5_35 
ROOT
HETATM    1  C8  UNL     1      -1.168  50.708 -25.722  1.00  0.00    -0.002 C 
HETATM    2  C9  UNL     1      -2.145  50.926 -26.909  1.00  0.00     0.007 C 
HETATM    3  C10 UNL     1      -3.566  50.637 -26.367  1.00  0.00     0.018 C 
HETATM    4  C11 UNL     1      -3.336  49.983 -24.992  1.00  0.00     0.025 C 
HETATM    5  C12 UNL     1      -3.131  48.476 -25.270  1.00  0.00     0.024 C 
HETATM    6  C13 UNL     1      -4.457  50.123 -23.959  1.00  0.00     0.147 C 
HETATM    7  O1  UNL     1      -5.582  50.473 -24.327  1.00  0.00    -0.296 OA
HETATM    8  C14 UNL     1      -4.149  49.801 -22.445  1.00  0.00     0.055 C 
HETATM    9  C15 UNL     1      -2.655  50.184 -22.095  1.00  0.00     0.021 C 
HETATM   10  C16 UNL     1      -1.596  50.122 -23.210  1.00  0.00     0.012 C 
HETATM   11  C17 UNL     1      -2.108  50.793 -24.486  1.00  0.00    -0.026 C 
HETATM   12  C18 UNL     1      -2.443  52.282 -24.174  1.00  0.00     0.016 C 
HETATM   13  C19 UNL     1      -5.040  50.743 -21.550  1.00  0.00     0.135 C 
HETATM   14  C20 UNL     1      -5.062  50.031 -20.201  1.00  0.00     0.039 C 
HETATM   15  C21 UNL     1      -5.449  48.597 -20.596  1.00  0.00     0.012 C 
HETATM   16  C22 UNL     1      -5.384  47.539 -19.457  1.00  0.00     0.018 C 
HETATM   17  C23 UNL     1      -6.012  48.102 -18.164  1.00  0.00     0.023 C 
HETATM   18  C24 UNL     1      -6.159  46.260 -19.828  1.00  0.00     0.023 C 
HETATM   19  C25 UNL     1      -3.954  47.107 -19.162  1.00  0.00     0.135 C 
HETATM   20  O3  UNL     1      -3.629  46.633 -18.071  1.00  0.00    -0.297 OA
HETATM   21  C26 UNL     1      -2.914  47.274 -20.236  1.00  0.00     0.080 C 
HETATM   22  C27 UNL     1      -3.485  47.310 -21.652  1.00  0.00     0.018 C 
HETATM   23  C28 UNL     1      -4.627  48.330 -21.920  1.00  0.00    -0.022 C 
HETATM   24  C29 UNL     1      -5.608  47.676 -22.929  1.00  0.00     0.017 C 
ENDROOT
BRANCH  13  25
HETATM   25  O2  UNL     1      -6.404  50.851 -21.955  1.00  0.00    -0.394 OA
HETATM   26  H29 UNL     1      -6.429  50.974 -22.929  1.00  0.00     0.210 HD
ENDBRANCH  13  25
BRANCH   1  27
HETATM   27  C6  UNL     1       0.147  51.544 -25.722  1.00  0.00    -0.014 C 
HETATM   28  C7  UNL     1       0.748  51.517 -27.141  1.00  0.00     0.010 C 
BRANCH  27  29
HETATM   29  C5  UNL     1       0.008  53.011 -25.254  1.00  0.00     0.008 C 
BRANCH  29  30
HETATM   30  C4  UNL     1       0.916  53.360 -24.067  1.00  0.00     0.028 C 
BRANCH  30  31
HETATM   31  C3  UNL     1       0.579  52.523 -22.861  1.00  0.00    -0.013 C 
HETATM   32  C2  UNL     1       0.817  52.797 -21.563  1.00  0.00     0.008 C 
HETATM   33  C1  UNL     1       0.432  51.826 -20.483  1.00  0.00     0.055 C 
BRANCH  32  34
HETATM   34  C30 UNL     1       1.423  54.080 -21.126  1.00  0.00     0.171 C 
HETATM   35  O4  UNL     1       1.881  54.963 -21.828  1.00  0.00    -0.646 OA
BRANCH  34  36
HETATM   36  O5  UNL     1       1.410  54.208 -19.787  1.00  0.00    -0.773 OA
HETATM   37  H46 UNL     1       1.827  55.082 -19.640  1.00  0.00     0.167 HD
ENDBRANCH  34  36
ENDBRANCH  32  34
ENDBRANCH  30  31
ENDBRANCH  29  30
ENDBRANCH  27  29
ENDBRANCH   1  27
TORSDOF 7
ENDMDL
