MODEL 1
REMARK minimizedAffinity -8.67888355
REMARK  10 active torsions:
REMARK  status: ('A' for Active; 'I' for Inactive)
REMARK    1  A    between atoms: C3_3  and  C5_5 
REMARK    2  A    between atoms: C6_6  and  C7_7 
REMARK    3  A    between atoms: C8_8  and  C9_9 
REMARK    4  A    between atoms: C10_10  and  C12_12 
REMARK    5  A    between atoms: C12_12  and  O1_13 
REMARK    6  A    between atoms: C12_12  and  C13_14 
REMARK    7  A    between atoms: C13_14  and  C15_16 
REMARK    8  A    between atoms: C15_16  and  O2_17 
REMARK    9  A    between atoms: C18_20  and  O3_21 
REMARK   10  A    between atoms: C19_22  and  O4_24 
ROOT
HETATM    1  C5  UNL     1      -0.929   6.466  11.298  1.00  0.00     0.058 C 
HETATM    2  C6  UNL     1      -1.589   7.033  12.612  1.00  0.00     0.024 C 
HETATM    3  C16 UNL     1      -0.526   7.356  13.702  1.00  0.00     0.003 C 
HETATM    4  C17 UNL     1      -1.134   7.736  15.071  1.00  0.00     0.040 C 
HETATM    5  C18 UNL     1      -0.061   8.063  16.120  1.00  0.00     0.152 C 
HETATM    6  C19 UNL     1       0.951   9.127  15.626  1.00  0.00     0.080 C 
HETATM    7  C20 UNL     1       2.104   9.317  16.617  1.00  0.00     0.048 C 
HETATM    8  C21 UNL     1       1.510   8.765  14.238  1.00  0.00     0.047 C 
HETATM    9  C22 UNL     1       0.386   8.506  13.219  1.00  0.00     0.025 C 
HETATM   10  C23 UNL     1       0.939   8.245  11.842  1.00  0.00     0.162 A 
HETATM   11  O5  UNL     1       0.038   8.704  10.815  1.00  0.00    -0.368 OA
HETATM   12  C24 UNL     1       0.281   7.291  10.862  1.00  0.00     0.092 A 
HETATM   13  C25 UNL     1       1.043   6.828   9.652  1.00  0.00     0.049 C 
ENDROOT
BRANCH   2  14
HETATM   14  C7  UNL     1      -2.703   6.131  13.115  1.00  0.00    -0.021 C 
HETATM   15  C8  UNL     1      -4.007   6.436  13.019  1.00  0.00    -0.003 C 
BRANCH  15  16
HETATM   16  C9  UNL     1      -5.050   5.559  13.502  1.00  0.00     0.005 C 
HETATM   17  C10 UNL     1      -6.220   5.947  14.049  1.00  0.00    -0.055 C 
HETATM   18  C11 UNL     1      -6.587   7.397  14.248  1.00  0.00     0.046 C 
BRANCH  17  19
HETATM   19  C12 UNL     1      -7.217   4.899  14.524  1.00  0.00     0.152 C 
BRANCH  19  20
HETATM   20  O1  UNL     1      -8.083   5.466  15.500  1.00  0.00    -0.391 OA
HETATM   21  H17 UNL     1      -7.528   5.959  16.125  1.00  0.00     0.210 HD
ENDBRANCH  19  20
BRANCH  19  22
HETATM   22  C13 UNL     1      -7.987   4.161  13.399  1.00  0.00     0.038 C 
HETATM   23  C14 UNL     1      -8.406   5.152  12.304  1.00  0.00     0.015 C 
BRANCH  22  24
HETATM   24  C15 UNL     1      -7.273   2.956  12.769  1.00  0.00     0.171 C 
BRANCH  24  25
HETATM   25  O2  UNL     1      -8.117   1.822  12.650  1.00  0.00    -0.400 OA
HETATM   26  H24 UNL     1      -7.596   1.112  12.243  1.00  0.00     0.209 HD
ENDBRANCH  24  25
ENDBRANCH  22  24
ENDBRANCH  19  22
ENDBRANCH  17  19
ENDBRANCH  15  16
ENDBRANCH   2  14
BRANCH   1  27
HETATM   27  C3  UNL     1      -0.650   4.943  11.319  1.00  0.00    -0.080 C 
HETATM   28  C2  UNL     1      -1.603   4.085  10.896  1.00  0.00    -0.028 C 
HETATM   29  C1  UNL     1      -1.549   2.590  10.866  1.00  0.00     0.036 C 
HETATM   30  C4  UNL     1       0.706   4.486  11.788  1.00  0.00     0.043 C 
ENDBRANCH   1  27
BRANCH   5  31
HETATM   31  O3  UNL     1       0.592   6.859  16.528  1.00  0.00    -0.393 OA
HETATM   32  H29 UNL     1       1.040   6.467  15.762  1.00  0.00     0.210 HD
ENDBRANCH   5  31
BRANCH   6  33
HETATM   33  O4  UNL     1       0.279  10.389  15.497  1.00  0.00    -0.388 OA
HETATM   34  H33 UNL     1       0.006  10.676  16.386  1.00  0.00     0.210 HD
ENDBRANCH   6  33
TORSDOF 10
ENDMDL
