MODEL 1
REMARK minimizedAffinity -7.64141941
REMARK CNNscore 0.525999248
REMARK CNNaffinity 6.80825472
REMARK  16 active torsions:
REMARK  status: ('A' for Active; 'I' for Inactive)
REMARK    1  A    between atoms: S1_2  and  C2_3 
REMARK    2  A    between atoms: C2_3  and  C3_4 
REMARK    3  A    between atoms: C3_4  and  C4_5 
REMARK    4  A    between atoms: C4_5  and  N1_6 
REMARK    5  A    between atoms: C4_5  and  C33_44 
REMARK       I    between atoms: N1_6  and  C5_7 
REMARK    6  A    between atoms: C5_7  and  C6_9 
REMARK    7  A    between atoms: C6_9  and  N2_11 
REMARK       I    between atoms: N2_11  and  C8_12 
REMARK    8  A    between atoms: C8_12  and  C9_14 
REMARK    9  A    between atoms: C9_14  and  C10_15 
REMARK   10  A    between atoms: C10_15  and  C11_16 
REMARK   11  A    between atoms: C11_16  and  O4_18 
REMARK   12  A    between atoms: O4_18  and  C12_19 
REMARK   13  A    between atoms: C12_19  and  C13_20 
REMARK   14  A    between atoms: C13_20  and  C14_22 
REMARK   15  A    between atoms: C14_22  and  O6_23 
REMARK   16  A    between atoms: C33_44  and  O10_46 
ROOT
HETATM    1  C12 UNL     1      -1.210   9.499  17.376  1.00  0.00     0.260 C 
ENDROOT
BRANCH   1   2
HETATM    2  O4  UNL     1      -0.791  10.817  17.709  1.00  0.00    -0.314 OA
BRANCH   2   3
HETATM    3  C11 UNL     1       0.547  10.951  17.936  1.00  0.00     0.259 C 
HETATM    4  O3  UNL     1       1.418  10.485  17.215  1.00  0.00    -0.265 OA
BRANCH   3   5
HETATM    5  C10 UNL     1       0.778  11.701  19.225  1.00  0.00     0.120 C 
BRANCH   5   6
HETATM    6  C9  UNL     1       0.784  10.753  20.416  1.00  0.00     0.112 C 
BRANCH   6   7
HETATM    7  C8  UNL     1       2.193  10.489  20.912  1.00  0.00     0.218 C 
HETATM    8  N2  UNL     1       2.608  11.387  21.872  1.00  0.00    -0.348 N 
HETATM    9  H14 UNL     1       1.866  11.860  22.382  1.00  0.00     0.163 HD
HETATM   10  O2  UNL     1       2.905   9.597  20.463  1.00  0.00    -0.274 OA
BRANCH   8  11
HETATM   11  C6  UNL     1       3.777  11.084  22.691  1.00  0.00     0.172 C 
HETATM   12  C7  UNL     1       4.111   9.602  22.629  1.00  0.00     0.042 C 
BRANCH  11  13
HETATM   13  C5  UNL     1       4.952  11.903  22.123  1.00  0.00     0.240 C 
HETATM   14  N1  UNL     1       5.435  12.881  22.968  1.00  0.00    -0.345 N 
HETATM   15  H9  UNL     1       5.233  12.765  23.954  1.00  0.00     0.163 HD
HETATM   16  O1  UNL     1       5.444  11.658  21.023  1.00  0.00    -0.271 OA
BRANCH  14  17
HETATM   17  C4  UNL     1       6.666  13.604  22.636  1.00  0.00     0.183 C 
BRANCH  17  18
HETATM   18  C3  UNL     1       6.624  15.031  23.198  1.00  0.00     0.046 C 
BRANCH  18  19
HETATM   19  C2  UNL     1       7.255  16.087  22.290  1.00  0.00     0.076 C 
BRANCH  19  20
HETATM   20  S1  UNL     1       6.116  17.397  21.735  1.00  0.00    -0.173 SA
HETATM   21  C1  UNL     1       4.816  17.235  22.981  1.00  0.00     0.089 C 
ENDBRANCH  19  20
ENDBRANCH  18  19
ENDBRANCH  17  18
BRANCH  17  22
HETATM   22  C33 UNL     1       7.889  12.887  23.223  1.00  0.00     0.163 C 
HETATM   23  O9  UNL     1       8.898  13.422  23.655  1.00  0.00    -0.648 OA
BRANCH  22  24
HETATM   24  O10 UNL     1       7.759  11.542  23.305  1.00  0.00    -0.775 OA
HETATM   25  H46 UNL     1       8.621  11.253  23.670  1.00  0.00     0.167 HD
ENDBRANCH  22  24
ENDBRANCH  17  22
ENDBRANCH  14  17
ENDBRANCH  11  13
ENDBRANCH   8  11
ENDBRANCH   6   7
ENDBRANCH   5   6
ENDBRANCH   3   5
ENDBRANCH   2   3
ENDBRANCH   1   2
BRANCH   1  26
HETATM   26  C13 UNL     1      -2.242   9.314  16.256  1.00  0.00     0.185 C 
HETATM   27  O5  UNL     1      -3.271   9.995  16.246  1.00  0.00    -0.292 OA
BRANCH  26  28
HETATM   28  C14 UNL     1      -1.962   8.263  15.157  1.00  0.00     0.128 C 
HETATM   29  C15 UNL     1      -3.177   8.026  14.228  1.00  0.00     0.047 C 
HETATM   30  C16 UNL     1      -2.612   7.628  12.850  1.00  0.00     0.009 C 
HETATM   31  C17 UNL     1      -1.100   7.562  13.056  1.00  0.00     0.002 C 
HETATM   32  C18 UNL     1      -0.172   7.573  11.834  1.00  0.00     0.003 C 
HETATM   33  C31 UNL     1      -0.813   8.622  14.144  1.00  0.00     0.005 C 
HETATM   34  C19 UNL     1      -0.696   8.283  10.568  1.00  0.00     0.010 C 
HETATM   35  C28 UNL     1       1.250   8.096  12.154  1.00  0.00     0.072 C 
HETATM   36  C20 UNL     1       0.421   8.580   9.551  1.00  0.00     0.035 C 
HETATM   37  C21 UNL     1       1.568   7.605   9.696  1.00  0.00    -0.067 C 
HETATM   38  C22 UNL     1       1.874   6.759   8.697  1.00  0.00     0.053 C 
HETATM   39  C26 UNL     1       2.270   7.585  11.070  1.00  0.00    -0.009 C 
HETATM   40  C23 UNL     1       2.929   5.732   8.848  1.00  0.00     0.149 C 
HETATM   41  O7  UNL     1       3.255   5.062   7.868  1.00  0.00    -0.293 OA
HETATM   42  C24 UNL     1       3.598   5.563  10.189  1.00  0.00     0.084 C 
HETATM   43  C25 UNL     1       2.760   6.135  11.332  1.00  0.00     0.022 C 
HETATM   44  C27 UNL     1       3.475   8.551  11.018  1.00  0.00     0.021 C 
HETATM   45  C29 UNL     1       1.617   7.918  13.629  1.00  0.00     0.133 C 
HETATM   46  O8  UNL     1       2.716   7.498  13.988  1.00  0.00    -0.297 OA
HETATM   47  C30 UNL     1       0.618   8.404  14.679  1.00  0.00     0.091 C 
HETATM   48  C32 UNL     1      -0.972  10.072  13.612  1.00  0.00     0.019 C 
BRANCH  28  49
HETATM   49  O6  UNL     1      -1.684   7.001  15.782  1.00  0.00    -0.381 OA
HETATM   50  H21 UNL     1      -1.144   7.174  16.583  1.00  0.00     0.211 HD
ENDBRANCH  28  49
ENDBRANCH  26  28
ENDBRANCH   1  26
TORSDOF 16
ENDMDL
