MODEL 1
REMARK minimizedAffinity -8.96993351
REMARK  4 active torsions:
REMARK  status: ('A' for Active; 'I' for Inactive)
REMARK    1  A    between atoms: C4_4  and  C5_5 
REMARK    2  A    between atoms: C5_5  and  C6_6 
REMARK    3  A    between atoms: C6_6  and  C7_7 
REMARK    4  A    between atoms: C7_7  and  C9_9 
ROOT
HETATM    1  C9  UNL     1      -5.955   7.533  14.468  1.00  0.00    -0.002 C 
HETATM    2  C10 UNL     1      -5.525   8.350  15.723  1.00  0.00     0.007 C 
HETATM    3  C11 UNL     1      -4.044   8.689  15.561  1.00  0.00     0.015 C 
HETATM    4  C12 UNL     1      -3.489   7.505  14.751  1.00  0.00    -0.013 C 
HETATM    5  C13 UNL     1      -3.342   6.304  15.731  1.00  0.00     0.021 C 
HETATM    6  C14 UNL     1      -2.137   7.689  14.084  1.00  0.00    -0.070 C 
HETATM    7  C15 UNL     1      -1.233   8.609  14.455  1.00  0.00    -0.022 C 
HETATM    8  C16 UNL     1       0.053   8.797  13.716  1.00  0.00     0.034 C 
HETATM    9  C17 UNL     1       0.691   7.505  13.135  1.00  0.00     0.013 C 
HETATM   10  C18 UNL     1       1.625   7.813  11.911  1.00  0.00     0.018 C 
HETATM   11  C19 UNL     1       0.905   8.440  10.703  1.00  0.00     0.023 C 
HETATM   12  C20 UNL     1       2.748   8.793  12.339  1.00  0.00     0.023 C 
HETATM   13  C21 UNL     1       2.297   6.506  11.467  1.00  0.00     0.135 C 
HETATM   14  O1  UNL     1       3.488   6.449  11.128  1.00  0.00    -0.297 OA
HETATM   15  C22 UNL     1       1.473   5.241  11.429  1.00  0.00     0.080 C 
HETATM   16  C23 UNL     1      -0.007   5.476  11.666  1.00  0.00     0.017 C 
HETATM   17  C24 UNL     1      -0.323   6.298  12.941  1.00  0.00    -0.031 C 
HETATM   18  C25 UNL     1      -0.127   5.344  14.161  1.00  0.00     0.016 C 
HETATM   19  C26 UNL     1      -1.817   6.811  12.881  1.00  0.00     0.024 C 
HETATM   20  C27 UNL     1      -2.867   5.703  12.592  1.00  0.00     0.010 C 
HETATM   21  C28 UNL     1      -4.350   6.004  12.917  1.00  0.00     0.011 C 
HETATM   22  C29 UNL     1      -4.604   7.324  13.667  1.00  0.00    -0.029 C 
HETATM   23  C30 UNL     1      -4.610   8.463  12.589  1.00  0.00     0.016 C 
ENDROOT
BRANCH   1  24
HETATM   24  C7  UNL     1      -6.855   6.294  14.780  1.00  0.00    -0.014 C 
HETATM   25  C8  UNL     1      -6.700   5.833  16.240  1.00  0.00     0.010 C 
BRANCH  24  26
HETATM   26  C6  UNL     1      -6.641   5.081  13.828  1.00  0.00     0.008 C 
BRANCH  26  27
HETATM   27  C5  UNL     1      -7.890   4.372  13.271  1.00  0.00     0.028 C 
BRANCH  27  28
HETATM   28  C4  UNL     1      -7.586   3.124  12.492  1.00  0.00    -0.025 C 
HETATM   29  C2  UNL     1      -6.382   2.612  12.161  1.00  0.00    -0.091 C 
HETATM   30  C1  UNL     1      -5.050   3.209  12.522  1.00  0.00     0.042 C 
HETATM   31  C3  UNL     1      -6.289   1.328  11.372  1.00  0.00     0.042 C 
ENDBRANCH  27  28
ENDBRANCH  26  27
ENDBRANCH  24  26
ENDBRANCH   1  24
TORSDOF 4
ENDMDL
