MODEL 1
REMARK minimizedAffinity -9.24060249
REMARK CNNscore 0.550785422
REMARK CNNaffinity 6.88051462
REMARK  8 active torsions:
REMARK  status: ('A' for Active; 'I' for Inactive)
REMARK    1  A    between atoms: C4_4  and  C5_5 
REMARK    2  A    between atoms: C5_5  and  C6_6 
REMARK    3  A    between atoms: C6_6  and  C7_7 
REMARK    4  A    between atoms: C7_7  and  C9_9 
REMARK    5  A    between atoms: C25_26  and  C27_28 
REMARK    6  A    between atoms: C27_28  and  O3_30 
REMARK    7  A    between atoms: C28_31  and  O4_32 
REMARK    8  A    between atoms: C30_34  and  O5_35 
ROOT
HETATM    1  C9  UNL     1      -0.606  50.536 -21.768  1.00  0.00    -0.002 C 
HETATM    2  C10 UNL     1      -0.592  50.208 -20.247  1.00  0.00     0.007 C 
HETATM    3  C11 UNL     1      -1.900  49.458 -19.931  1.00  0.00     0.015 C 
HETATM    4  C12 UNL     1      -2.454  49.014 -21.300  1.00  0.00    -0.005 C 
HETATM    5  C13 UNL     1      -1.700  47.705 -21.695  1.00  0.00     0.021 C 
HETATM    6  C14 UNL     1      -3.930  48.665 -21.469  1.00  0.00    -0.000 C 
HETATM    7  C15 UNL     1      -4.563  48.842 -22.660  1.00  0.00    -0.058 C 
HETATM    8  C16 UNL     1      -3.815  49.470 -23.850  1.00  0.00     0.036 C 
HETATM    9  C17 UNL     1      -2.364  49.939 -23.626  1.00  0.00     0.015 C 
HETATM   10  C18 UNL     1      -2.097  50.294 -22.162  1.00  0.00    -0.028 C 
HETATM   11  C19 UNL     1      -2.973  51.525 -21.796  1.00  0.00     0.016 C 
HETATM   12  C20 UNL     1      -6.067  48.487 -22.901  1.00  0.00     0.011 C 
HETATM   13  C21 UNL     1      -6.826  49.829 -22.756  1.00  0.00     0.023 C 
HETATM   14  C22 UNL     1      -6.508  47.409 -21.855  1.00  0.00     0.029 C 
HETATM   15  C23 UNL     1      -6.141  47.820 -20.428  1.00  0.00     0.090 C 
HETATM   16  C24 UNL     1      -4.667  48.097 -20.295  1.00  0.00     0.157 C 
HETATM   17  O1  UNL     1      -4.105  47.904 -19.217  1.00  0.00    -0.293 OA
HETATM   18  C25 UNL     1      -7.982  46.861 -21.983  1.00  0.00     0.072 C 
HETATM   19  C26 UNL     1      -7.961  45.350 -21.620  1.00  0.00     0.030 C 
HETATM   20  C28 UNL     1      -8.542  47.060 -23.419  1.00  0.00     0.139 C 
HETATM   21  C29 UNL     1      -7.463  46.896 -24.483  1.00  0.00     0.065 C 
HETATM   22  C30 UNL     1      -6.278  47.857 -24.328  1.00  0.00     0.133 C 
ENDROOT
BRANCH   1  23
HETATM   23  C7  UNL     1       0.192  51.832 -22.103  1.00  0.00    -0.014 C 
HETATM   24  C8  UNL     1       0.379  52.832 -20.952  1.00  0.00     0.010 C 
BRANCH  23  25
HETATM   25  C6  UNL     1      -0.294  52.613 -23.351  1.00  0.00     0.008 C 
BRANCH  25  26
HETATM   26  C5  UNL     1       0.795  52.970 -24.377  1.00  0.00     0.028 C 
BRANCH  26  27
HETATM   27  C4  UNL     1       0.423  52.694 -25.804  1.00  0.00    -0.025 C 
HETATM   28  C2  UNL     1       1.125  52.013 -26.731  1.00  0.00    -0.091 C 
HETATM   29  C1  UNL     1       2.474  51.384 -26.511  1.00  0.00     0.042 C 
HETATM   30  C3  UNL     1       0.570  51.809 -28.116  1.00  0.00     0.042 C 
ENDBRANCH  26  27
ENDBRANCH  25  26
ENDBRANCH  23  25
ENDBRANCH   1  23
BRANCH  22  31
HETATM   31  O5  UNL     1      -6.371  48.856 -25.349  1.00  0.00    -0.394 OA
HETATM   32  H46 UNL     1      -7.217  49.327 -25.257  1.00  0.00     0.210 HD
ENDBRANCH  22  31
BRANCH  18  33
HETATM   33  C27 UNL     1      -8.941  47.528 -20.991  1.00  0.00     0.151 C 
HETATM   34  O2  UNL     1      -8.697  48.441 -20.223  1.00  0.00    -0.649 OA
BRANCH  33  35
HETATM   35  O3  UNL     1     -10.200  47.054 -21.043  1.00  0.00    -0.776 OA
HETATM   36  H40 UNL     1     -10.666  47.579 -20.356  1.00  0.00     0.167 HD
ENDBRANCH  33  35
ENDBRANCH  18  33
BRANCH  20  37
HETATM   37  O4  UNL     1      -9.586  46.120 -23.690  1.00  0.00    -0.394 OA
HETATM   38  H42 UNL     1      -9.977  46.344 -24.553  1.00  0.00     0.210 HD
ENDBRANCH  20  37
TORSDOF 8
ENDMDL
