MODEL 1
REMARK minimizedAffinity -9.69152641
REMARK CNNscore 0.751928508
REMARK CNNaffinity 6.99534369
REMARK  13 active torsions:
REMARK  status: ('A' for Active; 'I' for Inactive)
REMARK    1  A    between atoms: O1_2  and  C2_3 
REMARK    2  A    between atoms: C2_3  and  C3_4 
REMARK    3  A    between atoms: C3_4  and  C4_5 
REMARK    4  A    between atoms: C4_5  and  O2_6 
REMARK    5  A    between atoms: O2_6  and  C5_7 
REMARK    6  A    between atoms: C20_23  and  C21_24 
REMARK    7  A    between atoms: C21_24  and  O4_26 
REMARK    8  A    between atoms: C21_24  and  C23_27 
REMARK    9  A    between atoms: C23_27  and  O5_28 
REMARK   10  A    between atoms: C23_27  and  C24_29 
REMARK   11  A    between atoms: C25_31  and  C26_32 
REMARK   12  A    between atoms: C26_32  and  O7_33 
REMARK   13  A    between atoms: C35_42  and  O8_43 
ROOT
HETATM    1  C5  UNL     1      -2.120  52.187 -25.537  1.00  0.00     0.122 C 
HETATM    2  C6  UNL     1      -3.532  52.200 -24.950  1.00  0.00     0.033 C 
HETATM    3  C7  UNL     1      -3.525  52.086 -23.424  1.00  0.00     0.013 C 
HETATM    4  C8  UNL     1      -2.763  50.839 -22.880  1.00  0.00    -0.026 C 
HETATM    5  C9  UNL     1      -3.503  49.568 -23.375  1.00  0.00     0.016 C 
HETATM    6  C10 UNL     1      -1.323  50.860 -23.480  1.00  0.00     0.071 C 
HETATM    7  C11 UNL     1      -1.312  50.991 -25.011  1.00  0.00     0.045 C 
HETATM    8  C12 UNL     1      -0.451  51.955 -22.859  1.00  0.00     0.161 C 
HETATM    9  O3  UNL     1       0.288  52.688 -23.513  1.00  0.00    -0.292 OA
HETATM   10  C13 UNL     1      -0.441  52.047 -21.380  1.00  0.00    -0.006 C 
HETATM   11  C14 UNL     1      -1.445  51.459 -20.708  1.00  0.00    -0.030 C 
HETATM   12  C15 UNL     1      -2.743  50.911 -21.292  1.00  0.00     0.027 C 
HETATM   13  C16 UNL     1      -3.251  49.648 -20.529  1.00  0.00     0.011 C 
HETATM   14  C17 UNL     1      -3.170  49.742 -18.981  1.00  0.00     0.014 C 
HETATM   15  C18 UNL     1      -1.734  50.079 -18.543  1.00  0.00    -0.002 C 
HETATM   16  C19 UNL     1      -0.812  48.909 -18.986  1.00  0.00     0.019 C 
HETATM   17  C20 UNL     1      -1.489  50.508 -17.042  1.00  0.00     0.034 C 
HETATM   18  C31 UNL     1      -0.220  51.447 -17.122  1.00  0.00     0.016 C 
HETATM   19  C32 UNL     1       0.016  51.671 -18.626  1.00  0.00     0.026 C 
HETATM   20  C33 UNL     1       0.585  52.964 -19.175  1.00  0.00     0.013 C 
HETATM   21  C34 UNL     1       0.697  52.811 -20.718  1.00  0.00     0.043 C 
HETATM   22  C35 UNL     1      -1.368  51.424 -19.221  1.00  0.00     0.094 C 
ENDROOT
BRANCH  17  23
HETATM   23  C21 UNL     1      -1.547  49.468 -15.865  1.00  0.00     0.087 C 
HETATM   24  C22 UNL     1      -0.192  49.185 -15.204  1.00  0.00     0.049 C 
BRANCH  23  25
HETATM   25  O4  UNL     1      -1.991  48.219 -16.435  1.00  0.00    -0.387 OA
HETATM   26  H33 UNL     1      -2.770  48.405 -16.988  1.00  0.00     0.210 HD
ENDBRANCH  23  25
BRANCH  23  27
HETATM   27  C23 UNL     1      -2.617  49.945 -14.800  1.00  0.00     0.181 C 
BRANCH  27  28
HETATM   28  O5  UNL     1      -3.439  50.986 -15.345  1.00  0.00    -0.390 OA
HETATM   29  H35 UNL     1      -2.895  51.795 -15.265  1.00  0.00     0.210 HD
ENDBRANCH  27  28
BRANCH  27  30
HETATM   30  C24 UNL     1      -2.052  50.416 -13.429  1.00  0.00     0.158 C 
HETATM   31  O6  UNL     1      -1.895  51.860 -13.455  1.00  0.00    -0.375 OA
HETATM   32  C25 UNL     1      -2.623  52.468 -12.365  1.00  0.00     0.149 C 
HETATM   33  C27 UNL     1      -3.642  51.416 -11.929  1.00  0.00     0.019 C 
HETATM   34  C28 UNL     1      -4.186  51.587 -10.516  1.00  0.00     0.013 C 
HETATM   35  C29 UNL     1      -2.907  50.107 -12.181  1.00  0.00     0.019 C 
HETATM   36  C30 UNL     1      -3.817  48.887 -12.258  1.00  0.00     0.013 C 
BRANCH  32  37
HETATM   37  C26 UNL     1      -1.615  52.968 -11.316  1.00  0.00     0.196 C 
BRANCH  37  38
HETATM   38  O7  UNL     1      -1.893  54.302 -10.897  1.00  0.00    -0.398 OA
HETATM   39  H40 UNL     1      -2.752  54.255 -10.434  1.00  0.00     0.209 HD
ENDBRANCH  37  38
ENDBRANCH  32  37
ENDBRANCH  27  30
ENDBRANCH  23  27
ENDBRANCH  17  23
BRANCH  22  40
HETATM   40  O8  UNL     1      -2.270  52.456 -18.771  1.00  0.00    -0.384 OA
HETATM   41  H56 UNL     1      -2.245  53.185 -19.419  1.00  0.00     0.211 HD
ENDBRANCH  22  40
BRANCH   1  42
HETATM   42  O2  UNL     1      -2.163  52.039 -26.961  1.00  0.00    -0.386 OA
BRANCH  42  43
HETATM   43  C4  UNL     1      -3.064  51.050 -27.450  1.00  0.00     0.170 C 
BRANCH  43  44
HETATM   44  C3  UNL     1      -2.616  49.648 -27.043  1.00  0.00     0.052 C 
BRANCH  44  45
HETATM   45  C2  UNL     1      -3.621  48.552 -27.394  1.00  0.00     0.169 C 
BRANCH  45  46
HETATM   46  O1  UNL     1      -4.189  48.745 -28.691  1.00  0.00    -0.396 OA
HETATM   47  C1  UNL     1      -5.442  48.093 -28.860  1.00  0.00     0.201 C 
ENDBRANCH  45  46
ENDBRANCH  44  45
ENDBRANCH  43  44
ENDBRANCH  42  43
ENDBRANCH   1  42
TORSDOF 13
ENDMDL
