MODEL 1
REMARK minimizedAffinity -7.91233778
REMARK CNNscore 0.436839283
REMARK CNNaffinity 6.94077921
REMARK  15 active torsions:
REMARK  status: ('A' for Active; 'I' for Inactive)
REMARK    1  A    between atoms: C2_2  and  O2_4 
REMARK    2  A    between atoms: O2_4  and  C3_5 
REMARK    3  A    between atoms: C3_5  and  C4_6 
REMARK    4  A    between atoms: C4_6  and  C5_8 
REMARK    5  A    between atoms: C5_8  and  O4_9 
REMARK    6  A    between atoms: O4_9  and  C6_10 
REMARK    7  A    between atoms: C6_10  and  C7_12 
REMARK    8  A    between atoms: C7_12  and  C8_13 
REMARK    9  A    between atoms: C8_13  and  C9_14 
REMARK       I    between atoms: C9_14  and  N1_16 
REMARK   10  A    between atoms: N1_16  and  C10_17 
REMARK   11  A    between atoms: C10_17  and  C11_18 
REMARK   12  A    between atoms: C11_18  and  C12_19 
REMARK   13  A    between atoms: C12_19  and  C13_20 
REMARK   14  A    between atoms: C13_20  and  C14_21 
REMARK   15  A    between atoms: C14_21  and  O8_23 
ROOT
HETATM    1  C3  UNL     1      -3.460  49.182 -22.121  1.00  0.00     0.140 C 
HETATM    2  C15 UNL     1      -4.277  49.429 -20.809  1.00  0.00     0.048 C 
HETATM    3  C16 UNL     1      -5.717  48.942 -21.066  1.00  0.00     0.009 C 
HETATM    4  C17 UNL     1      -5.674  48.327 -22.460  1.00  0.00     0.002 C 
HETATM    5  C18 UNL     1      -6.989  48.175 -23.241  1.00  0.00    -0.004 C 
HETATM    6  C19 UNL     1      -8.097  47.431 -22.470  1.00  0.00     0.010 C 
HETATM    7  C20 UNL     1      -8.521  46.105 -23.098  1.00  0.00     0.035 C 
HETATM    8  C21 UNL     1      -8.774  46.166 -24.589  1.00  0.00    -0.068 C 
HETATM    9  C22 UNL     1      -9.587  45.256 -25.154  1.00  0.00     0.053 C 
HETATM   10  C23 UNL     1      -9.758  45.164 -26.623  1.00  0.00     0.149 C 
HETATM   11  O9  UNL     1     -10.611  44.406 -27.079  1.00  0.00    -0.293 OA
HETATM   12  C24 UNL     1      -8.892  46.022 -27.514  1.00  0.00     0.084 C 
HETATM   13  C25 UNL     1      -7.661  46.561 -26.788  1.00  0.00     0.022 C 
HETATM   14  C26 UNL     1      -7.986  47.192 -25.409  1.00  0.00    -0.016 C 
HETATM   15  C27 UNL     1      -8.850  48.457 -25.625  1.00  0.00     0.020 C 
HETATM   16  C28 UNL     1      -6.673  47.517 -24.619  1.00  0.00     0.002 C 
HETATM   17  C29 UNL     1      -5.608  48.331 -25.391  1.00  0.00     0.007 C 
HETATM   18  C30 UNL     1      -4.327  48.530 -24.554  1.00  0.00     0.013 C 
HETATM   19  C31 UNL     1      -4.613  49.198 -23.197  1.00  0.00    -0.001 C 
HETATM   20  C32 UNL     1      -5.123  50.648 -23.464  1.00  0.00     0.019 C 
ENDROOT
BRANCH   1  21
HETATM   21  O2  UNL     1      -2.923  47.841 -21.948  1.00  0.00    -0.301 OA
BRANCH  21  22
HETATM   22  C2  UNL     1      -2.325  47.491 -20.780  1.00  0.00     0.256 C 
HETATM   23  C1  UNL     1      -0.880  47.885 -20.803  1.00  0.00     0.126 C 
HETATM   24  O1  UNL     1      -2.870  46.914 -19.854  1.00  0.00    -0.266 OA
ENDBRANCH  21  22
ENDBRANCH   1  21
BRANCH   1  25
HETATM   25  C4  UNL     1      -2.360  50.277 -22.231  1.00  0.00     0.186 C 
HETATM   26  O3  UNL     1      -1.580  50.354 -23.182  1.00  0.00    -0.292 OA
BRANCH  25  27
HETATM   27  C5  UNL     1      -2.277  51.283 -21.076  1.00  0.00     0.260 C 
BRANCH  27  28
HETATM   28  O4  UNL     1      -0.931  51.557 -20.680  1.00  0.00    -0.314 OA
BRANCH  28  29
HETATM   29  C6  UNL     1      -0.827  52.164 -19.467  1.00  0.00     0.259 C 
HETATM   30  O5  UNL     1      -1.328  51.743 -18.431  1.00  0.00    -0.265 OA
BRANCH  29  31
HETATM   31  C7  UNL     1       0.041  53.385 -19.549  1.00  0.00     0.120 C 
BRANCH  31  32
HETATM   32  C8  UNL     1       1.299  53.063 -20.339  1.00  0.00     0.112 C 
BRANCH  32  33
HETATM   33  C9  UNL     1       1.315  53.769 -21.675  1.00  0.00     0.217 C 
HETATM   34  O6  UNL     1       1.826  54.868 -21.854  1.00  0.00    -0.274 OA
HETATM   35  N1  UNL     1       0.694  53.045 -22.672  1.00  0.00    -0.361 N 
HETATM   36  H10 UNL     1       0.395  52.099 -22.478  1.00  0.00     0.162 HD
BRANCH  35  37
HETATM   37  C10 UNL     1       0.689  53.498 -24.049  1.00  0.00     0.122 C 
BRANCH  37  38
HETATM   38  C11 UNL     1       0.431  52.338 -25.009  1.00  0.00     0.020 C 
BRANCH  38  39
HETATM   39  C12 UNL     1       0.894  52.612 -26.441  1.00  0.00     0.012 C 
BRANCH  39  40
HETATM   40  C13 UNL     1      -0.123  53.396 -27.269  1.00  0.00     0.110 C 
BRANCH  40  41
HETATM   41  C14 UNL     1      -1.452  52.690 -27.333  1.00  0.00     0.139 C 
HETATM   42  O7  UNL     1      -2.503  53.031 -26.822  1.00  0.00    -0.650 OA
BRANCH  41  43
HETATM   43  O8  UNL     1      -1.387  51.568 -28.077  1.00  0.00    -0.776 OA
HETATM   44  H19 UNL     1      -2.300  51.212 -28.049  1.00  0.00     0.167 HD
ENDBRANCH  41  43
ENDBRANCH  40  41
ENDBRANCH  39  40
ENDBRANCH  38  39
ENDBRANCH  37  38
ENDBRANCH  35  37
ENDBRANCH  32  33
ENDBRANCH  31  32
ENDBRANCH  29  31
ENDBRANCH  28  29
ENDBRANCH  27  28
ENDBRANCH  25  27
ENDBRANCH   1  25
TORSDOF 15
ENDMDL
