MODEL 1
REMARK minimizedAffinity -7.4947238
REMARK CNNscore 0.434679717
REMARK CNNaffinity 5.65246344
REMARK  6 active torsions:
REMARK  status: ('A' for Active; 'I' for Inactive)
REMARK    1  A    between atoms: C2_2  and  C30_31 
REMARK    2  A    between atoms: C3_3  and  C4_4 
REMARK    3  A    between atoms: C4_4  and  C5_5 
REMARK    4  A    between atoms: C5_5  and  C6_6 
REMARK    5  A    between atoms: C6_6  and  C8_8 
REMARK    6  A    between atoms: C30_31  and  O2_32 
ROOT
HETATM    1  C8  UNL     1     -13.070  46.094 -26.430  1.00  0.00    -0.002 C 
HETATM    2  C9  UNL     1     -14.226  46.200 -27.481  1.00  0.00     0.007 C 
HETATM    3  C10 UNL     1     -13.583  46.517 -28.850  1.00  0.00     0.015 C 
HETATM    4  C11 UNL     1     -12.090  46.230 -28.640  1.00  0.00    -0.013 C 
HETATM    5  C12 UNL     1     -11.921  44.670 -28.755  1.00  0.00     0.021 C 
HETATM    6  C13 UNL     1     -11.069  46.822 -29.623  1.00  0.00    -0.070 C 
HETATM    7  C14 UNL     1     -11.217  46.640 -30.953  1.00  0.00    -0.022 C 
HETATM    8  C15 UNL     1     -10.087  46.738 -31.943  1.00  0.00     0.034 C 
HETATM    9  C16 UNL     1      -8.732  46.643 -31.210  1.00  0.00     0.013 C 
HETATM   10  C17 UNL     1      -7.465  46.511 -32.114  1.00  0.00     0.018 C 
HETATM   11  C18 UNL     1      -7.190  47.716 -33.019  1.00  0.00     0.023 C 
HETATM   12  C19 UNL     1      -7.581  45.255 -33.003  1.00  0.00     0.023 C 
HETATM   13  C20 UNL     1      -6.238  46.315 -31.202  1.00  0.00     0.135 C 
HETATM   14  O1  UNL     1      -5.150  45.940 -31.647  1.00  0.00    -0.297 OA
HETATM   15  C21 UNL     1      -6.405  46.583 -29.720  1.00  0.00     0.080 C 
HETATM   16  C22 UNL     1      -7.224  47.849 -29.523  1.00  0.00     0.017 C 
HETATM   17  C23 UNL     1      -8.664  47.735 -30.090  1.00  0.00    -0.031 C 
HETATM   18  C24 UNL     1      -9.036  49.161 -30.610  1.00  0.00     0.016 C 
HETATM   19  C25 UNL     1      -9.765  47.379 -29.005  1.00  0.00     0.024 C 
HETATM   20  C26 UNL     1      -9.355  46.484 -27.819  1.00  0.00     0.010 C 
HETATM   21  C27 UNL     1     -10.452  46.393 -26.717  1.00  0.00     0.011 C 
HETATM   22  C28 UNL     1     -11.881  46.781 -27.182  1.00  0.00    -0.029 C 
HETATM   23  C29 UNL     1     -12.093  48.329 -27.064  1.00  0.00     0.016 C 
ENDROOT
BRANCH   1  24
HETATM   24  C6  UNL     1     -13.507  46.595 -25.017  1.00  0.00    -0.014 C 
HETATM   25  C7  UNL     1     -12.573  46.086 -23.915  1.00  0.00     0.010 C 
BRANCH  24  26
HETATM   26  C5  UNL     1     -14.969  46.150 -24.733  1.00  0.00     0.008 C 
BRANCH  26  27
HETATM   27  C4  UNL     1     -15.958  47.257 -24.344  1.00  0.00     0.028 C 
BRANCH  27  28
HETATM   28  C3  UNL     1     -17.374  46.970 -24.761  1.00  0.00    -0.022 C 
HETATM   29  C2  UNL     1     -18.387  46.540 -23.980  1.00  0.00    -0.064 C 
HETATM   30  C1  UNL     1     -18.262  46.233 -22.511  1.00  0.00     0.045 C 
BRANCH  29  31
HETATM   31  C30 UNL     1     -19.766  46.335 -24.551  1.00  0.00     0.197 C 
BRANCH  31  32
HETATM   32  O2  UNL     1     -19.645  45.835 -25.873  1.00  0.00    -0.397 OA
HETATM   33  H48 UNL     1     -20.549  45.747 -26.221  1.00  0.00     0.209 HD
ENDBRANCH  31  32
ENDBRANCH  29  31
ENDBRANCH  27  28
ENDBRANCH  26  27
ENDBRANCH  24  26
ENDBRANCH   1  24
TORSDOF 6
ENDMDL
