MODEL 1
REMARK minimizedAffinity -11.3408146
REMARK CNNscore 0.341328472
REMARK CNNaffinity 7.86689329
REMARK  7 active torsions:
REMARK  status: ('A' for Active; 'I' for Inactive)
REMARK    1  A    between atoms: C2_2  and  C3_3 
REMARK    2  A    between atoms: C9_10  and  O1_11 
REMARK    3  A    between atoms: C18_22  and  C19_23 
REMARK    4  A    between atoms: C33_39  and  C34_40 
REMARK    5  A    between atoms: C34_40  and  O2_41 
REMARK    6  A    between atoms: C35_42  and  C38_45 
REMARK    7  A    between atoms: C39_46  and  O3_47 
ROOT
HETATM    1  C19 UNL     1      -1.106  50.795 -19.868  1.00  0.00    -0.003 C 
HETATM    2  C20 UNL     1      -0.596  50.527 -21.089  1.00  0.00     0.102 C 
HETATM    3  N3  UNL     1      -1.361  50.202 -22.192  1.00  0.00    -0.349 N 
HETATM    4  C21 UNL     1      -1.234  50.847 -23.454  1.00  0.00     0.041 A 
HETATM    5  C22 UNL     1      -0.117  51.495 -23.957  1.00  0.00     0.030 A 
HETATM    6  C23 UNL     1      -0.193  52.106 -25.207  1.00  0.00     0.002 A 
HETATM    7  C24 UNL     1      -1.379  52.070 -25.949  1.00  0.00     0.001 A 
HETATM    8  C25 UNL     1      -2.503  51.408 -25.451  1.00  0.00     0.010 A 
HETATM    9  C26 UNL     1      -2.417  50.805 -24.204  1.00  0.00    -0.018 A 
HETATM   10  C27 UNL     1      -3.451  50.020 -23.446  1.00  0.00     0.041 C 
HETATM   11  C28 UNL     1      -3.605  48.614 -24.036  1.00  0.00     0.046 C 
HETATM   12  C29 UNL     1      -4.836  48.068 -23.336  1.00  0.00     0.239 C 
HETATM   13  N4  UNL     1      -5.784  49.280 -23.237  1.00  0.00    -0.062 N 
HETATM   14  C30 UNL     1      -6.851  49.180 -24.323  1.00  0.00     0.273 C 
HETATM   15  C31 UNL     1      -6.478  49.299 -21.880  1.00  0.00     0.271 C 
HETATM   16  C32 UNL     1      -5.643  49.865 -20.757  1.00  0.00    -0.051 C 
HETATM   17  C33 UNL     1      -5.657  49.336 -19.518  1.00  0.00     0.004 C 
HETATM   18  C35 UNL     1      -4.868  51.139 -21.056  1.00  0.00     0.027 C 
HETATM   19  C36 UNL     1      -5.233  51.630 -22.463  1.00  0.00     0.044 C 
HETATM   20  C37 UNL     1      -4.894  50.548 -23.480  1.00  0.00     0.206 C 
HETATM   21  C38 UNL     1      -3.328  51.034 -21.039  1.00  0.00     0.052 C 
HETATM   22  C39 UNL     1      -2.623  50.802 -19.677  1.00  0.00     0.160 C 
HETATM   23  C40 UNL     1      -2.812  49.976 -22.029  1.00  0.00     0.112 C 
ENDROOT
BRANCH   1  24
HETATM   24  C18 UNL     1      -0.212  51.182 -18.774  1.00  0.00    -0.016 A 
HETATM   25  C3  UNL     1       0.443  52.500 -18.633  1.00  0.00    -0.032 A 
HETATM   26  C4  UNL     1       1.250  52.702 -17.571  1.00  0.00     0.099 A 
HETATM   27  N1  UNL     1       1.480  51.760 -16.573  1.00  0.00    -0.354 N 
HETATM   28  C5  UNL     1       2.569  51.952 -15.586  1.00  0.00     0.133 C 
HETATM   29  C16 UNL     1       0.846  50.501 -16.650  1.00  0.00     0.062 A 
HETATM   30  C6  UNL     1       2.298  51.204 -14.272  1.00  0.00     0.062 C 
HETATM   31  C7  UNL     1       1.770  49.821 -14.494  1.00  0.00    -0.012 A 
HETATM   32  C8  UNL     1       1.814  48.721 -13.735  1.00  0.00     0.033 A 
HETATM   33  C15 UNL     1       1.012  49.561 -15.698  1.00  0.00     0.067 A 
HETATM   34  C9  UNL     1       2.345  48.336 -12.459  1.00  0.00     0.081 A 
HETATM   35  C14 UNL     1       0.989  47.799 -14.545  1.00  0.00     0.046 A 
HETATM   36  C11 UNL     1       2.074  47.091 -12.017  1.00  0.00     0.038 A 
HETATM   37  C12 UNL     1       1.275  46.153 -12.795  1.00  0.00     0.005 A 
HETATM   38  C13 UNL     1       0.755  46.450 -13.996  1.00  0.00     0.030 A 
HETATM   39  N2  UNL     1       0.529  48.270 -15.663  1.00  0.00    -0.353 N 
ATOM     40  H2  UNL     1      -0.052  47.796 -16.354  1.00  0.00     0.166 HD
HETATM   41  C17 UNL     1      -0.006  50.257 -17.809  1.00  0.00     0.044 A 
BRANCH  25  42
HETATM   42  C2  UNL     1       0.226  53.597 -19.648  1.00  0.00     0.036 C 
HETATM   43  C1  UNL     1       1.366  53.730 -20.650  1.00  0.00     0.010 C 
ENDBRANCH  25  42
BRANCH  34  44
HETATM   44  O1  UNL     1       3.068  49.314 -11.819  1.00  0.00    -0.355 OA
HETATM   45  C10 UNL     1       3.161  50.587 -12.467  1.00  0.00     0.210 C 
ENDBRANCH  34  44
ENDBRANCH   1  24
BRANCH  22  46
HETATM   46  O3  UNL     1      -3.087  51.817 -18.791  1.00  0.00    -0.390 OA
HETATM   47  H42 UNL     1      -2.317  52.248 -18.387  1.00  0.00     0.210 HD
ENDBRANCH  22  46
BRANCH  17  48
HETATM   48  C34 UNL     1      -6.402  48.111 -19.093  1.00  0.00     0.191 C 
BRANCH  48  49
HETATM   49  O2  UNL     1      -6.669  48.262 -17.700  1.00  0.00    -0.397 OA
HETATM   50  H35 UNL     1      -7.272  47.532 -17.456  1.00  0.00     0.209 HD
ENDBRANCH  48  49
ENDBRANCH  17  48
TORSDOF 7
ENDMDL
