MODEL 1
REMARK minimizedAffinity -10.1576319
REMARK  8 active torsions:
REMARK  status: ('A' for Active; 'I' for Inactive)
REMARK    1  A    between atoms: C2_2  and  C3_3 
REMARK    2  A    between atoms: C2_2  and  C11_14 
REMARK    3  A    between atoms: C3_3  and  C4_4 
REMARK    4  A    between atoms: C4_4  and  C5_5 
REMARK       I    between atoms: C5_5  and  N1_7 
REMARK    5  A    between atoms: N1_7  and  C6_8 
REMARK    6  A    between atoms: C6_8  and  C7_9 
REMARK    7  A    between atoms: C16_19  and  O3_20 
REMARK    8  A    between atoms: C20_24  and  O4_25 
ROOT
HETATM    1  C11 UNL     1      -0.627  51.286 -20.710  1.00  0.00    -0.002 C 
HETATM    2  C12 UNL     1      -0.058  52.734 -20.616  1.00  0.00     0.006 C 
HETATM    3  C13 UNL     1       0.446  52.938 -19.183  1.00  0.00     0.006 C 
HETATM    4  C14 UNL     1       0.395  51.546 -18.576  1.00  0.00     0.001 C 
HETATM    5  C15 UNL     1       0.462  51.425 -17.043  1.00  0.00     0.024 C 
HETATM    6  C16 UNL     1       1.769  52.062 -16.510  1.00  0.00     0.123 C 
HETATM    7  C17 UNL     1       2.269  51.444 -15.199  1.00  0.00     0.037 C 
HETATM    8  C18 UNL     1       1.091  50.948 -14.350  1.00  0.00    -0.001 C 
HETATM    9  C19 UNL     1       1.502  50.665 -12.889  1.00  0.00     0.037 C 
HETATM   10  C20 UNL     1       2.175  49.317 -12.662  1.00  0.00     0.118 C 
HETATM   11  C21 UNL     1       1.347  48.179 -13.246  1.00  0.00     0.032 C 
HETATM   12  C22 UNL     1       1.054  48.399 -14.728  1.00  0.00     0.012 C 
HETATM   13  C23 UNL     1       0.357  49.753 -15.053  1.00  0.00    -0.036 C 
HETATM   14  C24 UNL     1      -1.090  49.714 -14.501  1.00  0.00     0.016 C 
HETATM   15  C25 UNL     1       0.378  49.931 -16.631  1.00  0.00     0.001 C 
HETATM   16  C26 UNL     1      -0.745  49.156 -17.366  1.00  0.00     0.007 C 
HETATM   17  C27 UNL     1      -0.791  49.405 -18.882  1.00  0.00     0.010 C 
HETATM   18  C28 UNL     1      -0.866  50.909 -19.212  1.00  0.00    -0.036 C 
HETATM   19  C29 UNL     1      -2.190  51.519 -18.694  1.00  0.00     0.016 C 
ENDROOT
BRANCH   1  20
HETATM   20  C2  UNL     1      -1.805  51.194 -21.729  1.00  0.00    -0.013 C 
HETATM   21  C1  UNL     1      -1.980  49.783 -22.294  1.00  0.00     0.010 C 
BRANCH  20  22
HETATM   22  C3  UNL     1      -1.601  52.221 -22.879  1.00  0.00     0.014 C 
BRANCH  22  23
HETATM   23  C4  UNL     1      -2.790  52.351 -23.836  1.00  0.00     0.103 C 
BRANCH  23  24
HETATM   24  C5  UNL     1      -2.418  52.697 -25.267  1.00  0.00     0.217 C 
HETATM   25  O1  UNL     1      -3.206  52.702 -26.204  1.00  0.00    -0.274 OA
HETATM   26  N1  UNL     1      -1.079  52.998 -25.403  1.00  0.00    -0.359 N 
HETATM   27  H9  UNL     1      -0.444  52.688 -24.675  1.00  0.00     0.162 HD
BRANCH  26  28
HETATM   28  C6  UNL     1      -0.484  53.196 -26.713  1.00  0.00     0.154 C 
BRANCH  28  29
HETATM   29  C7  UNL     1       0.050  51.872 -27.273  1.00  0.00     0.139 C 
HETATM   30  C8  UNL     1       0.723  51.010 -26.216  1.00  0.00     0.035 C 
HETATM   31  C9  UNL     1       2.165  51.442 -26.303  1.00  0.00     0.029 C 
HETATM   32  C10 UNL     1       2.328  51.698 -27.785  1.00  0.00     0.168 C 
HETATM   33  O2  UNL     1       1.061  52.167 -28.266  1.00  0.00    -0.384 OA
ENDBRANCH  28  29
ENDBRANCH  26  28
ENDBRANCH  23  24
ENDBRANCH  22  23
ENDBRANCH  20  22
ENDBRANCH   1  20
BRANCH   6  34
HETATM   34  O3  UNL     1       1.525  53.457 -16.306  1.00  0.00    -0.395 OA
HETATM   35  H27 UNL     1       2.364  53.861 -16.030  1.00  0.00     0.210 HD
ENDBRANCH   6  34
BRANCH  10  36
HETATM   36  O4  UNL     1       3.474  49.332 -13.246  1.00  0.00    -0.396 OA
HETATM   37  H34 UNL     1       3.887  48.471 -13.063  1.00  0.00     0.210 HD
ENDBRANCH  10  36
TORSDOF 8
ENDMDL
