MODEL 1
REMARK minimizedAffinity -9.90774918
REMARK  8 active torsions:
REMARK  status: ('A' for Active; 'I' for Inactive)
REMARK    1  A    between atoms: C2_2  and  C3_3 
REMARK    2  A    between atoms: C2_2  and  C11_14 
REMARK    3  A    between atoms: C3_3  and  C4_4 
REMARK    4  A    between atoms: C4_4  and  C5_5 
REMARK       I    between atoms: C5_5  and  N1_7 
REMARK    5  A    between atoms: N1_7  and  C6_8 
REMARK    6  A    between atoms: C6_8  and  C7_9 
REMARK    7  A    between atoms: C16_19  and  O3_20 
REMARK    8  A    between atoms: C20_24  and  O4_25 
ROOT
HETATM    1  C11 UNL     1      -5.703   6.805  13.665  1.00  0.00    -0.002 C 
HETATM    2  C12 UNL     1      -5.704   8.349  13.878  1.00  0.00     0.006 C 
HETATM    3  C13 UNL     1      -4.286   8.854  13.592  1.00  0.00     0.006 C 
HETATM    4  C14 UNL     1      -3.585   7.651  12.983  1.00  0.00     0.001 C 
HETATM    5  C15 UNL     1      -2.047   7.665  12.925  1.00  0.00     0.024 C 
HETATM    6  C16 UNL     1      -1.551   8.888  12.115  1.00  0.00     0.123 C 
HETATM    7  C17 UNL     1      -0.198   8.667  11.428  1.00  0.00     0.037 C 
HETATM    8  C18 UNL     1       0.675   7.708  12.247  1.00  0.00    -0.001 C 
HETATM    9  C19 UNL     1       2.155   7.744  11.807  1.00  0.00     0.037 C 
HETATM   10  C20 UNL     1       2.477   6.913  10.572  1.00  0.00     0.118 C 
HETATM   11  C21 UNL     1       1.967   5.484  10.718  1.00  0.00     0.032 C 
HETATM   12  C22 UNL     1       0.471   5.449  11.023  1.00  0.00     0.012 C 
HETATM   13  C23 UNL     1       0.050   6.270  12.278  1.00  0.00    -0.036 C 
HETATM   14  C24 UNL     1       0.595   5.559  13.542  1.00  0.00     0.016 C 
HETATM   15  C25 UNL     1      -1.536   6.346  12.286  1.00  0.00     0.001 C 
HETATM   16  C26 UNL     1      -2.223   5.082  12.859  1.00  0.00     0.007 C 
HETATM   17  C27 UNL     1      -3.753   5.190  12.962  1.00  0.00     0.010 C 
HETATM   18  C28 UNL     1      -4.185   6.444  13.748  1.00  0.00    -0.036 C 
HETATM   19  C29 UNL     1      -3.717   6.357  15.220  1.00  0.00     0.016 C 
ENDROOT
BRANCH   1  20
HETATM   20  C2  UNL     1      -6.721   6.092  14.608  1.00  0.00    -0.013 C 
HETATM   21  C1  UNL     1      -6.249   6.065  16.063  1.00  0.00     0.010 C 
BRANCH  20  22
HETATM   22  C3  UNL     1      -7.004   4.649  14.099  1.00  0.00     0.014 C 
BRANCH  22  23
HETATM   23  C4  UNL     1      -7.581   4.575  12.682  1.00  0.00     0.103 C 
BRANCH  23  24
HETATM   24  C5  UNL     1      -8.729   5.531  12.414  1.00  0.00     0.217 C 
HETATM   25  O1  UNL     1      -8.976   6.027  11.321  1.00  0.00    -0.274 OA
HETATM   26  N1  UNL     1      -9.467   5.796  13.548  1.00  0.00    -0.359 N 
HETATM   27  H9  UNL     1      -9.043   5.604  14.449  1.00  0.00     0.162 HD
BRANCH  26  28
HETATM   28  C6  UNL     1     -10.507   6.809  13.546  1.00  0.00     0.154 C 
BRANCH  28  29
HETATM   29  C7  UNL     1     -10.549   7.547  14.891  1.00  0.00     0.139 C 
HETATM   30  C8  UNL     1     -11.641   8.604  14.954  1.00  0.00     0.035 C 
HETATM   31  C9  UNL     1     -10.931   9.845  14.478  1.00  0.00     0.029 C 
HETATM   32  C10 UNL     1      -9.545   9.656  15.055  1.00  0.00     0.168 C 
HETATM   33  O2  UNL     1      -9.294   8.244  15.072  1.00  0.00    -0.384 OA
ENDBRANCH  28  29
ENDBRANCH  26  28
ENDBRANCH  23  24
ENDBRANCH  22  23
ENDBRANCH  20  22
ENDBRANCH   1  20
BRANCH   6  34
HETATM   34  O3  UNL     1      -1.444   9.994  13.015  1.00  0.00    -0.395 OA
HETATM   35  H27 UNL     1      -1.190  10.772  12.491  1.00  0.00     0.210 HD
ENDBRANCH   6  34
BRANCH  10  36
HETATM   36  O4  UNL     1       1.901   7.527   9.423  1.00  0.00    -0.396 OA
HETATM   37  H34 UNL     1       2.145   6.990   8.650  1.00  0.00     0.210 HD
ENDBRANCH  10  36
TORSDOF 8
ENDMDL
