MODEL 1
REMARK minimizedAffinity -8.83116341
REMARK CNNscore 0.48942405
REMARK CNNaffinity 7.54370928
REMARK  10 active torsions:
REMARK  status: ('A' for Active; 'I' for Inactive)
REMARK    1  A    between atoms: C19_20  and  O2_21 
REMARK    2  A    between atoms: C19_20  and  C20_22 
REMARK    3  A    between atoms: C20_22  and  C21_24 
REMARK    4  A    between atoms: C21_24  and  O4_25 
REMARK    5  A    between atoms: O4_25  and  C22_26 
REMARK    6  A    between atoms: C22_26  and  C23_28 
REMARK    7  A    between atoms: C23_28  and  C24_29 
REMARK    8  A    between atoms: C24_29  and  C25_30 
REMARK       I    between atoms: C25_30  and  N1_32 
REMARK    9  A    between atoms: N1_32  and  C26_33 
REMARK   10  A    between atoms: C26_33  and  C27_34 
ROOT
HETATM    1  C1  UNL     1      -5.680  46.530 -20.821  1.00  0.00     0.020 C 
HETATM    2  C2  UNL     1      -6.251  47.902 -21.278  1.00  0.00    -0.016 C 
HETATM    3  C3  UNL     1      -6.512  48.769 -20.013  1.00  0.00     0.022 C 
HETATM    4  C4  UNL     1      -7.660  48.264 -19.150  1.00  0.00     0.084 C 
HETATM    5  C5  UNL     1      -8.915  48.172 -19.979  1.00  0.00     0.149 C 
HETATM    6  O1  UNL     1     -10.036  48.345 -19.505  1.00  0.00    -0.293 OA
HETATM    7  C6  UNL     1      -8.779  47.777 -21.402  1.00  0.00     0.053 C 
HETATM    8  C7  UNL     1      -7.576  47.617 -21.982  1.00  0.00    -0.068 C 
HETATM    9  C8  UNL     1      -7.487  47.041 -23.368  1.00  0.00     0.035 C 
HETATM   10  C9  UNL     1      -6.612  47.903 -24.251  1.00  0.00     0.010 C 
HETATM   11  C10 UNL     1      -5.183  48.070 -23.699  1.00  0.00    -0.004 C 
HETATM   12  C11 UNL     1      -5.164  48.579 -22.217  1.00  0.00     0.002 C 
HETATM   13  C12 UNL     1      -5.054  50.122 -22.207  1.00  0.00     0.007 C 
HETATM   14  C13 UNL     1      -3.746  50.635 -22.866  1.00  0.00     0.013 C 
HETATM   15  C14 UNL     1      -3.225  49.760 -24.033  1.00  0.00    -0.002 C 
HETATM   16  C15 UNL     1      -2.132  48.776 -23.520  1.00  0.00     0.019 C 
HETATM   17  C16 UNL     1      -4.434  49.033 -24.647  1.00  0.00     0.002 C 
HETATM   18  C17 UNL     1      -3.899  48.442 -25.950  1.00  0.00     0.009 C 
HETATM   19  C18 UNL     1      -2.799  49.422 -26.404  1.00  0.00     0.047 C 
HETATM   20  C19 UNL     1      -2.700  50.512 -25.307  1.00  0.00     0.128 C 
ENDROOT
BRANCH  20  21
HETATM   21  O2  UNL     1      -3.579  51.573 -25.712  1.00  0.00    -0.381 OA
HETATM   22  H27 UNL     1      -3.561  52.255 -25.016  1.00  0.00     0.211 HD
ENDBRANCH  20  21
BRANCH  20  23
HETATM   23  C20 UNL     1      -1.311  51.154 -25.159  1.00  0.00     0.185 C 
HETATM   24  O3  UNL     1      -0.339  50.719 -25.788  1.00  0.00    -0.292 OA
BRANCH  23  25
HETATM   25  C21 UNL     1      -1.140  52.235 -24.091  1.00  0.00     0.260 C 
BRANCH  25  26
HETATM   26  O4  UNL     1       0.210  52.322 -23.629  1.00  0.00    -0.314 OA
BRANCH  26  27
HETATM   27  C22 UNL     1       0.692  53.596 -23.590  1.00  0.00     0.259 C 
HETATM   28  O5  UNL     1       0.838  54.310 -24.576  1.00  0.00    -0.265 OA
BRANCH  27  29
HETATM   29  C23 UNL     1       1.090  54.008 -22.190  1.00  0.00     0.120 C 
BRANCH  29  30
HETATM   30  C24 UNL     1       1.594  52.851 -21.330  1.00  0.00     0.112 C 
BRANCH  30  31
HETATM   31  C25 UNL     1       0.703  52.630 -20.124  1.00  0.00     0.218 C 
HETATM   32  O6  UNL     1      -0.452  52.224 -20.215  1.00  0.00    -0.274 OA
HETATM   33  N1  UNL     1       1.306  52.952 -18.929  1.00  0.00    -0.357 N 
HETATM   34  H34 UNL     1       2.305  53.109 -18.920  1.00  0.00     0.162 HD
BRANCH  33  35
HETATM   35  C26 UNL     1       0.663  52.659 -17.667  1.00  0.00     0.162 C 
BRANCH  35  36
HETATM   36  C27 UNL     1       1.667  52.276 -16.620  1.00  0.00    -0.025 A 
HETATM   37  C28 UNL     1       2.993  52.713 -16.684  1.00  0.00     0.011 A 
HETATM   38  C29 UNL     1       3.892  52.350 -15.685  1.00  0.00     0.018 A 
HETATM   39  C30 UNL     1       3.430  51.571 -14.640  1.00  0.00     0.087 A 
HETATM   40  N2  UNL     1       2.156  51.143 -14.531  1.00  0.00    -0.375 N 
HETATM   41  C31 UNL     1       1.307  51.504 -15.521  1.00  0.00     0.096 A 
ATOM     42  H2  UNL     1       1.848  50.575 -13.742  1.00  0.00     0.164 HD
ENDBRANCH  35  36
ENDBRANCH  33  35
ENDBRANCH  30  31
ENDBRANCH  29  30
ENDBRANCH  27  29
ENDBRANCH  26  27
ENDBRANCH  25  26
ENDBRANCH  23  25
ENDBRANCH  20  23
TORSDOF 10
ENDMDL
