MODEL 1
REMARK minimizedAffinity -9.1032486
REMARK CNNscore 0.590419531
REMARK CNNaffinity 7.23937607
REMARK  14 active torsions:
REMARK  status: ('A' for Active; 'I' for Inactive)
REMARK    1  A    between atoms: O1_2  and  C2_3 
REMARK    2  A    between atoms: C2_3  and  C3_4 
REMARK    3  A    between atoms: C3_4  and  C4_5 
REMARK    4  A    between atoms: C4_5  and  O2_6 
REMARK    5  A    between atoms: O2_6  and  C5_7 
REMARK    6  A    between atoms: C18_21  and  C19_22 
REMARK    7  A    between atoms: C25_28  and  C26_29 
REMARK    8  A    between atoms: C26_29  and  O4_31 
REMARK    9  A    between atoms: C26_29  and  C28_32 
REMARK   10  A    between atoms: C28_32  and  O5_33 
REMARK   11  A    between atoms: C28_32  and  C29_34 
REMARK   12  A    between atoms: C33_39  and  C34_40 
REMARK       I    between atoms: C34_40  and  N1_42 
REMARK   13  A    between atoms: C37_46  and  O8_47 
REMARK   14  A    between atoms: C42_52  and  O9_53 
ROOT
HETATM    1  C5  UNL     1     -14.466  44.746 -28.630  1.00  0.00     0.122 C 
HETATM    2  C6  UNL     1     -13.888  46.163 -28.519  1.00  0.00     0.033 C 
HETATM    3  C7  UNL     1     -13.905  46.694 -27.088  1.00  0.00     0.013 C 
HETATM    4  C8  UNL     1     -13.197  45.779 -26.017  1.00  0.00    -0.026 C 
HETATM    5  C9  UNL     1     -14.176  45.716 -24.811  1.00  0.00     0.016 C 
HETATM    6  C10 UNL     1     -12.997  44.344 -26.577  1.00  0.00     0.071 C 
HETATM    7  C11 UNL     1     -14.242  43.900 -27.370  1.00  0.00     0.045 C 
HETATM    8  C12 UNL     1     -11.775  44.181 -27.477  1.00  0.00     0.154 C 
HETATM    9  O3  UNL     1     -11.663  43.250 -28.271  1.00  0.00    -0.293 OA
HETATM   10  C13 UNL     1     -10.642  45.114 -27.353  1.00  0.00     0.057 C 
HETATM   11  C14 UNL     1     -10.633  46.082 -26.429  1.00  0.00    -0.037 C 
HETATM   12  C15 UNL     1     -11.835  46.431 -25.555  1.00  0.00     0.026 C 
HETATM   13  C16 UNL     1     -11.428  46.256 -24.069  1.00  0.00     0.011 C 
HETATM   14  C17 UNL     1     -10.166  47.074 -23.704  1.00  0.00     0.014 C 
HETATM   15  C18 UNL     1      -8.937  46.709 -24.581  1.00  0.00     0.005 C 
HETATM   16  C25 UNL     1      -7.781  47.801 -24.601  1.00  0.00     0.034 C 
HETATM   17  C40 UNL     1      -7.084  47.554 -25.973  1.00  0.00     0.012 C 
HETATM   18  C41 UNL     1      -8.099  46.825 -26.878  1.00  0.00     0.044 C 
HETATM   19  C42 UNL     1      -9.409  46.899 -26.096  1.00  0.00     0.090 C 
ENDROOT
BRANCH  16  20
HETATM   20  C26 UNL     1      -6.851  48.216 -23.420  1.00  0.00     0.087 C 
HETATM   21  C27 UNL     1      -6.224  46.947 -22.786  1.00  0.00     0.049 C 
BRANCH  20  22
HETATM   22  O4  UNL     1      -7.725  48.725 -22.364  1.00  0.00    -0.387 OA
HETATM   23  H42 UNL     1      -8.434  48.074 -22.225  1.00  0.00     0.210 HD
ENDBRANCH  20  22
BRANCH  20  24
HETATM   24  C28 UNL     1      -5.723  49.304 -23.557  1.00  0.00     0.181 C 
BRANCH  24  25
HETATM   25  O5  UNL     1      -6.377  50.457 -24.145  1.00  0.00    -0.390 OA
HETATM   26  H44 UNL     1      -6.896  50.060 -24.880  1.00  0.00     0.210 HD
ENDBRANCH  24  25
BRANCH  24  27
HETATM   27  C29 UNL     1      -4.472  49.017 -24.422  1.00  0.00     0.158 C 
HETATM   28  O6  UNL     1      -4.458  49.865 -25.602  1.00  0.00    -0.373 OA
HETATM   29  C30 UNL     1      -3.129  50.370 -25.773  1.00  0.00     0.185 C 
HETATM   30  C31 UNL     1      -2.629  50.525 -24.359  1.00  0.00     0.028 C 
HETATM   31  C37 UNL     1      -3.067  51.722 -26.503  1.00  0.00     0.384 C 
HETATM   32  C32 UNL     1      -1.147  50.860 -24.378  1.00  0.00     0.053 C 
HETATM   33  C38 UNL     1      -3.078  49.207 -23.756  1.00  0.00     0.020 C 
HETATM   34  C33 UNL     1      -0.820  51.940 -25.443  1.00  0.00     0.309 C 
HETATM   35  N2  UNL     1      -2.003  52.617 -26.044  1.00  0.00     0.128 N 
HETATM   36  H55 UNL     1      -2.411  53.203 -25.311  1.00  0.00     0.320 HD
HETATM   37  C39 UNL     1      -2.980  49.162 -22.240  1.00  0.00     0.013 C 
BRANCH  34  38
HETATM   38  C34 UNL     1       0.211  51.426 -26.478  1.00  0.00     0.233 C 
HETATM   39  O7  UNL     1       0.013  50.399 -27.128  1.00  0.00    -0.277 OA
HETATM   40  N1  UNL     1       1.400  52.155 -26.535  1.00  0.00    -0.249 NA
HETATM   41  C35 UNL     1       2.671  51.502 -26.463  1.00  0.00     0.113 A 
HETATM   42  C36 UNL     1       2.204  52.130 -27.725  1.00  0.00     0.113 A 
ENDBRANCH  34  38
BRANCH  31  43
HETATM   43  O8  UNL     1      -2.876  51.518 -27.890  1.00  0.00    -0.366 OA
HETATM   44  H57 UNL     1      -2.087  52.057 -28.073  1.00  0.00     0.212 HD
ENDBRANCH  31  43
ENDBRANCH  24  27
ENDBRANCH  20  24
ENDBRANCH  16  20
BRANCH  15  45
HETATM   45  C19 UNL     1      -8.322  45.276 -24.181  1.00  0.00    -0.002 C 
HETATM   46  C20 UNL     1      -8.886  44.678 -22.870  1.00  0.00     0.005 C 
HETATM   47  C21 UNL     1      -8.043  43.518 -22.324  1.00  0.00     0.000 C 
HETATM   48  C22 UNL     1      -7.195  42.827 -23.382  1.00  0.00     0.000 C 
HETATM   49  C23 UNL     1      -7.931  42.760 -24.709  1.00  0.00     0.000 C 
HETATM   50  C24 UNL     1      -8.356  44.142 -25.233  1.00  0.00     0.005 C 
ENDBRANCH  15  45
BRANCH  19  51
HETATM   51  O9  UNL     1      -9.865  48.256 -26.307  1.00  0.00    -0.384 OA
HETATM   52  H66 UNL     1     -10.077  48.351 -27.251  1.00  0.00     0.211 HD
ENDBRANCH  19  51
BRANCH   1  53
HETATM   53  O2  UNL     1     -15.880  44.823 -28.851  1.00  0.00    -0.386 OA
BRANCH  53  54
HETATM   54  C4  UNL     1     -16.520  43.553 -28.713  1.00  0.00     0.170 C 
BRANCH  54  55
HETATM   55  C3  UNL     1     -17.963  43.735 -28.263  1.00  0.00     0.052 C 
BRANCH  55  56
HETATM   56  C2  UNL     1     -18.949  42.947 -29.119  1.00  0.00     0.169 C 
BRANCH  56  57
HETATM   57  O1  UNL     1     -19.562  43.811 -30.086  1.00  0.00    -0.396 OA
HETATM   58  C1  UNL     1     -19.241  43.452 -31.426  1.00  0.00     0.201 C 
ENDBRANCH  56  57
ENDBRANCH  55  56
ENDBRANCH  54  55
ENDBRANCH  53  54
ENDBRANCH   1  53
TORSDOF 14
ENDMDL
