MODEL 1
REMARK minimizedAffinity -7.09872055
REMARK CNNscore 0.863089561
REMARK CNNaffinity 6.34485245
REMARK  10 active torsions:
REMARK  status: ('A' for Active; 'I' for Inactive)
REMARK    1  A    between atoms: C9_9  and  O1_10 
REMARK    2  A    between atoms: C11_12  and  O2_13 
REMARK    3  A    between atoms: O2_13  and  C12_14 
REMARK    4  A    between atoms: C14_16  and  O3_17 
REMARK    5  A    between atoms: C15_18  and  O4_19 
REMARK    6  A    between atoms: C16_20  and  C17_21 
REMARK    7  A    between atoms: C17_21  and  O5_22 
REMARK    8  A    between atoms: C20_26  and  C21_27 
REMARK    9  A    between atoms: C22_29  and  O8_30 
REMARK   10  A    between atoms: C25_33  and  C26_34 
ROOT
HETATM    1  C1  UNL     1       2.758  54.750  -7.177  1.00  0.00     0.019 C 
HETATM    2  C2  UNL     1       2.582  54.911  -8.701  1.00  0.00    -0.005 C 
HETATM    3  C3  UNL     1       1.226  55.628  -8.960  1.00  0.00     0.013 C 
HETATM    4  C4  UNL     1       0.002  54.746  -8.705  1.00  0.00     0.007 C 
HETATM    5  C5  UNL     1       0.056  53.487  -9.586  1.00  0.00     0.011 C 
HETATM    6  C6  UNL     1       1.359  52.687  -9.306  1.00  0.00     0.026 C 
HETATM    7  C7  UNL     1       1.389  51.356 -10.093  1.00  0.00     0.011 C 
HETATM    8  C8  UNL     1       0.350  51.292 -11.206  1.00  0.00     0.039 C 
HETATM    9  C9  UNL     1      -1.096  51.482 -10.699  1.00  0.00     0.074 C 
HETATM   10  C10 UNL     1      -1.971  51.850 -11.921  1.00  0.00     0.071 C 
HETATM   11  C11 UNL     1      -3.459  51.920 -11.568  1.00  0.00     0.127 C 
HETATM   12  C18 UNL     1      -3.710  52.614 -10.226  1.00  0.00     0.033 C 
HETATM   13  C19 UNL     1      -2.507  53.426  -9.750  1.00  0.00     0.022 C 
HETATM   14  C20 UNL     1      -1.219  52.568  -9.556  1.00  0.00     0.048 C 
HETATM   15  C22 UNL     1       2.647  53.547  -9.457  1.00  0.00     0.070 C 
HETATM   16  C23 UNL     1       2.994  53.928 -10.906  1.00  0.00     0.040 C 
HETATM   17  C24 UNL     1       3.655  55.311 -10.857  1.00  0.00     0.013 C 
HETATM   18  C25 UNL     1       3.728  55.743  -9.375  1.00  0.00     0.028 C 
ENDROOT
BRANCH  11  19
HETATM   19  O2  UNL     1      -3.935  50.571 -11.458  1.00  0.00    -0.356 OA
BRANCH  19  20
HETATM   20  C12 UNL     1      -4.533  50.262 -10.204  1.00  0.00     0.263 C 
HETATM   21  C13 UNL     1      -6.051  50.169 -10.299  1.00  0.00     0.095 C 
HETATM   22  C14 UNL     1      -6.468  48.936 -11.088  1.00  0.00     0.154 C 
HETATM   23  C15 UNL     1      -5.803  47.671 -10.527  1.00  0.00     0.178 C 
HETATM   24  C16 UNL     1      -4.289  47.837 -10.350  1.00  0.00     0.179 C 
HETATM   25  O6  UNL     1      -3.978  49.063  -9.658  1.00  0.00    -0.351 OA
BRANCH  22  26
HETATM   26  O3  UNL     1      -7.893  48.811 -11.002  1.00  0.00    -0.393 OA
HETATM   27  H22 UNL     1      -8.065  48.244 -10.222  1.00  0.00     0.210 HD
ENDBRANCH  22  26
BRANCH  23  28
HETATM   28  O4  UNL     1      -6.405  47.413  -9.235  1.00  0.00    -0.390 OA
HETATM   29  H24 UNL     1      -5.907  47.935  -8.576  1.00  0.00     0.210 HD
ENDBRANCH  23  28
BRANCH  24  30
HETATM   30  C17 UNL     1      -3.450  47.636 -11.625  1.00  0.00     0.198 C 
BRANCH  30  31
HETATM   31  O5  UNL     1      -4.148  47.977 -12.816  1.00  0.00    -0.398 OA
HETATM   32  H28 UNL     1      -3.508  47.909 -13.551  1.00  0.00     0.209 HD
ENDBRANCH  30  31
ENDBRANCH  24  30
ENDBRANCH  19  20
ENDBRANCH  11  19
BRANCH   9  33
HETATM   33  O1  UNL     1      -1.512  50.196 -10.210  1.00  0.00    -0.389 OA
HETATM   34  H14 UNL     1      -2.287  49.903 -10.741  1.00  0.00     0.210 HD
ENDBRANCH   9  33
BRANCH  14  35
HETATM   35  C21 UNL     1      -1.397  51.879  -8.190  1.00  0.00     0.244 C 
HETATM   36  O7  UNL     1      -1.587  52.451  -7.119  1.00  0.00    -0.306 OA
ENDBRANCH  14  35
BRANCH  15  37
HETATM   37  O8  UNL     1       3.763  52.811  -8.933  1.00  0.00    -0.389 OA
HETATM   38  H34 UNL     1       3.742  51.901  -9.266  1.00  0.00     0.210 HD
ENDBRANCH  15  37
BRANCH  18  39
HETATM   39  C26 UNL     1       5.119  55.630  -8.795  1.00  0.00    -0.045 A 
HETATM   40  C27 UNL     1       5.581  56.056  -7.617  1.00  0.00     0.087 A 
HETATM   41  C28 UNL     1       6.983  55.666  -7.529  1.00  0.00     0.283 A 
HETATM   42  O9  UNL     1       7.716  55.913  -6.590  1.00  0.00    -0.260 OA
HETATM   43  O10 UNL     1       7.326  54.976  -8.650  1.00  0.00    -0.314 OA
HETATM   44  C29 UNL     1       6.196  54.913  -9.520  1.00  0.00     0.213 A 
ENDBRANCH  18  39
TORSDOF 10
ENDMDL
