MODEL 1
REMARK minimizedAffinity -7.59625578
REMARK CNNscore 0.713306487
REMARK CNNaffinity 6.49044275
REMARK  7 active torsions:
REMARK  status: ('A' for Active; 'I' for Inactive)
REMARK    1  A    between atoms: C4_4  and  C5_5 
REMARK    2  A    between atoms: C5_5  and  C6_6 
REMARK    3  A    between atoms: C6_6  and  C7_7 
REMARK    4  A    between atoms: C7_7  and  C9_9 
REMARK    5  A    between atoms: C16_16  and  O1_17 
REMARK    6  A    between atoms: C18_19  and  O2_20 
REMARK    7  A    between atoms: C19_21  and  O3_22 
ROOT
HETATM    1  C9  UNL     1       6.039  55.854  -8.095  1.00  0.00    -0.002 C 
HETATM    2  C10 UNL     1       6.809  54.735  -8.856  1.00  0.00     0.006 C 
HETATM    3  C11 UNL     1       5.758  53.821  -9.504  1.00  0.00     0.011 C 
HETATM    4  C12 UNL     1       4.463  54.652  -9.513  1.00  0.00    -0.032 C 
HETATM    5  C13 UNL     1       4.553  55.618 -10.736  1.00  0.00     0.016 C 
HETATM    6  C14 UNL     1       3.162  53.808  -9.592  1.00  0.00     0.006 C 
HETATM    7  C15 UNL     1       2.918  53.158 -10.961  1.00  0.00     0.038 C 
HETATM    8  C16 UNL     1       1.663  52.288 -10.930  1.00  0.00     0.126 C 
HETATM    9  C17 UNL     1       0.416  53.168 -10.751  1.00  0.00     0.055 C 
HETATM   10  C18 UNL     1      -0.862  52.329 -10.522  1.00  0.00     0.154 C 
HETATM   11  C19 UNL     1      -2.104  53.222 -10.262  1.00  0.00     0.147 C 
HETATM   12  C20 UNL     1      -1.828  54.712 -10.480  1.00  0.00     0.035 C 
HETATM   13  C21 UNL     1      -0.614  55.221  -9.694  1.00  0.00     0.013 C 
HETATM   14  C22 UNL     1       0.526  54.206  -9.645  1.00  0.00    -0.023 A 
HETATM   15  C23 UNL     1       0.951  53.778  -8.261  1.00  0.00     0.021 A 
HETATM   16  C24 UNL     1       1.922  54.594  -9.095  1.00  0.00    -0.027 A 
HETATM   17  C25 UNL     1       2.126  56.060  -8.697  1.00  0.00     0.011 C 
HETATM   18  C26 UNL     1       3.477  56.458  -8.075  1.00  0.00     0.011 C 
HETATM   19  C27 UNL     1       4.551  55.363  -8.109  1.00  0.00    -0.032 C 
HETATM   20  C28 UNL     1       4.293  54.417  -6.907  1.00  0.00     0.016 C 
ENDROOT
BRANCH   1  21
HETATM   21  C7  UNL     1       6.773  56.333  -6.804  1.00  0.00    -0.014 C 
HETATM   22  C8  UNL     1       7.239  55.242  -5.827  1.00  0.00     0.010 C 
BRANCH  21  23
HETATM   23  C6  UNL     1       6.017  57.419  -6.005  1.00  0.00     0.008 C 
BRANCH  23  24
HETATM   24  C5  UNL     1       6.714  57.835  -4.704  1.00  0.00     0.028 C 
BRANCH  24  25
HETATM   25  C4  UNL     1       7.591  59.037  -4.930  1.00  0.00    -0.025 C 
HETATM   26  C2  UNL     1       8.931  59.085  -5.055  1.00  0.00    -0.091 C 
HETATM   27  C1  UNL     1       9.628  60.401  -5.290  1.00  0.00     0.042 C 
HETATM   28  C3  UNL     1       9.862  57.905  -4.981  1.00  0.00     0.042 C 
ENDBRANCH  24  25
ENDBRANCH  23  24
ENDBRANCH  21  23
ENDBRANCH   1  21
BRANCH   8  29
HETATM   29  O1  UNL     1       1.599  51.579 -12.171  1.00  0.00    -0.395 OA
HETATM   30  H28 UNL     1       0.665  51.299 -12.284  1.00  0.00     0.210 HD
ENDBRANCH   8  29
BRANCH  10  31
HETATM   31  O2  UNL     1      -1.080  51.498 -11.674  1.00  0.00    -0.393 OA
HETATM   32  H31 UNL     1      -1.889  50.977 -11.511  1.00  0.00     0.210 HD
ENDBRANCH  10  31
BRANCH  11  33
HETATM   33  O3  UNL     1      -2.561  53.049  -8.917  1.00  0.00    -0.393 OA
HETATM   34  H33 UNL     1      -2.827  52.120  -8.806  1.00  0.00     0.210 HD
ENDBRANCH  11  33
TORSDOF 7
ENDMDL
