MODEL 1
REMARK minimizedAffinity -9.16449261
REMARK  4 active torsions:
REMARK  status: ('A' for Active; 'I' for Inactive)
REMARK    1  A    between atoms: C4_4  and  C5_5 
REMARK    2  A    between atoms: C5_5  and  C6_6 
REMARK    3  A    between atoms: C6_6  and  C7_7 
REMARK    4  A    between atoms: C7_7  and  C9_9 
ROOT
HETATM    1  C9  UNL     1      -5.682   6.428  14.603  1.00  0.00    -0.002 C 
HETATM    2  C10 UNL     1      -6.282   7.435  13.575  1.00  0.00     0.007 C 
HETATM    3  C11 UNL     1      -5.108   8.189  12.924  1.00  0.00     0.015 C 
HETATM    4  C12 UNL     1      -3.889   7.852  13.807  1.00  0.00    -0.013 C 
HETATM    5  C13 UNL     1      -3.946   8.842  15.015  1.00  0.00     0.021 C 
HETATM    6  C14 UNL     1      -2.499   8.002  13.199  1.00  0.00    -0.070 C 
HETATM    7  C15 UNL     1      -2.222   8.897  12.237  1.00  0.00    -0.022 C 
HETATM    8  C16 UNL     1      -0.870   9.135  11.646  1.00  0.00     0.034 C 
HETATM    9  C17 UNL     1       0.321   8.340  12.241  1.00  0.00     0.013 C 
HETATM   10  C18 UNL     1       1.008   7.351  11.231  1.00  0.00     0.018 C 
HETATM   11  C19 UNL     1       1.524   8.121   9.992  1.00  0.00     0.023 C 
HETATM   12  C20 UNL     1       0.097   6.211  10.759  1.00  0.00     0.023 C 
HETATM   13  C21 UNL     1       2.249   6.723  11.892  1.00  0.00     0.135 C 
HETATM   14  O1  UNL     1       3.087   6.093  11.243  1.00  0.00    -0.297 OA
HETATM   15  C22 UNL     1       2.428   6.916  13.379  1.00  0.00     0.080 C 
HETATM   16  C23 UNL     1       1.094   6.690  14.067  1.00  0.00     0.017 C 
HETATM   17  C24 UNL     1       0.024   7.750  13.677  1.00  0.00    -0.031 C 
HETATM   18  C25 UNL     1       0.131   8.925  14.692  1.00  0.00     0.016 C 
HETATM   19  C26 UNL     1      -1.406   7.093  13.745  1.00  0.00     0.024 C 
HETATM   20  C27 UNL     1      -1.764   6.484  15.125  1.00  0.00     0.010 C 
HETATM   21  C28 UNL     1      -3.183   5.880  15.243  1.00  0.00     0.011 C 
HETATM   22  C29 UNL     1      -4.182   6.350  14.162  1.00  0.00    -0.029 C 
HETATM   23  C30 UNL     1      -4.081   5.390  12.934  1.00  0.00     0.016 C 
ENDROOT
BRANCH   1  24
HETATM   24  C7  UNL     1      -6.536   5.126  14.717  1.00  0.00    -0.014 C 
HETATM   25  C8  UNL     1      -7.453   5.145  15.943  1.00  0.00     0.010 C 
BRANCH  24  26
HETATM   26  C6  UNL     1      -7.378   4.929  13.423  1.00  0.00     0.008 C 
BRANCH  26  27
HETATM   27  C5  UNL     1      -7.238   3.574  12.716  1.00  0.00     0.028 C 
BRANCH  27  28
HETATM   28  C4  UNL     1      -5.812   3.195  12.427  1.00  0.00    -0.025 C 
HETATM   29  C2  UNL     1      -5.373   2.129  11.728  1.00  0.00    -0.091 C 
HETATM   30  C1  UNL     1      -3.900   1.875  11.558  1.00  0.00     0.042 C 
HETATM   31  C3  UNL     1      -6.259   1.120  11.050  1.00  0.00     0.042 C 
ENDBRANCH  27  28
ENDBRANCH  26  27
ENDBRANCH  24  26
ENDBRANCH   1  24
TORSDOF 4
ENDMDL
