MODEL 1
REMARK minimizedAffinity -7.15029907
REMARK CNNscore 0.662960589
REMARK CNNaffinity 6.53213167
REMARK  12 active torsions:
REMARK  status: ('A' for Active; 'I' for Inactive)
REMARK    1  A    between atoms: O1_2  and  C2_3 
REMARK    2  A    between atoms: C2_3  and  C3_4 
REMARK    3  A    between atoms: C3_4  and  C4_5 
REMARK    4  A    between atoms: C4_5  and  N1_6 
REMARK    5  A    between atoms: N1_6  and  C5_7 
REMARK    6  A    between atoms: C5_7  and  C6_8 
REMARK    7  A    between atoms: C10_12  and  O2_13 
REMARK    8  A    between atoms: C16_19  and  O3_20 
REMARK    9  A    between atoms: C25_29  and  C26_30 
REMARK   10  A    between atoms: C33_37  and  O4_38 
REMARK   11  A    between atoms: C36_41  and  C37_42 
REMARK   12  A    between atoms: C38_44  and  O6_45 
ROOT
HETATM    1  C6  UNL     1      10.332  63.120  -5.144  1.00  0.00    -0.022 C 
HETATM    2  C7  UNL     1       9.810  62.077  -5.837  1.00  0.00    -0.014 C 
HETATM    3  C8  UNL     1       9.601  60.734  -5.184  1.00  0.00     0.021 C 
HETATM    4  C9  UNL     1       8.406  59.884  -5.621  1.00  0.00     0.051 C 
HETATM    5  C10 UNL     1       8.468  58.732  -4.592  1.00  0.00     0.098 C 
HETATM    6  C11 UNL     1       8.762  59.471  -3.221  1.00  0.00    -0.002 C 
HETATM    7  C12 UNL     1       9.699  58.658  -2.313  1.00  0.00     0.019 C 
HETATM    8  C13 UNL     1       7.454  59.774  -2.434  1.00  0.00     0.013 C 
HETATM    9  C14 UNL     1       6.458  58.627  -2.394  1.00  0.00     0.010 C 
HETATM   10  C15 UNL     1       6.037  58.238  -3.827  1.00  0.00     0.041 C 
HETATM   11  C16 UNL     1       7.267  57.722  -4.593  1.00  0.00     0.095 C 
HETATM   12  C17 UNL     1       6.872  57.304  -6.018  1.00  0.00     0.049 C 
HETATM   13  C18 UNL     1       5.766  56.234  -6.047  1.00  0.00     0.025 C 
HETATM   14  C19 UNL     1       5.633  55.695  -7.505  1.00  0.00     0.013 C 
HETATM   15  C20 UNL     1       4.242  55.211  -7.954  1.00  0.00    -0.002 C 
HETATM   16  C21 UNL     1       3.323  56.404  -8.354  1.00  0.00     0.013 C 
HETATM   17  C22 UNL     1       3.407  56.736  -9.838  1.00  0.00    -0.026 C 
HETATM   18  C23 UNL     1       4.098  56.025 -10.738  1.00  0.00    -0.030 C 
HETATM   19  C24 UNL     1       4.806  54.750 -10.406  1.00  0.00     0.032 C 
HETATM   20  C25 UNL     1       4.285  54.141  -9.093  1.00  0.00    -0.002 C 
HETATM   21  C31 UNL     1       3.594  57.719  -7.596  1.00  0.00     0.019 C 
HETATM   22  C32 UNL     1       3.633  57.758  -6.056  1.00  0.00     0.051 C 
HETATM   23  C33 UNL     1       2.214  57.847  -5.436  1.00  0.00     0.125 C 
HETATM   24  C34 UNL     1       2.220  57.706  -3.907  1.00  0.00     0.033 C 
HETATM   25  C35 UNL     1       3.559  58.102  -3.302  1.00  0.00     0.023 C 
HETATM   26  C36 UNL     1       4.786  57.273  -3.844  1.00  0.00     0.051 C 
HETATM   27  C38 UNL     1       4.482  56.694  -5.300  1.00  0.00     0.082 C 
HETATM   28  C39 UNL     1       9.350  60.866  -3.666  1.00  0.00     0.036 C 
HETATM   29  C40 UNL     1      10.527  61.613  -3.132  1.00  0.00    -0.035 C 
HETATM   30  C41 UNL     1      11.580  61.287  -2.390  1.00  0.00     0.088 C 
HETATM   31  C42 UNL     1      12.506  62.419  -2.486  1.00  0.00     0.284 C 
HETATM   32  O7  UNL     1      13.587  62.469  -1.927  1.00  0.00    -0.260 OA
HETATM   33  O8  UNL     1      11.998  63.361  -3.323  1.00  0.00    -0.304 OA
HETATM   34  C43 UNL     1      10.661  63.013  -3.653  1.00  0.00     0.192 C 
ENDROOT
BRANCH   1  35
HETATM   35  C5  UNL     1      10.482  64.481  -5.779  1.00  0.00     0.306 C 
BRANCH  35  36
HETATM   36  N1  UNL     1       9.826  64.543  -7.075  1.00  0.00     0.087 N 
HETATM   37  H10 UNL     1       9.330  65.428  -7.165  1.00  0.00     0.316 HD
BRANCH  36  38
HETATM   38  C4  UNL     1      10.774  64.384  -8.175  1.00  0.00     0.272 C 
BRANCH  38  39
HETATM   39  C3  UNL     1      10.607  65.502  -9.203  1.00  0.00     0.056 C 
BRANCH  39  40
HETATM   40  C2  UNL     1      10.668  64.990 -10.642  1.00  0.00     0.168 C 
BRANCH  40  41
HETATM   41  O1  UNL     1      11.992  64.549 -10.960  1.00  0.00    -0.396 OA
HETATM   42  C1  UNL     1      12.040  63.792 -12.162  1.00  0.00     0.201 C 
ENDBRANCH  40  41
ENDBRANCH  39  40
ENDBRANCH  38  39
ENDBRANCH  36  38
ENDBRANCH  35  36
ENDBRANCH   1  35
BRANCH   5  43
HETATM   43  O2  UNL     1       9.633  57.928  -4.931  1.00  0.00    -0.386 OA
HETATM   44  H17 UNL     1       9.659  57.796  -5.896  1.00  0.00     0.210 HD
ENDBRANCH   5  43
BRANCH  11  45
HETATM   45  O3  UNL     1       7.721  56.523  -3.938  1.00  0.00    -0.386 OA
HETATM   46  H26 UNL     1       8.696  56.507  -4.054  1.00  0.00     0.210 HD
ENDBRANCH  11  45
BRANCH  26  47
HETATM   47  C37 UNL     1       5.046  56.095  -2.886  1.00  0.00     0.244 C 
HETATM   48  O5  UNL     1       4.180  55.504  -2.245  1.00  0.00    -0.306 OA
ENDBRANCH  26  47
BRANCH  27  49
HETATM   49  O6  UNL     1       3.628  55.541  -5.132  1.00  0.00    -0.388 OA
HETATM   50  H58 UNL     1       4.166  54.752  -4.942  1.00  0.00     0.210 HD
ENDBRANCH  27  49
BRANCH  23  51
HETATM   51  O4  UNL     1       1.356  56.841  -5.966  1.00  0.00    -0.395 OA
HETATM   52  H52 UNL     1       1.798  55.991  -5.755  1.00  0.00     0.210 HD
ENDBRANCH  23  51
BRANCH  20  53
HETATM   53  C26 UNL     1       5.055  52.848  -8.734  1.00  0.00    -0.010 C 
HETATM   54  C27 UNL     1       6.518  52.857  -9.203  1.00  0.00     0.005 C 
HETATM   55  C28 UNL     1       6.902  51.393  -9.431  1.00  0.00     0.000 C 
HETATM   56  C29 UNL     1       5.631  50.580  -9.215  1.00  0.00     0.000 C 
HETATM   57  C30 UNL     1       4.499  51.581  -9.386  1.00  0.00     0.005 C 
ENDBRANCH  20  53
TORSDOF 12
ENDMDL
