MODEL 1
REMARK minimizedAffinity -8.46430969
REMARK CNNscore 0.432314783
REMARK CNNaffinity 6.55942345
REMARK  9 active torsions:
REMARK  status: ('A' for Active; 'I' for Inactive)
REMARK    1  A    between atoms: C2_2  and  C3_3 
REMARK    2  A    between atoms: C2_2  and  C9_12 
REMARK    3  A    between atoms: C3_3  and  C4_4 
REMARK    4  A    between atoms: C4_4  and  O1_5 
REMARK    5  A    between atoms: C4_4  and  C5_6 
REMARK    6  A    between atoms: C5_6  and  O2_7 
REMARK    7  A    between atoms: C5_6  and  C6_8 
REMARK    8  A    between atoms: C6_8  and  O3_11 
REMARK    9  A    between atoms: C16_19  and  O4_20 
ROOT
HETATM    1  C9  UNL     1      -0.416  12.780  18.881  1.00  0.00     0.097 A 
HETATM    2  C10 UNL     1      -1.733  13.434  19.171  1.00  0.00     0.042 C 
HETATM    3  C11 UNL     1      -2.690  12.974  18.062  1.00  0.00     0.016 C 
HETATM    4  C12 UNL     1      -1.859  12.279  16.918  1.00  0.00    -0.002 C 
HETATM    5  C13 UNL     1      -1.785  13.266  15.726  1.00  0.00     0.019 C 
HETATM    6  C14 UNL     1      -0.466  12.114  17.523  1.00  0.00     0.104 A 
HETATM    7  C15 UNL     1       0.500  11.132  16.936  1.00  0.00     0.074 C 
HETATM    8  C16 UNL     1      -0.114   9.831  16.401  1.00  0.00     0.126 C 
HETATM    9  C17 UNL     1      -1.445  10.056  15.619  1.00  0.00     0.032 C 
HETATM   10  C18 UNL     1      -2.084   8.805  14.788  1.00  0.00    -0.032 C 
HETATM   11  C19 UNL     1      -1.971   9.188  13.284  1.00  0.00     0.016 C 
HETATM   12  C20 UNL     1      -1.318   7.481  15.028  1.00  0.00     0.017 C 
HETATM   13  C21 UNL     1      -1.901   6.218  14.406  1.00  0.00     0.080 C 
HETATM   14  C22 UNL     1      -3.253   6.356  13.765  1.00  0.00     0.135 C 
HETATM   15  O5  UNL     1      -3.546   5.616  12.821  1.00  0.00    -0.297 OA
HETATM   16  C23 UNL     1      -4.273   7.322  14.371  1.00  0.00     0.017 C 
HETATM   17  C24 UNL     1      -5.210   7.792  13.236  1.00  0.00     0.023 C 
HETATM   18  C25 UNL     1      -5.127   6.481  15.348  1.00  0.00     0.023 C 
HETATM   19  C26 UNL     1      -3.580   8.502  15.163  1.00  0.00     0.009 C 
HETATM   20  C27 UNL     1      -4.462   9.756  15.272  1.00  0.00     0.007 C 
HETATM   21  C28 UNL     1      -3.763  11.027  15.726  1.00  0.00     0.011 C 
HETATM   22  C29 UNL     1      -2.462  10.838  16.531  1.00  0.00    -0.027 C 
HETATM   23  C30 UNL     1      -2.744  10.021  17.831  1.00  0.00     0.016 C 
HETATM   24  O6  UNL     1       0.219  13.370  17.747  1.00  0.00    -0.362 OA
ENDROOT
BRANCH   1  25
HETATM   25  C2  UNL     1       0.565  12.472  19.993  1.00  0.00     0.022 C 
HETATM   26  C1  UNL     1       1.922  13.119  19.709  1.00  0.00     0.013 C 
BRANCH  25  27
HETATM   27  C3  UNL     1       0.676  10.946  20.199  1.00  0.00     0.041 C 
BRANCH  27  28
HETATM   28  C4  UNL     1       2.036  10.416  20.683  1.00  0.00     0.150 C 
BRANCH  28  29
HETATM   29  O1  UNL     1       2.531   9.522  19.671  1.00  0.00    -0.393 OA
HETATM   30  H8  UNL     1       2.629  10.027  18.842  1.00  0.00     0.210 HD
ENDBRANCH  28  29
BRANCH  28  31
HETATM   31  C5  UNL     1       1.990   9.667  22.044  1.00  0.00     0.180 C 
BRANCH  31  32
HETATM   32  O2  UNL     1       2.104   8.255  21.819  1.00  0.00    -0.390 OA
HETATM   33  H10 UNL     1       1.255   7.931  21.466  1.00  0.00     0.210 HD
ENDBRANCH  31  32
BRANCH  31  34
HETATM   34  C6  UNL     1       3.108  10.106  23.051  1.00  0.00     0.079 C 
HETATM   35  C7  UNL     1       3.168  11.632  23.158  1.00  0.00     0.048 C 
HETATM   36  C8  UNL     1       4.483   9.570  22.637  1.00  0.00     0.048 C 
BRANCH  34  37
HETATM   37  O3  UNL     1       2.856   9.618  24.375  1.00  0.00    -0.388 OA
HETATM   38  H17 UNL     1       2.173   8.916  24.290  1.00  0.00     0.210 HD
ENDBRANCH  34  37
ENDBRANCH  31  34
ENDBRANCH  28  31
ENDBRANCH  27  28
ENDBRANCH  25  27
ENDBRANCH   1  25
BRANCH   8  39
HETATM   39  O4  UNL     1       0.865   9.258  15.540  1.00  0.00    -0.395 OA
HETATM   40  H28 UNL     1       1.675   9.107  16.054  1.00  0.00     0.210 HD
ENDBRANCH   8  39
TORSDOF 9
ENDMDL
