MODEL 1
REMARK minimizedAffinity -8.60713768
REMARK  8 active torsions:
REMARK  status: ('A' for Active; 'I' for Inactive)
REMARK    1  A    between atoms: C2_2  and  O2_4 
REMARK    2  A    between atoms: O2_4  and  C3_5 
REMARK    3  A    between atoms: C12_15  and  C13_16 
REMARK    4  A    between atoms: C13_16  and  O5_18 
REMARK    5  A    between atoms: O5_18  and  C14_19 
REMARK    6  A    between atoms: C14_19  and  C15_20 
REMARK    7  A    between atoms: C15_20  and  N1_21 
REMARK    8  A    between atoms: C25_31  and  O6_32 
ROOT
HETATM    1  C3  UNL     1      -6.824   3.819  12.897  1.00  0.00     0.097 C 
HETATM    2  C4  UNL     1      -7.492   4.367  14.176  1.00  0.00     0.050 C 
HETATM    3  C5  UNL     1      -5.283   4.153  12.916  1.00  0.00     0.038 C 
HETATM    4  C6  UNL     1      -5.007   5.662  12.996  1.00  0.00     0.087 C 
HETATM    5  C7  UNL     1      -3.537   5.943  13.203  1.00  0.00     0.132 C 
HETATM    6  O3  UNL     1      -3.189   6.823  13.991  1.00  0.00    -0.298 OA
HETATM    7  C8  UNL     1      -2.547   5.214  12.301  1.00  0.00     0.068 C 
HETATM    8  C9  UNL     1      -1.076   5.411  12.761  1.00  0.00     0.022 C 
HETATM    9  C10 UNL     1      -0.771   4.896  14.178  1.00  0.00     0.015 C 
HETATM   10  C11 UNL     1      -0.148   4.736  11.756  1.00  0.00    -0.070 C 
HETATM   11  C12 UNL     1       0.871   5.295  11.070  1.00  0.00     0.085 C 
HETATM   12  C18 UNL     1      -0.462   3.268  11.537  1.00  0.00     0.035 C 
HETATM   13  C19 UNL     1      -1.922   3.065  11.128  1.00  0.00     0.010 C 
HETATM   14  C20 UNL     1      -2.915   3.718  12.121  1.00  0.00     0.006 C 
HETATM   15  C21 UNL     1      -4.438   3.501  11.753  1.00  0.00    -0.033 C 
HETATM   16  C22 UNL     1      -4.745   4.096  10.355  1.00  0.00     0.016 C 
HETATM   17  C23 UNL     1      -4.747   1.980  11.704  1.00  0.00     0.012 C 
HETATM   18  C24 UNL     1      -6.235   1.656  11.650  1.00  0.00     0.035 C 
HETATM   19  C25 UNL     1      -6.982   2.267  12.830  1.00  0.00     0.153 C 
ENDROOT
BRANCH  11  20
HETATM   20  C13 UNL     1       1.420   6.672  11.029  1.00  0.00     0.283 C 
HETATM   21  O4  UNL     1       0.683   7.648  11.005  1.00  0.00    -0.260 OA
BRANCH  20  22
HETATM   22  O5  UNL     1       2.767   6.701  11.074  1.00  0.00    -0.316 OA
BRANCH  22  23
HETATM   23  C14 UNL     1       3.447   6.400   9.842  1.00  0.00     0.209 C 
BRANCH  23  24
HETATM   24  C15 UNL     1       2.423   6.255   8.704  1.00  0.00     0.298 C 
BRANCH  24  25
HETATM   25  N1  UNL     1       2.087   7.458   7.926  1.00  0.00     0.082 N 
HETATM   26  C16 UNL     1       1.808   7.151   6.525  1.00  0.00     0.309 C 
HETATM   27  C17 UNL     1       3.096   8.507   8.043  1.00  0.00     0.309 C 
ENDBRANCH  24  25
ENDBRANCH  23  24
ENDBRANCH  22  23
ENDBRANCH  20  22
ENDBRANCH  11  20
BRANCH   1  28
HETATM   28  O2  UNL     1      -7.355   4.494  11.721  1.00  0.00    -0.308 OA
BRANCH  28  29
HETATM   29  C2  UNL     1      -8.380   5.379  11.797  1.00  0.00     0.255 C 
HETATM   30  C1  UNL     1      -8.555   5.846  13.209  1.00  0.00     0.126 C 
HETATM   31  O1  UNL     1      -9.051   5.765  10.852  1.00  0.00    -0.266 OA
ENDBRANCH  28  29
ENDBRANCH   1  28
BRANCH  19  32
HETATM   32  O6  UNL     1      -8.323   1.785  12.773  1.00  0.00    -0.393 OA
HETATM   33  H39 UNL     1      -8.953   2.535  12.746  1.00  0.00     0.210 HD
ENDBRANCH  19  32
TORSDOF 8
ENDMDL
