MODEL 1
REMARK minimizedAffinity -7.49549723
REMARK CNNscore 0.562132955
REMARK CNNaffinity 6.4794445
REMARK  15 active torsions:
REMARK  status: ('A' for Active; 'I' for Inactive)
REMARK    1  A    between atoms: C2_2  and  C36_45 
REMARK    2  A    between atoms: C3_3  and  C4_4 
REMARK    3  A    between atoms: C4_4  and  C5_5 
REMARK    4  A    between atoms: C5_5  and  C6_6 
REMARK    5  A    between atoms: C6_6  and  C8_8 
REMARK    6  A    between atoms: C24_27  and  C26_29 
REMARK    7  A    between atoms: C26_29  and  O4_30 
REMARK    8  A    between atoms: O4_30  and  C27_31 
REMARK    9  A    between atoms: C27_31  and  C28_33 
REMARK   10  A    between atoms: C28_33  and  C29_34 
REMARK   11  A    between atoms: C29_34  and  O6_36 
REMARK   12  A    between atoms: C29_34  and  C31_37 
REMARK   13  A    between atoms: C31_37  and  C32_38 
REMARK   14  A    between atoms: C32_38  and  O8_40 
REMARK   15  A    between atoms: C36_45  and  O11_47 
ROOT
HETATM    1  C8  UNL     1      -7.247  47.633 -30.638  1.00  0.00     0.006 C 
HETATM    2  C9  UNL     1      -7.089  46.384 -31.536  1.00  0.00     0.085 C 
HETATM    3  C10 UNL     1      -8.371  45.596 -31.265  1.00  0.00     0.141 C 
HETATM    4  O1  UNL     1      -8.507  44.431 -31.610  1.00  0.00    -0.297 OA
HETATM    5  C11 UNL     1      -9.381  46.452 -30.480  1.00  0.00     0.056 C 
HETATM    6  C12 UNL     1     -10.102  47.338 -31.535  1.00  0.00     0.030 C 
HETATM    7  C13 UNL     1     -10.470  45.888 -29.592  1.00  0.00     0.015 C 
HETATM    8  C14 UNL     1     -10.880  46.472 -28.436  1.00  0.00     0.007 C 
HETATM    9  C15 UNL     1     -10.153  47.739 -27.998  1.00  0.00     0.157 C 
HETATM   10  O2  UNL     1     -10.481  48.331 -26.971  1.00  0.00    -0.293 OA
HETATM   11  C16 UNL     1      -9.007  48.299 -28.832  1.00  0.00     0.094 C 
HETATM   12  C17 UNL     1      -8.305  47.175 -29.586  1.00  0.00    -0.014 C 
HETATM   13  C18 UNL     1      -7.651  46.230 -28.525  1.00  0.00     0.018 C 
HETATM   14  C19 UNL     1     -12.025  45.929 -27.523  1.00  0.00    -0.007 C 
HETATM   15  C20 UNL     1     -11.324  45.316 -26.285  1.00  0.00     0.021 C 
HETATM   16  C21 UNL     1     -13.030  47.038 -27.097  1.00  0.00     0.022 C 
HETATM   17  C22 UNL     1     -14.325  46.558 -26.435  1.00  0.00     0.080 C 
HETATM   18  C23 UNL     1     -14.420  45.059 -26.303  1.00  0.00     0.137 C 
HETATM   19  O3  UNL     1     -14.803  44.561 -25.241  1.00  0.00    -0.297 OA
HETATM   20  C24 UNL     1     -14.064  44.200 -27.519  1.00  0.00     0.044 C 
HETATM   21  C25 UNL     1     -13.717  42.778 -27.025  1.00  0.00     0.026 C 
HETATM   22  C33 UNL     1     -12.893  44.888 -28.315  1.00  0.00     0.023 C 
HETATM   23  C34 UNL     1     -12.005  43.900 -29.066  1.00  0.00     0.090 C 
HETATM   24  C35 UNL     1     -11.209  44.685 -30.076  1.00  0.00     0.158 C 
HETATM   25  O9  UNL     1     -11.213  44.370 -31.263  1.00  0.00    -0.293 OA
ENDROOT
BRANCH  20  26
HETATM   26  C26 UNL     1     -15.309  44.135 -28.445  1.00  0.00     0.196 C 
BRANCH  26  27
HETATM   27  O4  UNL     1     -15.905  42.832 -28.548  1.00  0.00    -0.320 OA
BRANCH  27  28
HETATM   28  C27 UNL     1     -17.261  42.779 -28.588  1.00  0.00     0.261 C 
HETATM   29  O5  UNL     1     -17.937  42.853 -29.606  1.00  0.00    -0.265 OA
BRANCH  28  30
HETATM   30  C28 UNL     1     -17.846  42.564 -27.215  1.00  0.00     0.148 C 
BRANCH  30  31
HETATM   31  C29 UNL     1     -18.968  43.546 -26.841  1.00  0.00     0.072 C 
HETATM   32  C30 UNL     1     -20.169  43.248 -27.756  1.00  0.00     0.047 C 
BRANCH  31  33
HETATM   33  O6  UNL     1     -19.369  43.250 -25.499  1.00  0.00    -0.389 OA
HETATM   34  H41 UNL     1     -20.084  43.877 -25.259  1.00  0.00     0.210 HD
ENDBRANCH  31  33
BRANCH  31  35
HETATM   35  C31 UNL     1     -18.515  45.015 -26.962  1.00  0.00     0.147 C 
BRANCH  35  36
HETATM   36  C32 UNL     1     -18.602  45.762 -25.658  1.00  0.00     0.142 C 
HETATM   37  O7  UNL     1     -17.710  45.883 -24.834  1.00  0.00    -0.650 OA
BRANCH  36  38
HETATM   38  O8  UNL     1     -19.799  46.350 -25.463  1.00  0.00    -0.776 OA
HETATM   39  H44 UNL     1     -19.694  46.829 -24.614  1.00  0.00     0.167 HD
ENDBRANCH  36  38
ENDBRANCH  35  36
ENDBRANCH  31  35
ENDBRANCH  30  31
ENDBRANCH  28  30
ENDBRANCH  27  28
ENDBRANCH  26  27
ENDBRANCH  20  26
BRANCH   1  40
HETATM   40  C6  UNL     1      -5.925  48.305 -30.159  1.00  0.00    -0.013 C 
HETATM   41  C7  UNL     1      -5.093  48.659 -31.412  1.00  0.00     0.010 C 
BRANCH  40  42
HETATM   42  C5  UNL     1      -5.066  47.459 -29.185  1.00  0.00     0.008 C 
BRANCH  42  43
HETATM   43  C4  UNL     1      -4.847  48.085 -27.797  1.00  0.00     0.028 C 
BRANCH  43  44
HETATM   44  C3  UNL     1      -3.821  49.185 -27.762  1.00  0.00    -0.013 C 
HETATM   45  C2  UNL     1      -3.051  49.526 -26.711  1.00  0.00     0.008 C 
HETATM   46  C1  UNL     1      -3.054  48.827 -25.381  1.00  0.00     0.055 C 
BRANCH  45  47
HETATM   47  C36 UNL     1      -2.109  50.673 -26.794  1.00  0.00     0.171 C 
HETATM   48  O10 UNL     1      -2.417  51.821 -27.059  1.00  0.00    -0.646 OA
BRANCH  47  49
HETATM   49  O11 UNL     1      -0.830  50.343 -26.532  1.00  0.00    -0.773 OA
HETATM   50  H48 UNL     1      -0.360  51.196 -26.631  1.00  0.00     0.167 HD
ENDBRANCH  47  49
ENDBRANCH  45  47
ENDBRANCH  43  44
ENDBRANCH  42  43
ENDBRANCH  40  42
ENDBRANCH   1  40
TORSDOF 15
ENDMDL
