MODEL 1
REMARK minimizedAffinity -6.49794626
REMARK CNNscore 0.531419098
REMARK CNNaffinity 7.36096525
REMARK  13 active torsions:
REMARK  status: ('A' for Active; 'I' for Inactive)
REMARK    1  A    between atoms: O1_2  and  C2_3 
REMARK    2  A    between atoms: C2_3  and  C3_5 
REMARK    3  A    between atoms: C19_25  and  C20_26 
REMARK    4  A    between atoms: C20_26  and  C21_27 
REMARK    5  A    between atoms: C21_27  and  C22_28 
REMARK    6  A    between atoms: C22_28  and  O7_29 
REMARK    7  A    between atoms: C24_32  and  C25_33 
REMARK    8  A    between atoms: C25_33  and  C27_35 
REMARK    9  A    between atoms: C38_46  and  O8_47 
REMARK   10  A    between atoms: C39_48  and  O9_49 
REMARK   11  A    between atoms: C40_50  and  C41_51 
REMARK   12  A    between atoms: C41_51  and  C42_52 
REMARK   13  A    between atoms: C42_52  and  O11_54 
ROOT
HETATM    1  C3  UNL     1     -13.494  16.073  19.599  1.00  0.00     0.019 C 
HETATM    2  C4  UNL     1     -13.463  14.880  20.226  1.00  0.00    -0.006 C 
HETATM    3  C5  UNL     1     -12.806  13.628  19.683  1.00  0.00     0.043 C 
HETATM    4  C6  UNL     1     -11.529  13.358  20.551  1.00  0.00    -0.001 C 
HETATM    5  C7  UNL     1     -10.538  14.545  20.597  1.00  0.00     0.032 C 
HETATM    6  C8  UNL     1      -9.903  15.000  19.323  1.00  0.00    -0.030 C 
HETATM    7  C9  UNL     1     -10.510  15.242  18.150  1.00  0.00    -0.023 C 
HETATM    8  C10 UNL     1     -11.968  15.087  17.772  1.00  0.00     0.047 C 
HETATM    9  C11 UNL     1     -12.536  13.699  18.158  1.00  0.00     0.141 C 
HETATM   10  O3  UNL     1     -13.768  13.563  17.438  1.00  0.00    -0.351 OA
HETATM   11  C12 UNL     1     -13.861  12.534  16.435  1.00  0.00     0.297 C 
HETATM   12  O4  UNL     1     -14.322  11.286  16.968  1.00  0.00    -0.347 OA
HETATM   13  C13 UNL     1     -13.768  10.052  16.497  1.00  0.00     0.191 C 
HETATM   14  C14 UNL     1     -13.115   9.345  17.709  1.00  0.00     0.203 C 
HETATM   15  O5  UNL     1     -12.274  10.274  18.386  1.00  0.00    -0.388 OA
HETATM   16  C15 UNL     1     -11.571   9.716  19.488  1.00  0.00     0.167 C 
HETATM   17  C16 UNL     1     -11.551  10.768  20.590  1.00  0.00     0.027 C 
HETATM   18  C17 UNL     1     -10.785  12.048  20.192  1.00  0.00     0.007 C 
HETATM   19  C18 UNL     1     -12.959  10.044  15.146  1.00  0.00     0.148 C 
HETATM   20  O6  UNL     1     -13.490   8.927  14.357  1.00  0.00    -0.332 OA
HETATM   21  C19 UNL     1     -12.816   7.722  14.370  1.00  0.00     0.075 C 
HETATM   22  C23 UNL     1     -11.547   7.630  14.789  1.00  0.00     0.072 A 
HETATM   23  N1  UNL     1     -10.650   6.606  14.908  1.00  0.00    -0.357 N 
HETATM   24  C24 UNL     1      -9.394   7.086  15.277  1.00  0.00     0.014 A 
HETATM   25  C33 UNL     1      -9.440   8.424  15.466  1.00  0.00     0.039 A 
HETATM   26  C34 UNL     1     -10.810   8.819  15.192  1.00  0.00     0.001 A 
HETATM   27  C35 UNL     1     -11.438  10.000  15.350  1.00  0.00    -0.027 C 
HETATM   28  C36 UNL     1     -10.761  11.260  15.821  1.00  0.00     0.041 C 
HETATM   29  C37 UNL     1     -11.402  12.543  15.301  1.00  0.00     0.050 C 
HETATM   30  C38 UNL     1     -12.940  12.547  15.166  1.00  0.00     0.136 C 
HETATM   31  C39 UNL     1     -13.339  11.310  14.341  1.00  0.00     0.199 C 
HETATM   32  C40 UNL     1     -12.932  16.254  18.189  1.00  0.00     0.044 C 
HETATM   33  H30 UNL     1     -10.785   5.712  14.456  1.00  0.00     0.166 HD
ENDROOT
BRANCH  24  34
HETATM   34  C25 UNL     1      -8.236   6.140  15.483  1.00  0.00     0.035 C 
HETATM   35  C26 UNL     1      -7.326   6.712  16.582  1.00  0.00     0.017 C 
BRANCH  34  36
HETATM   36  C27 UNL     1      -7.472   5.780  14.176  1.00  0.00    -0.005 C 
HETATM   37  C28 UNL     1      -8.445   5.675  12.979  1.00  0.00     0.005 C 
HETATM   38  C29 UNL     1      -7.919   4.768  11.872  1.00  0.00     0.000 C 
HETATM   39  C30 UNL     1      -7.732   3.328  12.365  1.00  0.00     0.000 C 
HETATM   40  C31 UNL     1      -7.364   3.245  13.845  1.00  0.00     0.000 C 
HETATM   41  C32 UNL     1      -6.614   4.499  14.298  1.00  0.00     0.005 C 
ENDBRANCH  34  36
ENDBRANCH  24  34
BRANCH  21  42
HETATM   42  C20 UNL     1     -13.610   6.555  13.857  1.00  0.00     0.069 C 
BRANCH  42  43
HETATM   43  C21 UNL     1     -15.118   6.764  14.097  1.00  0.00     0.033 C 
BRANCH  43  44
HETATM   44  C22 UNL     1     -15.878   6.886  12.781  1.00  0.00     0.164 C 
BRANCH  44  45
HETATM   45  O7  UNL     1     -15.199   7.810  11.932  1.00  0.00    -0.401 OA
HETATM   46  H29 UNL     1     -15.787   7.969  11.161  1.00  0.00     0.209 HD
ENDBRANCH  44  45
ENDBRANCH  43  44
ENDBRANCH  42  43
ENDBRANCH  21  42
BRANCH  31  47
HETATM   47  O9  UNL     1     -12.706  11.371  13.045  1.00  0.00    -0.389 OA
HETATM   48  H53 UNL     1     -12.911  12.262  12.719  1.00  0.00     0.210 HD
ENDBRANCH  31  47
BRANCH  30  49
HETATM   49  O8  UNL     1     -13.219  13.746  14.385  1.00  0.00    -0.382 OA
HETATM   50  H51 UNL     1     -14.188  13.887  14.384  1.00  0.00     0.210 HD
ENDBRANCH  30  49
BRANCH  32  51
HETATM   51  C41 UNL     1     -12.294  17.612  17.805  1.00  0.00     0.120 C 
BRANCH  51  52
HETATM   52  C42 UNL     1     -12.409  17.946  16.338  1.00  0.00     0.140 C 
HETATM   53  O10 UNL     1     -13.221  17.534  15.522  1.00  0.00    -0.650 OA
BRANCH  52  54
HETATM   54  O11 UNL     1     -11.420  18.786  15.940  1.00  0.00    -0.776 OA
HETATM   55  H57 UNL     1     -11.603  18.915  14.984  1.00  0.00     0.167 HD
ENDBRANCH  52  54
ENDBRANCH  51  52
ENDBRANCH  32  51
BRANCH   1  56
HETATM   56  C2  UNL     1     -14.203  17.137  20.371  1.00  0.00     0.289 C 
HETATM   57  O2  UNL     1     -15.418  17.170  20.539  1.00  0.00    -0.260 OA
BRANCH  56  58
HETATM   58  O1  UNL     1     -13.330  18.035  20.889  1.00  0.00    -0.323 OA
HETATM   59  C1  UNL     1     -13.893  19.330  21.109  1.00  0.00     0.213 C 
ENDBRANCH  56  58
ENDBRANCH   1  56
TORSDOF 13
ENDMDL
