MODEL 1
REMARK minimizedAffinity -9.86953259
REMARK  7 active torsions:
REMARK  status: ('A' for Active; 'I' for Inactive)
REMARK    1  A    between atoms: C2_2  and  C4_4 
REMARK    2  A    between atoms: C7_7  and  O1_9 
REMARK    3  A    between atoms: C9_10  and  C10_11 
REMARK    4  A    between atoms: C11_12  and  C12_13 
REMARK    5  A    between atoms: C14_15  and  C15_16 
REMARK    6  A    between atoms: C24_26  and  C26_28 
REMARK    7  A    between atoms: C29_32  and  O4_34 
ROOT
HETATM    1  C15 UNL     1      -2.456  50.657 -27.412  1.00  0.00     0.149 C 
HETATM    2  C16 UNL     1      -1.832  50.096 -26.135  1.00  0.00     0.054 C 
HETATM    3  C17 UNL     1      -1.537  51.333 -25.261  1.00  0.00     0.050 C 
HETATM    4  C18 UNL     1      -2.782  52.167 -25.662  1.00  0.00     0.272 C 
HETATM    5  O2  UNL     1      -3.984  51.780 -25.003  1.00  0.00    -0.360 OA
HETATM    6  C19 UNL     1      -4.197  52.428 -23.766  1.00  0.00     0.171 C 
HETATM    7  C20 UNL     1      -3.657  51.599 -22.614  1.00  0.00     0.027 C 
HETATM    8  C21 UNL     1      -2.695  50.485 -23.021  1.00  0.00     0.012 C 
HETATM    9  C22 UNL     1      -1.400  50.923 -23.743  1.00  0.00     0.032 C 
HETATM   10  C23 UNL     1      -0.595  51.928 -22.891  1.00  0.00    -0.066 C 
HETATM   11  C24 UNL     1       0.078  51.615 -21.755  1.00  0.00    -0.021 C 
HETATM   12  C25 UNL     1       0.846  52.600 -20.919  1.00  0.00     0.052 C 
HETATM   13  C27 UNL     1      -0.571  53.324 -23.463  1.00  0.00     0.038 C 
HETATM   14  C28 UNL     1       0.017  53.358 -24.871  1.00  0.00     0.042 C 
HETATM   15  C29 UNL     1      -0.197  52.065 -25.697  1.00  0.00     0.067 C 
HETATM   16  C30 UNL     1       1.057  51.168 -25.589  1.00  0.00     0.047 C 
HETATM   17  O5  UNL     1      -3.017  51.925 -27.059  1.00  0.00    -0.351 OA
ENDROOT
BRANCH   1  18
HETATM   18  C14 UNL     1      -3.494  49.740 -28.011  1.00  0.00     0.011 C 
HETATM   19  C12 UNL     1      -4.139  48.704 -27.431  1.00  0.00    -0.064 C 
HETATM   20  C13 UNL     1      -3.966  48.332 -25.980  1.00  0.00     0.048 C 
BRANCH  19  21
HETATM   21  C11 UNL     1      -5.080  47.923 -28.240  1.00  0.00     0.003 C 
HETATM   22  C10 UNL     1      -5.641  48.309 -29.398  1.00  0.00    -0.018 C 
BRANCH  22  23
HETATM   23  C9  UNL     1      -6.631  47.556 -30.279  1.00  0.00     0.050 C 
HETATM   24  C4  UNL     1      -7.398  48.397 -31.344  1.00  0.00     0.024 C 
HETATM   25  C5  UNL     1      -8.617  48.908 -30.559  1.00  0.00     0.013 C 
HETATM   26  C6  UNL     1      -8.980  47.818 -29.552  1.00  0.00     0.039 C 
HETATM   27  C7  UNL     1      -7.778  46.859 -29.483  1.00  0.00     0.062 C 
HETATM   28  C8  UNL     1      -7.452  46.457 -28.044  1.00  0.00     0.046 C 
BRANCH  24  29
HETATM   29  C2  UNL     1      -7.691  47.628 -32.637  1.00  0.00    -0.088 C 
HETATM   30  C1  UNL     1      -8.914  47.317 -33.098  1.00  0.00     0.014 C 
HETATM   31  C3  UNL     1      -6.471  47.244 -33.438  1.00  0.00     0.043 C 
ENDBRANCH  24  29
BRANCH  27  32
HETATM   32  O1  UNL     1      -8.119  45.641 -30.165  1.00  0.00    -0.390 OA
HETATM   33  H14 UNL     1      -8.902  45.263 -29.734  1.00  0.00     0.210 HD
ENDBRANCH  27  32
ENDBRANCH  22  23
ENDBRANCH  19  21
ENDBRANCH   1  18
BRANCH  15  34
HETATM   34  O4  UNL     1      -0.241  52.468 -27.070  1.00  0.00    -0.389 OA
HETATM   35  H44 UNL     1       0.585  52.935 -27.287  1.00  0.00     0.210 HD
ENDBRANCH  15  34
BRANCH  11  36
HETATM   36  C26 UNL     1       0.127  50.226 -21.204  1.00  0.00     0.265 C 
HETATM   37  O3  UNL     1      -0.526  49.849 -20.239  1.00  0.00    -0.302 OA
ENDBRANCH  11  36
TORSDOF 7
ENDMDL
