MODEL 1
REMARK minimizedAffinity -8.9111681
REMARK CNNscore 0.600857794
REMARK CNNaffinity 6.82444048
REMARK  8 active torsions:
REMARK  status: ('A' for Active; 'I' for Inactive)
REMARK    1  A    between atoms: C2_2  and  C3_3 
REMARK    2  A    between atoms: C2_2  and  C9_12 
REMARK    3  A    between atoms: C3_3  and  C4_4 
REMARK    4  A    between atoms: C4_4  and  C5_5 
REMARK    5  A    between atoms: C6_6  and  C7_7 
REMARK    6  A    between atoms: C6_6  and  C8_9 
REMARK    7  A    between atoms: C7_7  and  O1_8 
REMARK    8  A    between atoms: C8_9  and  O3_11 
ROOT
HETATM    1  C9  UNL     1      -1.799  10.665  18.349  1.00  0.00    -0.002 C 
HETATM    2  C10 UNL     1      -3.185  11.347  18.414  1.00  0.00     0.006 C 
HETATM    3  C11 UNL     1      -3.888  11.007  17.088  1.00  0.00     0.006 C 
HETATM    4  C12 UNL     1      -2.937  10.043  16.377  1.00  0.00    -0.001 C 
HETATM    5  C13 UNL     1      -3.095   9.868  14.859  1.00  0.00    -0.000 C 
HETATM    6  C14 UNL     1      -4.516   9.333  14.587  1.00  0.00     0.006 C 
HETATM    7  C15 UNL     1      -4.710   8.540  13.304  1.00  0.00     0.007 C 
HETATM    8  C16 UNL     1      -3.717   7.380  13.114  1.00  0.00     0.010 C 
HETATM    9  C17 UNL     1      -4.036   6.063  13.912  1.00  0.00     0.018 C 
HETATM   10  C18 UNL     1      -5.373   5.460  13.430  1.00  0.00     0.023 C 
HETATM   11  C19 UNL     1      -4.105   6.215  15.438  1.00  0.00     0.023 C 
HETATM   12  C20 UNL     1      -2.915   5.042  13.631  1.00  0.00     0.135 C 
HETATM   13  O4  UNL     1      -3.138   3.877  13.297  1.00  0.00    -0.297 OA
HETATM   14  C21 UNL     1      -1.497   5.513  13.848  1.00  0.00     0.080 C 
HETATM   15  C22 UNL     1      -1.268   6.725  12.973  1.00  0.00     0.018 C 
HETATM   16  C23 UNL     1      -2.262   7.833  13.298  1.00  0.00    -0.026 A 
HETATM   17  C24 UNL     1      -1.843   9.169  12.745  1.00  0.00     0.021 A 
HETATM   18  C25 UNL     1      -1.949   9.010  14.258  1.00  0.00    -0.028 A 
HETATM   19  C26 UNL     1      -0.576   9.096  14.954  1.00  0.00     0.011 C 
HETATM   20  C27 UNL     1      -0.589   9.369  16.459  1.00  0.00     0.011 C 
HETATM   21  C28 UNL     1      -1.540  10.512  16.821  1.00  0.00    -0.036 C 
HETATM   22  C29 UNL     1      -1.089  11.826  16.154  1.00  0.00     0.016 C 
ENDROOT
BRANCH   1  23
HETATM   23  C2  UNL     1      -0.679  11.276  19.236  1.00  0.00    -0.014 C 
HETATM   24  C1  UNL     1      -0.848  12.807  19.264  1.00  0.00     0.010 C 
BRANCH  23  25
HETATM   25  C3  UNL     1       0.767  10.929  18.815  1.00  0.00     0.008 C 
BRANCH  25  26
HETATM   26  C4  UNL     1       1.800  11.201  19.917  1.00  0.00     0.028 C 
BRANCH  26  27
HETATM   27  C5  UNL     1       1.809  10.089  20.935  1.00  0.00    -0.011 C 
HETATM   28  C6  UNL     1       2.810   9.751  21.775  1.00  0.00     0.035 C 
BRANCH  28  29
HETATM   29  C7  UNL     1       2.689   8.640  22.773  1.00  0.00     0.209 C 
BRANCH  29  30
HETATM   30  O1  UNL     1       1.645   7.752  22.386  1.00  0.00    -0.396 OA
HETATM   31  H12 UNL     1       0.865   8.295  22.177  1.00  0.00     0.209 HD
ENDBRANCH  29  30
ENDBRANCH  28  29
BRANCH  28  32
HETATM   32  C8  UNL     1       4.101  10.468  21.739  1.00  0.00     0.173 C 
HETATM   33  O2  UNL     1       4.586  11.136  22.634  1.00  0.00    -0.646 OA
BRANCH  32  34
HETATM   34  O3  UNL     1       4.738  10.288  20.571  1.00  0.00    -0.773 OA
HETATM   35  H13 UNL     1       5.558  10.815  20.672  1.00  0.00     0.167 HD
ENDBRANCH  32  34
ENDBRANCH  28  32
ENDBRANCH  26  27
ENDBRANCH  25  26
ENDBRANCH  23  25
ENDBRANCH   1  23
TORSDOF 8
ENDMDL
