MODEL 1
REMARK minimizedAffinity -9.67136002
REMARK  9 active torsions:
REMARK  status: ('A' for Active; 'I' for Inactive)
REMARK    1  A    between atoms: C2_2  and  C3_3 
REMARK    2  A    between atoms: C2_2  and  C9_11 
REMARK    3  A    between atoms: C3_3  and  C4_4 
REMARK    4  A    between atoms: C4_4  and  C5_5 
REMARK    5  A    between atoms: C6_6  and  C7_7 
REMARK    6  A    between atoms: C6_6  and  C8_9 
REMARK    7  A    between atoms: C7_7  and  O1_8 
REMARK    8  A    between atoms: C8_9  and  O2_10 
REMARK    9  A    between atoms: C11_13  and  O3_14 
ROOT
HETATM    1  C9  UNL     1      -4.131  50.243 -24.615  1.00  0.00     0.001 C 
HETATM    2  C10 UNL     1      -5.593  49.993 -24.159  1.00  0.00     0.038 C 
HETATM    3  C11 UNL     1      -5.587  49.986 -22.608  1.00  0.00     0.131 C 
HETATM    4  C12 UNL     1      -4.183  50.539 -22.211  1.00  0.00     0.014 C 
HETATM    5  C13 UNL     1      -4.320  52.100 -22.248  1.00  0.00     0.023 C 
HETATM    6  C14 UNL     1      -3.543  50.258 -20.850  1.00  0.00    -0.058 C 
HETATM    7  C15 UNL     1      -2.193  50.306 -20.683  1.00  0.00    -0.000 C 
HETATM    8  C16 UNL     1      -1.309  50.550 -21.906  1.00  0.00     0.157 C 
HETATM    9  O4  UNL     1      -0.095  50.717 -21.786  1.00  0.00    -0.293 OA
HETATM   10  C17 UNL     1      -1.921  50.613 -23.300  1.00  0.00     0.094 C 
HETATM   11  C18 UNL     1      -3.286  49.926 -23.345  1.00  0.00    -0.019 C 
HETATM   12  C19 UNL     1      -3.032  48.396 -23.205  1.00  0.00     0.017 C 
HETATM   13  C20 UNL     1      -1.497  50.120 -19.308  1.00  0.00    -0.008 C 
HETATM   14  C21 UNL     1      -0.822  48.727 -19.352  1.00  0.00     0.021 C 
HETATM   15  C22 UNL     1      -0.400  51.204 -19.052  1.00  0.00     0.022 C 
HETATM   16  C23 UNL     1      -0.147  51.573 -17.592  1.00  0.00     0.080 C 
HETATM   17  C24 UNL     1      -0.524  50.462 -16.642  1.00  0.00     0.135 C 
HETATM   18  O5  UNL     1       0.282  50.037 -15.814  1.00  0.00    -0.297 OA
HETATM   19  C25 UNL     1      -1.976  49.977 -16.701  1.00  0.00     0.018 C 
HETATM   20  C26 UNL     1      -2.758  50.812 -15.664  1.00  0.00     0.023 C 
HETATM   21  C27 UNL     1      -2.054  48.504 -16.259  1.00  0.00     0.023 C 
HETATM   22  C28 UNL     1      -2.544  50.252 -18.137  1.00  0.00     0.014 C 
HETATM   23  C29 UNL     1      -3.822  49.469 -18.445  1.00  0.00     0.011 C 
HETATM   24  C30 UNL     1      -4.493  50.017 -19.699  1.00  0.00     0.036 C 
ENDROOT
BRANCH   1  25
HETATM   25  C2  UNL     1      -3.706  49.627 -25.985  1.00  0.00    -0.013 C 
HETATM   26  C1  UNL     1      -4.466  48.302 -26.184  1.00  0.00     0.010 C 
BRANCH  25  27
HETATM   27  C3  UNL     1      -2.186  49.394 -26.171  1.00  0.00     0.008 C 
BRANCH  27  28
HETATM   28  C4  UNL     1      -1.423  50.566 -26.820  1.00  0.00     0.028 C 
BRANCH  28  29
HETATM   29  C5  UNL     1       0.020  50.647 -26.403  1.00  0.00    -0.020 C 
HETATM   30  C6  UNL     1       1.010  51.413 -26.913  1.00  0.00    -0.037 C 
BRANCH  30  31
HETATM   31  C7  UNL     1       0.843  52.370 -28.062  1.00  0.00     0.200 C 
BRANCH  31  32
HETATM   32  O1  UNL     1      -0.376  52.079 -28.733  1.00  0.00    -0.397 OA
HETATM   33  H12 UNL     1      -0.431  52.691 -29.487  1.00  0.00     0.209 HD
ENDBRANCH  31  32
ENDBRANCH  30  31
BRANCH  30  34
HETATM   34  C8  UNL     1       2.426  51.369 -26.375  1.00  0.00     0.200 C 
BRANCH  34  35
HETATM   35  O2  UNL     1       3.391  51.519 -27.410  1.00  0.00    -0.397 OA
HETATM   36  H15 UNL     1       4.257  51.366 -26.997  1.00  0.00     0.209 HD
ENDBRANCH  34  35
ENDBRANCH  30  34
ENDBRANCH  28  29
ENDBRANCH  27  28
ENDBRANCH  25  27
ENDBRANCH   1  25
BRANCH   3  37
HETATM   37  O3  UNL     1      -5.806  48.654 -22.157  1.00  0.00    -0.394 OA
HETATM   38  H20 UNL     1      -6.696  48.388 -22.445  1.00  0.00     0.210 HD
ENDBRANCH   3  37
TORSDOF 9
ENDMDL
