MODEL 1
REMARK minimizedAffinity -8.37057495
REMARK CNNscore 0.671592712
REMARK CNNaffinity 7.27009821
REMARK  9 active torsions:
REMARK  status: ('A' for Active; 'I' for Inactive)
REMARK    1  A    between atoms: C11_11  and  C13_13 
REMARK    2  A    between atoms: C13_13  and  O2_15 
REMARK    3  A    between atoms: C15_17  and  C16_18 
REMARK    4  A    between atoms: C16_18  and  C17_19 
REMARK    5  A    between atoms: C17_19  and  C18_20 
REMARK    6  A    between atoms: C19_21  and  C20_22 
REMARK    7  A    between atoms: C20_22  and  O3_23 
REMARK    8  A    between atoms: O3_23  and  C21_24 
REMARK    9  A    between atoms: C21_24  and  C22_26 
ROOT
HETATM    1  C16 UNL     1      -4.252   6.812  14.255  1.00  0.00     0.014 C 
ENDROOT
BRANCH   1   2
HETATM    2  C15 UNL     1      -3.028   7.468  13.564  1.00  0.00     0.022 C 
HETATM    3  C2  UNL     1      -2.588   8.747  14.260  1.00  0.00    -0.084 C 
HETATM    4  C1  UNL     1      -3.150   9.941  14.004  1.00  0.00     0.014 C 
HETATM    5  C3  UNL     1      -1.398   8.634  15.157  1.00  0.00     0.034 C 
HETATM    6  C4  UNL     1      -0.179   8.237  14.331  1.00  0.00     0.011 C 
HETATM    7  C5  UNL     1      -0.417   7.146  13.250  1.00  0.00     0.012 C 
HETATM    8  C6  UNL     1      -1.831   6.444  13.334  1.00  0.00    -0.032 C 
HETATM    9  C11 UNL     1       0.026   7.578  11.803  1.00  0.00     0.049 C 
HETATM   10  C7  UNL     1      -1.733   5.393  14.486  1.00  0.00     0.016 C 
HETATM   11  C8  UNL     1      -2.124   5.636  12.030  1.00  0.00     0.010 C 
HETATM   12  C9  UNL     1      -0.855   5.189  11.319  1.00  0.00     0.002 C 
HETATM   13  C10 UNL     1      -0.077   6.394  10.795  1.00  0.00     0.020 C 
HETATM   14  C12 UNL     1      -0.812   8.756  11.261  1.00  0.00     0.026 C 
BRANCH   9  15
HETATM   15  C13 UNL     1       1.503   8.028  11.824  1.00  0.00     0.267 C 
HETATM   16  O1  UNL     1       1.919   9.093  11.386  1.00  0.00    -0.264 OA
BRANCH  15  17
HETATM   17  O2  UNL     1       2.301   7.073  12.387  1.00  0.00    -0.326 OA
HETATM   18  C14 UNL     1       3.301   6.555  11.510  1.00  0.00     0.213 C 
ENDBRANCH  15  17
ENDBRANCH   9  15
ENDBRANCH   1   2
BRANCH   1  19
HETATM   19  C17 UNL     1      -5.610   7.211  13.661  1.00  0.00     0.042 C 
BRANCH  19  20
HETATM   20  C18 UNL     1      -6.731   6.982  14.625  1.00  0.00    -0.024 A 
HETATM   21  C19 UNL     1      -7.974   6.427  14.364  1.00  0.00     0.083 A 
HETATM   22  O5  UNL     1      -8.719   6.383  15.507  1.00  0.00    -0.324 OA
HETATM   23  C28 UNL     1      -7.963   6.915  16.498  1.00  0.00     0.143 A 
HETATM   24  C29 UNL     1      -6.735   7.297  16.014  1.00  0.00     0.034 A 
BRANCH  21  25
HETATM   25  C20 UNL     1      -8.619   5.885  13.141  1.00  0.00     0.244 C 
BRANCH  25  26
HETATM   26  O3  UNL     1      -7.631   5.123  12.434  1.00  0.00    -0.311 OA
BRANCH  26  27
HETATM   27  C21 UNL     1      -7.693   3.782  12.591  1.00  0.00     0.293 C 
HETATM   28  O4  UNL     1      -8.673   3.137  12.930  1.00  0.00    -0.259 OA
BRANCH  27  29
HETATM   29  C22 UNL     1      -6.372   3.165  12.284  1.00  0.00     0.039 A 
HETATM   30  C23 UNL     1      -5.219   3.774  12.802  1.00  0.00     0.019 A 
HETATM   31  C24 UNL     1      -3.957   3.232  12.544  1.00  0.00     0.025 A 
HETATM   32  C25 UNL     1      -3.844   2.079  11.767  1.00  0.00     0.034 A 
HETATM   33 CL1  UNL     1      -2.291   1.411  11.450  1.00  0.00    -0.084 Cl
HETATM   34  C26 UNL     1      -4.982   1.465  11.245  1.00  0.00     0.025 A 
HETATM   35  C27 UNL     1      -6.246   2.007  11.501  1.00  0.00     0.019 A 
ENDBRANCH  27  29
ENDBRANCH  26  27
ENDBRANCH  25  26
ENDBRANCH  21  25
ENDBRANCH  19  20
ENDBRANCH   1  19
TORSDOF 9
ENDMDL
