MODEL 1
REMARK minimizedAffinity -8.90382385
REMARK CNNscore 0.630572617
REMARK CNNaffinity 7.16323328
REMARK  11 active torsions:
REMARK  status: ('A' for Active; 'I' for Inactive)
REMARK    1  A    between atoms: C19_20  and  O2_21 
REMARK    2  A    between atoms: C19_20  and  C20_22 
REMARK    3  A    between atoms: C20_22  and  C21_24 
REMARK    4  A    between atoms: C21_24  and  O4_25 
REMARK    5  A    between atoms: O4_25  and  C22_26 
REMARK    6  A    between atoms: C22_26  and  C23_28 
REMARK    7  A    between atoms: C23_28  and  C24_29 
REMARK    8  A    between atoms: C24_29  and  C25_30 
REMARK       I    between atoms: C25_30  and  N1_32 
REMARK    9  A    between atoms: N1_32  and  C26_33 
REMARK   10  A    between atoms: C26_33  and  C27_34 
REMARK   11  A    between atoms: C27_34  and  C28_35 
ROOT
HETATM    1  C1  UNL     1      -0.154  49.430 -20.612  1.00  0.00     0.020 C 
HETATM    2  C2  UNL     1      -0.561  50.849 -21.085  1.00  0.00    -0.016 C 
HETATM    3  C3  UNL     1       0.605  51.331 -21.999  1.00  0.00     0.022 C 
HETATM    4  C4  UNL     1       0.648  52.837 -22.193  1.00  0.00     0.084 C 
HETATM    5  C5  UNL     1       0.768  53.499 -20.846  1.00  0.00     0.149 C 
HETATM    6  O1  UNL     1       1.473  54.486 -20.648  1.00  0.00    -0.293 OA
HETATM    7  C6  UNL     1      -0.073  52.964 -19.750  1.00  0.00     0.053 C 
HETATM    8  C7  UNL     1      -0.714  51.790 -19.880  1.00  0.00    -0.068 C 
HETATM    9  C8  UNL     1      -1.768  51.396 -18.876  1.00  0.00     0.035 C 
HETATM   10  C9  UNL     1      -3.129  51.352 -19.574  1.00  0.00     0.010 C 
HETATM   11  C10 UNL     1      -3.118  50.453 -20.826  1.00  0.00    -0.004 C 
HETATM   12  C11 UNL     1      -1.957  50.844 -21.807  1.00  0.00     0.002 C 
HETATM   13  C12 UNL     1      -2.008  49.994 -23.102  1.00  0.00     0.007 C 
HETATM   14  C13 UNL     1      -3.396  49.978 -23.770  1.00  0.00     0.013 C 
HETATM   15  C14 UNL     1      -4.511  49.552 -22.795  1.00  0.00    -0.002 C 
HETATM   16  C15 UNL     1      -4.314  48.063 -22.397  1.00  0.00     0.019 C 
HETATM   17  C16 UNL     1      -4.448  50.522 -21.587  1.00  0.00     0.002 C 
HETATM   18  C17 UNL     1      -5.732  50.231 -20.825  1.00  0.00     0.009 C 
HETATM   19  C18 UNL     1      -6.767  49.921 -21.921  1.00  0.00     0.047 C 
HETATM   20  C19 UNL     1      -5.982  49.794 -23.259  1.00  0.00     0.128 C 
ENDROOT
BRANCH  20  21
HETATM   21  O2  UNL     1      -6.076  51.050 -23.938  1.00  0.00    -0.381 OA
HETATM   22  H27 UNL     1      -7.022  51.234 -24.097  1.00  0.00     0.211 HD
ENDBRANCH  20  21
BRANCH  20  23
HETATM   23  C20 UNL     1      -6.553  48.693 -24.179  1.00  0.00     0.185 C 
HETATM   24  O3  UNL     1      -5.965  48.323 -25.200  1.00  0.00    -0.292 OA
BRANCH  23  25
HETATM   25  C21 UNL     1      -7.904  48.092 -23.786  1.00  0.00     0.260 C 
BRANCH  25  26
HETATM   26  O4  UNL     1      -8.488  47.345 -24.853  1.00  0.00    -0.314 OA
BRANCH  26  27
HETATM   27  C22 UNL     1      -9.789  47.665 -25.104  1.00  0.00     0.259 C 
HETATM   28  O5  UNL     1     -10.744  47.264 -24.453  1.00  0.00    -0.265 OA
BRANCH  27  29
HETATM   29  C23 UNL     1      -9.882  48.625 -26.256  1.00  0.00     0.120 C 
BRANCH  29  30
HETATM   30  C24 UNL     1     -10.606  47.977 -27.425  1.00  0.00     0.112 C 
BRANCH  30  31
HETATM   31  C25 UNL     1      -9.652  47.603 -28.538  1.00  0.00     0.218 C 
HETATM   32  O6  UNL     1      -9.555  46.472 -28.997  1.00  0.00    -0.274 OA
HETATM   33  N1  UNL     1      -8.907  48.670 -28.987  1.00  0.00    -0.361 N 
HETATM   34  H34 UNL     1      -9.206  49.607 -28.746  1.00  0.00     0.162 HD
BRANCH  33  35
HETATM   35  C26 UNL     1      -7.982  48.535 -30.099  1.00  0.00     0.127 C 
BRANCH  35  36
HETATM   36  C27 UNL     1      -6.635  47.930 -29.687  1.00  0.00     0.058 C 
BRANCH  36  37
HETATM   37  C28 UNL     1      -5.829  47.445 -30.870  1.00  0.00    -0.057 A 
HETATM   38  C29 UNL     1      -5.276  48.362 -31.775  1.00  0.00     0.007 A 
HETATM   39  C30 UNL     1      -4.518  47.916 -32.859  1.00  0.00     0.001 A 
HETATM   40  C31 UNL     1      -4.305  46.551 -33.047  1.00  0.00     0.000 A 
HETATM   41  C32 UNL     1      -4.849  45.632 -32.152  1.00  0.00     0.001 A 
HETATM   42  C33 UNL     1      -5.607  46.076 -31.068  1.00  0.00     0.007 A 
ENDBRANCH  36  37
ENDBRANCH  35  36
ENDBRANCH  33  35
ENDBRANCH  30  31
ENDBRANCH  29  30
ENDBRANCH  27  29
ENDBRANCH  26  27
ENDBRANCH  25  26
ENDBRANCH  23  25
ENDBRANCH  20  23
TORSDOF 11
ENDMDL
