MODEL 1
REMARK minimizedAffinity -10.2533703
REMARK CNNscore 0.721509695
REMARK CNNaffinity 7.98707533
REMARK  16 active torsions:
REMARK  status: ('A' for Active; 'I' for Inactive)
REMARK    1  A    between atoms: C2_2  and  C4_4 
REMARK    2  A    between atoms: C4_4  and  C6_6 
REMARK    3  A    between atoms: C7_7  and  C8_8 
REMARK    4  A    between atoms: C8_8  and  C10_10 
REMARK    5  A    between atoms: C15_15  and  O1_16 
REMARK    6  A    between atoms: C19_21  and  O3_22 
REMARK    7  A    between atoms: O3_22  and  C20_23 
REMARK    8  A    between atoms: C20_23  and  C21_24 
REMARK    9  A    between atoms: C21_24  and  N1_25 
REMARK   10  A    between atoms: C21_24  and  C22_26 
REMARK   11  A    between atoms: C22_26  and  O4_27 
REMARK   12  A    between atoms: C22_26  and  C23_32 
REMARK   13  A    between atoms: O4_27  and  S1_28 
REMARK   14  A    between atoms: S1_28  and  O7_31 
REMARK   15  A    between atoms: C33_42  and  C34_43 
REMARK   16  A    between atoms: C34_43  and  O9_45 
ROOT
HETATM    1  C10 UNL     1      -2.531   5.677  12.353  1.00  0.00     0.016 C 
HETATM    2  C11 UNL     1      -2.695   4.146  12.300  1.00  0.00     0.011 C 
HETATM    3  C12 UNL     1      -4.188   3.916  12.486  1.00  0.00     0.036 C 
HETATM    4  C13 UNL     1      -4.659   5.099  13.288  1.00  0.00    -0.055 C 
HETATM    5  C14 UNL     1      -5.923   5.315  13.715  1.00  0.00    -0.040 C 
HETATM    6  C15 UNL     1      -7.053   4.368  13.403  1.00  0.00     0.179 C 
HETATM    7  C16 UNL     1      -8.370   5.011  13.108  1.00  0.00     0.191 A 
HETATM    8  O2  UNL     1      -8.312   6.278  12.422  1.00  0.00    -0.365 OA
HETATM    9  C17 UNL     1      -8.748   6.297  13.791  1.00  0.00     0.100 A 
HETATM   10  C18 UNL     1     -10.208   6.622  13.942  1.00  0.00     0.073 C 
HETATM   11  C19 UNL     1     -10.443   8.132  14.036  1.00  0.00     0.124 C 
HETATM   12  C26 UNL     1      -9.571   8.739  15.143  1.00  0.00     0.033 C 
HETATM   13  C27 UNL     1      -8.090   8.435  14.902  1.00  0.00     0.015 C 
HETATM   14  C28 UNL     1      -7.766   6.913  14.790  1.00  0.00    -0.002 C 
HETATM   15  C29 UNL     1      -8.002   6.265  16.185  1.00  0.00     0.019 C 
HETATM   16  C30 UNL     1      -6.239   6.648  14.406  1.00  0.00     0.029 C 
HETATM   17  C31 UNL     1      -5.578   7.775  13.574  1.00  0.00     0.011 C 
HETATM   18  C32 UNL     1      -4.099   7.546  13.182  1.00  0.00     0.026 C 
HETATM   19  C33 UNL     1      -3.543   6.124  13.453  1.00  0.00     0.073 C 
ENDROOT
BRANCH  11  20
HETATM   20  O3  UNL     1     -11.813   8.385  14.372  1.00  0.00    -0.384 OA
BRANCH  20  21
HETATM   21  C20 UNL     1     -12.696   8.274  13.237  1.00  0.00     0.206 C 
BRANCH  21  22
HETATM   22  C21 UNL     1     -13.043   9.700  12.755  1.00  0.00     0.272 C 
BRANCH  22  23
HETATM   23  N1  UNL     1     -12.330   9.959  11.477  1.00  0.00     0.087 N 
HETATM   24  H32 UNL     1     -11.347   9.733  11.649  1.00  0.00     0.313 HD
HETATM   25  H33 UNL     1     -12.616   9.253  10.786  1.00  0.00     0.313 HD
ENDBRANCH  22  23
BRANCH  22  26
HETATM   26  C22 UNL     1     -14.563   9.986  12.577  1.00  0.00     0.182 C 
BRANCH  26  27
HETATM   27  O4  UNL     1     -15.362   8.856  12.941  1.00  0.00    -0.256 OA
BRANCH  27  28
HETATM   28  S1  UNL     1     -16.291   8.178  11.793  1.00  0.00     0.240 S 
HETATM   29  O5  UNL     1     -15.657   6.953  11.353  1.00  0.00    -0.579 OA
HETATM   30  O6  UNL     1     -17.669   8.227  12.229  1.00  0.00    -0.579 OA
BRANCH  28  31
HETATM   31  O7  UNL     1     -16.120   9.206  10.566  1.00  0.00    -0.274 OA
HETATM   32  H35 UNL     1     -15.357   8.907  10.036  1.00  0.00     0.234 HD
ENDBRANCH  28  31
ENDBRANCH  27  28
ENDBRANCH  26  27
BRANCH  26  33
HETATM   33  C23 UNL     1     -15.068  11.233  13.357  1.00  0.00     0.010 C 
HETATM   34  C24 UNL     1     -14.149  11.519  14.553  1.00  0.00     0.012 C 
HETATM   35  C25 UNL     1     -15.193  12.507  12.519  1.00  0.00     0.012 C 
ENDBRANCH  26  33
ENDBRANCH  22  26
ENDBRANCH  21  22
ENDBRANCH  20  21
ENDBRANCH  11  20
BRANCH   6  36
HETATM   36  O1  UNL     1      -7.203   3.500  14.524  1.00  0.00    -0.388 OA
HETATM   37  H24 UNL     1      -7.696   2.724  14.212  1.00  0.00     0.210 HD
ENDBRANCH   6  36
BRANCH  19  38
HETATM   38  C34 UNL     1      -2.979   6.045  14.887  1.00  0.00     0.153 C 
HETATM   39  O8  UNL     1      -2.942   6.954  15.702  1.00  0.00    -0.649 OA
BRANCH  38  40
HETATM   40  O9  UNL     1      -2.534   4.824  15.258  1.00  0.00    -0.776 OA
HETATM   41  H55 UNL     1      -2.296   4.953  16.199  1.00  0.00     0.167 HD
ENDBRANCH  38  40
ENDBRANCH  19  38
BRANCH   1  42
HETATM   42  C8  UNL     1      -1.039   6.095  12.488  1.00  0.00     0.009 C 
HETATM   43  C9  UNL     1      -0.846   7.552  12.920  1.00  0.00     0.014 C 
BRANCH  42  44
HETATM   44  C7  UNL     1      -0.236   5.852  11.216  1.00  0.00    -0.026 C 
HETATM   45  C6  UNL     1       0.796   6.602  10.792  1.00  0.00    -0.026 C 
BRANCH  45  46
HETATM   46  C4  UNL     1       1.559   6.368   9.505  1.00  0.00     0.007 C 
HETATM   47  C5  UNL     1       2.979   5.897   9.843  1.00  0.00     0.014 C 
BRANCH  46  48
HETATM   48  C2  UNL     1       1.507   7.625   8.590  1.00  0.00    -0.015 C 
HETATM   49  C1  UNL     1       1.937   7.373   7.140  1.00  0.00     0.010 C 
HETATM   50  C3  UNL     1       0.123   8.281   8.601  1.00  0.00     0.010 C 
ENDBRANCH  46  48
ENDBRANCH  45  46
ENDBRANCH  42  44
ENDBRANCH   1  42
TORSDOF 16
ENDMDL
