MODEL 1
REMARK minimizedAffinity -8.22818375
REMARK CNNscore 0.323316783
REMARK CNNaffinity 5.31281328
REMARK  6 active torsions:
REMARK  status: ('A' for Active; 'I' for Inactive)
REMARK    1  A    between atoms: C2_2  and  C4_4 
REMARK    2  A    between atoms: C4_4  and  C5_5 
REMARK    3  A    between atoms: C11_13  and  O2_14 
REMARK    4  A    between atoms: C12_16  and  N2_17 
REMARK    5  A    between atoms: C12_16  and  C29_37 
REMARK       I    between atoms: N2_17  and  C13_18 
REMARK    6  A    between atoms: C13_18  and  C14_20 
ROOT
HETATM    1  C5  UNL     1     -19.697  44.942 -22.761  1.00  0.00     0.185 C 
HETATM    2  C6  UNL     1     -20.643  43.733 -22.996  1.00  0.00     0.243 C 
HETATM    3  O1  UNL     1     -21.863  43.809 -22.888  1.00  0.00    -0.271 OA
HETATM    4  N1  UNL     1     -20.003  42.536 -23.252  1.00  0.00    -0.338 N 
HETATM    5  C7  UNL     1     -20.682  41.296 -23.563  1.00  0.00     0.127 C 
HETATM    6  C8  UNL     1     -19.566  40.257 -23.565  1.00  0.00     0.022 C 
HETATM    7  C9  UNL     1     -18.338  41.064 -23.994  1.00  0.00     0.034 C 
HETATM    8  C10 UNL     1     -18.547  42.394 -23.270  1.00  0.00     0.173 C 
HETATM    9  C11 UNL     1     -17.815  43.634 -23.851  1.00  0.00     0.276 C 
HETATM   10  O3  UNL     1     -17.512  43.496 -25.224  1.00  0.00    -0.295 OA
HETATM   11  C12 UNL     1     -17.601  44.785 -25.852  1.00  0.00     0.227 C 
HETATM   12  C32 UNL     1     -18.589  45.511 -24.927  1.00  0.00     0.281 C 
HETATM   13  O5  UNL     1     -19.194  46.545 -25.162  1.00  0.00    -0.268 OA
HETATM   14  N5  UNL     1     -18.589  44.831 -23.728  1.00  0.00    -0.277 N 
ENDROOT
BRANCH  11  15
HETATM   15  N2  UNL     1     -16.312  45.450 -25.754  1.00  0.00    -0.321 N 
HETATM   16  C13 UNL     1     -16.092  46.602 -25.040  1.00  0.00     0.226 C 
HETATM   17  O4  UNL     1     -16.975  47.209 -24.447  1.00  0.00    -0.273 OA
HETATM   18  H19 UNL     1     -15.528  44.987 -26.201  1.00  0.00     0.166 HD
BRANCH  16  19
HETATM   19  C14 UNL     1     -14.643  47.069 -25.072  1.00  0.00     0.107 C 
HETATM   20  C15 UNL     1     -14.063  46.936 -26.483  1.00  0.00     0.027 C 
HETATM   21  C16 UNL     1     -12.585  47.346 -26.502  1.00  0.00     0.054 C 
HETATM   22  C17 UNL     1     -11.938  47.190 -27.869  1.00  0.00    -0.039 A 
HETATM   23  C26 UNL     1     -11.770  46.551 -25.387  1.00  0.00     0.235 C 
HETATM   24  C18 UNL     1     -12.560  47.305 -29.120  1.00  0.00     0.008 A 
HETATM   25  C24 UNL     1     -10.553  46.983 -27.887  1.00  0.00     0.005 A 
HETATM   26  C19 UNL     1     -11.822  47.181 -30.309  1.00  0.00     0.003 A 
HETATM   27  C20 UNL     1     -10.437  46.949 -30.304  1.00  0.00     0.030 A 
HETATM   28  C21 UNL     1      -9.825  46.860 -29.054  1.00  0.00     0.043 A 
HETATM   29  N3  UNL     1      -8.518  46.661 -28.666  1.00  0.00    -0.365 N 
HETATM   30  C22 UNL     1      -8.422  46.655 -27.289  1.00  0.00     0.096 A 
HETATM   31  H27 UNL     1      -7.743  46.534 -29.303  1.00  0.00     0.165 HD
HETATM   32  C23 UNL     1      -9.686  46.853 -26.784  1.00  0.00    -0.028 A 
HETATM   33  C25 UNL     1     -10.239  46.938 -25.401  1.00  0.00     0.077 C 
HETATM   34  N4  UNL     1     -12.402  46.740 -24.049  1.00  0.00     0.090 N 
HETATM   35  C27 UNL     1     -11.682  46.031 -22.985  1.00  0.00     0.310 C 
HETATM   36  C28 UNL     1     -13.803  46.274 -24.069  1.00  0.00     0.286 C 
ENDBRANCH  16  19
ENDBRANCH  11  15
BRANCH  11  37
HETATM   37  C29 UNL     1     -18.100  44.619 -27.306  1.00  0.00     0.043 C 
HETATM   38  C30 UNL     1     -19.373  43.775 -27.428  1.00  0.00     0.015 C 
HETATM   39  C31 UNL     1     -17.012  44.062 -28.235  1.00  0.00     0.015 C 
ENDBRANCH  11  37
BRANCH   9  40
HETATM   40  O2  UNL     1     -16.607  43.855 -23.157  1.00  0.00    -0.347 OA
HETATM   41  H18 UNL     1     -15.991  43.226 -23.573  1.00  0.00     0.215 HD
ENDBRANCH   9  40
BRANCH   1  42
HETATM   42  C4  UNL     1     -19.166  44.998 -21.318  1.00  0.00     0.039 C 
BRANCH  42  43
HETATM   43  C2  UNL     1     -18.673  46.392 -20.875  1.00  0.00    -0.020 C 
HETATM   44  C1  UNL     1     -19.211  46.807 -19.507  1.00  0.00     0.009 C 
HETATM   45  C3  UNL     1     -17.141  46.417 -20.859  1.00  0.00     0.009 C 
ENDBRANCH  42  43
ENDBRANCH   1  42
TORSDOF 6
ENDMDL
