MODEL 1
REMARK minimizedAffinity -7.00563192
REMARK CNNscore 0.319740742
REMARK CNNaffinity 6.18727303
REMARK  13 active torsions:
REMARK  status: ('A' for Active; 'I' for Inactive)
REMARK    1  A    between atoms: O1_2  and  C2_3 
REMARK    2  A    between atoms: C3_5  and  C4_6 
REMARK    3  A    between atoms: C4_6  and  O3_7 
REMARK    4  A    between atoms: C4_6  and  C5_8 
REMARK    5  A    between atoms: C5_8  and  O4_10 
REMARK    6  A    between atoms: C5_8  and  C7_11 
REMARK    7  A    between atoms: C7_11  and  O5_12 
REMARK    8  A    between atoms: C9_14  and  C10_15 
REMARK    9  A    between atoms: C23_28  and  O6_29 
REMARK   10  A    between atoms: O6_29  and  C24_30 
REMARK   11  A    between atoms: C24_30  and  C25_32 
REMARK   12  A    between atoms: C25_32  and  C26_33 
REMARK   13  A    between atoms: C34_41  and  O8_42 
ROOT
HETATM    1  C10 UNL     1      -9.654  -7.963  -3.421  1.00  0.00     0.004 C 
HETATM    2  C11 UNL     1     -11.121  -7.821  -2.943  1.00  0.00     0.007 C 
HETATM    3  C12 UNL     1     -11.183  -8.588  -1.615  1.00  0.00     0.011 C 
HETATM    4  C13 UNL     1      -9.776  -8.492  -1.036  1.00  0.00    -0.021 A 
HETATM    5  C14 UNL     1      -9.198  -7.094  -0.970  1.00  0.00     0.022 A 
HETATM    6  C15 UNL     1      -8.843  -8.013  -2.130  1.00  0.00    -0.027 A 
HETATM    7  C16 UNL     1      -7.415  -8.503  -2.202  1.00  0.00     0.011 C 
HETATM    8  C17 UNL     1      -7.051  -9.640  -1.239  1.00  0.00     0.007 C 
HETATM    9  C18 UNL     1      -7.736  -9.517   0.137  1.00  0.00     0.005 C 
HETATM   10  C19 UNL     1      -7.086 -10.398   1.294  1.00  0.00    -0.035 C 
HETATM   11  C20 UNL     1      -6.999 -11.893   0.911  1.00  0.00     0.016 C 
HETATM   12  C21 UNL     1      -5.617  -9.894   1.528  1.00  0.00     0.012 C 
HETATM   13  C22 UNL     1      -5.215  -9.702   2.995  1.00  0.00     0.034 C 
HETATM   14  C23 UNL     1      -5.756 -10.785   3.929  1.00  0.00     0.140 C 
HETATM   15  C29 UNL     1      -7.324 -10.839   3.915  1.00  0.00    -0.016 C 
HETATM   16  C30 UNL     1      -7.848 -12.272   4.148  1.00  0.00     0.018 C 
HETATM   17  C31 UNL     1      -7.808  -9.999   5.135  1.00  0.00     0.018 C 
HETATM   18  C32 UNL     1      -7.910 -10.162   2.610  1.00  0.00     0.007 C 
HETATM   19  C33 UNL     1      -9.426 -10.396   2.391  1.00  0.00     0.038 C 
HETATM   20  C34 UNL     1     -10.004  -9.451   1.326  1.00  0.00     0.128 C 
HETATM   21  C35 UNL     1      -9.300  -9.613  -0.051  1.00  0.00    -0.005 C 
HETATM   22  C36 UNL     1      -9.726 -10.980  -0.662  1.00  0.00     0.019 C 
ENDROOT
BRANCH   1  23
HETATM   23  C9  UNL     1      -9.323  -6.918  -4.493  1.00  0.00     0.048 C 
HETATM   24  C2  UNL     1      -9.612  -7.190  -5.967  1.00  0.00     0.264 C 
HETATM   25  O2  UNL     1      -9.379  -5.926  -6.611  1.00  0.00    -0.353 OA
HETATM   26  C3  UNL     1      -9.526  -4.867  -5.636  1.00  0.00     0.157 C 
HETATM   27  C8  UNL     1      -9.962  -5.552  -4.338  1.00  0.00     0.044 C 
BRANCH  24  28
HETATM   28  O1  UNL     1     -10.970  -7.540  -6.198  1.00  0.00    -0.366 OA
HETATM   29  C1  UNL     1     -11.111  -8.401  -7.320  1.00  0.00     0.204 C 
ENDBRANCH  24  28
BRANCH  26  30
HETATM   30  C4  UNL     1     -10.553  -3.829  -6.136  1.00  0.00     0.183 C 
BRANCH  30  31
HETATM   31  O3  UNL     1     -10.361  -3.586  -7.537  1.00  0.00    -0.390 OA
HETATM   32  H7  UNL     1      -9.450  -3.884  -7.745  1.00  0.00     0.210 HD
ENDBRANCH  30  31
BRANCH  30  33
HETATM   33  C5  UNL     1     -10.592  -2.485  -5.346  1.00  0.00     0.103 C 
HETATM   34  C6  UNL     1     -11.757  -1.615  -5.843  1.00  0.00     0.051 C 
BRANCH  33  35
HETATM   35  O4  UNL     1     -10.825  -2.769  -3.944  1.00  0.00    -0.385 OA
HETATM   36  H11 UNL     1     -11.750  -3.064  -3.857  1.00  0.00     0.210 HD
ENDBRANCH  33  35
BRANCH  33  37
HETATM   37  C7  UNL     1      -9.290  -1.661  -5.418  1.00  0.00     0.204 C 
BRANCH  37  38
HETATM   38  O5  UNL     1      -8.410  -2.012  -4.350  1.00  0.00    -0.398 OA
HETATM   39  H14 UNL     1      -9.001  -2.152  -3.583  1.00  0.00     0.209 HD
ENDBRANCH  37  38
ENDBRANCH  33  37
ENDBRANCH  30  33
ENDBRANCH  26  30
ENDBRANCH   1  23
BRANCH  20  40
HETATM   40  O8  UNL     1      -9.867  -8.111   1.812  1.00  0.00    -0.395 OA
HETATM   41  H57 UNL     1     -10.423  -8.030   2.605  1.00  0.00     0.210 HD
ENDBRANCH  20  40
BRANCH  14  42
HETATM   42  O6  UNL     1      -5.160 -12.031   3.514  1.00  0.00    -0.315 OA
BRANCH  42  43
HETATM   43  C24 UNL     1      -3.963 -12.376   4.074  1.00  0.00     0.259 C 
HETATM   44  O7  UNL     1      -2.887 -12.359   3.498  1.00  0.00    -0.265 OA
BRANCH  43  45
HETATM   45  C25 UNL     1      -4.199 -12.751   5.523  1.00  0.00     0.115 C 
BRANCH  45  46
HETATM   46  C26 UNL     1      -3.635 -11.787   6.579  1.00  0.00    -0.013 C 
HETATM   47  C27 UNL     1      -2.778 -10.678   5.965  1.00  0.00     0.010 C 
HETATM   48  C28 UNL     1      -4.716 -11.212   7.494  1.00  0.00     0.010 C 
ENDBRANCH  45  46
ENDBRANCH  43  45
ENDBRANCH  42  43
ENDBRANCH  14  42
TORSDOF 13
ENDMDL
