MODEL 1
REMARK minimizedAffinity -9.4746685
REMARK  7 active torsions:
REMARK  status: ('A' for Active; 'I' for Inactive)
REMARK    1  A    between atoms: C2_2  and  C30_32 
REMARK    2  A    between atoms: C3_3  and  C4_4 
REMARK    3  A    between atoms: C4_4  and  O1_5 
REMARK    4  A    between atoms: C4_4  and  C5_6 
REMARK    5  A    between atoms: C5_6  and  C6_7 
REMARK    6  A    between atoms: C6_7  and  C8_9 
REMARK    7  A    between atoms: C30_32  and  O4_34 
ROOT
HETATM    1  C8  UNL     1      -6.324   7.308  14.182  1.00  0.00    -0.002 C 
HETATM    2  C9  UNL     1      -6.200   8.627  15.003  1.00  0.00     0.007 C 
HETATM    3  C10 UNL     1      -4.707   8.995  15.071  1.00  0.00     0.015 C 
HETATM    4  C11 UNL     1      -4.032   8.087  14.026  1.00  0.00    -0.013 C 
HETATM    5  C12 UNL     1      -4.208   8.805  12.652  1.00  0.00     0.021 C 
HETATM    6  C13 UNL     1      -2.542   7.810  14.170  1.00  0.00    -0.070 C 
HETATM    7  C14 UNL     1      -1.698   8.605  14.851  1.00  0.00    -0.022 C 
HETATM    8  C15 UNL     1      -0.222   8.340  14.879  1.00  0.00     0.034 C 
HETATM    9  C16 UNL     1       0.214   7.864  13.485  1.00  0.00     0.013 C 
HETATM   10  C17 UNL     1       1.755   7.885  13.235  1.00  0.00     0.018 C 
HETATM   11  C18 UNL     1       2.215   9.321  12.906  1.00  0.00     0.023 C 
HETATM   12  C19 UNL     1       2.582   7.399  14.440  1.00  0.00     0.023 C 
HETATM   13  C20 UNL     1       2.083   7.033  12.001  1.00  0.00     0.135 C 
HETATM   14  O2  UNL     1       3.210   6.573  11.807  1.00  0.00    -0.297 OA
HETATM   15  C21 UNL     1       0.999   6.858  10.957  1.00  0.00     0.080 C 
HETATM   16  C22 UNL     1      -0.373   6.467  11.516  1.00  0.00     0.017 C 
HETATM   17  C23 UNL     1      -0.507   6.534  13.061  1.00  0.00    -0.031 C 
HETATM   18  C24 UNL     1       0.155   5.260  13.655  1.00  0.00     0.016 C 
HETATM   19  C25 UNL     1      -2.022   6.501  13.569  1.00  0.00     0.024 C 
HETATM   20  C26 UNL     1      -3.019   5.818  12.603  1.00  0.00     0.010 C 
HETATM   21  C27 UNL     1      -4.493   5.772  13.069  1.00  0.00     0.011 C 
HETATM   22  C28 UNL     1      -4.856   6.759  14.200  1.00  0.00    -0.029 C 
HETATM   23  C29 UNL     1      -4.611   6.055  15.573  1.00  0.00     0.016 C 
ENDROOT
BRANCH   1  24
HETATM   24  C6  UNL     1      -7.501   6.413  14.684  1.00  0.00    -0.011 C 
HETATM   25  C7  UNL     1      -7.060   5.465  15.804  1.00  0.00     0.010 C 
BRANCH  24  26
HETATM   26  C5  UNL     1      -8.097   5.596  13.499  1.00  0.00     0.040 C 
BRANCH  26  27
HETATM   27  C4  UNL     1      -7.748   4.096  13.498  1.00  0.00     0.142 C 
BRANCH  27  28
HETATM   28  C3  UNL     1      -6.605   3.811  12.565  1.00  0.00     0.018 C 
HETATM   29  C2  UNL     1      -6.232   2.622  12.046  1.00  0.00     0.010 C 
HETATM   30  C1  UNL     1      -6.893   1.299  12.283  1.00  0.00     0.055 C 
BRANCH  29  31
HETATM   31  C30 UNL     1      -5.047   2.645  11.149  1.00  0.00     0.171 C 
HETATM   32  O3  UNL     1      -3.892   2.416  11.460  1.00  0.00    -0.646 OA
BRANCH  31  33
HETATM   33  O4  UNL     1      -5.371   2.948   9.882  1.00  0.00    -0.773 OA
HETATM   34  H46 UNL     1      -4.511   2.929   9.414  1.00  0.00     0.167 HD
ENDBRANCH  31  33
ENDBRANCH  29  31
ENDBRANCH  27  28
BRANCH  27  35
HETATM   35  O1  UNL     1      -8.865   3.336  13.052  1.00  0.00    -0.392 OA
HETATM   36  H6  UNL     1      -9.071   3.611  12.143  1.00  0.00     0.210 HD
ENDBRANCH  27  35
ENDBRANCH  26  27
ENDBRANCH  24  26
ENDBRANCH   1  24
TORSDOF 7
ENDMDL
