MODEL 1
REMARK minimizedAffinity -7.74528074
REMARK CNNscore 0.32435286
REMARK CNNaffinity 6.69354868
REMARK  10 active torsions:
REMARK  status: ('A' for Active; 'I' for Inactive)
REMARK    1  A    between atoms: C3_3  and  C4_4 
REMARK    2  A    between atoms: C4_4  and  O1_5 
REMARK    3  A    between atoms: C5_6  and  C6_7 
REMARK    4  A    between atoms: C6_7  and  O2_8 
REMARK    5  A    between atoms: C6_7  and  C7_9 
REMARK    6  A    between atoms: C7_9  and  O3_11 
REMARK    7  A    between atoms: C7_9  and  C9_12 
REMARK    8  A    between atoms: C16_20  and  C17_21 
REMARK    9  A    between atoms: C39_46  and  C40_47 
REMARK   10  A    between atoms: C40_47  and  O8_48 
ROOT
HETATM    1  C9  UNL     1      -9.000 -10.173   1.517  1.00  0.00     0.034 C 
HETATM    2  C10 UNL     1      -9.857 -10.995   2.521  1.00  0.00     0.012 C 
HETATM    3  C11 UNL     1      -8.869 -11.708   3.463  1.00  0.00     0.044 C 
HETATM    4  C12 UNL     1      -7.576 -10.876   3.363  1.00  0.00     0.093 C 
HETATM    5  O4  UNL     1      -7.722  -9.567   3.966  1.00  0.00    -0.363 OA
HETATM    6  C13 UNL     1      -8.377  -9.400   5.223  1.00  0.00     0.263 C 
HETATM    7  C14 UNL     1      -7.443  -9.282   6.346  1.00  0.00    -0.080 C 
HETATM    8  C15 UNL     1      -6.744  -9.113   7.315  1.00  0.00    -0.093 C 
HETATM    9  C16 UNL     1      -5.885  -8.864   8.499  1.00  0.00     0.121 C 
HETATM   10  C23 UNL     1      -4.717  -9.873   8.597  1.00  0.00     0.190 C 
HETATM   11  O5  UNL     1      -3.633  -9.564   7.705  1.00  0.00    -0.384 OA
HETATM   12  C24 UNL     1      -3.775 -10.130   6.404  1.00  0.00     0.122 C 
HETATM   13  C25 UNL     1      -2.897  -9.346   5.424  1.00  0.00     0.033 C 
HETATM   14  C26 UNL     1      -2.582 -10.114   4.132  1.00  0.00     0.013 C 
HETATM   15  C27 UNL     1      -3.601 -11.242   3.791  1.00  0.00    -0.026 C 
HETATM   16  C28 UNL     1      -3.021 -12.041   2.590  1.00  0.00     0.016 C 
HETATM   17  C29 UNL     1      -3.635 -12.233   4.997  1.00  0.00     0.071 C 
HETATM   18  C30 UNL     1      -3.398 -11.604   6.379  1.00  0.00     0.045 C 
HETATM   19  C31 UNL     1      -4.877 -13.100   5.033  1.00  0.00     0.154 C 
HETATM   20  O6  UNL     1      -4.874 -14.213   5.560  1.00  0.00    -0.293 OA
HETATM   21  C32 UNL     1      -6.151 -12.582   4.509  1.00  0.00     0.057 C 
HETATM   22  C33 UNL     1      -6.235 -11.438   3.816  1.00  0.00    -0.036 C 
HETATM   23  C34 UNL     1      -5.013 -10.589   3.443  1.00  0.00     0.026 C 
HETATM   24  C35 UNL     1      -5.067 -10.053   1.975  1.00  0.00     0.011 C 
HETATM   25  C36 UNL     1      -6.450  -9.590   1.496  1.00  0.00     0.014 C 
HETATM   26  C37 UNL     1      -7.529 -10.656   1.797  1.00  0.00    -0.002 C 
HETATM   27  C38 UNL     1      -7.199 -11.956   1.015  1.00  0.00     0.019 C 
ENDROOT
BRANCH   1  28
HETATM   28  C7  UNL     1      -9.547 -10.083   0.043  1.00  0.00     0.087 C 
HETATM   29  C8  UNL     1     -11.032 -10.485  -0.094  1.00  0.00     0.049 C 
BRANCH  28  30
HETATM   30  C6  UNL     1      -9.305  -8.620  -0.521  1.00  0.00     0.181 C 
BRANCH  30  31
HETATM   31  C5  UNL     1     -10.478  -7.628  -0.249  1.00  0.00     0.160 C 
HETATM   32  C3  UNL     1     -11.381  -7.883   0.968  1.00  0.00     0.047 C 
HETATM   33  C2  UNL     1     -12.519  -8.706   0.370  1.00  0.00     0.021 C 
HETATM   34  C1  UNL     1     -13.819  -8.682   1.168  1.00  0.00     0.013 C 
HETATM   35  C39 UNL     1     -12.669  -8.056  -1.001  1.00  0.00     0.149 C 
HETATM   36  O7  UNL     1     -11.363  -7.566  -1.392  1.00  0.00    -0.375 OA
BRANCH  32  37
HETATM   37  C4  UNL     1     -10.700  -8.490   2.187  1.00  0.00     0.172 C 
BRANCH  37  38
HETATM   38  O1  UNL     1     -10.932  -7.696   3.345  1.00  0.00    -0.400 OA
HETATM   39  H8  UNL     1     -10.520  -6.826   3.200  1.00  0.00     0.209 HD
ENDBRANCH  37  38
ENDBRANCH  32  37
BRANCH  35  40
HETATM   40  C40 UNL     1     -13.179  -9.013  -2.076  1.00  0.00     0.196 C 
BRANCH  40  41
HETATM   41  O8  UNL     1     -12.471 -10.250  -1.993  1.00  0.00    -0.398 OA
HETATM   42  H54 UNL     1     -12.444 -10.472  -1.041  1.00  0.00     0.209 HD
ENDBRANCH  40  41
ENDBRANCH  35  40
ENDBRANCH  30  31
BRANCH  30  43
HETATM   43  O2  UNL     1      -8.066  -8.082  -0.048  1.00  0.00    -0.390 OA
HETATM   44  H11 UNL     1      -7.344  -8.611  -0.431  1.00  0.00     0.210 HD
ENDBRANCH  30  43
ENDBRANCH  28  30
BRANCH  28  45
HETATM   45  O3  UNL     1      -8.785 -11.006  -0.746  1.00  0.00    -0.387 OA
HETATM   46  H15 UNL     1      -9.192 -11.029  -1.633  1.00  0.00     0.210 HD
ENDBRANCH  28  45
ENDBRANCH   1  28
BRANCH   9  47
HETATM   47  C17 UNL     1      -6.715  -8.887   9.776  1.00  0.00    -0.040 A 
HETATM   48  C18 UNL     1      -8.113  -9.022   9.736  1.00  0.00     0.008 A 
HETATM   49  C19 UNL     1      -8.850  -9.079  10.918  1.00  0.00     0.001 A 
HETATM   50  C20 UNL     1      -8.208  -8.996  12.150  1.00  0.00     0.000 A 
HETATM   51  C21 UNL     1      -6.824  -8.857  12.203  1.00  0.00     0.001 A 
HETATM   52  C22 UNL     1      -6.079  -8.801  11.024  1.00  0.00     0.008 A 
ENDBRANCH   9  47
TORSDOF 10
ENDMDL
