MODEL 1
REMARK minimizedAffinity -9.22029686
REMARK CNNscore 0.623129964
REMARK CNNaffinity 6.95722723
REMARK  8 active torsions:
REMARK  status: ('A' for Active; 'I' for Inactive)
REMARK    1  A    between atoms: C4_4  and  C5_5 
REMARK    2  A    between atoms: C5_5  and  C6_6 
REMARK    3  A    between atoms: C6_6  and  C7_7 
REMARK    4  A    between atoms: C7_7  and  C9_9 
REMARK    5  A    between atoms: C22_22  and  O1_23 
REMARK    6  A    between atoms: C24_25  and  O2_26 
REMARK    7  A    between atoms: C25_27  and  C27_29 
REMARK    8  A    between atoms: C27_29  and  O4_31 
ROOT
HETATM    1  C9  UNL     1      -0.544  50.483 -21.519  1.00  0.00    -0.002 C 
HETATM    2  C10 UNL     1      -0.516  50.098 -20.025  1.00  0.00     0.007 C 
HETATM    3  C11 UNL     1      -1.805  49.280 -19.754  1.00  0.00     0.015 C 
HETATM    4  C12 UNL     1      -2.327  48.872 -21.148  1.00  0.00    -0.005 C 
HETATM    5  C13 UNL     1      -1.512  47.615 -21.587  1.00  0.00     0.021 C 
HETATM    6  C14 UNL     1      -3.783  48.469 -21.372  1.00  0.00    -0.000 C 
HETATM    7  C15 UNL     1      -4.411  48.713 -22.554  1.00  0.00    -0.058 C 
HETATM    8  C16 UNL     1      -3.683  49.464 -23.687  1.00  0.00     0.036 C 
HETATM    9  C17 UNL     1      -2.240  49.941 -23.423  1.00  0.00     0.015 C 
HETATM   10  C18 UNL     1      -2.019  50.212 -21.934  1.00  0.00    -0.028 C 
HETATM   11  C19 UNL     1      -2.954  51.385 -21.504  1.00  0.00     0.016 C 
HETATM   12  C20 UNL     1      -5.908  48.347 -22.816  1.00  0.00     0.011 C 
HETATM   13  C21 UNL     1      -6.692  49.638 -22.487  1.00  0.00     0.023 C 
HETATM   14  C22 UNL     1      -6.136  47.890 -24.303  1.00  0.00     0.133 C 
HETATM   15  C23 UNL     1      -7.347  46.987 -24.573  1.00  0.00     0.065 C 
HETATM   16  C24 UNL     1      -8.379  46.974 -23.452  1.00  0.00     0.139 C 
HETATM   17  C25 UNL     1      -7.777  46.590 -22.072  1.00  0.00     0.072 C 
HETATM   18  C26 UNL     1      -7.737  45.043 -21.925  1.00  0.00     0.030 C 
HETATM   19  C28 UNL     1      -6.305  47.141 -21.902  1.00  0.00     0.029 C 
HETATM   20  C29 UNL     1      -5.946  47.399 -20.438  1.00  0.00     0.090 C 
HETATM   21  C30 UNL     1      -4.505  47.800 -20.246  1.00  0.00     0.157 C 
HETATM   22  O5  UNL     1      -3.967  47.619 -19.152  1.00  0.00    -0.293 OA
ENDROOT
BRANCH   1  23
HETATM   23  C7  UNL     1       0.221  51.767 -21.945  1.00  0.00    -0.014 C 
HETATM   24  C8  UNL     1       0.344  52.715 -20.738  1.00  0.00     0.010 C 
BRANCH  23  25
HETATM   25  C6  UNL     1      -0.160  52.555 -23.221  1.00  0.00     0.008 C 
BRANCH  25  26
HETATM   26  C5  UNL     1       0.868  52.821 -24.328  1.00  0.00     0.028 C 
BRANCH  26  27
HETATM   27  C4  UNL     1       0.404  52.478 -25.715  1.00  0.00    -0.025 C 
HETATM   28  C2  UNL     1       1.104  51.872 -26.697  1.00  0.00    -0.091 C 
HETATM   29  C1  UNL     1       0.467  51.593 -28.035  1.00  0.00     0.042 C 
HETATM   30  C3  UNL     1       2.537  51.420 -26.599  1.00  0.00     0.042 C 
ENDBRANCH  26  27
ENDBRANCH  25  26
ENDBRANCH  23  25
ENDBRANCH   1  23
BRANCH  14  31
HETATM   31  O1  UNL     1      -6.203  49.013 -25.195  1.00  0.00    -0.394 OA
HETATM   32  H35 UNL     1      -7.076  49.426 -25.117  1.00  0.00     0.210 HD
ENDBRANCH  14  31
BRANCH  17  33
HETATM   33  C27 UNL     1      -8.717  47.181 -21.015  1.00  0.00     0.151 C 
HETATM   34  O3  UNL     1      -8.657  48.312 -20.564  1.00  0.00    -0.649 OA
BRANCH  33  35
HETATM   35  O4  UNL     1      -9.620  46.313 -20.521  1.00  0.00    -0.776 OA
HETATM   36  H43 UNL     1     -10.121  46.814 -19.840  1.00  0.00     0.167 HD
ENDBRANCH  33  35
ENDBRANCH  17  33
BRANCH  16  37
HETATM   37  O2  UNL     1      -9.423  46.072 -23.840  1.00  0.00    -0.394 OA
HETATM   38  H39 UNL     1     -10.260  46.413 -23.484  1.00  0.00     0.210 HD
ENDBRANCH  16  37
TORSDOF 8
ENDMDL
