MODEL 1
REMARK minimizedAffinity -10.3053188
REMARK CNNscore 0.767498314
REMARK CNNaffinity 7.81500864
REMARK  13 active torsions:
REMARK  status: ('A' for Active; 'I' for Inactive)
REMARK    1  A    between atoms: O1_2  and  C2_3 
REMARK    2  A    between atoms: C2_3  and  C3_4 
REMARK    3  A    between atoms: C3_4  and  C4_5 
REMARK    4  A    between atoms: C4_5  and  N1_6 
REMARK    5  A    between atoms: N1_6  and  C5_7 
REMARK    6  A    between atoms: C5_7  and  C6_8 
REMARK    7  A    between atoms: C10_12  and  O2_13 
REMARK    8  A    between atoms: C23_28  and  O5_29 
REMARK    9  A    between atoms: C27_33  and  C28_34 
REMARK   10  A    between atoms: C28_34  and  C30_36 
REMARK   11  A    between atoms: C38_44  and  O6_45 
REMARK   12  A    between atoms: C41_48  and  C42_49 
REMARK   13  A    between atoms: C43_51  and  O8_52 
ROOT
HETATM    1  C6  UNL     1       1.408   6.047  12.013  1.00  0.00    -0.016 C 
HETATM    2  C7  UNL     1       1.680   6.277  13.324  1.00  0.00    -0.013 C 
HETATM    3  C8  UNL     1       0.603   6.554  14.352  1.00  0.00     0.021 C 
HETATM    4  C9  UNL     1       0.893   7.638  15.387  1.00  0.00     0.051 C 
HETATM    5  C10 UNL     1       0.543   8.977  14.713  1.00  0.00     0.098 C 
HETATM    6  C11 UNL     1      -0.496   8.617  13.565  1.00  0.00     0.002 C 
HETATM    7  C12 UNL     1       0.056   9.073  12.173  1.00  0.00     0.013 C 
HETATM    8  C13 UNL     1      -0.712   8.599  10.947  1.00  0.00     0.004 C 
HETATM    9  C14 UNL     1      -0.234   7.251  10.403  1.00  0.00     0.048 C 
HETATM   10  C15 UNL     1      -0.011   6.129  11.445  1.00  0.00     0.120 C 
HETATM   11  O3  UNL     1      -0.360   4.893  10.800  1.00  0.00    -0.297 OA
HETATM   12  C16 UNL     1      -1.582   4.488  11.246  1.00  0.00     0.284 C 
HETATM   13  O4  UNL     1      -2.237   3.569  10.792  1.00  0.00    -0.260 OA
HETATM   14  C17 UNL     1      -1.968   5.297  12.402  1.00  0.00     0.089 C 
HETATM   15  C18 UNL     1      -1.011   6.211  12.542  1.00  0.00    -0.029 C 
HETATM   16  C19 UNL     1      -0.703   7.062  13.727  1.00  0.00     0.037 C 
HETATM   17  C20 UNL     1      -1.860   9.318  13.787  1.00  0.00     0.014 C 
HETATM   18  C21 UNL     1      -2.340   9.333  15.237  1.00  0.00     0.010 C 
HETATM   19  C22 UNL     1      -1.347   9.965  16.241  1.00  0.00     0.041 C 
HETATM   20  C23 UNL     1       0.076  10.120  15.686  1.00  0.00     0.095 C 
HETATM   21  C24 UNL     1       0.997  10.238  16.898  1.00  0.00     0.049 C 
HETATM   22  C25 UNL     1       0.649  11.367  17.901  1.00  0.00     0.025 C 
HETATM   23  C26 UNL     1       0.966  10.858  19.331  1.00  0.00     0.012 C 
HETATM   24  C27 UNL     1       1.264  11.929  20.420  1.00  0.00    -0.010 C 
HETATM   25  C35 UNL     1       1.073  13.387  19.958  1.00  0.00     0.005 C 
HETATM   26  C36 UNL     1      -0.380  13.772  19.677  1.00  0.00     0.010 C 
HETATM   27  C37 UNL     1      -1.269  12.670  19.067  1.00  0.00     0.050 C 
HETATM   28  C38 UNL     1      -2.734  13.146  19.064  1.00  0.00     0.125 C 
HETATM   29  C39 UNL     1      -3.697  12.039  18.639  1.00  0.00     0.033 C 
HETATM   30  C40 UNL     1      -3.027  10.886  17.886  1.00  0.00     0.023 C 
HETATM   31  C41 UNL     1      -1.876  11.289  16.923  1.00  0.00     0.051 C 
HETATM   32  C43 UNL     1      -0.745  12.097  17.702  1.00  0.00     0.082 C 
ENDROOT
BRANCH   1  33
HETATM   33  C5  UNL     1       2.508   5.638  11.064  1.00  0.00     0.306 C 
BRANCH  33  34
HETATM   34  N1  UNL     1       3.742   6.309  11.438  1.00  0.00     0.087 N 
HETATM   35  H10 UNL     1       4.405   5.635  11.827  1.00  0.00     0.316 HD
BRANCH  34  36
HETATM   36  C4  UNL     1       4.358   7.017  10.322  1.00  0.00     0.272 C 
BRANCH  36  37
HETATM   37  C3  UNL     1       3.432   7.113   9.102  1.00  0.00     0.056 C 
BRANCH  37  38
HETATM   38  C2  UNL     1       3.242   8.531   8.571  1.00  0.00     0.168 C 
BRANCH  38  39
HETATM   39  O1  UNL     1       2.724   8.463   7.244  1.00  0.00    -0.396 OA
HETATM   40  C1  UNL     1       1.890   7.330   7.055  1.00  0.00     0.201 C 
ENDBRANCH  38  39
ENDBRANCH  37  38
ENDBRANCH  36  37
ENDBRANCH  34  36
ENDBRANCH  33  34
ENDBRANCH   1  33
BRANCH   5  41
HETATM   41  O2  UNL     1       1.757   9.502  14.116  1.00  0.00    -0.386 OA
HETATM   42  H17 UNL     1       2.525   9.233  14.648  1.00  0.00     0.210 HD
ENDBRANCH   5  41
BRANCH  20  43
HETATM   43  O5  UNL     1       0.190  11.360  14.961  1.00  0.00    -0.386 OA
HETATM   44  H31 UNL     1       0.889  11.192  14.291  1.00  0.00     0.210 HD
ENDBRANCH  20  43
BRANCH  31  45
HETATM   45  C42 UNL     1      -2.474  12.183  15.810  1.00  0.00     0.244 C 
HETATM   46  O7  UNL     1      -2.558  11.878  14.621  1.00  0.00    -0.306 OA
ENDBRANCH  31  45
BRANCH  32  47
HETATM   47  O8  UNL     1      -0.394  13.230  16.873  1.00  0.00    -0.388 OA
HETATM   48  H63 UNL     1       0.024  12.884  16.055  1.00  0.00     0.210 HD
ENDBRANCH  32  47
BRANCH  24  49
HETATM   49  C28 UNL     1       2.644  11.740  21.148  1.00  0.00    -0.011 C 
HETATM   50  C29 UNL     1       2.900  12.887  22.140  1.00  0.00     0.011 C 
BRANCH  49  51
HETATM   51  C30 UNL     1       2.892  10.325  21.735  1.00  0.00    -0.010 C 
HETATM   52  C31 UNL     1       3.250  10.327  23.237  1.00  0.00     0.005 C 
HETATM   53  C32 UNL     1       2.679   9.035  23.821  1.00  0.00     0.000 C 
HETATM   54  C33 UNL     1       2.160   8.236  22.638  1.00  0.00     0.000 C 
HETATM   55  C34 UNL     1       1.755   9.307  21.636  1.00  0.00     0.005 C 
ENDBRANCH  49  51
ENDBRANCH  24  49
BRANCH  28  56
HETATM   56  O6  UNL     1      -2.927  14.328  18.301  1.00  0.00    -0.395 OA
HETATM   57  H57 UNL     1      -2.898  14.090  17.349  1.00  0.00     0.210 HD
ENDBRANCH  28  56
TORSDOF 13
ENDMDL
