MODEL 1
REMARK minimizedAffinity -7.70514393
REMARK CNNscore 0.634920657
REMARK CNNaffinity 7.50967789
REMARK  12 active torsions:
REMARK  status: ('A' for Active; 'I' for Inactive)
REMARK    1  A    between atoms: O1_2  and  C2_3 
REMARK    2  A    between atoms: C2_3  and  C5_6 
REMARK    3  A    between atoms: C6_7  and  C7_8 
REMARK    4  A    between atoms: C7_8  and  C8_9 
REMARK    5  A    between atoms: C8_9  and  C10_11 
REMARK    6  A    between atoms: C28_30  and  O3_31 
REMARK    7  A    between atoms: O3_31  and  C29_32 
REMARK    8  A    between atoms: C30_34  and  C31_35 
REMARK    9  A    between atoms: C31_35  and  O5_36 
REMARK   10  A    between atoms: C32_37  and  O6_38 
REMARK   11  A    between atoms: C33_39  and  O7_40 
REMARK   12  A    between atoms: C34_41  and  O8_42 
ROOT
HETATM    1  C10 UNL     1       2.971  55.956  -7.462  1.00  0.00    -0.002 C 
HETATM    2  C11 UNL     1       1.990  57.142  -7.162  1.00  0.00     0.006 C 
HETATM    3  C12 UNL     1       0.577  56.707  -7.628  1.00  0.00     0.011 C 
HETATM    4  C13 UNL     1       0.703  55.188  -7.828  1.00  0.00    -0.029 C 
HETATM    5  C14 UNL     1       0.622  54.589  -6.364  1.00  0.00     0.016 C 
HETATM    6  C15 UNL     1      -0.383  54.422  -8.671  1.00  0.00     0.028 C 
HETATM    7  C16 UNL     1      -1.487  55.141  -9.393  1.00  0.00    -0.021 C 
HETATM    8  C17 UNL     1      -2.179  54.497 -10.354  1.00  0.00     0.008 C 
HETATM    9  C18 UNL     1      -1.817  53.082 -10.836  1.00  0.00     0.092 C 
HETATM   10  O2  UNL     1      -0.776  53.338 -11.794  1.00  0.00    -0.374 OA
HETATM   11  C19 UNL     1       0.455  53.427 -11.039  1.00  0.00     0.179 C 
HETATM   12  C20 UNL     1       0.144  53.197  -9.518  1.00  0.00    -0.004 C 
HETATM   13  C21 UNL     1       1.368  52.583  -8.828  1.00  0.00     0.014 C 
HETATM   14  C22 UNL     1       2.528  53.585  -8.570  1.00  0.00     0.011 C 
HETATM   15  C23 UNL     1       2.132  55.083  -8.461  1.00  0.00    -0.032 C 
HETATM   16  C24 UNL     1       2.203  55.789  -9.850  1.00  0.00     0.016 C 
HETATM   17  C25 UNL     1      -1.061  52.254  -9.764  1.00  0.00     0.036 C 
HETATM   18  C26 UNL     1      -1.985  51.796  -8.635  1.00  0.00     0.011 C 
HETATM   19  C27 UNL     1      -3.170  51.006  -9.198  1.00  0.00     0.033 C 
HETATM   20  C28 UNL     1      -3.928  51.772 -10.302  1.00  0.00     0.136 C 
HETATM   21  C35 UNL     1      -2.989  52.253 -11.456  1.00  0.00     0.014 C 
HETATM   22  C36 UNL     1      -2.445  51.040 -12.263  1.00  0.00     0.021 C 
HETATM   23  C37 UNL     1      -3.810  53.082 -12.477  1.00  0.00     0.021 C 
ENDROOT
BRANCH  20  24
HETATM   24  O3  UNL     1      -4.954  50.952 -10.874  1.00  0.00    -0.352 OA
BRANCH  24  25
HETATM   25  C29 UNL     1      -5.314  49.805 -10.100  1.00  0.00     0.292 C 
HETATM   26  O4  UNL     1      -4.599  48.666 -10.577  1.00  0.00    -0.348 OA
HETATM   27  C30 UNL     1      -4.756  47.524  -9.720  1.00  0.00     0.179 C 
HETATM   28  C32 UNL     1      -6.221  47.309  -9.278  1.00  0.00     0.180 C 
HETATM   29  C33 UNL     1      -7.185  48.082 -10.187  1.00  0.00     0.183 C 
HETATM   30  C34 UNL     1      -6.830  49.577 -10.285  1.00  0.00     0.204 C 
BRANCH  27  31
HETATM   31  C31 UNL     1      -4.224  46.312 -10.492  1.00  0.00     0.198 C 
BRANCH  31  32
HETATM   32  O5  UNL     1      -2.804  46.261 -10.426  1.00  0.00    -0.398 OA
HETATM   33  H48 UNL     1      -2.522  45.515 -10.984  1.00  0.00     0.209 HD
ENDBRANCH  31  32
ENDBRANCH  27  31
BRANCH  28  34
HETATM   34  O6  UNL     1      -6.412  47.791  -7.933  1.00  0.00    -0.390 OA
HETATM   35  H50 UNL     1      -5.895  47.209  -7.347  1.00  0.00     0.210 HD
ENDBRANCH  28  34
BRANCH  29  36
HETATM   36  O7  UNL     1      -8.530  47.941  -9.699  1.00  0.00    -0.390 OA
HETATM   37  H52 UNL     1      -8.440  48.040  -8.726  1.00  0.00     0.210 HD
ENDBRANCH  29  36
BRANCH  30  38
HETATM   38  O8  UNL     1      -7.576  50.342  -9.320  1.00  0.00    -0.388 OA
HETATM   39  H54 UNL     1      -8.510  50.098  -9.473  1.00  0.00     0.210 HD
ENDBRANCH  30  38
ENDBRANCH  24  25
ENDBRANCH  20  24
BRANCH   1  40
HETATM   40  C8  UNL     1       4.397  56.454  -7.857  1.00  0.00    -0.010 C 
HETATM   41  C9  UNL     1       5.394  55.295  -7.983  1.00  0.00     0.010 C 
BRANCH  40  42
HETATM   42  C7  UNL     1       4.916  57.487  -6.817  1.00  0.00     0.031 C 
BRANCH  42  43
HETATM   43  C6  UNL     1       6.315  57.318  -6.267  1.00  0.00    -0.027 C 
HETATM   44  C5  UNL     1       6.923  58.076  -5.338  1.00  0.00     0.006 C 
BRANCH  44  45
HETATM   45  C2  UNL     1       8.318  57.899  -4.761  1.00  0.00     0.070 C 
HETATM   46  C3  UNL     1       8.382  57.503  -3.277  1.00  0.00     0.050 C 
HETATM   47  C4  UNL     1       9.063  59.233  -4.932  1.00  0.00     0.050 C 
BRANCH  45  48
HETATM   48  O1  UNL     1       9.035  56.962  -5.586  1.00  0.00    -0.382 OA
HETATM   49  C1  UNL     1       9.839  56.011  -4.901  1.00  0.00     0.202 C 
ENDBRANCH  45  48
ENDBRANCH  44  45
ENDBRANCH  42  43
ENDBRANCH  40  42
ENDBRANCH   1  40
TORSDOF 12
ENDMDL
