MODEL 1
REMARK minimizedAffinity -6.34661818
REMARK CNNscore 0.367817461
REMARK CNNaffinity 6.238379
REMARK  5 active torsions:
REMARK  status: ('A' for Active; 'I' for Inactive)
REMARK    1  A    between atoms: C4_4  and  C5_5 
REMARK    2  A    between atoms: C5_5  and  C6_6 
REMARK    3  A    between atoms: C6_6  and  C7_7 
REMARK    4  A    between atoms: C7_7  and  C9_9 
REMARK    5  A    between atoms: C26_29  and  O4_30 
ROOT
HETATM    1  C9  UNL     1      -1.160   8.777  13.013  1.00  0.00    -0.001 C 
HETATM    2  C10 UNL     1      -2.444   8.705  13.897  1.00  0.00     0.007 C 
HETATM    3  C11 UNL     1      -2.113   9.327  15.264  1.00  0.00     0.024 C 
HETATM    4  C12 UNL     1      -0.724   9.892  15.091  1.00  0.00     0.092 C 
HETATM    5  C13 UNL     1      -0.754  11.337  14.533  1.00  0.00     0.272 C 
HETATM    6  O1  UNL     1      -1.619  11.856  13.849  1.00  0.00    -0.264 OA
HETATM    7  O2  UNL     1       0.402  11.982  14.930  1.00  0.00    -0.305 OA
HETATM    8  C14 UNL     1       1.197  11.072  15.730  1.00  0.00     0.113 C 
HETATM    9  C15 UNL     1       2.091  10.277  14.727  1.00  0.00     0.043 C 
HETATM   10  C16 UNL     1       1.284   9.619  13.572  1.00  0.00     0.014 C 
HETATM   11  C17 UNL     1      -0.020   8.940  14.071  1.00  0.00    -0.020 C 
HETATM   12  C18 UNL     1       0.348   7.566  14.689  1.00  0.00     0.017 C 
HETATM   13  C19 UNL     1       0.135  10.159  16.264  1.00  0.00     0.137 A 
HETATM   14  O3  UNL     1       0.421   9.168  17.233  1.00  0.00    -0.364 OA
HETATM   15  C20 UNL     1      -0.387  10.278  17.678  1.00  0.00     0.162 A 
HETATM   16  C21 UNL     1       0.278  11.214  18.643  1.00  0.00     0.041 C 
HETATM   17  C22 UNL     1       0.931  12.399  17.895  1.00  0.00     0.009 C 
HETATM   18  C23 UNL     1       1.381  13.639  18.783  1.00  0.00    -0.017 C 
HETATM   19  C24 UNL     1       0.554  14.873  18.315  1.00  0.00     0.018 C 
HETATM   20  C25 UNL     1       1.052  13.457  20.285  1.00  0.00     0.018 C 
HETATM   21  C26 UNL     1       2.880  14.026  18.638  1.00  0.00     0.126 C 
HETATM   22  C27 UNL     1       3.454  13.964  17.221  1.00  0.00     0.033 C 
HETATM   23  C28 UNL     1       2.670  13.109  16.228  1.00  0.00     0.015 C 
HETATM   24  C29 UNL     1       1.979  11.871  16.844  1.00  0.00    -0.004 C 
HETATM   25  C30 UNL     1       3.048  10.940  17.472  1.00  0.00     0.019 C 
ENDROOT
BRANCH   1  26
HETATM   26  C7  UNL     1      -1.090   7.611  11.983  1.00  0.00    -0.014 C 
HETATM   27  C8  UNL     1      -1.430   6.262  12.629  1.00  0.00     0.010 C 
BRANCH  26  28
HETATM   28  C6  UNL     1       0.320   7.521  11.327  1.00  0.00     0.008 C 
BRANCH  28  29
HETATM   29  C5  UNL     1       0.556   8.549  10.208  1.00  0.00     0.028 C 
BRANCH  29  30
HETATM   30  C4  UNL     1       0.725   7.937   8.846  1.00  0.00    -0.025 C 
HETATM   31  C2  UNL     1       1.854   7.820   8.119  1.00  0.00    -0.091 C 
HETATM   32  C1  UNL     1       3.217   8.293   8.543  1.00  0.00     0.042 C 
HETATM   33  C3  UNL     1       1.819   7.189   6.752  1.00  0.00     0.042 C 
ENDBRANCH  29  30
ENDBRANCH  28  29
ENDBRANCH  26  28
ENDBRANCH   1  26
BRANCH  21  34
HETATM   34  O4  UNL     1       3.686  13.227  19.506  1.00  0.00    -0.395 OA
HETATM   35  H39 UNL     1       4.588  13.591  19.492  1.00  0.00     0.210 HD
ENDBRANCH  21  34
TORSDOF 5
ENDMDL
