MODEL 1
REMARK minimizedAffinity -9.97775364
REMARK  6 active torsions:
REMARK  status: ('A' for Active; 'I' for Inactive)
REMARK    1  A    between atoms: C4_4  and  C5_5 
REMARK    2  A    between atoms: C5_5  and  C6_6 
REMARK    3  A    between atoms: C6_6  and  C7_7 
REMARK    4  A    between atoms: C7_7  and  C9_9 
REMARK    5  A    between atoms: C17_17  and  O1_18 
REMARK    6  A    between atoms: C21_22  and  O2_23 
ROOT
HETATM    1  C9  UNL     1      -0.417  52.581 -21.548  1.00  0.00    -0.002 C 
HETATM    2  C10 UNL     1       0.074  52.378 -23.016  1.00  0.00     0.006 C 
HETATM    3  C11 UNL     1      -0.862  51.353 -23.684  1.00  0.00     0.011 C 
HETATM    4  C12 UNL     1      -2.064  51.238 -22.730  1.00  0.00    -0.032 C 
HETATM    5  C13 UNL     1      -2.994  52.449 -23.075  1.00  0.00     0.016 C 
HETATM    6  C14 UNL     1      -2.854  49.896 -22.817  1.00  0.00     0.003 C 
HETATM    7  C15 UNL     1      -3.408  49.618 -24.228  1.00  0.00     0.009 C 
HETATM    8  C16 UNL     1      -4.407  48.469 -24.226  1.00  0.00     0.039 C 
HETATM    9  C17 UNL     1      -5.702  48.884 -23.499  1.00  0.00     0.071 C 
HETATM   10  C18 UNL     1      -5.397  49.751 -22.220  1.00  0.00     0.029 C 
HETATM   11  C19 UNL     1      -6.504  49.625 -21.146  1.00  0.00     0.011 C 
HETATM   12  C20 UNL     1      -7.892  49.511 -21.761  1.00  0.00     0.033 C 
HETATM   13  C21 UNL     1      -8.058  48.302 -22.686  1.00  0.00     0.129 C 
HETATM   14  C22 UNL     1      -6.730  47.710 -23.270  1.00  0.00     0.010 C 
HETATM   15  C23 UNL     1      -6.175  46.577 -22.378  1.00  0.00     0.020 C 
HETATM   16  C24 UNL     1      -7.095  47.018 -24.616  1.00  0.00     0.020 C 
HETATM   17  C25 UNL     1      -3.911  49.703 -21.645  1.00  0.00    -0.033 C 
HETATM   18  C26 UNL     1      -3.641  48.342 -20.950  1.00  0.00     0.016 C 
HETATM   19  C27 UNL     1      -3.776  50.793 -20.518  1.00  0.00     0.011 C 
HETATM   20  C28 UNL     1      -2.407  51.443 -20.226  1.00  0.00     0.011 C 
HETATM   21  C29 UNL     1      -1.346  51.335 -21.333  1.00  0.00    -0.032 C 
HETATM   22  C30 UNL     1      -0.423  50.121 -20.998  1.00  0.00     0.016 C 
ENDROOT
BRANCH   1  23
HETATM   23  C7  UNL     1       0.766  52.851 -20.570  1.00  0.00    -0.014 C 
HETATM   24  C8  UNL     1       1.755  53.871 -21.165  1.00  0.00     0.010 C 
BRANCH  23  25
HETATM   25  C6  UNL     1       0.341  53.299 -19.153  1.00  0.00     0.008 C 
BRANCH  25  26
HETATM   26  C5  UNL     1       0.701  52.332 -18.019  1.00  0.00     0.028 C 
BRANCH  26  27
HETATM   27  C4  UNL     1       2.094  52.597 -17.516  1.00  0.00    -0.025 C 
HETATM   28  C2  UNL     1       2.624  52.247 -16.329  1.00  0.00    -0.091 C 
HETATM   29  C1  UNL     1       1.889  51.533 -15.228  1.00  0.00     0.042 C 
HETATM   30  C3  UNL     1       4.060  52.571 -16.004  1.00  0.00     0.042 C 
ENDBRANCH  26  27
ENDBRANCH  25  26
ENDBRANCH  23  25
ENDBRANCH   1  23
BRANCH   9  31
HETATM   31  O1  UNL     1      -6.375  49.817 -24.395  1.00  0.00    -0.389 OA
HETATM   32  H29 UNL     1      -6.269  49.512 -25.312  1.00  0.00     0.210 HD
ENDBRANCH   9  31
BRANCH  13  33
HETATM   33  O2  UNL     1      -8.802  47.303 -21.979  1.00  0.00    -0.395 OA
HETATM   34  H36 UNL     1      -9.124  46.661 -22.635  1.00  0.00     0.210 HD
ENDBRANCH  13  33
TORSDOF 6
ENDMDL
