MODEL 1
REMARK minimizedAffinity -9.33052635
REMARK  9 active torsions:
REMARK  status: ('A' for Active; 'I' for Inactive)
REMARK    1  A    between atoms: C3_3  and  O1_4 
REMARK    2  A    between atoms: C14_15  and  O2_16 
REMARK    3  A    between atoms: C18_20  and  C19_21 
REMARK    4  A    between atoms: C19_21  and  C20_22 
REMARK    5  A    between atoms: C20_22  and  C21_23 
REMARK    6  A    between atoms: C22_24  and  C23_25 
REMARK    7  A    between atoms: C22_24  and  C24_27 
REMARK    8  A    between atoms: C23_25  and  O3_26 
REMARK    9  A    between atoms: C24_27  and  O4_28 
ROOT
HETATM    1  C1  UNL     1       1.242  12.589  16.759  1.00  0.00     0.013 C 
HETATM    2  C2  UNL     1      -0.169  11.982  16.757  1.00  0.00     0.015 C 
HETATM    3  C3  UNL     1      -0.663  11.792  18.214  1.00  0.00     0.122 C 
HETATM    4  C4  UNL     1      -2.025  11.096  18.308  1.00  0.00     0.033 C 
HETATM    5  C5  UNL     1      -2.133   9.825  17.446  1.00  0.00     0.012 C 
HETATM    6  C6  UNL     1      -1.692  10.041  15.975  1.00  0.00    -0.033 C 
HETATM    7  C7  UNL     1      -2.692  11.064  15.337  1.00  0.00     0.016 C 
HETATM    8  C8  UNL     1      -0.235  10.617  16.020  1.00  0.00     0.000 C 
HETATM    9  C9  UNL     1       0.408  10.540  14.639  1.00  0.00     0.007 C 
HETATM   10  C10 UNL     1       0.680   9.078  14.248  1.00  0.00     0.011 C 
HETATM   11  C11 UNL     1      -0.390   8.028  14.715  1.00  0.00    -0.029 C 
HETATM   12  C12 UNL     1       0.181   7.332  15.990  1.00  0.00     0.016 C 
HETATM   13  C13 UNL     1      -1.767   8.750  15.036  1.00  0.00     0.032 C 
HETATM   14  C14 UNL     1      -2.949   7.772  15.336  1.00  0.00     0.124 C 
HETATM   15  C15 UNL     1      -3.113   6.671  14.268  1.00  0.00     0.042 C 
HETATM   16  C16 UNL     1      -1.785   5.961  14.056  1.00  0.00     0.029 C 
HETATM   17  C17 UNL     1      -1.591   4.877  13.067  1.00  0.00    -0.033 C 
HETATM   18  C18 UNL     1      -2.295   4.216  12.155  1.00  0.00     0.023 C 
HETATM   19  C25 UNL     1      -1.266   3.615  11.277  1.00  0.00     0.290 C 
HETATM   20  O5  UNL     1      -1.484   2.914  10.302  1.00  0.00    -0.260 OA
HETATM   21  O6  UNL     1      -0.020   4.041  11.663  1.00  0.00    -0.308 OA
HETATM   22  C26 UNL     1      -0.145   4.604  12.951  1.00  0.00     0.163 C 
HETATM   23  C27 UNL     1       0.511   5.973  13.199  1.00  0.00     0.047 C 
HETATM   24  C28 UNL     1      -0.665   6.944  13.566  1.00  0.00    -0.026 C 
HETATM   25  C29 UNL     1      -1.080   7.619  12.203  1.00  0.00     0.016 C 
ENDROOT
BRANCH  18  26
HETATM   26  C19 UNL     1      -3.743   4.196  11.827  1.00  0.00     0.049 C 
BRANCH  26  27
HETATM   27  C20 UNL     1      -4.626   4.378  13.070  1.00  0.00     0.032 C 
BRANCH  27  28
HETATM   28  C21 UNL     1      -6.089   4.485  12.736  1.00  0.00    -0.019 C 
HETATM   29  C22 UNL     1      -7.094   4.873  13.550  1.00  0.00    -0.037 C 
BRANCH  29  30
HETATM   30  C23 UNL     1      -8.516   4.859  13.057  1.00  0.00     0.200 C 
BRANCH  30  31
HETATM   31  O3  UNL     1      -8.988   3.520  13.069  1.00  0.00    -0.397 OA
HETATM   32  H35 UNL     1      -9.930   3.557  12.838  1.00  0.00     0.209 HD
ENDBRANCH  30  31
ENDBRANCH  29  30
BRANCH  29  33
HETATM   33  C24 UNL     1      -6.913   5.305  14.979  1.00  0.00     0.200 C 
BRANCH  33  34
HETATM   34  O4  UNL     1      -7.788   4.559  15.817  1.00  0.00    -0.397 OA
HETATM   35  H38 UNL     1      -8.670   4.598  15.410  1.00  0.00     0.209 HD
ENDBRANCH  33  34
ENDBRANCH  29  33
ENDBRANCH  27  28
ENDBRANCH  26  27
ENDBRANCH  18  26
BRANCH  14  36
HETATM   36  O2  UNL     1      -2.775   7.142  16.601  1.00  0.00    -0.395 OA
HETATM   37  H24 UNL     1      -3.572   6.616  16.787  1.00  0.00     0.210 HD
ENDBRANCH  14  36
BRANCH   3  38
HETATM   38  O1  UNL     1       0.295  11.024  18.946  1.00  0.00    -0.395 OA
HETATM   39  H6  UNL     1      -0.042  10.912  19.851  1.00  0.00     0.210 HD
ENDBRANCH   3  38
TORSDOF 9
ENDMDL
