MODEL 1
REMARK minimizedAffinity -8.76435375
REMARK CNNscore 0.515652239
REMARK CNNaffinity 7.26307631
REMARK  12 active torsions:
REMARK  status: ('A' for Active; 'I' for Inactive)
REMARK    1  A    between atoms: C2_2  and  C4_4 
REMARK    2  A    between atoms: C13_13  and  C14_14 
REMARK    3  A    between atoms: C14_14  and  C16_16 
REMARK    4  A    between atoms: C16_16  and  C17_17 
REMARK    5  A    between atoms: C17_17  and  C18_18 
REMARK    6  A    between atoms: C19_19  and  C21_21 
REMARK    7  A    between atoms: C21_21  and  O2_23 
REMARK    8  A    between atoms: C27_29  and  C28_30 
REMARK    9  A    between atoms: C28_30  and  C29_31 
REMARK   10  A    between atoms: C29_31  and  C30_32 
REMARK   11  A    between atoms: C30_32  and  O4_34 
REMARK   12  A    between atoms: O4_34  and  C31_35 
ROOT
HETATM    1  C4  UNL     1       0.013  51.137 -25.651  1.00  0.00     0.022 C 
HETATM    2  C5  UNL     1      -0.966  50.478 -26.635  1.00  0.00     0.010 C 
HETATM    3  C6  UNL     1      -1.890  49.535 -25.884  1.00  0.00     0.007 C 
HETATM    4  C7  UNL     1      -2.868  50.305 -24.977  1.00  0.00     0.004 C 
HETATM    5  C8  UNL     1      -2.150  51.326 -24.046  1.00  0.00    -0.027 A 
HETATM    6  C9  UNL     1      -2.674  51.494 -22.591  1.00  0.00     0.011 C 
HETATM    7  C10 UNL     1      -3.903  50.697 -22.123  1.00  0.00     0.011 C 
HETATM    8  C11 UNL     1      -4.765  50.187 -23.271  1.00  0.00    -0.032 C 
HETATM    9  C12 UNL     1      -5.431  51.408 -23.952  1.00  0.00     0.016 C 
HETATM   10  C13 UNL     1      -5.833  49.121 -22.871  1.00  0.00    -0.002 C 
HETATM   11  C22 UNL     1      -6.041  48.309 -24.172  1.00  0.00     0.006 C 
HETATM   12  C23 UNL     1      -4.850  48.626 -25.092  1.00  0.00     0.011 C 
HETATM   13  C24 UNL     1      -3.821  49.356 -24.208  1.00  0.00    -0.032 C 
HETATM   14  C25 UNL     1      -2.978  48.262 -23.473  1.00  0.00     0.016 C 
HETATM   15  C26 UNL     1      -1.865  52.674 -24.695  1.00  0.00     0.022 A 
HETATM   16  C27 UNL     1      -0.686  51.774 -24.425  1.00  0.00    -0.024 A 
ENDROOT
BRANCH  10  17
HETATM   17  C14 UNL     1      -7.127  49.529 -22.104  1.00  0.00    -0.014 C 
HETATM   18  C15 UNL     1      -6.745  49.833 -20.642  1.00  0.00     0.010 C 
BRANCH  17  19
HETATM   19  C16 UNL     1      -8.300  48.514 -22.137  1.00  0.00     0.008 C 
BRANCH  19  20
HETATM   20  C17 UNL     1      -8.214  47.503 -23.290  1.00  0.00     0.028 C 
BRANCH  20  21
HETATM   21  C18 UNL     1      -9.561  47.284 -23.929  1.00  0.00    -0.013 C 
HETATM   22  C19 UNL     1     -10.015  47.738 -25.116  1.00  0.00     0.008 C 
HETATM   23  C20 UNL     1     -11.362  47.339 -25.648  1.00  0.00     0.055 C 
BRANCH  22  24
HETATM   24  C21 UNL     1      -9.257  48.632 -26.021  1.00  0.00     0.171 C 
HETATM   25  O1  UNL     1      -8.492  48.268 -26.895  1.00  0.00    -0.646 OA
BRANCH  24  26
HETATM   26  O2  UNL     1      -9.564  49.930 -25.869  1.00  0.00    -0.773 OA
HETATM   27  H32 UNL     1      -9.021  50.376 -26.548  1.00  0.00     0.167 HD
ENDBRANCH  24  26
ENDBRANCH  22  24
ENDBRANCH  20  21
ENDBRANCH  19  20
ENDBRANCH  17  19
ENDBRANCH  10  17
BRANCH  16  28
HETATM   28  C28 UNL     1       0.304  52.023 -23.271  1.00  0.00     0.020 C 
BRANCH  28  29
HETATM   29  C29 UNL     1       0.803  53.447 -23.075  1.00  0.00     0.112 C 
BRANCH  29  30
HETATM   30  C30 UNL     1       1.122  53.726 -21.628  1.00  0.00     0.258 C 
HETATM   31  O3  UNL     1       1.979  54.514 -21.255  1.00  0.00    -0.265 OA
BRANCH  30  32
HETATM   32  O4  UNL     1       0.345  52.963 -20.811  1.00  0.00    -0.322 OA
BRANCH  32  33
HETATM   33  C31 UNL     1       0.124  53.489 -19.493  1.00  0.00     0.174 C 
HETATM   34  C32 UNL     1       0.792  52.612 -18.450  1.00  0.00     0.034 C 
ENDBRANCH  32  33
ENDBRANCH  30  32
ENDBRANCH  29  30
ENDBRANCH  28  29
ENDBRANCH  16  28
BRANCH   1  35
HETATM   35  C2  UNL     1       0.978  52.058 -26.398  1.00  0.00    -0.088 C 
HETATM   36  C1  UNL     1       2.292  51.780 -26.465  1.00  0.00     0.014 C 
HETATM   37  C3  UNL     1       0.428  53.286 -27.071  1.00  0.00     0.043 C 
ENDBRANCH   1  35
TORSDOF 12
ENDMDL
