MODEL 1
REMARK minimizedAffinity -8.38925171
REMARK CNNscore 0.488189459
REMARK CNNaffinity 7.09188604
REMARK  13 active torsions:
REMARK  status: ('A' for Active; 'I' for Inactive)
REMARK    1  A    between atoms: C2_2  and  C3_3 
REMARK    2  A    between atoms: C2_2  and  C11_12 
REMARK    3  A    between atoms: C3_3  and  C4_4 
REMARK    4  A    between atoms: C4_4  and  C5_5 
REMARK    5  A    between atoms: C5_5  and  O1_7 
REMARK    6  A    between atoms: C5_5  and  C7_8 
REMARK    7  A    between atoms: C28_32  and  O5_33 
REMARK    8  A    between atoms: O5_33  and  C29_34 
REMARK    9  A    between atoms: C30_36  and  C31_37 
REMARK   10  A    between atoms: C31_37  and  O7_38 
REMARK   11  A    between atoms: C32_39  and  O8_40 
REMARK   12  A    between atoms: C33_41  and  O9_42 
REMARK   13  A    between atoms: C34_43  and  O10_44 
ROOT
HETATM    1  C11 UNL     1      -3.006  12.431  18.055  1.00  0.00    -0.001 C 
HETATM    2  C12 UNL     1      -3.704  11.290  18.849  1.00  0.00     0.007 C 
HETATM    3  C13 UNL     1      -3.506   9.981  18.067  1.00  0.00     0.024 C 
HETATM    4  C14 UNL     1      -2.661  10.372  16.876  1.00  0.00     0.092 C 
HETATM    5  C15 UNL     1      -1.149  10.215  17.177  1.00  0.00     0.272 C 
HETATM    6  O2  UNL     1      -0.592  10.285  18.259  1.00  0.00    -0.264 OA
HETATM    7  O3  UNL     1      -0.491   9.978  15.987  1.00  0.00    -0.305 OA
HETATM    8  C16 UNL     1      -1.459   9.988  14.902  1.00  0.00     0.113 C 
HETATM    9  C17 UNL     1      -1.612  11.480  14.461  1.00  0.00     0.043 C 
HETATM   10  C18 UNL     1      -1.927  12.449  15.636  1.00  0.00     0.014 C 
HETATM   11  C19 UNL     1      -3.001  11.873  16.595  1.00  0.00    -0.020 C 
HETATM   12  C20 UNL     1      -4.394  12.062  15.941  1.00  0.00     0.017 C 
HETATM   13  C21 UNL     1      -2.692   9.570  15.636  1.00  0.00     0.137 A 
HETATM   14  O4  UNL     1      -3.896   9.265  14.963  1.00  0.00    -0.364 OA
HETATM   15  C22 UNL     1      -3.205   8.155  15.582  1.00  0.00     0.162 A 
HETATM   16  C23 UNL     1      -2.610   7.179  14.623  1.00  0.00     0.041 C 
HETATM   17  C24 UNL     1      -1.137   7.517  14.292  1.00  0.00     0.009 C 
HETATM   18  C25 UNL     1      -0.420   6.381  13.450  1.00  0.00    -0.017 C 
HETATM   19  C26 UNL     1      -1.354   5.677  12.438  1.00  0.00     0.018 C 
HETATM   20  C27 UNL     1       0.029   5.274  14.450  1.00  0.00     0.018 C 
HETATM   21  C28 UNL     1       0.867   6.905  12.735  1.00  0.00     0.133 C 
HETATM   22  C35 UNL     1       1.444   8.108  13.477  1.00  0.00     0.034 C 
HETATM   23  C36 UNL     1       0.507   9.312  13.405  1.00  0.00     0.015 C 
HETATM   24  C37 UNL     1      -0.987   9.000  13.762  1.00  0.00    -0.004 C 
HETATM   25  C38 UNL     1      -1.834   9.228  12.483  1.00  0.00     0.019 C 
ENDROOT
BRANCH  21  26
HETATM   26  O5  UNL     1       0.555   7.288  11.392  1.00  0.00    -0.352 OA
BRANCH  26  27
HETATM   27  C29 UNL     1       1.700   7.537  10.568  1.00  0.00     0.292 C 
HETATM   28  O6  UNL     1       1.391   7.271   9.197  1.00  0.00    -0.348 OA
HETATM   29  C30 UNL     1       2.556   7.105   8.390  1.00  0.00     0.179 C 
HETATM   30  C32 UNL     1       3.335   5.825   8.777  1.00  0.00     0.180 C 
HETATM   31  C33 UNL     1       3.126   5.449  10.256  1.00  0.00     0.183 C 
HETATM   32  C34 UNL     1       2.883   6.689  11.118  1.00  0.00     0.204 C 
BRANCH  29  33
HETATM   33  C31 UNL     1       2.119   7.123   6.921  1.00  0.00     0.198 C 
BRANCH  33  34
HETATM   34  O7  UNL     1       0.813   7.678   6.788  1.00  0.00    -0.398 OA
HETATM   35  H49 UNL     1       0.237   6.966   6.449  1.00  0.00     0.209 HD
ENDBRANCH  33  34
ENDBRANCH  29  33
BRANCH  30  36
HETATM   36  O8  UNL     1       2.985   4.677   7.985  1.00  0.00    -0.390 OA
HETATM   37  H51 UNL     1       3.216   4.913   7.061  1.00  0.00     0.210 HD
ENDBRANCH  30  36
BRANCH  31  38
HETATM   38  O9  UNL     1       2.055   4.509  10.397  1.00  0.00    -0.390 OA
HETATM   39  H53 UNL     1       1.996   4.072   9.519  1.00  0.00     0.210 HD
ENDBRANCH  31  38
BRANCH  32  40
HETATM   40  O10 UNL     1       4.089   7.483  11.118  1.00  0.00    -0.388 OA
HETATM   41  H55 UNL     1       4.703   7.052  11.740  1.00  0.00     0.210 HD
ENDBRANCH  32  40
ENDBRANCH  26  27
ENDBRANCH  21  26
BRANCH   1  42
HETATM   42  C2  UNL     1      -3.639  13.826  18.347  1.00  0.00    -0.014 C 
HETATM   43  C1  UNL     1      -2.685  14.729  19.140  1.00  0.00     0.010 C 
BRANCH  42  44
HETATM   44  C3  UNL     1      -4.970  13.697  19.143  1.00  0.00     0.007 C 
BRANCH  44  45
HETATM   45  C4  UNL     1      -4.843  13.843  20.665  1.00  0.00     0.038 C 
BRANCH  45  46
HETATM   46  C5  UNL     1      -6.114  13.913  21.569  1.00  0.00     0.061 C 
HETATM   47  C6  UNL     1      -7.376  13.506  20.792  1.00  0.00     0.046 C 
BRANCH  46  48
HETATM   48  O1  UNL     1      -5.901  12.851  22.537  1.00  0.00    -0.389 OA
HETATM   49  H12 UNL     1      -5.845  12.006  22.060  1.00  0.00     0.210 HD
ENDBRANCH  46  48
BRANCH  46  50
HETATM   50  C7  UNL     1      -6.319  15.241  22.421  1.00  0.00    -0.021 C 
HETATM   51  C8  UNL     1      -7.486  15.088  23.422  1.00  0.00     0.017 C 
HETATM   52  C9  UNL     1      -5.073  15.692  23.209  1.00  0.00     0.017 C 
HETATM   53  C10 UNL     1      -6.693  16.430  21.493  1.00  0.00     0.017 C 
ENDBRANCH  46  50
ENDBRANCH  45  46
ENDBRANCH  44  45
ENDBRANCH  42  44
ENDBRANCH   1  42
TORSDOF 13
ENDMDL
