MODEL 1
REMARK minimizedAffinity -9.95334244
REMARK CNNscore 0.683652282
REMARK CNNaffinity 7.51511383
REMARK  11 active torsions:
REMARK  status: ('A' for Active; 'I' for Inactive)
REMARK    1  A    between atoms: C2_2  and  C4_4 
REMARK    2  A    between atoms: C4_4  and  C6_6 
REMARK    3  A    between atoms: C7_8  and  C8_9 
REMARK    4  A    between atoms: C8_9  and  O2_11 
REMARK    5  A    between atoms: C8_9  and  C10_12 
REMARK    6  A    between atoms: C13_15  and  O3_16 
REMARK    7  A    between atoms: C17_21  and  C18_22 
REMARK    8  A    between atoms: C18_22  and  C19_23 
REMARK    9  A    between atoms: C22_26  and  O5_27 
REMARK   10  A    between atoms: C31_36  and  O6_37 
REMARK   11  A    between atoms: C32_38  and  O7_39 
ROOT
HETATM    1  C10 UNL     1      -3.971   7.507  15.124  1.00  0.00     0.034 C 
HETATM    2  C11 UNL     1      -3.797   5.951  15.098  1.00  0.00     0.012 C 
HETATM    3  C12 UNL     1      -2.334   5.648  14.727  1.00  0.00     0.044 C 
HETATM    4  C13 UNL     1      -1.630   6.993  14.894  1.00  0.00     0.089 C 
HETATM    5  C14 UNL     1      -0.277   7.272  14.281  1.00  0.00    -0.037 C 
HETATM    6  C15 UNL     1       0.376   6.404  13.491  1.00  0.00     0.057 C 
HETATM    7  C16 UNL     1       1.636   6.769  12.797  1.00  0.00     0.160 C 
HETATM    8  O4  UNL     1       2.288   5.873  12.265  1.00  0.00    -0.292 OA
HETATM    9  C17 UNL     1       2.046   8.250  12.746  1.00  0.00     0.043 C 
HETATM   10  C25 UNL     1       3.583   8.429  12.503  1.00  0.00     0.034 C 
HETATM   11  C26 UNL     1       3.955   9.933  12.486  1.00  0.00     0.008 C 
HETATM   12  C27 UNL     1       3.563  10.670  13.759  1.00  0.00     0.001 C 
HETATM   13  C28 UNL     1       2.115  10.395  14.166  1.00  0.00     0.011 C 
HETATM   14  C29 UNL     1       1.746   8.879  14.168  1.00  0.00    -0.015 C 
HETATM   15  C30 UNL     1       2.660   8.208  15.283  1.00  0.00     0.045 C 
HETATM   16  C31 UNL     1       3.734   7.230  14.815  1.00  0.00     0.148 C 
HETATM   17  C32 UNL     1       4.443   7.612  13.506  1.00  0.00     0.152 C 
HETATM   18  C33 UNL     1       0.245   8.672  14.616  1.00  0.00     0.027 C 
HETATM   19  C34 UNL     1      -0.795   9.743  14.204  1.00  0.00     0.011 C 
HETATM   20  C35 UNL     1      -2.221   9.436  14.720  1.00  0.00     0.014 C 
HETATM   21  C36 UNL     1      -2.695   8.007  14.358  1.00  0.00    -0.002 C 
HETATM   22  C37 UNL     1      -2.882   7.904  12.822  1.00  0.00     0.019 C 
ENDROOT
BRANCH   1  23
HETATM   23  C8  UNL     1      -5.402   7.960  14.690  1.00  0.00     0.087 C 
HETATM   24  C9  UNL     1      -6.369   8.033  15.880  1.00  0.00     0.049 C 
BRANCH  23  25
HETATM   25  C7  UNL     1      -5.909   7.038  13.587  1.00  0.00     0.185 A 
HETATM   26  C6  UNL     1      -6.127   5.546  13.742  1.00  0.00     0.158 A 
HETATM   27  O1  UNL     1      -7.216   6.481  13.824  1.00  0.00    -0.372 OA
BRANCH  26  28
HETATM   28  C4  UNL     1      -6.177   4.644  12.534  1.00  0.00     0.017 C 
HETATM   29  C5  UNL     1      -7.498   3.867  12.522  1.00  0.00     0.013 C 
BRANCH  28  30
HETATM   30  C2  UNL     1      -4.911   3.746  12.467  1.00  0.00    -0.016 C 
HETATM   31  C1  UNL     1      -5.169   2.352  11.887  1.00  0.00     0.010 C 
HETATM   32  C3  UNL     1      -3.786   4.429  11.680  1.00  0.00     0.010 C 
ENDBRANCH  28  30
ENDBRANCH  26  28
ENDBRANCH  23  25
BRANCH  23  33
HETATM   33  O2  UNL     1      -5.342   9.272  14.123  1.00  0.00    -0.387 OA
HETATM   34  H17 UNL     1      -6.220   9.441  13.735  1.00  0.00     0.210 HD
ENDBRANCH  23  33
ENDBRANCH   1  23
BRANCH   4  35
HETATM   35  O3  UNL     1      -1.456   7.163  16.312  1.00  0.00    -0.384 OA
HETATM   36  H23 UNL     1      -0.804   6.501  16.602  1.00  0.00     0.211 HD
ENDBRANCH   4  35
BRANCH   9  37
HETATM   37  C18 UNL     1       1.192   8.882  11.581  1.00  0.00     0.057 C 
BRANCH  37  38
HETATM   38  C19 UNL     1       1.401   8.368  10.164  1.00  0.00    -0.057 A 
HETATM   39  C20 UNL     1       0.354   8.360   9.231  1.00  0.00     0.010 A 
HETATM   40  C21 UNL     1       0.564   7.907   7.926  1.00  0.00     0.037 A 
HETATM   41  C22 UNL     1       1.822   7.471   7.540  1.00  0.00     0.065 A 
HETATM   42  C23 UNL     1       2.882   7.487   8.437  1.00  0.00     0.037 A 
HETATM   43  C24 UNL     1       2.671   7.942   9.742  1.00  0.00     0.010 A 
BRANCH  41  44
HETATM   44  O5  UNL     1       1.980   7.038   6.258  1.00  0.00    -0.361 OA
HETATM   45  H29 UNL     1       2.897   6.742   6.140  1.00  0.00     0.217 HD
ENDBRANCH  41  44
ENDBRANCH  37  38
ENDBRANCH   9  37
BRANCH  16  46
HETATM   46  O6  UNL     1       4.694   7.059  15.865  1.00  0.00    -0.393 OA
HETATM   47  H42 UNL     1       5.442   7.639  15.607  1.00  0.00     0.210 HD
ENDBRANCH  16  46
BRANCH  17  48
HETATM   48  O7  UNL     1       5.671   8.284  13.835  1.00  0.00    -0.393 OA
HETATM   49  H44 UNL     1       6.225   8.259  13.033  1.00  0.00     0.210 HD
ENDBRANCH  17  48
TORSDOF 11
ENDMDL
