MODEL 1
REMARK minimizedAffinity -9.16572762
REMARK CNNscore 0.740271449
REMARK CNNaffinity 7.22113991
REMARK  8 active torsions:
REMARK  status: ('A' for Active; 'I' for Inactive)
REMARK    1  A    between atoms: C2_2  and  C30_34 
REMARK    2  A    between atoms: C3_3  and  C4_4 
REMARK    3  A    between atoms: C4_4  and  O1_5 
REMARK    4  A    between atoms: C4_4  and  C5_6 
REMARK    5  A    between atoms: C5_6  and  C6_7 
REMARK    6  A    between atoms: C6_7  and  C8_9 
REMARK    7  A    between atoms: C10_11  and  O2_12 
REMARK    8  A    between atoms: C30_34  and  O6_36 
ROOT
HETATM    1  C8  UNL     1       0.369   6.247  13.094  1.00  0.00     0.001 C 
HETATM    2  C9  UNL     1       0.765   7.130  14.313  1.00  0.00     0.038 C 
HETATM    3  C10 UNL     1      -0.545   7.521  15.025  1.00  0.00     0.131 C 
HETATM    4  C11 UNL     1      -1.584   6.491  14.510  1.00  0.00     0.014 C 
HETATM    5  C12 UNL     1      -1.395   5.158  15.305  1.00  0.00     0.023 C 
HETATM    6  C13 UNL     1      -3.077   6.796  14.621  1.00  0.00    -0.058 C 
HETATM    7  C14 UNL     1      -3.975   6.224  13.776  1.00  0.00    -0.000 C 
HETATM    8  C15 UNL     1      -3.452   5.377  12.621  1.00  0.00     0.157 C 
HETATM    9  O3  UNL     1      -4.225   4.757  11.893  1.00  0.00    -0.293 OA
HETATM   10  C16 UNL     1      -1.953   5.283  12.346  1.00  0.00     0.094 C 
HETATM   11  C17 UNL     1      -1.178   6.432  12.990  1.00  0.00    -0.019 C 
HETATM   12  C18 UNL     1      -1.521   7.737  12.213  1.00  0.00     0.017 C 
HETATM   13  C19 UNL     1      -5.509   6.394  13.923  1.00  0.00    -0.008 C 
HETATM   14  C20 UNL     1      -5.958   7.324  12.771  1.00  0.00     0.021 C 
HETATM   15  C21 UNL     1      -6.259   5.029  13.797  1.00  0.00     0.022 C 
HETATM   16  C22 UNL     1      -7.572   4.909  14.567  1.00  0.00     0.080 C 
HETATM   17  C23 UNL     1      -8.215   6.251  14.811  1.00  0.00     0.135 C 
HETATM   18  O4  UNL     1      -9.376   6.469  14.465  1.00  0.00    -0.297 OA
HETATM   19  C24 UNL     1      -7.381   7.278  15.584  1.00  0.00     0.018 C 
HETATM   20  C25 UNL     1      -7.815   8.702  15.196  1.00  0.00     0.023 C 
HETATM   21  C26 UNL     1      -7.721   7.084  17.078  1.00  0.00     0.023 C 
HETATM   22  C27 UNL     1      -5.861   6.976  15.346  1.00  0.00     0.014 C 
HETATM   23  C28 UNL     1      -4.944   8.150  15.708  1.00  0.00     0.011 C 
HETATM   24  C29 UNL     1      -3.489   7.697  15.761  1.00  0.00     0.036 C 
ENDROOT
BRANCH   1  25
HETATM   25  C6  UNL     1       1.336   6.398  11.882  1.00  0.00    -0.011 C 
HETATM   26  C7  UNL     1       1.005   7.494  10.862  1.00  0.00     0.010 C 
BRANCH  25  27
HETATM   27  C5  UNL     1       1.574   5.045  11.173  1.00  0.00     0.040 C 
BRANCH  27  28
HETATM   28  C4  UNL     1       2.402   5.108   9.879  1.00  0.00     0.142 C 
BRANCH  28  29
HETATM   29  C3  UNL     1       3.046   6.444   9.632  1.00  0.00     0.018 C 
HETATM   30  C2  UNL     1       2.924   7.265   8.567  1.00  0.00     0.010 C 
HETATM   31  C1  UNL     1       2.134   6.975   7.323  1.00  0.00     0.055 C 
BRANCH  30  32
HETATM   32  C30 UNL     1       3.628   8.576   8.539  1.00  0.00     0.171 C 
HETATM   33  O5  UNL     1       3.512   9.421   7.670  1.00  0.00    -0.646 OA
BRANCH  32  34
HETATM   34  O6  UNL     1       4.448   8.777   9.585  1.00  0.00    -0.773 OA
HETATM   35  H44 UNL     1       4.819   9.667   9.410  1.00  0.00     0.167 HD
ENDBRANCH  32  34
ENDBRANCH  30  32
ENDBRANCH  28  29
BRANCH  28  36
HETATM   36  O1  UNL     1       3.390   4.084   9.927  1.00  0.00    -0.392 OA
HETATM   37  H6  UNL     1       3.919   4.160   9.114  1.00  0.00     0.210 HD
ENDBRANCH  28  36
ENDBRANCH  27  28
ENDBRANCH  25  27
ENDBRANCH   1  25
BRANCH   3  38
HETATM   38  O2  UNL     1      -0.377   7.496  16.435  1.00  0.00    -0.394 OA
HETATM   39  H17 UNL     1       0.382   8.063  16.652  1.00  0.00     0.210 HD
ENDBRANCH   3  38
TORSDOF 8
ENDMDL
