MODEL 1
REMARK minimizedAffinity -10.5111589
REMARK CNNscore 0.569538951
REMARK CNNaffinity 7.21889257
REMARK  10 active torsions:
REMARK  status: ('A' for Active; 'I' for Inactive)
REMARK    1  A    between atoms: O1_2  and  C2_3 
REMARK    2  A    between atoms: C2_3  and  C3_4 
REMARK    3  A    between atoms: C2_3  and  C26_35 
REMARK    4  A    between atoms: C3_4  and  C4_5 
REMARK    5  A    between atoms: C4_5  and  C5_6 
REMARK    6  A    between atoms: C5_6  and  C7_8 
REMARK    7  A    between atoms: C13_17  and  C14_18 
REMARK    8  A    between atoms: C14_18  and  O5_19 
REMARK    9  A    between atoms: C17_24  and  O8_25 
REMARK   10  A    between atoms: C30_39  and  O10_40 
ROOT
HETATM    1  C7  UNL     1      -1.903  50.274 -21.212  1.00  0.00     0.135 C 
HETATM    2  O2  UNL     1      -2.403  49.430 -22.269  1.00  0.00    -0.348 OA
HETATM    3  C8  UNL     1      -3.191  50.032 -23.325  1.00  0.00     0.177 C 
HETATM    4  C9  UNL     1      -2.867  51.528 -23.398  1.00  0.00     0.102 C 
HETATM    5  C10 UNL     1      -1.355  51.688 -23.223  1.00  0.00     0.143 C 
HETATM    6  O3  UNL     1      -1.020  52.999 -23.704  1.00  0.00    -0.315 OA
HETATM    7  C11 UNL     1       0.076  53.025 -24.519  1.00  0.00     0.261 C 
HETATM    8  O4  UNL     1       1.058  52.304 -24.408  1.00  0.00    -0.265 OA
HETATM    9  C12 UNL     1      -0.155  53.947 -25.680  1.00  0.00     0.145 C 
HETATM   10  C13 UNL     1      -0.441  53.073 -26.905  1.00  0.00     0.164 C 
HETATM   11  O6  UNL     1      -1.740  52.445 -26.740  1.00  0.00    -0.313 OA
HETATM   12  C15 UNL     1      -1.800  51.085 -26.816  1.00  0.00     0.264 C 
HETATM   13  O7  UNL     1      -0.854  50.340 -27.035  1.00  0.00    -0.265 OA
HETATM   14  C16 UNL     1      -3.224  50.619 -26.645  1.00  0.00     0.179 C 
HETATM   15  C17 UNL     1      -3.341  49.370 -25.752  1.00  0.00     0.177 C 
HETATM   16  O9  UNL     1      -2.641  49.450 -24.523  1.00  0.00    -0.318 OA
HETATM   17  C18 UNL     1      -4.841  49.012 -25.575  1.00  0.00     0.045 C 
HETATM   18  C19 UNL     1      -5.373  47.982 -26.580  1.00  0.00     0.015 C 
HETATM   19  C20 UNL     1      -5.114  48.555 -24.145  1.00  0.00     0.024 C 
HETATM   20  C21 UNL     1      -4.714  49.648 -23.123  1.00  0.00     0.010 C 
HETATM   21  C22 UNL     1      -5.661  50.864 -23.275  1.00  0.00     0.020 C 
HETATM   22  C23 UNL     1      -5.016  49.054 -21.727  1.00  0.00     0.020 C 
HETATM   23  C24 UNL     1      -1.045  51.471 -21.740  1.00  0.00     0.041 C 
HETATM   24  C25 UNL     1       0.461  51.441 -21.493  1.00  0.00     0.015 C 
ENDROOT
BRANCH   1  25
HETATM   25  C5  UNL     1      -1.255  49.372 -20.112  1.00  0.00     0.011 C 
HETATM   26  C6  UNL     1      -0.736  48.072 -20.751  1.00  0.00     0.012 C 
BRANCH  25  27
HETATM   27  C4  UNL     1      -0.096  50.083 -19.375  1.00  0.00     0.009 C 
BRANCH  27  28
HETATM   28  C3  UNL     1      -0.374  50.615 -17.956  1.00  0.00     0.037 C 
BRANCH  28  29
HETATM   29  C2  UNL     1       0.311  51.934 -17.536  1.00  0.00     0.153 C 
BRANCH  29  30
HETATM   30  O1  UNL     1       0.765  52.626 -18.711  1.00  0.00    -0.386 OA
HETATM   31  C1  UNL     1      -0.006  53.785 -18.999  1.00  0.00     0.202 C 
ENDBRANCH  29  30
BRANCH  29  32
HETATM   32  C26 UNL     1       1.444  51.803 -16.527  1.00  0.00    -0.027 A 
HETATM   33  C27 UNL     1       2.665  52.472 -16.722  1.00  0.00     0.010 A 
HETATM   34  C28 UNL     1       3.713  52.339 -15.806  1.00  0.00     0.003 A 
HETATM   35  C29 UNL     1       3.565  51.523 -14.689  1.00  0.00     0.036 A 
HETATM   36  C30 UNL     1       2.374  50.837 -14.498  1.00  0.00     0.066 A 
HETATM   37  C31 UNL     1       1.323  50.962 -15.406  1.00  0.00     0.046 A 
BRANCH  36  38
HETATM   38  O10 UNL     1       2.265  50.043 -13.395  1.00  0.00    -0.361 OA
HETATM   39  H45 UNL     1       1.367  49.673 -13.378  1.00  0.00     0.217 HD
ENDBRANCH  36  38
ENDBRANCH  29  32
ENDBRANCH  28  29
ENDBRANCH  27  28
ENDBRANCH  25  27
ENDBRANCH   1  25
BRANCH  15  40
HETATM   40  O8  UNL     1      -2.719  48.286 -26.446  1.00  0.00    -0.364 OA
HETATM   41  H25 UNL     1      -1.772  48.522 -26.499  1.00  0.00     0.213 HD
ENDBRANCH  15  40
BRANCH  10  42
HETATM   42  C14 UNL     1      -0.501  53.906 -28.188  1.00  0.00     0.197 C 
BRANCH  42  43
HETATM   43  O5  UNL     1      -1.841  54.234 -28.524  1.00  0.00    -0.398 OA
HETATM   44  H22 UNL     1      -1.807  54.898 -29.235  1.00  0.00     0.209 HD
ENDBRANCH  42  43
ENDBRANCH  10  42
TORSDOF 10
ENDMDL
