MODEL 1
REMARK minimizedAffinity -7.96895218
REMARK CNNscore 0.700211346
REMARK CNNaffinity 6.70498514
REMARK  8 active torsions:
REMARK  status: ('A' for Active; 'I' for Inactive)
REMARK    1  A    between atoms: C2_2  and  C30_34 
REMARK    2  A    between atoms: C3_3  and  C4_4 
REMARK    3  A    between atoms: C4_4  and  O1_5 
REMARK    4  A    between atoms: C4_4  and  C5_6 
REMARK    5  A    between atoms: C5_6  and  C6_7 
REMARK    6  A    between atoms: C6_7  and  C8_9 
REMARK    7  A    between atoms: C10_11  and  O2_12 
REMARK    8  A    between atoms: C30_34  and  O6_36 
ROOT
HETATM    1  C8  UNL     1      -3.618  50.846 -10.452  1.00  0.00     0.001 C 
HETATM    2  C9  UNL     1      -4.368  52.164 -10.798  1.00  0.00     0.038 C 
HETATM    3  C10 UNL     1      -3.319  53.294 -10.767  1.00  0.00     0.131 C 
HETATM    4  C11 UNL     1      -1.956  52.559 -10.879  1.00  0.00     0.014 C 
HETATM    5  C12 UNL     1      -1.709  52.197 -12.380  1.00  0.00     0.023 C 
HETATM    6  C13 UNL     1      -0.673  53.261 -10.435  1.00  0.00    -0.058 C 
HETATM    7  C14 UNL     1       0.411  52.552 -10.025  1.00  0.00    -0.000 C 
HETATM    8  C15 UNL     1       0.282  51.038  -9.889  1.00  0.00     0.157 C 
HETATM    9  O3  UNL     1       1.262  50.341  -9.625  1.00  0.00    -0.293 OA
HETATM   10  C16 UNL     1      -1.069  50.357 -10.079  1.00  0.00     0.094 C 
HETATM   11  C17 UNL     1      -2.233  51.336  -9.927  1.00  0.00    -0.019 C 
HETATM   12  C18 UNL     1      -2.328  51.736  -8.425  1.00  0.00     0.017 C 
HETATM   13  C19 UNL     1       1.773  53.206  -9.678  1.00  0.00    -0.008 C 
HETATM   14  C20 UNL     1       1.910  53.131  -8.137  1.00  0.00     0.021 C 
HETATM   15  C21 UNL     1       2.970  52.441 -10.330  1.00  0.00     0.022 C 
HETATM   16  C22 UNL     1       4.197  53.282 -10.674  1.00  0.00     0.080 C 
HETATM   17  C23 UNL     1       4.305  54.511  -9.807  1.00  0.00     0.135 C 
HETATM   18  O4  UNL     1       5.327  54.742  -9.161  1.00  0.00    -0.297 OA
HETATM   19  C24 UNL     1       3.122  55.483  -9.851  1.00  0.00     0.018 C 
HETATM   20  C25 UNL     1       3.034  56.261  -8.525  1.00  0.00     0.023 C 
HETATM   21  C26 UNL     1       3.438  56.507 -10.964  1.00  0.00     0.023 C 
HETATM   22  C27 UNL     1       1.824  54.685 -10.220  1.00  0.00     0.014 C 
HETATM   23  C28 UNL     1       0.532  55.441  -9.894  1.00  0.00     0.011 C 
HETATM   24  C29 UNL     1      -0.666  54.766 -10.554  1.00  0.00     0.036 C 
ENDROOT
BRANCH   1  25
HETATM   25  C6  UNL     1      -4.502  49.804  -9.702  1.00  0.00    -0.011 C 
HETATM   26  C7  UNL     1      -3.781  48.598  -9.088  1.00  0.00     0.010 C 
BRANCH  25  27
HETATM   27  C5  UNL     1      -5.693  49.342 -10.572  1.00  0.00     0.040 C 
BRANCH  27  28
HETATM   28  C4  UNL     1      -7.078  49.836 -10.115  1.00  0.00     0.142 C 
BRANCH  28  29
HETATM   29  C3  UNL     1      -8.201  49.179 -10.857  1.00  0.00     0.018 C 
HETATM   30  C2  UNL     1      -8.487  47.864 -10.944  1.00  0.00     0.010 C 
HETATM   31  C1  UNL     1      -7.720  46.742 -10.315  1.00  0.00     0.055 C 
BRANCH  30  32
HETATM   32  C30 UNL     1      -9.687  47.509 -11.746  1.00  0.00     0.171 C 
HETATM   33  O5  UNL     1     -10.545  46.693 -11.457  1.00  0.00    -0.646 OA
BRANCH  32  34
HETATM   34  O6  UNL     1      -9.749  48.191 -12.901  1.00  0.00    -0.773 OA
HETATM   35  H44 UNL     1     -10.578  47.868 -13.310  1.00  0.00     0.167 HD
ENDBRANCH  32  34
ENDBRANCH  30  32
ENDBRANCH  28  29
BRANCH  28  36
HETATM   36  O1  UNL     1      -7.255  49.478  -8.746  1.00  0.00    -0.392 OA
HETATM   37  H6  UNL     1      -6.546  49.906  -8.236  1.00  0.00     0.210 HD
ENDBRANCH  28  36
ENDBRANCH  27  28
ENDBRANCH  25  27
ENDBRANCH   1  25
BRANCH   3  38
HETATM   38  O2  UNL     1      -3.546  54.221 -11.818  1.00  0.00    -0.394 OA
HETATM   39  H17 UNL     1      -4.457  54.551 -11.728  1.00  0.00     0.210 HD
ENDBRANCH   3  38
TORSDOF 8
ENDMDL
