MODEL 1
REMARK minimizedAffinity -8.69798851
REMARK CNNscore 0.683389306
REMARK CNNaffinity 6.40413284
REMARK  5 active torsions:
REMARK  status: ('A' for Active; 'I' for Inactive)
REMARK    1  A    between atoms: C4_4  and  O1_5 
REMARK    2  A    between atoms: C5_6  and  O2_7 
REMARK    3  A    between atoms: C8_11  and  C9_12 
REMARK    4  A    between atoms: C19_23  and  C20_24 
REMARK    5  A    between atoms: C26_32  and  O7_33 
ROOT
HETATM    1  C1  UNL     1     -10.256  40.986 -20.311  1.00  0.00     0.040 C 
HETATM    2  C2  UNL     1      -8.943  41.683 -20.638  1.00  0.00     0.123 C 
HETATM    3  C3  UNL     1      -7.804  41.155 -19.760  1.00  0.00     0.069 C 
HETATM    4  C4  UNL     1      -6.717  42.204 -19.533  1.00  0.00     0.188 C 
HETATM    5  C5  UNL     1      -6.618  43.187 -20.712  1.00  0.00     0.240 C 
HETATM    6  O3  UNL     1      -5.523  44.085 -20.475  1.00  0.00    -0.341 OA
HETATM    7  C6  UNL     1      -5.800  45.362 -21.050  1.00  0.00     0.156 C 
HETATM    8  C7  UNL     1      -4.554  46.242 -20.917  1.00  0.00     0.056 C 
HETATM    9  C8  UNL     1      -4.773  47.696 -21.414  1.00  0.00     0.043 C 
HETATM   10  C10 UNL     1      -6.068  48.252 -20.817  1.00  0.00    -0.065 C 
HETATM   11  C11 UNL     1      -6.147  49.489 -20.298  1.00  0.00    -0.022 C 
HETATM   12  C12 UNL     1      -5.020  50.474 -20.273  1.00  0.00     0.035 C 
HETATM   13  C13 UNL     1      -3.811  50.087 -21.154  1.00  0.00     0.030 C 
HETATM   14  C14 UNL     1      -3.521  48.570 -21.018  1.00  0.00     0.012 C 
HETATM   15  C15 UNL     1      -2.241  48.169 -21.774  1.00  0.00     0.007 C 
HETATM   16  C16 UNL     1      -1.045  49.029 -21.386  1.00  0.00     0.013 C 
HETATM   17  C17 UNL     1      -1.279  50.550 -21.599  1.00  0.00    -0.005 C 
HETATM   18  C18 UNL     1      -1.321  50.838 -23.114  1.00  0.00     0.019 C 
HETATM   19  C19 UNL     1      -0.139  51.325 -20.838  1.00  0.00     0.028 C 
HETATM   20  C24 UNL     1      -0.731  51.659 -19.447  1.00  0.00     0.013 C 
HETATM   21  C25 UNL     1      -2.141  51.071 -19.405  1.00  0.00     0.040 C 
HETATM   22  C26 UNL     1      -2.582  50.999 -20.874  1.00  0.00     0.070 C 
HETATM   23  C27 UNL     1      -7.290  47.357 -20.841  1.00  0.00     0.069 C 
HETATM   24  C28 UNL     1      -6.978  45.970 -20.286  1.00  0.00     0.158 C 
HETATM   25  O8  UNL     1      -8.157  45.162 -20.302  1.00  0.00    -0.347 OA
HETATM   26  C29 UNL     1      -8.023  43.877 -20.923  1.00  0.00     0.325 C 
HETATM   27  O9  UNL     1      -9.115  43.082 -20.428  1.00  0.00    -0.351 OA
ENDROOT
BRANCH  19  28
HETATM   28  C20 UNL     1       0.469  52.519 -21.524  1.00  0.00    -0.045 A 
HETATM   29  C21 UNL     1       0.583  52.781 -22.826  1.00  0.00     0.087 A 
HETATM   30  C22 UNL     1       1.228  54.085 -22.953  1.00  0.00     0.283 A 
HETATM   31  O5  UNL     1       1.475  54.643 -24.005  1.00  0.00    -0.260 OA
HETATM   32  O6  UNL     1       1.486  54.578 -21.711  1.00  0.00    -0.314 OA
HETATM   33  C23 UNL     1       1.033  53.641 -20.736  1.00  0.00     0.213 A 
ENDBRANCH  19  28
BRANCH  22  34
HETATM   34  O7  UNL     1      -2.899  52.334 -21.291  1.00  0.00    -0.389 OA
HETATM   35  H34 UNL     1      -3.628  52.673 -20.747  1.00  0.00     0.210 HD
ENDBRANCH  22  34
BRANCH   9  36
HETATM   36  C9  UNL     1      -4.917  47.664 -22.949  1.00  0.00     0.245 C 
HETATM   37  O4  UNL     1      -5.554  48.471 -23.620  1.00  0.00    -0.306 OA
ENDBRANCH   9  36
BRANCH   5  38
HETATM   38  O2  UNL     1      -6.259  42.443 -21.889  1.00  0.00    -0.360 OA
HETATM   39  H9  UNL     1      -5.650  41.753 -21.565  1.00  0.00     0.213 HD
ENDBRANCH   5  38
BRANCH   4  40
HETATM   40  O1  UNL     1      -5.459  41.523 -19.372  1.00  0.00    -0.390 OA
HETATM   41  H8  UNL     1      -4.791  42.230 -19.268  1.00  0.00     0.210 HD
ENDBRANCH   4  40
TORSDOF 5
ENDMDL
