MODEL 1
REMARK minimizedAffinity -10.2619419
REMARK  11 active torsions:
REMARK  status: ('A' for Active; 'I' for Inactive)
REMARK    1  A    between atoms: C4_4  and  C5_5 
REMARK    2  A    between atoms: C5_5  and  C6_6 
REMARK    3  A    between atoms: C7_7  and  O1_8 
REMARK    4  A    between atoms: C12_13  and  C14_15 
REMARK    5  A    between atoms: C14_15  and  C15_16 
REMARK    6  A    between atoms: C15_16  and  C16_17 
REMARK    7  A    between atoms: C16_17  and  C17_18 
REMARK    8  A    between atoms: C17_18  and  O2_21 
REMARK    9  A    between atoms: C23_26  and  C24_27 
REMARK   10  A    between atoms: C26_29  and  O4_30 
REMARK   11  A    between atoms: C28_32  and  O5_33 
ROOT
HETATM    1  C6  UNL     1      -2.698   8.600  13.742  1.00  0.00    -0.006 A 
HETATM    2  C7  UNL     1      -1.336   8.826  13.452  1.00  0.00     0.107 A 
HETATM    3  C8  UNL     1      -0.530   7.878  12.809  1.00  0.00     0.117 A 
HETATM    4  C9  UNL     1      -1.054   6.648  12.428  1.00  0.00     0.035 A 
HETATM    5  C10 UNL     1      -0.238   5.642  11.787  1.00  0.00     0.016 C 
HETATM    6  C11 UNL     1       1.019   5.986  11.493  1.00  0.00     0.012 C 
HETATM    7  C12 UNL     1       1.611   7.352  11.787  1.00  0.00     0.082 C 
HETATM    8  C13 UNL     1       2.906   7.165  12.593  1.00  0.00     0.051 C 
HETATM    9  O3  UNL     1       0.783   8.220  12.610  1.00  0.00    -0.333 OA
HETATM   10  C20 UNL     1      -2.400   6.419  12.711  1.00  0.00     0.100 A 
HETATM   11  C21 UNL     1      -3.224   7.343  13.348  1.00  0.00     0.011 A 
HETATM   12  C22 UNL     1      -4.499   6.711  13.438  1.00  0.00     0.053 A 
HETATM   13  C23 UNL     1      -4.382   5.461  12.861  1.00  0.00     0.087 A 
HETATM   14  O6  UNL     1      -3.102   5.286  12.417  1.00  0.00    -0.308 OA
ENDROOT
BRANCH  13  15
HETATM   15  C24 UNL     1      -5.302   4.347  12.646  1.00  0.00     0.003 A 
HETATM   16  C25 UNL     1      -6.618   4.384  13.131  1.00  0.00     0.051 A 
HETATM   17  C26 UNL     1      -7.481   3.310  12.919  1.00  0.00     0.069 A 
HETATM   18  C27 UNL     1      -7.064   2.180  12.225  1.00  0.00     0.073 A 
HETATM   19  C28 UNL     1      -5.761   2.141  11.742  1.00  0.00     0.069 A 
HETATM   20  C29 UNL     1      -4.884   3.206  11.946  1.00  0.00     0.051 A 
BRANCH  17  21
HETATM   21  O4  UNL     1      -8.746   3.408  13.422  1.00  0.00    -0.361 OA
HETATM   22  H31 UNL     1      -9.239   2.600  13.201  1.00  0.00     0.217 HD
ENDBRANCH  17  21
BRANCH  19  23
HETATM   23  O5  UNL     1      -5.289   1.063  11.051  1.00  0.00    -0.361 OA
HETATM   24  H33 UNL     1      -5.990   0.392  10.993  1.00  0.00     0.217 HD
ENDBRANCH  19  23
ENDBRANCH  13  15
BRANCH   1  25
HETATM   25  C5  UNL     1      -3.539   9.663  14.412  1.00  0.00     0.070 C 
BRANCH  25  26
HETATM   26  C4  UNL     1      -3.380   9.650  15.910  1.00  0.00    -0.020 C 
HETATM   27  C2  UNL     1      -3.606  10.652  16.783  1.00  0.00    -0.091 C 
HETATM   28  C1  UNL     1      -4.100  12.025  16.420  1.00  0.00     0.042 C 
HETATM   29  C3  UNL     1      -3.382  10.447  18.259  1.00  0.00     0.042 C 
ENDBRANCH  25  26
ENDBRANCH   1  25
BRANCH   2  30
HETATM   30  O1  UNL     1      -0.765  10.021  13.817  1.00  0.00    -0.357 OA
HETATM   31  H10 UNL     1       0.161   9.971  13.509  1.00  0.00     0.217 HD
ENDBRANCH   2  30
BRANCH   7  32
HETATM   32  C14 UNL     1       1.875   8.150  10.484  1.00  0.00     0.042 C 
BRANCH  32  33
HETATM   33  C15 UNL     1       0.639   8.515   9.654  1.00  0.00     0.006 C 
BRANCH  33  34
HETATM   34  C16 UNL     1       0.683   8.022   8.197  1.00  0.00     0.037 C 
BRANCH  34  35
HETATM   35  C17 UNL     1       2.063   7.651   7.613  1.00  0.00     0.051 C 
HETATM   36  C18 UNL     1       1.898   7.183   6.161  1.00  0.00     0.045 C 
HETATM   37  C19 UNL     1       2.775   6.567   8.422  1.00  0.00     0.045 C 
BRANCH  35  38
HETATM   38  O2  UNL     1       2.910   8.801   7.597  1.00  0.00    -0.391 OA
HETATM   39  H28 UNL     1       2.480   9.487   7.054  1.00  0.00     0.210 HD
ENDBRANCH  35  38
ENDBRANCH  34  35
ENDBRANCH  33  34
ENDBRANCH  32  33
ENDBRANCH   7  32
TORSDOF 11
ENDMDL
