MODEL 1
REMARK minimizedAffinity -8.80712605
REMARK CNNscore 0.941452146
REMARK CNNaffinity 8.06228828
REMARK  12 active torsions:
REMARK  status: ('A' for Active; 'I' for Inactive)
REMARK    1  A    between atoms: C2_2  and  C17_19 
REMARK    2  A    between atoms: C3_3  and  C4_4 
REMARK    3  A    between atoms: C4_4  and  C5_5 
REMARK    4  A    between atoms: C5_5  and  C6_6 
REMARK    5  A    between atoms: C12_12  and  O1_13 
REMARK    6  A    between atoms: C17_19  and  C18_20 
REMARK    7  A    between atoms: C19_21  and  C20_22 
REMARK    8  A    between atoms: C20_22  and  C22_24 
REMARK    9  A    between atoms: C22_24  and  C23_26 
REMARK   10  A    between atoms: C23_26  and  O4_27 
REMARK   11  A    between atoms: C23_26  and  C24_28 
REMARK   12  A    between atoms: C24_28  and  C25_29 
ROOT
HETATM    1  C1  UNL     1      -4.931  48.699 -21.522  1.00  0.00     0.043 C 
HETATM    2  C2  UNL     1      -3.884  48.402 -22.563  1.00  0.00    -0.084 C 
HETATM    3  C3  UNL     1      -2.593  48.129 -22.280  1.00  0.00    -0.024 C 
ENDROOT
BRANCH   3   4
HETATM    4  C4  UNL     1      -1.980  47.970 -20.917  1.00  0.00     0.030 C 
BRANCH   4   5
HETATM    5  C5  UNL     1      -1.180  49.165 -20.385  1.00  0.00     0.042 C 
BRANCH   5   6
HETATM    6  C6  UNL     1      -1.953  50.433 -19.934  1.00  0.00     0.065 C 
HETATM    7  C7  UNL     1      -3.030  50.080 -18.893  1.00  0.00     0.046 C 
HETATM    8  C8  UNL     1      -2.618  51.228 -21.066  1.00  0.00     0.043 C 
HETATM    9  C9  UNL     1      -1.582  51.779 -22.031  1.00  0.00     0.044 C 
HETATM   10  C10 UNL     1      -0.463  52.434 -21.276  1.00  0.00    -0.021 A 
HETATM   11  C11 UNL     1       0.384  53.336 -21.938  1.00  0.00     0.046 A 
HETATM   12  C16 UNL     1      -0.237  52.136 -19.926  1.00  0.00     0.082 A 
HETATM   13  C12 UNL     1       1.423  53.944 -21.242  1.00  0.00     0.066 A 
HETATM   14  C13 UNL     1       1.641  53.664 -19.899  1.00  0.00     0.046 A 
HETATM   15  C14 UNL     1       0.813  52.756 -19.226  1.00  0.00    -0.025 A 
HETATM   16  C15 UNL     1       1.053  52.459 -17.774  1.00  0.00     0.051 C 
HETATM   17  O2  UNL     1      -1.018  51.267 -19.208  1.00  0.00    -0.340 OA
BRANCH  13  18
HETATM   18  O1  UNL     1       2.258  54.833 -21.848  1.00  0.00    -0.361 OA
HETATM   19  H17 UNL     1       1.973  54.952 -22.767  1.00  0.00     0.217 HD
ENDBRANCH  13  18
ENDBRANCH   5   6
ENDBRANCH   4   5
ENDBRANCH   3   4
BRANCH   2  20
HETATM   20  C17 UNL     1      -4.373  48.456 -24.002  1.00  0.00     0.060 C 
BRANCH  20  21
HETATM   21  C18 UNL     1      -3.223  48.481 -24.970  1.00  0.00    -0.026 C 
HETATM   22  C19 UNL     1      -2.824  49.416 -25.849  1.00  0.00    -0.019 C 
BRANCH  22  23
HETATM   23  C20 UNL     1      -3.375  50.772 -26.234  1.00  0.00     0.076 C 
HETATM   24  C21 UNL     1      -3.377  51.861 -25.162  1.00  0.00     0.022 C 
BRANCH  23  25
HETATM   25  C22 UNL     1      -2.664  51.252 -27.508  1.00  0.00     0.162 C 
HETATM   26  O3  UNL     1      -2.898  50.768 -28.623  1.00  0.00    -0.294 OA
BRANCH  25  27
HETATM   27  C23 UNL     1      -1.696  52.446 -27.396  1.00  0.00     0.188 C 
BRANCH  27  28
HETATM   28  O4  UNL     1      -2.165  53.557 -28.156  1.00  0.00    -0.388 OA
HETATM   29  H31 UNL     1      -3.063  53.316 -28.470  1.00  0.00     0.210 HD
ENDBRANCH  27  28
BRANCH  27  30
HETATM   30  C24 UNL     1      -0.232  52.153 -27.757  1.00  0.00     0.043 C 
BRANCH  30  31
HETATM   31  C25 UNL     1       0.848  52.184 -26.651  1.00  0.00    -0.020 C 
HETATM   32  C26 UNL     1       2.207  51.644 -27.093  1.00  0.00     0.009 C 
HETATM   33  C27 UNL     1       0.408  51.513 -25.352  1.00  0.00     0.009 C 
ENDBRANCH  30  31
ENDBRANCH  27  30
ENDBRANCH  25  27
ENDBRANCH  23  25
ENDBRANCH  22  23
ENDBRANCH  20  21
ENDBRANCH   2  20
TORSDOF 12
ENDMDL
