MODEL 1
REMARK minimizedAffinity -6.97530937
REMARK CNNscore 0.696153283
REMARK CNNaffinity 6.98694754
REMARK  4 active torsions:
REMARK  status: ('A' for Active; 'I' for Inactive)
REMARK    1  A    between atoms: C14_16  and  C15_17 
REMARK    2  A    between atoms: C15_17  and  C17_19 
REMARK    3  A    between atoms: C17_19  and  C18_20 
REMARK    4  A    between atoms: C18_20  and  C19_21 
ROOT
HETATM    1  C1  UNL     1      -4.190  51.894 -10.828  1.00  0.00     0.017 C 
HETATM    2  C2  UNL     1      -3.051  52.408 -11.332  1.00  0.00    -0.060 C 
HETATM    3  C3  UNL     1      -2.899  52.592 -12.829  1.00  0.00     0.212 C 
HETATM    4  O1  UNL     1      -1.752  51.895 -13.310  1.00  0.00    -0.317 OA
HETATM    5  C4  UNL     1      -1.771  50.567 -13.019  1.00  0.00     0.259 C 
HETATM    6  O2  UNL     1      -2.725  49.820 -13.183  1.00  0.00    -0.265 OA
HETATM    7  C5  UNL     1      -0.479  50.184 -12.354  1.00  0.00     0.112 C 
HETATM    8  C6  UNL     1      -0.414  50.722 -10.918  1.00  0.00     0.020 C 
HETATM    9  C7  UNL     1      -0.476  52.263 -10.791  1.00  0.00    -0.024 A 
HETATM   10  C8  UNL     1       0.423  53.059 -11.713  1.00  0.00     0.022 A 
HETATM   11  C9  UNL     1       0.750  53.074 -10.235  1.00  0.00    -0.027 A 
HETATM   12  C10 UNL     1       1.984  52.277  -9.791  1.00  0.00     0.011 C 
HETATM   13  C11 UNL     1       3.232  53.046  -9.322  1.00  0.00     0.011 C 
HETATM   14  C12 UNL     1       3.042  54.560  -9.187  1.00  0.00    -0.032 C 
HETATM   15  C13 UNL     1       3.216  55.182 -10.598  1.00  0.00     0.016 C 
HETATM   16  C14 UNL     1       3.986  55.278  -8.166  1.00  0.00    -0.002 C 
HETATM   17  C23 UNL     1       3.169  56.518  -7.710  1.00  0.00     0.006 C 
HETATM   18  C24 UNL     1       1.726  56.313  -8.201  1.00  0.00     0.011 C 
HETATM   19  C25 UNL     1       1.630  54.814  -8.543  1.00  0.00    -0.032 C 
HETATM   20  C26 UNL     1       1.383  54.059  -7.197  1.00  0.00     0.016 C 
HETATM   21  C27 UNL     1       0.520  54.457  -9.564  1.00  0.00     0.004 C 
HETATM   22  C28 UNL     1      -0.904  54.607  -9.014  1.00  0.00     0.007 C 
HETATM   23  C29 UNL     1      -1.937  54.274 -10.085  1.00  0.00     0.010 C 
HETATM   24  C30 UNL     1      -1.892  52.773 -10.405  1.00  0.00     0.025 C 
ENDROOT
BRANCH  16  25
HETATM   25  C15 UNL     1       5.485  55.589  -8.457  1.00  0.00    -0.014 C 
HETATM   26  C16 UNL     1       6.051  55.091  -9.794  1.00  0.00     0.010 C 
BRANCH  25  27
HETATM   27  C17 UNL     1       6.389  55.152  -7.280  1.00  0.00     0.008 C 
BRANCH  27  28
HETATM   28  C18 UNL     1       6.419  56.120  -6.087  1.00  0.00     0.028 C 
BRANCH  28  29
HETATM   29  C19 UNL     1       7.817  56.529  -5.708  1.00  0.00    -0.025 C 
HETATM   30  C20 UNL     1       8.242  57.711  -5.222  1.00  0.00    -0.091 C 
HETATM   31  C21 UNL     1       9.701  57.924  -4.901  1.00  0.00     0.042 C 
HETATM   32  C22 UNL     1       7.376  58.908  -4.946  1.00  0.00     0.042 C 
ENDBRANCH  28  29
ENDBRANCH  27  28
ENDBRANCH  25  27
ENDBRANCH  16  25
TORSDOF 4
ENDMDL
