MODEL 1
REMARK minimizedAffinity -7.45102882
REMARK CNNscore 0.318998307
REMARK CNNaffinity 6.68799734
REMARK  9 active torsions:
REMARK  status: ('A' for Active; 'I' for Inactive)
REMARK    1  A    between atoms: C5_5  and  O1_6 
REMARK    2  A    between atoms: C8_9  and  C9_10 
REMARK    3  A    between atoms: C19_20  and  C20_21 
REMARK    4  A    between atoms: C20_21  and  C22_23 
REMARK    5  A    between atoms: C23_24  and  C24_25 
REMARK    6  A    between atoms: C24_25  and  O2_27 
REMARK    7  A    between atoms: C24_25  and  C26_28 
REMARK    8  A    between atoms: C26_28  and  C28_30 
REMARK    9  A    between atoms: C28_30  and  O3_31 
ROOT
HETATM    1  C9  UNL     1      -2.336  49.931 -24.489  1.00  0.00     0.004 C 
HETATM    2  C10 UNL     1      -2.649  50.165 -23.197  1.00  0.00    -0.075 C 
HETATM    3  C11 UNL     1      -3.096  51.486 -22.627  1.00  0.00     0.034 C 
HETATM    4  C12 UNL     1      -4.412  51.326 -21.873  1.00  0.00     0.005 C 
HETATM    5  C13 UNL     1      -4.254  50.338 -20.722  1.00  0.00     0.010 C 
HETATM    6  C14 UNL     1      -3.765  48.932 -21.165  1.00  0.00    -0.032 C 
HETATM    7  C15 UNL     1      -4.920  48.174 -21.848  1.00  0.00     0.016 C 
HETATM    8  C16 UNL     1      -2.592  49.018 -22.202  1.00  0.00     0.023 C 
HETATM    9  C17 UNL     1      -1.330  48.971 -21.350  1.00  0.00     0.010 C 
HETATM   10  C18 UNL     1      -1.680  47.864 -20.365  1.00  0.00     0.007 C 
HETATM   11  C19 UNL     1      -3.114  48.207 -19.910  1.00  0.00     0.002 C 
ENDROOT
BRANCH  11  12
HETATM   12  C20 UNL     1      -3.892  47.035 -19.245  1.00  0.00     0.009 C 
HETATM   13  C21 UNL     1      -3.872  45.786 -20.142  1.00  0.00     0.014 C 
BRANCH  12  14
HETATM   14  C22 UNL     1      -5.308  47.444 -18.855  1.00  0.00    -0.023 C 
HETATM   15  C23 UNL     1      -6.300  46.659 -18.397  1.00  0.00     0.007 C 
BRANCH  15  16
HETATM   16  C24 UNL     1      -7.707  47.084 -17.999  1.00  0.00     0.077 C 
HETATM   17  C25 UNL     1      -8.719  45.932 -17.941  1.00  0.00     0.051 C 
BRANCH  16  18
HETATM   18  O2  UNL     1      -7.588  47.542 -16.639  1.00  0.00    -0.386 OA
HETATM   19  H37 UNL     1      -6.932  48.256 -16.617  1.00  0.00     0.211 HD
ENDBRANCH  16  18
BRANCH  16  20
HETATM   20  C26 UNL     1      -8.172  48.294 -18.875  1.00  0.00     0.043 C 
HETATM   21  C27 UNL     1      -8.795  49.427 -18.043  1.00  0.00     0.015 C 
BRANCH  20  22
HETATM   22  C28 UNL     1      -9.103  47.915 -20.039  1.00  0.00     0.171 C 
BRANCH  22  23
HETATM   23  O3  UNL     1      -8.383  47.691 -21.242  1.00  0.00    -0.400 OA
HETATM   24  H44 UNL     1      -9.033  47.474 -21.931  1.00  0.00     0.209 HD
ENDBRANCH  22  23
ENDBRANCH  20  22
ENDBRANCH  16  20
ENDBRANCH  15  16
ENDBRANCH  12  14
ENDBRANCH  11  12
BRANCH   1  25
HETATM   25  C8  UNL     1      -2.355  50.876 -25.590  1.00  0.00     0.008 C 
HETATM   26  C7  UNL     1      -1.340  51.673 -25.986  1.00  0.00    -0.050 C 
HETATM   27  C2  UNL     1      -0.028  51.762 -25.357  1.00  0.00    -0.061 C 
HETATM   28  C6  UNL     1      -1.473  52.533 -27.234  1.00  0.00     0.070 C 
HETATM   29  C1  UNL     1       0.134  52.145 -24.080  1.00  0.00     0.019 C 
HETATM   30  C3  UNL     1       1.158  51.517 -26.261  1.00  0.00     0.041 C 
HETATM   31  C4  UNL     1       0.787  51.459 -27.748  1.00  0.00     0.036 C 
HETATM   32  C5  UNL     1      -0.209  52.558 -28.119  1.00  0.00     0.122 C 
BRANCH  32  33
HETATM   33  O1  UNL     1       0.425  53.835 -28.002  1.00  0.00    -0.395 OA
HETATM   34  H8  UNL     1       1.202  53.833 -28.587  1.00  0.00     0.210 HD
ENDBRANCH  32  33
ENDBRANCH   1  25
TORSDOF 9
ENDMDL
