MODEL 1
REMARK minimizedAffinity -8.1575489
REMARK  2 active torsions:
REMARK  status: ('A' for Active; 'I' for Inactive)
REMARK    1  A    between atoms: C1_2  and  C2_3 
REMARK       I    between atoms: C1_2  and  N3_14 
REMARK    2  A    between atoms: C3_7  and  C4_8 
ROOT
HETATM    1  O1  UNL     1      14.021  37.442  17.508  1.00  0.00    -0.266 OA
HETATM    2  C1  UNL     1      14.388  36.272  17.366  1.00  0.00     0.272 C 
HETATM    3  N3  UNL     1      14.382  35.384  18.453  1.00  0.00    -0.338 N 
HETATM    4  C9  UNL     1      15.238  34.201  18.516  1.00  0.00     0.127 C 
HETATM    5  C10 UNL     1      15.888  34.050  19.884  1.00  0.00     0.024 C 
HETATM    6  C11 UNL     1      14.842  33.830  20.964  1.00  0.00     0.037 C 
HETATM    7  C12 UNL     1      13.611  34.663  20.748  1.00  0.00    -0.060 C 
HETATM    8  C13 UNL     1      12.429  34.356  21.383  1.00  0.00    -0.015 C 
HETATM    9  C14 UNL     1      11.141  35.244  21.291  1.00  0.00     0.031 C 
HETATM   10  C15 UNL     1      11.682  36.566  20.835  1.00  0.00     0.019 C 
HETATM   11  C16 UNL     1      12.219  36.112  19.462  1.00  0.00     0.031 C 
HETATM   12  C17 UNL     1      11.162  36.512  18.480  1.00  0.00     0.124 C 
HETATM   13  N4  UNL     1       9.930  35.744  18.924  1.00  0.00    -0.407 N 
HETATM   14  C18 UNL     1       8.700  36.503  18.743  1.00  0.00     0.117 C 
HETATM   15  C19 UNL     1       7.480  35.585  18.788  1.00  0.00     0.019 C 
HETATM   16  C20 UNL     1       7.491  34.605  19.959  1.00  0.00     0.004 C 
HETATM   17  C21 UNL     1       8.636  34.872  20.927  1.00  0.00     0.026 C 
HETATM   18  C22 UNL     1       9.999  34.896  20.203  1.00  0.00     0.086 C 
HETATM   19  C23 UNL     1      13.697  35.830  19.665  1.00  0.00     0.122 C 
ENDROOT
BRANCH   2  20
HETATM   20  C2  UNL     1      14.804  35.795  16.027  1.00  0.00     0.118 A 
HETATM   21  N1  UNL     1      13.990  35.699  14.956  1.00  0.00    -0.295 N 
HETATM   22  N2  UNL     1      14.793  35.294  13.960  1.00  0.00    -0.299 N 
ATOM     23  H1  UNL     1      12.989  35.892  14.913  1.00  0.00     0.187 HD
HETATM   24  C3  UNL     1      16.092  35.121  14.332  1.00  0.00     0.061 A 
HETATM   25  H1  UNL     1      14.385  35.153  13.042  1.00  0.00     0.187 HD
HETATM   26  C8  UNL     1      16.139  35.445  15.665  1.00  0.00     0.068 A 
BRANCH  24  27
HETATM   27  C4  UNL     1      17.262  34.661  13.419  1.00  0.00    -0.001 A 
HETATM   28  C5  UNL     1      17.330  34.956  12.075  1.00  0.00     0.063 A 
HETATM   29  S1  UNL     1      18.741  34.313  11.344  1.00  0.00    -0.113 SA
HETATM   30  C6  UNL     1      19.263  33.634  12.823  1.00  0.00     0.050 A 
HETATM   31  C7  UNL     1      18.384  33.896  13.852  1.00  0.00     0.021 A 
ENDBRANCH  24  27
ENDBRANCH   2  20
TORSDOF 2
ENDMDL
