MODEL 1
REMARK minimizedAffinity -7.759161
REMARK CNNscore 0.593847156
REMARK CNNaffinity 7.45045996
REMARK  13 active torsions:
REMARK  status: ('A' for Active; 'I' for Inactive)
REMARK    1  A    between atoms: O1_2  and  C2_3 
REMARK    2  A    between atoms: C2_3  and  C3_5 
REMARK    3  A    between atoms: C16_18  and  C17_19 
REMARK    4  A    between atoms: C17_19  and  C18_20 
REMARK    5  A    between atoms: C18_20  and  O4_22 
REMARK    6  A    between atoms: C24_32  and  C25_33 
REMARK    7  A    between atoms: C25_33  and  C26_34 
REMARK    8  A    between atoms: C26_34  and  C27_35 
REMARK    9  A    between atoms: C27_35  and  O9_36 
REMARK   10  A    between atoms: C29_39  and  C30_40 
REMARK   11  A    between atoms: C30_40  and  C32_42 
REMARK   12  A    between atoms: C43_53  and  O10_54 
REMARK   13  A    between atoms: C44_55  and  O11_56 
ROOT
HETATM    1  C3  UNL     1     -15.758   3.109  28.932  1.00  0.00     0.020 C 
HETATM    2  C4  UNL     1     -15.142   2.236  28.109  1.00  0.00     0.003 C 
HETATM    3  C5  UNL     1     -14.119   2.599  27.005  1.00  0.00     0.026 C 
HETATM    4  C6  UNL     1     -14.849   2.159  25.737  1.00  0.00    -0.012 C 
HETATM    5  C7  UNL     1     -14.332   2.034  24.509  1.00  0.00     0.002 C 
HETATM    6  C8  UNL     1     -12.990   2.571  24.154  1.00  0.00     0.144 C 
HETATM    7  C9  UNL     1     -11.947   1.581  24.642  1.00  0.00     0.036 C 
HETATM    8  C10 UNL     1     -11.673   1.758  26.158  1.00  0.00     0.009 C 
HETATM    9  C11 UNL     1     -12.856   1.653  27.205  1.00  0.00     0.007 C 
HETATM   10  C12 UNL     1     -12.237   1.705  28.639  1.00  0.00     0.033 C 
HETATM   11  C13 UNL     1     -12.310   2.881  29.584  1.00  0.00    -0.030 C 
HETATM   12  C14 UNL     1     -12.931   4.069  29.570  1.00  0.00    -0.023 C 
HETATM   13  C15 UNL     1     -13.862   4.704  28.548  1.00  0.00     0.047 C 
HETATM   14  C16 UNL     1     -15.370   4.577  28.917  1.00  0.00     0.044 C 
HETATM   15  C19 UNL     1     -13.615   4.119  27.134  1.00  0.00     0.149 C 
HETATM   16  O5  UNL     1     -13.787   5.140  26.139  1.00  0.00    -0.351 OA
HETATM   17  C20 UNL     1     -15.011   5.366  25.481  1.00  0.00     0.297 C 
HETATM   18  O6  UNL     1     -15.044   4.600  24.272  1.00  0.00    -0.347 OA
HETATM   19  C21 UNL     1     -14.106   5.063  23.286  1.00  0.00     0.191 C 
HETATM   20  C22 UNL     1     -13.842   3.917  22.291  1.00  0.00     0.204 C 
HETATM   21  O7  UNL     1     -12.930   2.867  22.758  1.00  0.00    -0.379 OA
HETATM   22  C23 UNL     1     -14.653   6.421  22.735  1.00  0.00     0.148 A 
HETATM   23  O8  UNL     1     -15.285   6.189  21.459  1.00  0.00    -0.332 OA
HETATM   24  C24 UNL     1     -14.809   6.838  20.340  1.00  0.00     0.075 A 
HETATM   25  C28 UNL     1     -13.806   7.721  20.396  1.00  0.00     0.072 A 
HETATM   26  N1  UNL     1     -13.171   8.494  19.463  1.00  0.00    -0.357 N 
HETATM   27  C29 UNL     1     -12.207   9.306  20.042  1.00  0.00     0.014 A 
HETATM   28  C38 UNL     1     -12.137   9.062  21.376  1.00  0.00     0.039 A 
HETATM   29  C39 UNL     1     -13.144   8.052  21.649  1.00  0.00     0.001 A 
HETATM   30  C40 UNL     1     -13.518   7.459  22.788  1.00  0.00    -0.027 A 
HETATM   31  C41 UNL     1     -12.947   7.741  24.163  1.00  0.00     0.041 C 
HETATM   32  C42 UNL     1     -14.005   7.822  25.276  1.00  0.00     0.050 C 
HETATM   33  C43 UNL     1     -15.238   6.888  25.136  1.00  0.00     0.136 C 
HETATM   34  C44 UNL     1     -15.775   6.947  23.692  1.00  0.00     0.199 C 
HETATM   35  H34 UNL     1     -13.568   8.666  18.547  1.00  0.00     0.166 HD
ENDROOT
BRANCH  27  36
HETATM   36  C30 UNL     1     -11.367  10.286  19.258  1.00  0.00     0.035 C 
HETATM   37  C31 UNL     1     -11.711  11.733  19.646  1.00  0.00     0.017 C 
BRANCH  36  38
HETATM   38  C32 UNL     1     -11.418  10.005  17.727  1.00  0.00    -0.005 C 
HETATM   39  C33 UNL     1     -11.311  11.257  16.820  1.00  0.00     0.005 C 
HETATM   40  C34 UNL     1     -10.114  11.220  15.877  1.00  0.00     0.000 C 
HETATM   41  C35 UNL     1     -10.077   9.952  15.029  1.00  0.00     0.000 C 
HETATM   42  C36 UNL     1     -10.427   8.683  15.814  1.00  0.00     0.000 C 
HETATM   43  C37 UNL     1     -10.413   8.910  17.323  1.00  0.00     0.005 C 
ENDBRANCH  36  38
ENDBRANCH  27  36
BRANCH  24  44
HETATM   44  C25 UNL     1     -15.495   6.424  19.062  1.00  0.00     0.069 C 
BRANCH  44  45
HETATM   45  C26 UNL     1     -15.709   7.578  18.077  1.00  0.00     0.033 C 
BRANCH  45  46
HETATM   46  C27 UNL     1     -15.184   7.289  16.675  1.00  0.00     0.164 C 
BRANCH  46  47
HETATM   47  O9  UNL     1     -13.838   7.727  16.547  1.00  0.00    -0.401 OA
HETATM   48  H33 UNL     1     -13.291   7.156  17.114  1.00  0.00     0.209 HD
ENDBRANCH  46  47
ENDBRANCH  45  46
ENDBRANCH  44  45
ENDBRANCH  24  44
BRANCH  34  49
HETATM   49  O11 UNL     1     -16.248   8.284  23.402  1.00  0.00    -0.389 OA
HETATM   50  H57 UNL     1     -15.585   8.733  22.837  1.00  0.00     0.210 HD
ENDBRANCH  34  49
BRANCH  33  51
HETATM   51  O10 UNL     1     -16.244   7.416  26.029  1.00  0.00    -0.382 OA
HETATM   52  H55 UNL     1     -16.662   8.154  25.539  1.00  0.00     0.210 HD
ENDBRANCH  33  51
BRANCH  14  53
HETATM   53  C17 UNL     1     -15.901   5.547  29.984  1.00  0.00     0.120 C 
BRANCH  53  54
HETATM   54  C18 UNL     1     -15.469   5.451  31.422  1.00  0.00     0.140 C 
HETATM   55  O3  UNL     1     -15.026   4.466  31.999  1.00  0.00    -0.650 OA
BRANCH  54  56
HETATM   56  O4  UNL     1     -15.405   6.662  32.013  1.00  0.00    -0.776 OA
HETATM   57  H21 UNL     1     -15.098   6.471  32.923  1.00  0.00     0.167 HD
ENDBRANCH  54  56
ENDBRANCH  53  54
ENDBRANCH  14  53
BRANCH   1  58
HETATM   58  C2  UNL     1     -16.872   2.627  29.779  1.00  0.00     0.289 C 
HETATM   59  O2  UNL     1     -16.736   1.967  30.792  1.00  0.00    -0.260 OA
BRANCH  58  60
HETATM   60  O1  UNL     1     -18.042   3.142  29.307  1.00  0.00    -0.323 OA
HETATM   61  C1  UNL     1     -18.714   2.309  28.363  1.00  0.00     0.213 C 
ENDBRANCH  58  60
ENDBRANCH   1  58
TORSDOF 13
ENDMDL
