MODEL 1
REMARK minimizedAffinity -8.24920177
REMARK CNNscore 0.196497336
REMARK CNNaffinity 5.89854002
REMARK  19 active torsions:
REMARK  status: ('A' for Active; 'I' for Inactive)
REMARK    1  A    between atoms: O1_2  and  C2_3 
REMARK    2  A    between atoms: C2_3  and  C3_4 
REMARK    3  A    between atoms: C2_3  and  C28_36 
REMARK    4  A    between atoms: C3_4  and  C4_5 
REMARK    5  A    between atoms: C4_5  and  C6_7 
REMARK    6  A    between atoms: C6_7  and  O2_8 
REMARK    7  A    between atoms: C6_7  and  C7_9 
REMARK    8  A    between atoms: C8_10  and  C9_11 
REMARK    9  A    between atoms: C10_12  and  C11_13 
REMARK   10  A    between atoms: C11_13  and  N1_14 
REMARK       I    between atoms: N1_14  and  C12_15 
REMARK   11  A    between atoms: C12_15  and  C13_17 
REMARK   12  A    between atoms: C13_17  and  C16_20 
REMARK   13  A    between atoms: C16_20  and  O4_21 
REMARK   14  A    between atoms: C16_20  and  C17_22 
REMARK   15  A    between atoms: C19_24  and  C20_25 
REMARK   16  A    between atoms: C21_26  and  C22_27 
REMARK   17  A    between atoms: C23_28  and  C24_29 
REMARK   18  A    between atoms: C26_31  and  N2_33 
REMARK   19  A    between atoms: C28_36  and  O7_37 
ROOT
HETATM    1  C9  UNL     1      -7.604  48.704 -22.627  1.00  0.00    -0.003 C 
HETATM    2  C10 UNL     1      -7.181  49.497 -21.628  1.00  0.00    -0.007 C 
ENDROOT
BRANCH   1   3
HETATM    3  C8  UNL     1      -8.186  49.221 -23.843  1.00  0.00    -0.002 C 
HETATM    4  C7  UNL     1      -8.535  48.433 -24.872  1.00  0.00     0.005 C 
BRANCH   4   5
HETATM    5  C6  UNL     1      -9.097  48.847 -26.209  1.00  0.00     0.144 C 
BRANCH   5   6
HETATM    6  C4  UNL     1     -10.036  47.867 -26.947  1.00  0.00     0.016 C 
HETATM    7  C5  UNL     1     -11.442  47.762 -26.345  1.00  0.00     0.013 C 
BRANCH   6   8
HETATM    8  C3  UNL     1      -9.417  46.481 -27.255  1.00  0.00     0.042 C 
BRANCH   8   9
HETATM    9  C2  UNL     1      -8.490  46.190 -28.481  1.00  0.00     0.159 C 
BRANCH   9  10
HETATM   10  O1  UNL     1      -7.394  47.119 -28.299  1.00  0.00    -0.388 OA
HETATM   11  C1  UNL     1      -6.979  47.762 -29.508  1.00  0.00     0.202 C 
ENDBRANCH   9  10
BRANCH   9  12
HETATM   12  C28 UNL     1      -9.070  46.492 -29.918  1.00  0.00     0.133 C 
HETATM   13  C29 UNL     1     -10.625  46.339 -29.960  1.00  0.00     0.114 C 
HETATM   14  C30 UNL     1     -11.344  47.209 -30.989  1.00  0.00     0.023 C 
HETATM   15  C31 UNL     1     -10.853  44.891 -30.303  1.00  0.00     0.227 C 
HETATM   16  O8  UNL     1     -11.862  44.257 -30.044  1.00  0.00    -0.273 OA
HETATM   17  N3  UNL     1      -9.744  44.450 -30.987  1.00  0.00    -0.332 N 
HETATM   18  C32 UNL     1      -9.570  43.051 -31.321  1.00  0.00     0.154 C 
HETATM   19  C33 UNL     1      -8.613  45.447 -30.988  1.00  0.00     0.183 A 
HETATM   20  C34 UNL     1      -7.184  44.809 -31.005  1.00  0.00     0.294 A 
HETATM   21  C35 UNL     1      -8.184  45.871 -32.445  1.00  0.00     0.169 A 
HETATM   22  O9  UNL     1      -6.539  44.009 -30.361  1.00  0.00    -0.262 OA
HETATM   23  O10 UNL     1      -6.862  45.298 -32.230  1.00  0.00    -0.311 OA
HETATM   24  C36 UNL     1      -8.029  47.288 -32.965  1.00  0.00     0.043 C 
BRANCH  12  25
HETATM   25  O7  UNL     1      -8.714  47.814 -30.338  1.00  0.00    -0.383 OA
HETATM   26  H42 UNL     1      -8.921  48.451 -29.633  1.00  0.00     0.210 HD
ENDBRANCH  12  25
ENDBRANCH   9  12
ENDBRANCH   8   9
ENDBRANCH   6   8
ENDBRANCH   5   6
BRANCH   5  27
HETATM   27  O2  UNL     1      -9.796  50.074 -25.986  1.00  0.00    -0.391 OA
HETATM   28  H12 UNL     1     -10.309  49.968 -25.164  1.00  0.00     0.210 HD
ENDBRANCH   5  27
ENDBRANCH   4   5
ENDBRANCH   1   3
BRANCH   2  29
HETATM   29  C11 UNL     1      -6.520  49.057 -20.357  1.00  0.00     0.149 C 
BRANCH  29  30
HETATM   30  N1  UNL     1      -5.209  49.636 -20.231  1.00  0.00    -0.357 N 
HETATM   31  C12 UNL     1      -4.420  49.483 -19.114  1.00  0.00     0.228 C 
HETATM   32  O3  UNL     1      -4.810  48.890 -18.109  1.00  0.00    -0.273 OA
HETATM   33  H19 UNL     1      -4.766  50.017 -21.066  1.00  0.00     0.162 HD
BRANCH  31  34
HETATM   34  C13 UNL     1      -3.036  50.148 -19.209  1.00  0.00     0.063 C 
HETATM   35  C14 UNL     1      -2.859  51.125 -18.029  1.00  0.00     0.028 C 
HETATM   36  C15 UNL     1      -3.001  50.977 -20.513  1.00  0.00     0.028 C 
BRANCH  34  37
HETATM   37  C16 UNL     1      -1.876  49.108 -19.214  1.00  0.00     0.164 C 
BRANCH  37  38
HETATM   38  O4  UNL     1      -0.954  49.358 -18.142  1.00  0.00    -0.390 OA
HETATM   39  H27 UNL     1      -0.294  48.643 -18.181  1.00  0.00     0.210 HD
ENDBRANCH  37  38
BRANCH  37  40
HETATM   40  C17 UNL     1      -1.082  48.951 -20.504  1.00  0.00    -0.054 C 
HETATM   41  C18 UNL     1      -1.326  47.695 -21.312  1.00  0.00     0.046 C 
HETATM   42  C19 UNL     1      -0.170  49.836 -20.964  1.00  0.00     0.005 C 
BRANCH  42  43
HETATM   43  C20 UNL     1       0.211  51.098 -20.368  1.00  0.00     0.000 C 
HETATM   44  C21 UNL     1       0.515  52.234 -21.020  1.00  0.00     0.000 C 
BRANCH  44  45
HETATM   45  C22 UNL     1       0.604  52.419 -22.456  1.00  0.00     0.001 C 
HETATM   46  C23 UNL     1      -0.314  51.933 -23.311  1.00  0.00     0.009 C 
BRANCH  46  47
HETATM   47  C24 UNL     1      -0.325  52.104 -24.773  1.00  0.00    -0.034 C 
HETATM   48  C25 UNL     1       1.039  52.140 -25.443  1.00  0.00     0.050 C 
HETATM   49  C26 UNL     1      -1.494  52.248 -25.443  1.00  0.00     0.082 C 
HETATM   50  C27 UNL     1      -2.917  52.255 -24.986  1.00  0.00     0.075 C 
BRANCH  49  51
HETATM   51  N2  UNL     1      -1.425  52.408 -26.880  1.00  0.00    -0.120 N 
HETATM   52  O5  UNL     1      -1.469  51.376 -27.564  1.00  0.00    -0.532 OA
HETATM   53  O6  UNL     1      -1.359  53.566 -27.311  1.00  0.00    -0.532 OA
ENDBRANCH  49  51
ENDBRANCH  46  47
ENDBRANCH  44  45
ENDBRANCH  42  43
ENDBRANCH  37  40
ENDBRANCH  34  37
ENDBRANCH  31  34
ENDBRANCH  29  30
ENDBRANCH   2  29
TORSDOF 19
ENDMDL
