MODEL 1
REMARK minimizedAffinity -8.89713097
REMARK  10 active torsions:
REMARK  status: ('A' for Active; 'I' for Inactive)
REMARK    1  A    between atoms: C2_2  and  C3_3 
REMARK    2  A    between atoms: C5_5  and  C6_6 
REMARK    3  A    between atoms: C6_6  and  C7_7 
REMARK    4  A    between atoms: C13_13  and  C15_15 
REMARK    5  A    between atoms: C15_15  and  O1_16 
REMARK    6  A    between atoms: O1_16  and  C16_17 
REMARK    7  A    between atoms: C17_19  and  C18_20 
REMARK    8  A    between atoms: C18_20  and  O3_21 
REMARK    9  A    between atoms: C19_22  and  O4_23 
REMARK   10  A    between atoms: C20_24  and  O5_25 
ROOT
HETATM    1  C7  UNL     1      -2.633  49.981 -20.552  1.00  0.00     0.025 C 
HETATM    2  C8  UNL     1      -1.242  49.579 -21.002  1.00  0.00    -0.084 C 
HETATM    3  C9  UNL     1      -0.656  48.430 -20.629  1.00  0.00     0.015 C 
HETATM    4  C10 UNL     1      -0.578  50.564 -21.913  1.00  0.00     0.034 C 
HETATM    5  C11 UNL     1      -1.438  50.808 -23.144  1.00  0.00     0.010 C 
HETATM    6  C12 UNL     1      -2.930  51.187 -22.866  1.00  0.00     0.005 C 
HETATM    7  C13 UNL     1      -3.730  51.310 -24.240  1.00  0.00    -0.018 C 
HETATM    8  C14 UNL     1      -5.045  52.109 -24.057  1.00  0.00     0.018 C 
HETATM    9  C21 UNL     1      -4.046  49.902 -24.807  1.00  0.00     0.012 C 
HETATM   10  C22 UNL     1      -4.649  48.929 -23.798  1.00  0.00     0.002 C 
HETATM   11  C23 UNL     1      -3.839  48.830 -22.505  1.00  0.00     0.010 C 
HETATM   12  C24 UNL     1      -3.582  50.200 -21.810  1.00  0.00    -0.032 C 
HETATM   13  C25 UNL     1      -4.934  50.718 -21.252  1.00  0.00     0.016 C 
ENDROOT
BRANCH   7  14
HETATM   14  C15 UNL     1      -2.902  52.095 -25.310  1.00  0.00     0.180 C 
BRANCH  14  15
HETATM   15  O1  UNL     1      -1.742  51.354 -25.711  1.00  0.00    -0.358 OA
BRANCH  15  16
HETATM   16  C16 UNL     1      -1.354  51.670 -27.047  1.00  0.00     0.291 C 
HETATM   17  O2  UNL     1      -0.163  50.956 -27.401  1.00  0.00    -0.348 OA
HETATM   18  C17 UNL     1       0.968  51.704 -26.873  1.00  0.00     0.179 C 
HETATM   19  C19 UNL     1       0.439  53.093 -26.479  1.00  0.00     0.182 C 
HETATM   20  C20 UNL     1      -0.936  53.139 -27.137  1.00  0.00     0.204 C 
BRANCH  18  21
HETATM   21  C18 UNL     1       2.060  51.783 -27.944  1.00  0.00     0.198 C 
BRANCH  21  22
HETATM   22  O3  UNL     1       3.332  51.481 -27.373  1.00  0.00    -0.398 OA
HETATM   23  H27 UNL     1       3.992  51.552 -28.084  1.00  0.00     0.209 HD
ENDBRANCH  21  22
ENDBRANCH  18  21
BRANCH  19  24
HETATM   24  O4  UNL     1       0.319  53.188 -25.054  1.00  0.00    -0.390 OA
HETATM   25  H29 UNL     1      -0.369  52.548 -24.777  1.00  0.00     0.210 HD
ENDBRANCH  19  24
BRANCH  20  26
HETATM   26  O5  UNL     1      -0.820  53.571 -28.500  1.00  0.00    -0.388 OA
HETATM   27  H31 UNL     1      -0.567  52.796 -29.038  1.00  0.00     0.210 HD
ENDBRANCH  20  26
ENDBRANCH  15  16
ENDBRANCH  14  15
ENDBRANCH   7  14
BRANCH   1  28
HETATM   28  C6  UNL     1      -2.574  51.206 -19.584  1.00  0.00     0.037 C 
BRANCH  28  29
HETATM   29  C5  UNL     1      -1.480  51.100 -18.545  1.00  0.00    -0.019 C 
HETATM   30  C3  UNL     1      -0.392  51.876 -18.357  1.00  0.00    -0.067 C 
HETATM   31  C4  UNL     1       0.567  51.531 -17.242  1.00  0.00     0.048 C 
BRANCH  30  32
HETATM   32  C2  UNL     1      -0.087  53.041 -19.178  1.00  0.00    -0.004 C 
HETATM   33  C1  UNL     1       1.054  53.265 -19.844  1.00  0.00     0.012 C 
ENDBRANCH  30  32
ENDBRANCH  28  29
ENDBRANCH   1  28
TORSDOF 10
ENDMDL
