MODEL 1
REMARK minimizedAffinity -6.55883598
REMARK CNNscore 0.701307714
REMARK CNNaffinity 6.30857611
REMARK  9 active torsions:
REMARK  status: ('A' for Active; 'I' for Inactive)
REMARK    1  A    between atoms: C2_2  and  C3_3 
REMARK    2  A    between atoms: C3_3  and  C5_5 
REMARK    3  A    between atoms: C3_3  and  C6_7 
REMARK    4  A    between atoms: C5_5  and  O1_6 
REMARK    5  A    between atoms: C7_8  and  O2_9 
REMARK    6  A    between atoms: C18_22  and  O5_23 
REMARK    7  A    between atoms: O5_23  and  C19_24 
REMARK    8  A    between atoms: C19_24  and  C20_26 
REMARK    9  A    between atoms: C29_36  and  O8_37 
ROOT
HETATM    1  C6  UNL     1     -13.920  11.652  -1.291  1.00  0.00     0.023 A 
HETATM    2  C7  UNL     1     -14.431  11.828   0.009  1.00  0.00     0.076 A 
HETATM    3  C8  UNL     1     -13.979  12.850   0.852  1.00  0.00     0.053 A 
HETATM    4  C9  UNL     1     -12.966  13.715   0.434  1.00  0.00     0.034 A 
HETATM    5  C10 UNL     1     -12.561  14.821   1.321  1.00  0.00     0.192 A 
HETATM    6  O3  UNL     1     -13.186  15.030   2.352  1.00  0.00    -0.287 OA
HETATM    7  C11 UNL     1     -11.437  15.702   0.903  1.00  0.00     0.035 A 
HETATM    8  C12 UNL     1     -10.891  15.549  -0.314  1.00  0.00     0.131 A 
HETATM    9  O4  UNL     1      -9.967  16.435  -0.834  1.00  0.00    -0.336 OA
HETATM   10  C13 UNL     1     -10.027  17.776  -0.323  1.00  0.00     0.065 C 
HETATM   11  C14 UNL     1      -8.859  18.521  -0.992  1.00  0.00     0.046 C 
HETATM   12  C15 UNL     1     -11.322  18.465  -0.818  1.00  0.00     0.046 C 
HETATM   13  C16 UNL     1      -9.945  17.771   1.231  1.00  0.00     0.031 C 
HETATM   14  C17 UNL     1      -8.534  17.483   1.803  1.00  0.00     0.041 C 
HETATM   15  C18 UNL     1      -8.295  16.012   2.143  1.00  0.00     0.136 C 
HETATM   16  C23 UNL     1      -9.252  15.557   3.259  1.00  0.00     0.012 C 
HETATM   17  C24 UNL     1      -9.459  14.037   3.198  1.00  0.00     0.012 C 
HETATM   18  C25 UNL     1     -10.579  16.336   3.242  1.00  0.00     0.017 C 
HETATM   19  C26 UNL     1     -11.029  16.823   1.845  1.00  0.00     0.033 C 
HETATM   20  C27 UNL     1     -11.272  14.421  -1.214  1.00  0.00     0.219 A 
HETATM   21  O7  UNL     1     -10.695  14.220  -2.278  1.00  0.00    -0.284 OA
HETATM   22  C28 UNL     1     -12.370  13.530  -0.802  1.00  0.00     0.065 A 
HETATM   23  C29 UNL     1     -12.830  12.496  -1.646  1.00  0.00     0.091 A 
ENDROOT
BRANCH   1  24
HETATM   24  C3  UNL     1     -14.464  10.592  -2.306  1.00  0.00     0.027 C 
HETATM   25  C4  UNL     1     -15.998  10.366  -2.258  1.00  0.00     0.027 C 
BRANCH  24  26
HETATM   26  C2  UNL     1     -14.265  11.098  -3.749  1.00  0.00    -0.021 C 
HETATM   27  C1  UNL     1     -15.073  10.916  -4.804  1.00  0.00     0.008 C 
ENDBRANCH  24  26
BRANCH  24  28
HETATM   28  C5  UNL     1     -13.757   9.235  -1.970  1.00  0.00     0.182 C 
BRANCH  28  29
HETATM   29  O1  UNL     1     -12.727   8.853  -2.884  1.00  0.00    -0.399 OA
HETATM   30  H9  UNL     1     -13.131   8.723  -3.756  1.00  0.00     0.209 HD
ENDBRANCH  28  29
ENDBRANCH  24  28
ENDBRANCH   1  24
BRANCH   2  31
HETATM   31  O2  UNL     1     -15.381  10.985   0.508  1.00  0.00    -0.360 OA
HETATM   32  H10 UNL     1     -15.448  11.097   1.472  1.00  0.00     0.217 HD
ENDBRANCH   2  31
BRANCH  23  33
HETATM   33  O8  UNL     1     -12.211  12.262  -2.848  1.00  0.00    -0.359 OA
HETATM   34  H36 UNL     1     -11.454  12.882  -2.974  1.00  0.00     0.217 HD
ENDBRANCH  23  33
BRANCH  15  35
HETATM   35  O5  UNL     1      -6.945  15.904   2.645  1.00  0.00    -0.315 OA
BRANCH  35  36
HETATM   36  C19 UNL     1      -5.927  15.884   1.735  1.00  0.00     0.262 C 
HETATM   37  O6  UNL     1      -5.799  15.060   0.841  1.00  0.00    -0.265 OA
BRANCH  36  38
HETATM   38  C20 UNL     1      -4.972  17.033   2.013  1.00  0.00     0.077 C 
HETATM   39  C21 UNL     1      -4.545  17.710   0.713  1.00  0.00     0.020 C 
HETATM   40  C22 UNL     1      -3.764  16.528   2.792  1.00  0.00     0.020 C 
ENDBRANCH  36  38
ENDBRANCH  35  36
ENDBRANCH  15  35
TORSDOF 9
ENDMDL
