MODEL 1
REMARK minimizedAffinity -6.90993929
REMARK CNNscore 0.523478031
REMARK CNNaffinity 6.54080009
REMARK  6 active torsions:
REMARK  status: ('A' for Active; 'I' for Inactive)
REMARK    1  A    between atoms: C2_2  and  C30_31 
REMARK    2  A    between atoms: C3_3  and  C4_4 
REMARK    3  A    between atoms: C4_4  and  C5_5 
REMARK    4  A    between atoms: C5_5  and  C6_6 
REMARK    5  A    between atoms: C6_6  and  C8_8 
REMARK    6  A    between atoms: C30_31  and  O3_33 
ROOT
HETATM    1  C8  UNL     1      -1.759  12.049  17.810  1.00  0.00    -0.002 C 
HETATM    2  C9  UNL     1      -1.980  10.962  18.903  1.00  0.00     0.007 C 
HETATM    3  C10 UNL     1      -2.109   9.604  18.184  1.00  0.00     0.015 C 
HETATM    4  C11 UNL     1      -2.270   9.964  16.693  1.00  0.00    -0.013 C 
HETATM    5  C12 UNL     1      -3.787  10.286  16.489  1.00  0.00     0.021 C 
HETATM    6  C13 UNL     1      -1.920   8.899  15.656  1.00  0.00    -0.070 C 
HETATM    7  C14 UNL     1      -2.152   7.587  15.876  1.00  0.00    -0.022 C 
HETATM    8  C15 UNL     1      -1.917   6.496  14.867  1.00  0.00     0.034 C 
HETATM    9  C16 UNL     1      -1.130   7.001  13.647  1.00  0.00     0.013 C 
HETATM   10  C17 UNL     1      -0.816   5.939  12.546  1.00  0.00     0.018 C 
HETATM   11  C18 UNL     1      -2.036   5.430  11.770  1.00  0.00     0.023 C 
HETATM   12  C19 UNL     1      -0.098   4.722  13.170  1.00  0.00     0.023 C 
HETATM   13  C20 UNL     1       0.156   6.577  11.535  1.00  0.00     0.135 C 
HETATM   14  O1  UNL     1       0.778   5.900  10.714  1.00  0.00    -0.297 OA
HETATM   15  C21 UNL     1       0.342   8.080  11.590  1.00  0.00     0.080 C 
HETATM   16  C22 UNL     1      -1.003   8.760  11.793  1.00  0.00     0.017 C 
HETATM   17  C23 UNL     1      -1.698   8.382  13.135  1.00  0.00    -0.031 C 
HETATM   18  C24 UNL     1      -3.228   8.376  12.874  1.00  0.00     0.016 C 
HETATM   19  C25 UNL     1      -1.377   9.406  14.301  1.00  0.00     0.024 C 
HETATM   20  C26 UNL     1      -1.780  10.876  14.031  1.00  0.00     0.010 C 
HETATM   21  C27 UNL     1      -1.506  11.862  15.194  1.00  0.00     0.011 C 
HETATM   22  C28 UNL     1      -1.311  11.199  16.575  1.00  0.00    -0.029 C 
HETATM   23  C29 UNL     1       0.198  10.836  16.755  1.00  0.00     0.016 C 
ENDROOT
BRANCH   1  24
HETATM   24  C6  UNL     1      -0.861  13.216  18.306  1.00  0.00    -0.014 C 
HETATM   25  C7  UNL     1      -1.577  14.570  18.257  1.00  0.00     0.010 C 
BRANCH  24  26
HETATM   26  C5  UNL     1      -0.287  12.978  19.729  1.00  0.00     0.008 C 
BRANCH  26  27
HETATM   27  C4  UNL     1       1.242  12.961  19.823  1.00  0.00     0.028 C 
BRANCH  27  28
HETATM   28  C3  UNL     1       1.733  11.632  20.328  1.00  0.00    -0.013 C 
HETATM   29  C2  UNL     1       2.470  11.396  21.433  1.00  0.00     0.008 C 
HETATM   30  C1  UNL     1       2.996  12.432  22.380  1.00  0.00     0.055 C 
BRANCH  29  31
HETATM   31  C30 UNL     1       2.803   9.975  21.712  1.00  0.00     0.171 C 
HETATM   32  O2  UNL     1       3.885   9.530  22.056  1.00  0.00    -0.646 OA
BRANCH  31  33
HETATM   33  O3  UNL     1       1.749   9.161  21.539  1.00  0.00    -0.773 OA
HETATM   34  H46 UNL     1       2.110   8.275  21.751  1.00  0.00     0.167 HD
ENDBRANCH  31  33
ENDBRANCH  29  31
ENDBRANCH  27  28
ENDBRANCH  26  27
ENDBRANCH  24  26
ENDBRANCH   1  24
TORSDOF 6
ENDMDL
