MODEL 1
REMARK minimizedAffinity -9.13606453
REMARK  4 active torsions:
REMARK  status: ('A' for Active; 'I' for Inactive)
REMARK    1  A    between atoms: C4_5  and  C5_6 
REMARK    2  A    between atoms: C8_11  and  C9_12 
REMARK    3  A    between atoms: C9_12  and  N2_13 
REMARK    4  A    between atoms: N3_16  and  C12_17 
ROOT
HETATM    1  N2  UNL     1      -0.949  52.202 -25.600  1.00  0.00     0.095 N 
HETATM    2  C10 UNL     1      -1.209  51.092 -24.663  1.00  0.00     0.287 C 
HETATM    3  C11 UNL     1      -2.622  50.476 -24.840  1.00  0.00     0.126 C 
HETATM    4  N3  UNL     1      -2.822  50.060 -26.246  1.00  0.00    -0.278 NA
HETATM    5  C20 UNL     1      -2.603  51.177 -27.183  1.00  0.00     0.126 C 
HETATM    6  C21 UNL     1      -1.176  51.751 -26.989  1.00  0.00     0.287 C 
ENDROOT
BRANCH   1   7
HETATM    7  C9  UNL     1       0.336  52.875 -25.393  1.00  0.00     0.312 C 
BRANCH   7   8
HETATM    8  C8  UNL     1       0.672  53.319 -23.992  1.00  0.00    -0.014 A 
HETATM    9  C7  UNL     1       1.308  54.532 -23.758  1.00  0.00     0.096 A 
HETATM   10  N1  UNL     1       1.635  54.993 -22.531  1.00  0.00    -0.374 N 
HETATM   11  C6  UNL     1       1.314  54.202 -21.480  1.00  0.00     0.100 A 
ATOM     12  H1  UNL     1       2.101  55.892 -22.402  1.00  0.00     0.164 HD
HETATM   13  C5  UNL     1       0.674  52.966 -21.580  1.00  0.00    -0.010 A 
HETATM   14  C22 UNL     1       0.350  52.537 -22.874  1.00  0.00     0.024 A 
BRANCH  13  15
HETATM   15  C4  UNL     1       0.358  52.156 -20.394  1.00  0.00    -0.024 A 
HETATM   16  C3  UNL     1       0.625  52.636 -19.099  1.00  0.00     0.015 A 
HETATM   17  C2  UNL     1       0.327  51.865 -17.972  1.00  0.00     0.043 A 
HETATM   18  C1  UNL     1      -0.242  50.609 -18.131  1.00  0.00     0.116 A 
HETATM   19  F1  UNL     1      -0.527  49.871 -17.052  1.00  0.00    -0.206 F 
HETATM   20  C24 UNL     1      -0.517  50.108 -19.397  1.00  0.00     0.043 A 
HETATM   21  C23 UNL     1      -0.217  50.879 -20.524  1.00  0.00     0.015 A 
ENDBRANCH  13  15
ENDBRANCH   7   8
ENDBRANCH   1   7
BRANCH   4  22
HETATM   22  C12 UNL     1      -3.941  49.224 -26.422  1.00  0.00     0.047 A 
HETATM   23  C13 UNL     1      -4.189  48.773 -27.738  1.00  0.00     0.027 A 
HETATM   24  C14 UNL     1      -5.275  47.954 -28.054  1.00  0.00     0.005 A 
HETATM   25  C15 UNL     1      -6.147  47.550 -27.052  1.00  0.00     0.040 A 
HETATM   26  C16 UNL     1      -5.927  47.965 -25.741  1.00  0.00     0.103 A 
HETATM   27  C17 UNL     1      -4.849  48.817 -25.420  1.00  0.00     0.123 A 
HETATM   28  O2  UNL     1      -6.829  47.490 -24.817  1.00  0.00    -0.346 OA
HETATM   29  O1  UNL     1      -4.639  49.229 -24.124  1.00  0.00    -0.344 OA
HETATM   30  C18 UNL     1      -5.799  49.065 -23.305  1.00  0.00     0.202 C 
HETATM   31  C19 UNL     1      -6.361  47.669 -23.479  1.00  0.00     0.202 C 
ENDBRANCH   4  22
TORSDOF 4
ENDMDL
