MODEL 1
REMARK minimizedAffinity -7.29060459
REMARK CNNscore 0.695780098
REMARK CNNaffinity 6.14433813
REMARK  5 active torsions:
REMARK  status: ('A' for Active; 'I' for Inactive)
REMARK    1  A    between atoms: C2_2  and  C4_4 
REMARK    2  A    between atoms: C7_7  and  C8_8 
REMARK    3  A    between atoms: C8_8  and  O2_10 
REMARK    4  A    between atoms: C22_25  and  C24_27 
REMARK    5  A    between atoms: C24_27  and  O4_28 
ROOT
HETATM    1  C4  UNL     1     -17.420  46.622 -21.997  1.00  0.00     0.019 C 
HETATM    2  C5  UNL     1     -18.903  46.313 -21.655  1.00  0.00     0.011 C 
HETATM    3  C6  UNL     1     -19.364  45.230 -22.647  1.00  0.00     0.021 C 
HETATM    4  C7  UNL     1     -18.444  45.427 -23.858  1.00  0.00     0.050 C 
HETATM    5  C9  UNL     1     -18.320  44.212 -24.784  1.00  0.00     0.022 C 
HETATM    6  C10 UNL     1     -17.177  44.422 -25.797  1.00  0.00     0.011 C 
HETATM    7  C11 UNL     1     -15.763  44.754 -25.183  1.00  0.00    -0.032 C 
HETATM    8  C12 UNL     1     -15.310  43.442 -24.464  1.00  0.00     0.016 C 
HETATM    9  C13 UNL     1     -15.937  45.908 -24.129  1.00  0.00     0.000 C 
HETATM   10  C14 UNL     1     -14.620  46.186 -23.401  1.00  0.00     0.006 C 
HETATM   11  C15 UNL     1     -13.393  46.182 -24.307  1.00  0.00     0.006 C 
HETATM   12  C16 UNL     1     -13.723  46.423 -25.799  1.00  0.00     0.003 C 
HETATM   13  C17 UNL     1     -12.418  46.760 -26.687  1.00  0.00    -0.035 C 
HETATM   14  C18 UNL     1     -12.836  47.556 -27.955  1.00  0.00     0.016 C 
HETATM   15  C19 UNL     1     -11.420  47.640 -25.892  1.00  0.00     0.017 C 
HETATM   16  C20 UNL     1     -10.185  48.061 -26.667  1.00  0.00     0.080 C 
HETATM   17  C21 UNL     1      -9.601  47.011 -27.579  1.00  0.00     0.137 C 
HETATM   18  O3  UNL     1      -8.532  47.257 -28.149  1.00  0.00    -0.297 OA
HETATM   19  C22 UNL     1     -10.286  45.655 -27.801  1.00  0.00     0.042 C 
HETATM   20  C23 UNL     1     -10.431  45.473 -29.326  1.00  0.00     0.026 C 
HETATM   21  C25 UNL     1     -11.642  45.458 -27.027  1.00  0.00     0.012 C 
HETATM   22  C26 UNL     1     -12.566  44.403 -27.665  1.00  0.00     0.007 C 
HETATM   23  C27 UNL     1     -13.745  44.045 -26.762  1.00  0.00     0.011 C 
HETATM   24  C28 UNL     1     -14.654  45.232 -26.331  1.00  0.00    -0.032 C 
HETATM   25  C29 UNL     1     -15.416  45.716 -27.593  1.00  0.00     0.016 C 
HETATM   26  C30 UNL     1     -17.095  45.633 -23.144  1.00  0.00     0.017 C 
ENDROOT
BRANCH   4  27
HETATM   27  C8  UNL     1     -19.051  46.582 -24.664  1.00  0.00     0.149 C 
HETATM   28  O1  UNL     1     -18.503  47.650 -24.885  1.00  0.00    -0.649 OA
BRANCH  27  29
HETATM   29  O2  UNL     1     -20.256  46.350 -25.210  1.00  0.00    -0.776 OA
HETATM   30  H11 UNL     1     -20.443  47.171 -25.711  1.00  0.00     0.167 HD
ENDBRANCH  27  29
ENDBRANCH   4  27
BRANCH   1  31
HETATM   31  C2  UNL     1     -16.547  46.554 -20.750  1.00  0.00    -0.088 C 
HETATM   32  C1  UNL     1     -15.370  45.903 -20.695  1.00  0.00     0.014 C 
HETATM   33  C3  UNL     1     -17.094  47.257 -19.535  1.00  0.00     0.043 C 
ENDBRANCH   1  31
BRANCH  19  34
HETATM   34  C24 UNL     1      -9.264  44.622 -27.242  1.00  0.00     0.181 C 
BRANCH  34  35
HETATM   35  O4  UNL     1      -8.954  43.562 -28.143  1.00  0.00    -0.400 OA
HETATM   36  H37 UNL     1      -8.921  43.925 -29.052  1.00  0.00     0.209 HD
ENDBRANCH  34  35
ENDBRANCH  19  34
TORSDOF 5
ENDMDL
