MODEL 1
REMARK minimizedAffinity -7.85995007
REMARK CNNscore 0.728710532
REMARK CNNaffinity 7.0769105
REMARK  14 active torsions:
REMARK  status: ('A' for Active; 'I' for Inactive)
REMARK    1  A    between atoms: C2_2  and  C3_3 
REMARK    2  A    between atoms: C3_3  and  N1_4 
REMARK    3  A    between atoms: N1_4  and  C4_5 
REMARK    4  A    between atoms: C4_5  and  C5_6 
REMARK    5  A    between atoms: C5_6  and  C6_7 
REMARK    6  A    between atoms: C15_17  and  O2_18 
REMARK    7  A    between atoms: C20_23  and  O3_24 
REMARK    8  A    between atoms: C22_26  and  C23_27 
REMARK    9  A    between atoms: C23_27  and  C25_29 
REMARK   10  A    between atoms: C25_29  and  C26_30 
REMARK   11  A    between atoms: C26_30  and  O4_31 
REMARK   12  A    between atoms: C26_30  and  C27_32 
REMARK   13  A    between atoms: C28_33  and  C30_35 
REMARK   14  A    between atoms: C30_35  and  O6_37 
ROOT
HETATM    1  C6  UNL     1      -2.667   8.893  15.476  1.00  0.00     0.023 C 
HETATM    2  C7  UNL     1      -2.411   9.174  13.976  1.00  0.00     0.024 C 
HETATM    3  C8  UNL     1      -4.018   9.586  15.740  1.00  0.00     0.135 C 
HETATM    4  O1  UNL     1      -5.081   8.962  15.780  1.00  0.00    -0.297 OA
HETATM    5  C9  UNL     1      -4.039  11.093  15.861  1.00  0.00     0.080 C 
HETATM    6  C10 UNL     1      -2.710  11.674  16.321  1.00  0.00     0.022 C 
HETATM    7  C11 UNL     1      -1.939  10.739  17.283  1.00  0.00    -0.008 C 
HETATM    8  C12 UNL     1      -2.828  10.282  18.478  1.00  0.00     0.021 C 
HETATM    9  C13 UNL     1      -0.704  11.467  17.880  1.00  0.00     0.002 C 
HETATM   10  C14 UNL     1       0.586  11.109  17.651  1.00  0.00    -0.029 C 
HETATM   11  C15 UNL     1       0.924   9.984  16.708  1.00  0.00     0.149 C 
HETATM   12  C16 UNL     1      -0.205   9.643  15.745  1.00  0.00     0.043 C 
HETATM   13  C17 UNL     1      -1.547   9.442  16.465  1.00  0.00     0.017 C 
HETATM   14  C18 UNL     1       1.741  11.818  18.375  1.00  0.00     0.017 C 
HETATM   15  C19 UNL     1       2.066  13.079  17.509  1.00  0.00     0.023 C 
HETATM   16  C20 UNL     1       3.063  11.042  18.654  1.00  0.00     0.132 C 
HETATM   17  C21 UNL     1       3.710  11.769  19.851  1.00  0.00     0.038 C 
HETATM   18  C22 UNL     1       2.624  12.701  20.458  1.00  0.00     0.001 C 
HETATM   19  C31 UNL     1       1.299  12.127  19.862  1.00  0.00    -0.019 C 
HETATM   20  C32 UNL     1       0.852  10.853  20.640  1.00  0.00     0.017 C 
HETATM   21  C33 UNL     1       0.113  13.087  19.806  1.00  0.00     0.094 C 
HETATM   22  C34 UNL     1      -0.975  12.608  18.854  1.00  0.00     0.157 C 
HETATM   23  O7  UNL     1      -2.077  13.157  18.882  1.00  0.00    -0.293 OA
ENDROOT
BRANCH  18  24
HETATM   24  C23 UNL     1       2.858  13.001  21.968  1.00  0.00    -0.011 C 
HETATM   25  C24 UNL     1       3.733  14.224  22.283  1.00  0.00     0.010 C 
BRANCH  24  26
HETATM   26  C25 UNL     1       3.368  11.802  22.806  1.00  0.00     0.040 C 
BRANCH  26  27
HETATM   27  C26 UNL     1       4.597  11.066  22.243  1.00  0.00     0.142 C 
BRANCH  27  28
HETATM   28  O4  UNL     1       4.422   9.677  22.524  1.00  0.00    -0.392 OA
HETATM   29  H43 UNL     1       5.210   9.214  22.193  1.00  0.00     0.210 HD
ENDBRANCH  27  28
BRANCH  27  30
HETATM   30  C27 UNL     1       5.902  11.455  22.867  1.00  0.00     0.018 C 
HETATM   31  C28 UNL     1       6.911  12.159  22.312  1.00  0.00     0.010 C 
HETATM   32  C29 UNL     1       6.941  12.735  20.929  1.00  0.00     0.055 C 
BRANCH  31  33
HETATM   33  C30 UNL     1       8.082  12.421  23.186  1.00  0.00     0.171 C 
HETATM   34  O5  UNL     1       8.380  13.483  23.703  1.00  0.00    -0.646 OA
BRANCH  33  35
HETATM   35  O6  UNL     1       8.835  11.326  23.367  1.00  0.00    -0.773 OA
HETATM   36  H48 UNL     1       9.558  11.636  23.953  1.00  0.00     0.167 HD
ENDBRANCH  33  35
ENDBRANCH  31  33
ENDBRANCH  27  30
ENDBRANCH  26  27
ENDBRANCH  24  26
ENDBRANCH  18  24
BRANCH  16  37
HETATM   37  O3  UNL     1       3.978  11.033  17.570  1.00  0.00    -0.394 OA
HETATM   38  H32 UNL     1       3.491  10.653  16.808  1.00  0.00     0.210 HD
ENDBRANCH  16  37
BRANCH  11  39
HETATM   39  O2  UNL     1       2.069  10.324  15.928  1.00  0.00    -0.391 OA
HETATM   40  H24 UNL     1       1.778  10.939  15.229  1.00  0.00     0.210 HD
ENDBRANCH  11  39
BRANCH   1  41
HETATM   41  C5  UNL     1      -2.884   7.358  15.711  1.00  0.00     0.047 C 
BRANCH  41  42
HETATM   42  C4  UNL     1      -2.375   6.366  14.656  1.00  0.00     0.270 C 
BRANCH  42  43
HETATM   43  N1  UNL     1      -3.372   5.354  14.325  1.00  0.00     0.083 N 
HETATM   44  H8  UNL     1      -3.173   4.503  14.851  1.00  0.00     0.315 HD
BRANCH  43  45
HETATM   45  C3  UNL     1      -3.378   5.052  12.893  1.00  0.00     0.269 C 
BRANCH  45  46
HETATM   46  C2  UNL     1      -3.938   3.653  12.619  1.00  0.00     0.025 C 
HETATM   47  C1  UNL     1      -5.381   3.653  12.136  1.00  0.00     0.007 C 
ENDBRANCH  45  46
ENDBRANCH  43  45
ENDBRANCH  42  43
ENDBRANCH  41  42
ENDBRANCH   1  41
TORSDOF 14
ENDMDL
