MODEL 1
REMARK minimizedAffinity -7.08136559
REMARK CNNscore 0.323619008
REMARK CNNaffinity 5.61954641
REMARK  6 active torsions:
REMARK  status: ('A' for Active; 'I' for Inactive)
REMARK    1  A    between atoms: C9_10  and  C10_11 
REMARK    2  A    between atoms: C11_13  and  O3_14 
REMARK    3  A    between atoms: C12_15  and  C13_16 
REMARK    4  A    between atoms: C14_18  and  O5_19 
REMARK    5  A    between atoms: C16_21  and  C17_22 
REMARK    6  A    between atoms: C17_22  and  C18_23 
ROOT
HETATM    1  C1  UNL     1       7.300  18.543  22.672  1.00  0.00     0.043 C 
HETATM    2  C2  UNL     1       6.570  17.273  23.064  1.00  0.00    -0.087 C 
HETATM    3  C3  UNL     1       5.224  17.307  23.120  1.00  0.00    -0.024 C 
HETATM    4  C4  UNL     1       4.244  16.237  23.494  1.00  0.00     0.030 C 
HETATM    5  C5  UNL     1       3.530  15.673  22.262  1.00  0.00     0.042 C 
HETATM    6  C6  UNL     1       2.907  14.255  22.423  1.00  0.00     0.069 C 
HETATM    7  C7  UNL     1       2.337  14.070  23.845  1.00  0.00     0.047 C 
HETATM    8  O1  UNL     1       1.746  14.308  21.566  1.00  0.00    -0.338 OA
HETATM    9  C8  UNL     1       1.356  13.246  20.803  1.00  0.00     0.095 A 
HETATM   10  C9  UNL     1       0.284  13.498  19.922  1.00  0.00     0.070 A 
HETATM   11  C11 UNL     1      -0.125  12.519  19.016  1.00  0.00     0.097 A 
HETATM   12  C12 UNL     1       0.560  11.307  18.956  1.00  0.00     0.069 A 
HETATM   13  C14 UNL     1       1.613  11.046  19.860  1.00  0.00     0.091 A 
HETATM   14  C15 UNL     1       2.009  11.994  20.828  1.00  0.00     0.015 A 
HETATM   15  C16 UNL     1       3.079  11.789  21.914  1.00  0.00     0.032 C 
HETATM   16  C21 UNL     1       3.899  13.123  21.953  1.00  0.00     0.034 C 
HETATM   17  C22 UNL     1       5.184  13.065  22.773  1.00  0.00     0.006 A 
HETATM   18  C23 UNL     1       6.336  14.034  22.510  1.00  0.00    -0.001 A 
HETATM   19  C24 UNL     1       7.075  14.698  23.645  1.00  0.00     0.010 C 
HETATM   20  C25 UNL     1       7.538  16.128  23.328  1.00  0.00     0.034 C 
HETATM   21  C26 UNL     1       6.522  12.558  22.208  1.00  0.00    -0.039 A 
HETATM   22  C27 UNL     1       6.713  12.218  20.748  1.00  0.00     0.015 C 
HETATM   23  C28 UNL     1       7.364  11.693  23.121  1.00  0.00     0.015 C 
ENDROOT
BRANCH  15  24
HETATM   24  C17 UNL     1       3.936  10.499  21.887  1.00  0.00     0.014 C 
BRANCH  24  25
HETATM   25  C18 UNL     1       3.646   9.510  23.048  1.00  0.00    -0.022 C 
HETATM   26  C19 UNL     1       2.731   8.363  22.605  1.00  0.00     0.009 C 
HETATM   27  C20 UNL     1       2.989  10.258  24.212  1.00  0.00     0.009 C 
ENDBRANCH  24  25
ENDBRANCH  15  24
BRANCH  13  28
HETATM   28  O5  UNL     1       2.292   9.861  19.772  1.00  0.00    -0.359 OA
HETATM   29  H15 UNL     1       1.900   9.293  19.071  1.00  0.00     0.217 HD
ENDBRANCH  13  28
BRANCH  10  30
HETATM   30  C10 UNL     1      -0.443  14.794  19.918  1.00  0.00     0.275 C 
HETATM   31  O2  UNL     1      -0.745  15.408  18.902  1.00  0.00    -0.301 OA
ENDBRANCH  10  30
BRANCH  12  32
HETATM   32  C13 UNL     1       0.190  10.321  17.918  1.00  0.00     0.275 C 
HETATM   33  O4  UNL     1       1.050   9.676  17.324  1.00  0.00    -0.301 OA
ENDBRANCH  12  32
BRANCH  11  34
HETATM   34  O3  UNL     1      -1.189  12.770  18.190  1.00  0.00    -0.359 OA
HETATM   35  H13 UNL     1      -1.909  12.153  18.425  1.00  0.00     0.217 HD
ENDBRANCH  11  34
TORSDOF 6
ENDMDL
