MODEL 1
REMARK minimizedAffinity -12.4440155
REMARK CNNscore 0.506494641
REMARK CNNaffinity 7.25952387
REMARK  7 active torsions:
REMARK  status: ('A' for Active; 'I' for Inactive)
REMARK    1  A    between atoms: C22_25  and  O4_26 
REMARK    2  A    between atoms: C23_27  and  O5_28 
REMARK    3  A    between atoms: C27_33  and  O7_34 
REMARK    4  A    between atoms: C28_35  and  C29_36 
REMARK    5  A    between atoms: C29_36  and  O8_37 
REMARK    6  A    between atoms: C30_38  and  C31_39 
REMARK    7  A    between atoms: C33_41  and  C34_42 
ROOT
HETATM    1  C1  UNL     1       2.328   7.267   8.394  1.00  0.00     0.046 C 
HETATM    2  C2  UNL     1       2.375   7.794   9.801  1.00  0.00    -0.056 C 
HETATM    3  C3  UNL     1       1.249   8.089  10.480  1.00  0.00    -0.004 C 
HETATM    4  C4  UNL     1       1.299   8.636  11.881  1.00  0.00     0.150 C 
HETATM    5  C5  UNL     1       0.019   8.488  12.689  1.00  0.00     0.270 C 
HETATM    6  O1  UNL     1      -0.465   9.419  13.325  1.00  0.00    -0.264 OA
HETATM    7  O2  UNL     1      -0.502   7.234  12.651  1.00  0.00    -0.315 OA
HETATM    8  C6  UNL     1      -1.676   6.940  13.446  1.00  0.00     0.139 C 
HETATM    9  C7  UNL     1      -1.409   7.042  14.949  1.00  0.00     0.065 C 
HETATM   10  C8  UNL     1      -2.649   7.426  15.763  1.00  0.00     0.131 C 
HETATM   11  C9  UNL     1      -2.775   8.926  16.131  1.00  0.00     0.059 C 
HETATM   12  C10 UNL     1      -1.692   9.429  17.057  1.00  0.00    -0.022 C 
HETATM   13  C11 UNL     1      -1.305  10.712  17.216  1.00  0.00    -0.087 C 
HETATM   14  C12 UNL     1      -1.972  11.883  16.544  1.00  0.00     0.043 C 
HETATM   15  C13 UNL     1      -0.125  11.059  18.118  1.00  0.00     0.041 C 
HETATM   16  C14 UNL     1       1.137  11.586  17.379  1.00  0.00     0.008 C 
HETATM   17  C15 UNL     1       2.266  11.838  18.384  1.00  0.00     0.014 C 
HETATM   18  C16 UNL     1       1.514  10.662  16.243  1.00  0.00    -0.022 C 
HETATM   19  C17 UNL     1       2.485   9.739  16.200  1.00  0.00    -0.003 C 
HETATM   20  C18 UNL     1       2.475   8.787  15.117  1.00  0.00     0.008 C 
HETATM   21  C19 UNL     1       2.812   9.049  13.846  1.00  0.00    -0.019 C 
HETATM   22  C20 UNL     1       3.558  10.238  13.307  1.00  0.00     0.206 C 
HETATM   23  O3  UNL     1       3.982   9.866  11.967  1.00  0.00    -0.375 OA
HETATM   24  C21 UNL     1       3.810   8.427  11.881  1.00  0.00     0.194 C 
HETATM   25  C22 UNL     1       3.749   7.907  10.425  1.00  0.00     0.179 C 
HETATM   26  C23 UNL     1       2.541   8.148  12.675  1.00  0.00     0.128 C 
HETATM   27  O6  UNL     1      -3.854   6.928  15.176  1.00  0.00    -0.349 OA
HETATM   28  C24 UNL     1      -4.127   7.231  13.804  1.00  0.00     0.170 C 
HETATM   29  C25 UNL     1      -2.906   7.730  13.021  1.00  0.00     0.101 C 
HETATM   30  C26 UNL     1      -5.274   8.247  13.715  1.00  0.00     0.100 C 
HETATM   31  C27 UNL     1      -6.568   7.668  14.289  1.00  0.00     0.132 C 
HETATM   32  C28 UNL     1      -6.906   6.329  13.614  1.00  0.00     0.071 C 
HETATM   33  C30 UNL     1      -5.686   5.393  13.673  1.00  0.00     0.162 C 
HETATM   34  O9  UNL     1      -4.520   6.025  13.136  1.00  0.00    -0.345 OA
ENDROOT
BRANCH  31  35
HETATM   35  O7  UNL     1      -6.460   7.533  15.709  1.00  0.00    -0.395 OA
HETATM   36  H36 UNL     1      -5.562   7.200  15.910  1.00  0.00     0.210 HD
ENDBRANCH  31  35
BRANCH  33  37
HETATM   37  C31 UNL     1      -5.870   4.108  12.873  1.00  0.00    -0.058 C 
HETATM   38  C32 UNL     1      -7.255   3.510  12.866  1.00  0.00     0.046 C 
HETATM   39  C33 UNL     1      -4.835   3.553  12.206  1.00  0.00    -0.018 C 
BRANCH  39  40
HETATM   40  C34 UNL     1      -4.852   2.280  11.394  1.00  0.00     0.000 C 
HETATM   41  C35 UNL     1      -3.572   1.482  11.639  1.00  0.00     0.013 C 
HETATM   42  C36 UNL     1      -6.078   1.442  11.757  1.00  0.00     0.013 C 
ENDBRANCH  39  40
ENDBRANCH  33  37
BRANCH  32  43
HETATM   43  C29 UNL     1      -8.152   5.682  14.230  1.00  0.00     0.174 C 
BRANCH  43  44
HETATM   44  O8  UNL     1      -8.096   4.267  14.068  1.00  0.00    -0.400 OA
HETATM   45  H40 UNL     1      -9.009   3.941  14.175  1.00  0.00     0.209 HD
ENDBRANCH  43  44
ENDBRANCH  32  43
BRANCH  26  46
HETATM   46  O5  UNL     1       2.461   6.779  13.055  1.00  0.00    -0.381 OA
HETATM   47  H30 UNL     1       3.201   6.585  13.655  1.00  0.00     0.211 HD
ENDBRANCH  26  46
BRANCH  25  48
HETATM   48  O4  UNL     1       4.576   8.719   9.592  1.00  0.00    -0.389 OA
HETATM   49  H29 UNL     1       4.557   9.609   9.998  1.00  0.00     0.210 HD
ENDBRANCH  25  48
TORSDOF 7
ENDMDL
