MODEL 1
REMARK minimizedAffinity -9.41518593
REMARK CNNscore 0.790506244
REMARK CNNaffinity 5.67027426
REMARK  8 active torsions:
REMARK  status: ('A' for Active; 'I' for Inactive)
REMARK    1  A    between atoms: C3_3  and  C4_4 
REMARK    2  A    between atoms: C4_4  and  O1_5 
REMARK    3  A    between atoms: C6_9  and  C7_10 
REMARK    4  A    between atoms: C7_10  and  O4_12 
REMARK    5  A    between atoms: C7_10  and  C9_13 
REMARK    6  A    between atoms: C12_16  and  O5_17 
REMARK    7  A    between atoms: C15_20  and  O6_21 
REMARK    8  A    between atoms: C16_22  and  O7_23 
ROOT
HETATM    1  C9  UNL     1       6.551  67.092 -36.794  1.00  0.00     0.033 C 
HETATM    2  C10 UNL     1       7.253  67.028 -38.190  1.00  0.00     0.011 C 
HETATM    3  C11 UNL     1       6.180  67.261 -39.269  1.00  0.00     0.039 C 
HETATM    4  C12 UNL     1       4.973  67.750 -38.480  1.00  0.00     0.070 C 
HETATM    5  C13 UNL     1       3.595  67.678 -39.171  1.00  0.00     0.028 C 
HETATM    6  C14 UNL     1       3.583  68.459 -40.496  1.00  0.00     0.043 C 
HETATM    7  C15 UNL     1       2.224  68.403 -41.191  1.00  0.00     0.154 C 
HETATM    8  C16 UNL     1       1.092  68.893 -40.249  1.00  0.00     0.098 C 
HETATM    9  C17 UNL     1      -0.264  68.905 -40.989  1.00  0.00     0.042 C 
HETATM   10  C18 UNL     1      -1.468  69.108 -40.066  1.00  0.00     0.010 C 
HETATM   11  C19 UNL     1      -1.100  69.644 -38.696  1.00  0.00     0.079 C 
HETATM   12  C20 UNL     1      -0.057  68.771 -38.020  1.00  0.00     0.138 C 
HETATM   13  O8  UNL     1      -0.136  68.596 -36.802  1.00  0.00    -0.297 OA
HETATM   14  C21 UNL     1       1.036  68.098 -38.893  1.00  0.00     0.054 C 
HETATM   15  C22 UNL     1       0.578  66.631 -39.059  1.00  0.00     0.027 C 
HETATM   16  C23 UNL     1       2.461  68.174 -38.203  1.00  0.00     0.011 C 
HETATM   17  C24 UNL     1       2.575  67.459 -36.826  1.00  0.00     0.007 C 
HETATM   18  C25 UNL     1       3.990  67.439 -36.209  1.00  0.00     0.013 C 
HETATM   19  C26 UNL     1       5.043  66.880 -37.183  1.00  0.00    -0.006 C 
HETATM   20  C27 UNL     1       4.746  65.377 -37.434  1.00  0.00     0.019 C 
ENDROOT
BRANCH   1  21
HETATM   21  C7  UNL     1       7.258  66.213 -35.695  1.00  0.00     0.085 C 
HETATM   22  C8  UNL     1       8.331  65.307 -36.317  1.00  0.00     0.049 C 
BRANCH  21  23
HETATM   23  C6  UNL     1       6.189  65.333 -34.929  1.00  0.00     0.170 C 
HETATM   24  O3  UNL     1       6.136  65.735 -33.544  1.00  0.00    -0.309 OA
HETATM   25  C5  UNL     1       5.324  65.092 -32.671  1.00  0.00     0.292 C 
HETATM   26  C3  UNL     1       4.834  63.744 -33.077  1.00  0.00     0.042 C 
HETATM   27  O2  UNL     1       5.060  65.578 -31.579  1.00  0.00    -0.260 OA
HETATM   28  C2  UNL     1       5.414  63.109 -34.120  1.00  0.00    -0.067 C 
HETATM   29  C1  UNL     1       5.119  61.697 -34.546  1.00  0.00     0.044 C 
HETATM   30  C28 UNL     1       6.439  63.823 -34.966  1.00  0.00     0.070 C 
BRANCH  26  31
HETATM   31  C4  UNL     1       3.788  63.152 -32.174  1.00  0.00     0.209 C 
BRANCH  31  32
HETATM   32  O1  UNL     1       3.557  61.789 -32.525  1.00  0.00    -0.396 OA
HETATM   33  H6  UNL     1       4.417  61.340 -32.558  1.00  0.00     0.209 HD
ENDBRANCH  31  32
ENDBRANCH  26  31
ENDBRANCH  21  23
BRANCH  21  34
HETATM   34  O4  UNL     1       7.933  67.080 -34.775  1.00  0.00    -0.387 OA
HETATM   35  H11 UNL     1       8.318  66.555 -34.054  1.00  0.00     0.210 HD
ENDBRANCH  21  34
ENDBRANCH   1  21
BRANCH   4  36
HETATM   36  O5  UNL     1       5.272  69.135 -38.200  1.00  0.00    -0.389 OA
HETATM   37  H17 UNL     1       4.578  69.513 -37.639  1.00  0.00     0.210 HD
ENDBRANCH   4  36
BRANCH   7  38
HETATM   38  O6  UNL     1       2.002  67.080 -41.668  1.00  0.00    -0.392 OA
HETATM   39  H22 UNL     1       1.512  67.138 -42.506  1.00  0.00     0.210 HD
ENDBRANCH   7  38
BRANCH   8  40
HETATM   40  O7  UNL     1       1.397  70.273 -39.933  1.00  0.00    -0.386 OA
HETATM   41  H23 UNL     1       1.518  70.769 -40.763  1.00  0.00     0.210 HD
ENDBRANCH   8  40
TORSDOF 8
ENDMDL
