MODEL 1
REMARK minimizedAffinity -9.55874729
REMARK  13 active torsions:
REMARK  status: ('A' for Active; 'I' for Inactive)
REMARK    1  A    between atoms: C2_2  and  C3_3 
REMARK    2  A    between atoms: C2_2  and  C9_11 
REMARK    3  A    between atoms: C3_3  and  C4_4 
REMARK    4  A    between atoms: C4_4  and  C5_5 
REMARK    5  A    between atoms: C5_5  and  C6_6 
REMARK    6  A    between atoms: C6_6  and  O1_8 
REMARK    7  A    between atoms: C6_6  and  C8_9 
REMARK    8  A    between atoms: C8_9  and  O2_10 
REMARK    9  A    between atoms: C10_12  and  O3_13 
REMARK   10  A    between atoms: C11_14  and  O4_15 
REMARK   11  A    between atoms: C13_17  and  O5_18 
REMARK   12  A    between atoms: C15_20  and  O6_21 
REMARK   13  A    between atoms: C18_24  and  O7_25 
ROOT
HETATM    1  C9  UNL     1      -0.821  51.138 -21.300  1.00  0.00     0.029 C 
HETATM    2  C10 UNL     1      -1.072  51.711 -19.874  1.00  0.00     0.152 C 
HETATM    3  C11 UNL     1      -2.590  51.599 -19.615  1.00  0.00     0.155 C 
HETATM    4  C12 UNL     1      -3.019  50.476 -20.564  1.00  0.00     0.060 C 
HETATM    5  C13 UNL     1      -4.535  50.184 -20.755  1.00  0.00     0.071 C 
HETATM    6  C14 UNL     1      -5.097  49.406 -19.541  1.00  0.00     0.071 C 
HETATM    7  C15 UNL     1      -5.153  47.900 -19.753  1.00  0.00     0.126 C 
HETATM    8  C16 UNL     1      -6.093  47.506 -20.908  1.00  0.00     0.025 C 
HETATM    9  C17 UNL     1      -5.764  46.076 -21.392  1.00  0.00     0.039 C 
HETATM   10  C18 UNL     1      -6.801  45.559 -22.394  1.00  0.00     0.118 C 
HETATM   11  C19 UNL     1      -7.324  46.640 -23.340  1.00  0.00     0.032 C 
HETATM   12  C20 UNL     1      -6.340  47.802 -23.458  1.00  0.00     0.012 C 
HETATM   13  C21 UNL     1      -6.106  48.532 -22.093  1.00  0.00    -0.031 C 
HETATM   14  C22 UNL     1      -7.341  49.472 -21.913  1.00  0.00     0.016 C 
HETATM   15  C23 UNL     1      -4.801  49.432 -22.121  1.00  0.00     0.029 C 
HETATM   16  C24 UNL     1      -3.518  48.701 -22.592  1.00  0.00     0.009 C 
HETATM   17  C25 UNL     1      -2.310  49.629 -22.818  1.00  0.00     0.011 C 
HETATM   18  C26 UNL     1      -2.257  50.847 -21.873  1.00  0.00    -0.029 C 
HETATM   19  C27 UNL     1      -2.837  52.079 -22.600  1.00  0.00     0.016 C 
ENDROOT
BRANCH   1  20
HETATM   20  C2  UNL     1       0.294  51.838 -22.135  1.00  0.00    -0.011 C 
HETATM   21  C1  UNL     1       1.072  52.971 -21.457  1.00  0.00     0.010 C 
BRANCH  20  22
HETATM   22  C3  UNL     1      -0.249  52.300 -23.509  1.00  0.00     0.005 C 
BRANCH  22  23
HETATM   23  C4  UNL     1       0.746  53.027 -24.428  1.00  0.00     0.003 C 
BRANCH  23  24
HETATM   24  C5  UNL     1       0.397  52.920 -25.917  1.00  0.00     0.040 C 
BRANCH  24  25
HETATM   25  C6  UNL     1       0.997  51.707 -26.667  1.00  0.00     0.075 C 
HETATM   26  C7  UNL     1       0.939  51.978 -28.175  1.00  0.00     0.048 C 
BRANCH  25  27
HETATM   27  O1  UNL     1       0.183  50.554 -26.412  1.00  0.00    -0.388 OA
HETATM   28  H14 UNL     1       0.511  50.198 -25.561  1.00  0.00     0.210 HD
ENDBRANCH  25  27
BRANCH  25  29
HETATM   29  C8  UNL     1       2.447  51.374 -26.261  1.00  0.00     0.201 C 
BRANCH  29  30
HETATM   30  O2  UNL     1       3.311  51.468 -27.396  1.00  0.00    -0.398 OA
HETATM   31  H17 UNL     1       4.211  51.268 -27.081  1.00  0.00     0.209 HD
ENDBRANCH  29  30
ENDBRANCH  25  29
ENDBRANCH  24  25
ENDBRANCH  23  24
ENDBRANCH  22  23
ENDBRANCH  20  22
ENDBRANCH   1  20
BRANCH   2  32
HETATM   32  O3  UNL     1      -0.632  53.044 -19.674  1.00  0.00    -0.393 OA
HETATM   33  H20 UNL     1      -0.834  53.259 -18.745  1.00  0.00     0.210 HD
ENDBRANCH   2  32
BRANCH   3  34
HETATM   34  O4  UNL     1      -2.799  51.306 -18.241  1.00  0.00    -0.392 OA
HETATM   35  H22 UNL     1      -3.714  51.546 -18.018  1.00  0.00     0.210 HD
ENDBRANCH   3  34
BRANCH   5  36
HETATM   36  O5  UNL     1      -5.227  51.440 -20.826  1.00  0.00    -0.389 OA
HETATM   37  H24 UNL     1      -5.426  51.750 -19.927  1.00  0.00     0.210 HD
ENDBRANCH   5  36
BRANCH   7  38
HETATM   38  O6  UNL     1      -5.616  47.326 -18.527  1.00  0.00    -0.395 OA
HETATM   39  H28 UNL     1      -5.799  46.382 -18.678  1.00  0.00     0.210 HD
ENDBRANCH   7  38
BRANCH  10  40
HETATM   40  O7  UNL     1      -7.895  45.007 -21.666  1.00  0.00    -0.396 OA
HETATM   41  H33 UNL     1      -8.524  44.646 -22.314  1.00  0.00     0.210 HD
ENDBRANCH  10  40
TORSDOF 13
ENDMDL
