MODEL 1
REMARK minimizedAffinity -8.64006233
REMARK CNNscore 0.695087552
REMARK CNNaffinity 6.95083666
REMARK  10 active torsions:
REMARK  status: ('A' for Active; 'I' for Inactive)
REMARK    1  A    between atoms: O1_2  and  C2_3 
REMARK    2  A    between atoms: C2_3  and  C3_4 
REMARK    3  A    between atoms: C2_3  and  C26_35 
REMARK    4  A    between atoms: C3_4  and  C4_5 
REMARK    5  A    between atoms: C4_5  and  C5_6 
REMARK    6  A    between atoms: C5_6  and  C7_8 
REMARK    7  A    between atoms: C13_17  and  C14_18 
REMARK    8  A    between atoms: C14_18  and  O5_19 
REMARK    9  A    between atoms: C17_24  and  O8_25 
REMARK   10  A    between atoms: C30_39  and  O10_40 
ROOT
HETATM    1  C7  UNL     1      -1.477   4.343  11.592  1.00  0.00     0.135 C 
HETATM    2  O2  UNL     1      -2.247   5.048  12.588  1.00  0.00    -0.348 OA
HETATM    3  C8  UNL     1      -1.694   6.255  13.128  1.00  0.00     0.177 C 
HETATM    4  C9  UNL     1      -0.400   5.840  13.839  1.00  0.00     0.102 C 
HETATM    5  C10 UNL     1       0.560   5.104  12.907  1.00  0.00     0.143 C 
HETATM    6  O3  UNL     1       1.138   5.968  11.905  1.00  0.00    -0.315 OA
HETATM    7  C11 UNL     1       2.255   6.652  12.268  1.00  0.00     0.261 C 
HETATM    8  O4  UNL     1       2.724   6.649  13.402  1.00  0.00    -0.265 OA
HETATM    9  C12 UNL     1       2.923   7.359  11.111  1.00  0.00     0.145 C 
HETATM   10  C13 UNL     1       1.989   7.731   9.957  1.00  0.00     0.164 C 
HETATM   11  O6  UNL     1       1.068   8.717  10.453  1.00  0.00    -0.313 OA
HETATM   12  C15 UNL     1      -0.225   8.578  10.051  1.00  0.00     0.264 C 
HETATM   13  O7  UNL     1      -0.589   7.988   9.042  1.00  0.00    -0.265 OA
HETATM   14  C16 UNL     1      -1.149   9.275  11.016  1.00  0.00     0.179 C 
HETATM   15  C17 UNL     1      -1.174   8.546  12.371  1.00  0.00     0.177 C 
HETATM   16  O9  UNL     1      -1.479   7.184  12.069  1.00  0.00    -0.318 OA
HETATM   17  C18 UNL     1      -2.239   9.174  13.304  1.00  0.00     0.045 C 
HETATM   18  C19 UNL     1      -1.917  10.593  13.784  1.00  0.00     0.015 C 
HETATM   19  C20 UNL     1      -2.469   8.264  14.522  1.00  0.00     0.024 C 
HETATM   20  C21 UNL     1      -2.813   6.820  14.088  1.00  0.00     0.010 C 
HETATM   21  C22 UNL     1      -3.002   5.963  15.357  1.00  0.00     0.020 C 
HETATM   22  C23 UNL     1      -4.187   6.839  13.353  1.00  0.00     0.020 C 
HETATM   23  C24 UNL     1      -0.122   3.907  12.206  1.00  0.00     0.041 C 
HETATM   24  C25 UNL     1       0.886   3.305  11.215  1.00  0.00     0.015 C 
ENDROOT
BRANCH   1  25
HETATM   25  C5  UNL     1      -2.452   3.191  11.182  1.00  0.00     0.011 C 
HETATM   26  C6  UNL     1      -1.662   1.936  10.776  1.00  0.00     0.012 C 
BRANCH  25  27
HETATM   27  C4  UNL     1      -3.608   2.808  12.129  1.00  0.00     0.009 C 
BRANCH  27  28
HETATM   28  C3  UNL     1      -5.014   3.327  11.801  1.00  0.00     0.037 C 
BRANCH  28  29
HETATM   29  C2  UNL     1      -6.152   2.906  12.754  1.00  0.00     0.153 C 
BRANCH  29  30
HETATM   30  O1  UNL     1      -6.955   1.897  12.125  1.00  0.00    -0.386 OA
HETATM   31  C1  UNL     1      -6.262   1.204  11.093  1.00  0.00     0.202 C 
ENDBRANCH  29  30
BRANCH  29  32
HETATM   32  C26 UNL     1      -6.995   4.127  13.113  1.00  0.00    -0.027 A 
HETATM   33  C27 UNL     1      -7.824   4.720  12.146  1.00  0.00     0.010 A 
HETATM   34  C28 UNL     1      -8.635   5.808  12.478  1.00  0.00     0.003 A 
HETATM   35  C29 UNL     1      -8.626   6.317  13.777  1.00  0.00     0.036 A 
HETATM   36  C30 UNL     1      -7.805   5.735  14.735  1.00  0.00     0.066 A 
HETATM   37  C31 UNL     1      -6.999   4.645  14.422  1.00  0.00     0.046 A 
BRANCH  36  38
HETATM   38  O10 UNL     1      -7.820   6.272  15.986  1.00  0.00    -0.361 OA
HETATM   39  H45 UNL     1      -7.130   5.836  16.515  1.00  0.00     0.217 HD
ENDBRANCH  36  38
ENDBRANCH  29  32
ENDBRANCH  28  29
ENDBRANCH  27  28
ENDBRANCH  25  27
ENDBRANCH   1  25
BRANCH  15  40
HETATM   40  O8  UNL     1       0.120   8.686  12.939  1.00  0.00    -0.364 OA
HETATM   41  H25 UNL     1       0.077   8.846  13.892  1.00  0.00     0.213 HD
ENDBRANCH  15  40
BRANCH  10  42
HETATM   42  C14 UNL     1       2.776   8.337   8.794  1.00  0.00     0.197 C 
BRANCH  42  43
HETATM   43  O5  UNL     1       2.151   8.025   7.555  1.00  0.00    -0.398 OA
HETATM   44  H22 UNL     1       2.829   8.085   6.863  1.00  0.00     0.209 HD
ENDBRANCH  42  43
ENDBRANCH  10  42
TORSDOF 10
ENDMDL
