MODEL 1
REMARK minimizedAffinity -9.18995953
REMARK  7 active torsions:
REMARK  status: ('A' for Active; 'I' for Inactive)
REMARK       I    between atoms: C1_2  and  N1_3 
REMARK    1  A    between atoms: C1_2  and  C8_12 
REMARK    2  A    between atoms: N1_3  and  C2_4 
REMARK    3  A    between atoms: C2_4  and  C3_5 
REMARK    4  A    between atoms: C14_19  and  C15_20 
REMARK    5  A    between atoms: C15_20  and  N4_21 
REMARK    6  A    between atoms: C17_23  and  C18_24 
REMARK    7  A    between atoms: C18_24  and  C19_25 
ROOT
HETATM    1  C8  UNL     1      -2.744  49.289 -25.851  1.00  0.00     0.110 C 
HETATM    2  C9  UNL     1      -3.065  49.950 -27.204  1.00  0.00     0.287 C 
HETATM    3  N3  UNL     1      -2.389  51.273 -27.321  1.00  0.00     0.095 N 
HETATM    4  C10 UNL     1      -3.009  52.188 -26.338  1.00  0.00     0.273 C 
HETATM    5  C11 UNL     1      -2.907  51.642 -24.906  1.00  0.00     0.036 C 
HETATM    6  C12 UNL     1      -2.099  50.334 -24.913  1.00  0.00     0.004 C 
HETATM    7  C13 UNL     1      -0.732  50.704 -25.531  1.00  0.00     0.043 C 
HETATM    8  C14 UNL     1      -0.931  51.077 -27.025  1.00  0.00     0.242 C 
ENDROOT
BRANCH   8   9
HETATM    9  C15 UNL     1      -0.041  52.269 -27.424  1.00  0.00     0.181 C 
BRANCH   9  10
HETATM   10  N4  UNL     1       0.212  53.171 -26.322  1.00  0.00    -0.283 N 
HETATM   11  C16 UNL     1       0.762  52.886 -25.109  1.00  0.00     0.134 A 
HETATM   12  C17 UNL     1       0.800  54.104 -24.469  1.00  0.00     0.041 A 
HETATM   13  N5  UNL     1       0.295  55.065 -25.306  1.00  0.00    -0.287 N 
HETATM   14  N6  UNL     1      -0.055  54.482 -26.444  1.00  0.00    -0.020 NA
ATOM     15  H5  UNL     1       0.203  56.058 -25.090  1.00  0.00     0.184 HD
BRANCH  12  16
HETATM   16  C18 UNL     1       1.279  54.447 -23.105  1.00  0.00     0.064 C 
BRANCH  16  17
HETATM   17  C19 UNL     1       1.013  53.339 -22.068  1.00  0.00    -0.009 C 
HETATM   18  C20 UNL     1      -0.364  52.704 -22.322  1.00  0.00     0.005 C 
HETATM   19  C21 UNL     1      -0.693  51.625 -21.292  1.00  0.00     0.000 C 
HETATM   20  C22 UNL     1      -0.600  52.163 -19.868  1.00  0.00     0.000 C 
HETATM   21  C23 UNL     1       0.763  52.794 -19.600  1.00  0.00     0.000 C 
HETATM   22  C24 UNL     1       1.100  53.873 -20.627  1.00  0.00     0.005 C 
ENDBRANCH  16  17
ENDBRANCH  12  16
ENDBRANCH   9  10
ENDBRANCH   8   9
BRANCH   1  23
HETATM   23  C1  UNL     1      -3.913  48.534 -25.230  1.00  0.00     0.224 C 
HETATM   24  O1  UNL     1      -4.763  47.996 -25.937  1.00  0.00    -0.273 OA
HETATM   25  N1  UNL     1      -3.942  48.451 -23.859  1.00  0.00    -0.356 N 
HETATM   26  H1  UNL     1      -3.341  49.049 -23.312  1.00  0.00     0.162 HD
BRANCH  25  27
HETATM   27  C2  UNL     1      -5.058  47.844 -23.165  1.00  0.00     0.162 C 
BRANCH  27  28
HETATM   28  C3  UNL     1      -6.354  48.184 -23.838  1.00  0.00    -0.025 A 
HETATM   29  C4  UNL     1      -7.095  47.227 -24.537  1.00  0.00     0.011 A 
HETATM   30  C5  UNL     1      -8.303  47.586 -25.129  1.00  0.00     0.018 A 
HETATM   31  C6  UNL     1      -8.735  48.894 -24.995  1.00  0.00     0.087 A 
HETATM   32  N2  UNL     1      -8.055  49.843 -24.319  1.00  0.00    -0.375 N 
HETATM   33  C7  UNL     1      -6.884  49.469 -23.755  1.00  0.00     0.096 A 
ATOM     34  H2  UNL     1      -8.407  50.797 -24.237  1.00  0.00     0.164 HD
ENDBRANCH  27  28
ENDBRANCH  25  27
ENDBRANCH   1  23
TORSDOF 7
ENDMDL
