MODEL 1
REMARK minimizedAffinity -6.18740988
REMARK CNNscore 0.142023578
REMARK CNNaffinity 5.22962189
REMARK  6 active torsions:
REMARK  status: ('A' for Active; 'I' for Inactive)
REMARK    1  A    between atoms: C2_2  and  O2_4 
REMARK    2  A    between atoms: O2_4  and  C3_5 
REMARK    3  A    between atoms: C12_15  and  O4_16 
REMARK    4  A    between atoms: C17_22  and  C18_23 
REMARK    5  A    between atoms: C18_23  and  C19_24 
REMARK       I    between atoms: C27_33  and  N3_34 
REMARK    6  A    between atoms: C35_45  and  O5_46 
ROOT
HETATM    1  C3  UNL     1      -0.199  14.181   4.262  1.00  0.00     0.134 C 
HETATM    2  C4  UNL     1      -0.683  14.974   5.491  1.00  0.00     0.037 C 
HETATM    3  C5  UNL     1      -0.557  16.500   5.395  1.00  0.00     0.042 C 
HETATM    4  C6  UNL     1      -1.367  17.220   6.453  1.00  0.00    -0.048 A 
HETATM    5  C7  UNL     1      -2.765  17.411   6.339  1.00  0.00    -0.015 A 
HETATM    6  C8  UNL     1      -3.541  16.936   5.137  1.00  0.00     0.044 C 
HETATM    7  C9  UNL     1      -4.921  17.573   5.078  1.00  0.00     0.031 C 
HETATM    8  C10 UNL     1      -5.546  17.493   6.456  1.00  0.00     0.176 C 
HETATM    9  O3  UNL     1      -4.808  18.258   7.409  1.00  0.00    -0.348 OA
HETATM   10  C11 UNL     1      -3.449  18.043   7.389  1.00  0.00     0.109 A 
HETATM   11  C12 UNL     1      -2.756  18.535   8.498  1.00  0.00     0.107 A 
HETATM   12  C13 UNL     1      -1.377  18.375   8.623  1.00  0.00    -0.004 A 
HETATM   13  C14 UNL     1      -0.695  17.710   7.590  1.00  0.00     0.019 A 
HETATM   14  C15 UNL     1      -0.642  18.921   9.820  1.00  0.00     0.167 C 
HETATM   15  N1  UNL     1       0.272  17.954  10.416  1.00  0.00    -0.347 N 
HETATM   16  C16 UNL     1       1.677  18.220  10.599  1.00  0.00     0.136 C 
HETATM   17  C17 UNL     1       2.072  17.367  11.819  1.00  0.00    -0.011 C 
HETATM   18  C25 UNL     1       3.539  16.863  11.786  1.00  0.00     0.032 C 
HETATM   19  C26 UNL     1       3.996  16.044  10.573  1.00  0.00     0.139 C 
HETATM   20  N2  UNL     1       4.526  16.892   9.487  1.00  0.00    -0.227 N 
HETATM   21  C27 UNL     1       4.226  16.817   8.172  1.00  0.00     0.668 C 
HETATM   22  N3  UNL     1       3.222  16.044   7.729  1.00  0.00    -0.235 N 
HETATM   23  N4  UNL     1       4.925  17.512   7.258  1.00  0.00    -0.217 N 
HETATM   24  C28 UNL     1       6.104  18.316   7.531  1.00  0.00     0.224 C 
HETATM   25  S1  UNL     1       6.516  19.313   6.080  1.00  0.00    -0.077 SA
HETATM   26  S2  UNL     1       4.997  20.707   5.994  1.00  0.00    -0.096 SA
HETATM   27  C29 UNL     1       3.638  19.899   5.067  1.00  0.00     0.086 C 
HETATM   28  C30 UNL     1       4.075  19.148   3.808  1.00  0.00     0.011 C 
HETATM   29  C31 UNL     1       2.874  18.472   3.141  1.00  0.00     0.001 C 
HETATM   30  C32 UNL     1       3.269  17.494   2.030  1.00  0.00     0.000 C 
HETATM   31  C33 UNL     1       3.999  16.220   2.475  1.00  0.00     0.002 C 
HETATM   32  C34 UNL     1       3.088  15.011   2.745  1.00  0.00     0.032 C 
HETATM   33  C35 UNL     1       2.205  15.140   3.994  1.00  0.00     0.120 C 
HETATM   34  C36 UNL     1       1.317  13.906   4.229  1.00  0.00     0.064 C 
HETATM   35  C37 UNL     1       1.051  16.210  11.743  1.00  0.00     0.114 C 
HETATM   36  C38 UNL     1      -0.166  16.853  11.139  1.00  0.00     0.220 C 
HETATM   37  O6  UNL     1      -1.301  16.430  11.246  1.00  0.00    -0.273 OA
HETATM   38  H32 UNL     1       5.237  17.553   9.764  1.00  0.00     0.177 HD
HETATM   39  H33 UNL     1       2.635  15.500   8.346  1.00  0.00     0.174 HD
HETATM   40  H34 UNL     1       3.030  15.939   6.724  1.00  0.00     0.174 HD
HETATM   41  H35 UNL     1       4.625  17.455   6.295  1.00  0.00     0.178 HD
ENDROOT
BRANCH  17  42
HETATM   42  C18 UNL     1       1.832  18.263  13.088  1.00  0.00     0.050 C 
BRANCH  42  43
HETATM   43  C19 UNL     1       1.352  17.579  14.345  1.00  0.00    -0.057 A 
HETATM   44  C20 UNL     1       2.206  16.737  15.074  1.00  0.00     0.007 A 
HETATM   45  C21 UNL     1       1.759  16.093  16.228  1.00  0.00     0.001 A 
HETATM   46  C22 UNL     1       0.446  16.270  16.659  1.00  0.00     0.000 A 
HETATM   47  C23 UNL     1      -0.417  17.100  15.945  1.00  0.00     0.001 A 
HETATM   48  C24 UNL     1       0.032  17.748  14.792  1.00  0.00     0.007 A 
ENDBRANCH  42  43
ENDBRANCH  17  42
BRANCH  11  49
HETATM   49  O4  UNL     1      -3.459  19.186   9.483  1.00  0.00    -0.357 OA
HETATM   50  H15 UNL     1      -4.389  18.949   9.313  1.00  0.00     0.217 HD
ENDBRANCH  11  49
BRANCH   1  51
HETATM   51  O2  UNL     1      -0.569  14.825   3.031  1.00  0.00    -0.316 OA
BRANCH  51  52
HETATM   52  C2  UNL     1      -1.252  14.049   2.137  1.00  0.00     0.255 C 
HETATM   53  C1  UNL     1      -2.721  14.129   2.412  1.00  0.00     0.126 C 
HETATM   54  O1  UNL     1      -0.745  13.368   1.257  1.00  0.00    -0.266 OA
ENDBRANCH  51  52
ENDBRANCH   1  51
BRANCH  33  55
HETATM   55  O5  UNL     1       3.048  15.323   5.154  1.00  0.00    -0.395 OA
HETATM   56  H51 UNL     1       3.684  14.571   5.108  1.00  0.00     0.210 HD
ENDBRANCH  33  55
TORSDOF 6
ENDMDL
