MODEL 1
REMARK minimizedAffinity -8.21020412
REMARK  7 active torsions:
REMARK  status: ('A' for Active; 'I' for Inactive)
REMARK    1  A    between atoms: O1_2  and  C2_3 
REMARK    2  A    between atoms: C2_3  and  C3_5 
REMARK    3  A    between atoms: C14_16  and  C15_17 
REMARK    4  A    between atoms: C15_17  and  O4_19 
REMARK    5  A    between atoms: O4_19  and  C16_20 
REMARK    6  A    between atoms: C16_20  and  C17_21 
REMARK    7  A    between atoms: C17_21  and  N1_22 
ROOT
HETATM    1  C3  UNL     1       0.268  52.930 -25.211  1.00  0.00     0.049 C 
HETATM    2  C4  UNL     1       1.444  52.029 -25.655  1.00  0.00     0.026 C 
HETATM    3  C5  UNL     1       0.533  53.386 -23.758  1.00  0.00     0.020 C 
HETATM    4  C6  UNL     1       0.436  52.275 -22.722  1.00  0.00     0.002 C 
HETATM    5  C7  UNL     1      -0.494  51.129 -23.106  1.00  0.00     0.010 C 
HETATM    6  C8  UNL     1      -1.681  51.518 -24.024  1.00  0.00    -0.034 C 
HETATM    7  C9  UNL     1      -2.608  52.493 -23.249  1.00  0.00     0.016 C 
HETATM    8  C10 UNL     1      -2.476  50.191 -24.386  1.00  0.00     0.006 C 
HETATM    9  C11 UNL     1      -3.259  49.577 -23.204  1.00  0.00     0.010 C 
HETATM   10  C12 UNL     1      -3.935  48.261 -23.585  1.00  0.00     0.035 C 
HETATM   11  C13 UNL     1      -4.844  48.426 -24.786  1.00  0.00    -0.070 C 
HETATM   12  C14 UNL     1      -6.126  48.011 -24.698  1.00  0.00     0.085 C 
HETATM   13  C20 UNL     1      -4.170  49.066 -25.995  1.00  0.00     0.022 C 
HETATM   14  C21 UNL     1      -3.262  48.032 -26.679  1.00  0.00     0.015 C 
HETATM   15  C22 UNL     1      -3.438  50.374 -25.585  1.00  0.00     0.068 C 
HETATM   16  C23 UNL     1      -2.709  50.968 -26.776  1.00  0.00     0.132 C 
HETATM   17  O5  UNL     1      -3.257  51.119 -27.867  1.00  0.00    -0.298 OA
HETATM   18  C24 UNL     1      -1.266  51.353 -26.570  1.00  0.00     0.085 C 
HETATM   19  C25 UNL     1      -1.153  52.253 -25.330  1.00  0.00     0.019 C 
ENDROOT
BRANCH  12  20
HETATM   20  C15 UNL     1      -7.231  47.984 -25.684  1.00  0.00     0.283 C 
HETATM   21  O3  UNL     1      -7.083  47.479 -26.789  1.00  0.00    -0.260 OA
BRANCH  20  22
HETATM   22  O4  UNL     1      -8.336  48.621 -25.246  1.00  0.00    -0.316 OA
BRANCH  22  23
HETATM   23  C16 UNL     1      -9.562  47.871 -25.325  1.00  0.00     0.209 C 
BRANCH  23  24
HETATM   24  C17 UNL     1     -10.418  48.373 -26.500  1.00  0.00     0.298 C 
BRANCH  24  25
HETATM   25  N1  UNL     1     -11.555  47.495 -26.832  1.00  0.00     0.082 N 
HETATM   26  C18 UNL     1     -12.159  46.975 -25.601  1.00  0.00     0.309 C 
HETATM   27  C19 UNL     1     -12.572  48.204 -27.614  1.00  0.00     0.309 C 
ENDBRANCH  24  25
ENDBRANCH  23  24
ENDBRANCH  22  23
ENDBRANCH  20  22
ENDBRANCH  12  20
BRANCH   1  28
HETATM   28  C2  UNL     1       0.260  54.210 -26.082  1.00  0.00     0.267 C 
HETATM   29  O2  UNL     1       0.129  55.346 -25.644  1.00  0.00    -0.264 OA
BRANCH  28  30
HETATM   30  O1  UNL     1       0.369  53.913 -27.405  1.00  0.00    -0.326 OA
HETATM   31  C1  UNL     1      -0.712  54.391 -28.209  1.00  0.00     0.213 C 
ENDBRANCH  28  30
ENDBRANCH   1  28
TORSDOF 7
ENDMDL
