MODEL 1
REMARK minimizedAffinity -7.2907443
REMARK CNNscore 0.692581415
REMARK CNNaffinity 6.83211088
REMARK  9 active torsions:
REMARK  status: ('A' for Active; 'I' for Inactive)
REMARK    1  A    between atoms: C2_2  and  C3_3 
REMARK    2  A    between atoms: C2_2  and  C9_12 
REMARK    3  A    between atoms: C3_3  and  C4_4 
REMARK    4  A    between atoms: C4_4  and  C5_5 
REMARK    5  A    between atoms: C5_5  and  O1_6 
REMARK    6  A    between atoms: C5_5  and  C6_7 
REMARK    7  A    between atoms: C6_7  and  O2_9 
REMARK    8  A    between atoms: C6_7  and  C8_10 
REMARK    9  A    between atoms: C8_10  and  O3_11 
ROOT
HETATM    1  C9  UNL     1       5.147  55.978  -7.923  1.00  0.00    -0.002 C 
HETATM    2  C10 UNL     1       5.969  55.125  -8.928  1.00  0.00     0.007 C 
HETATM    3  C11 UNL     1       4.960  54.359  -9.803  1.00  0.00     0.015 C 
HETATM    4  C12 UNL     1       3.617  55.087  -9.597  1.00  0.00    -0.005 C 
HETATM    5  C13 UNL     1       3.632  56.344 -10.525  1.00  0.00     0.021 C 
HETATM    6  C14 UNL     1       2.297  54.396  -9.918  1.00  0.00    -0.000 C 
HETATM    7  C15 UNL     1       1.158  54.703  -9.241  1.00  0.00    -0.060 C 
HETATM    8  C16 UNL     1       1.186  55.731  -8.095  1.00  0.00     0.036 C 
HETATM    9  C17 UNL     1       2.552  56.342  -7.710  1.00  0.00     0.015 C 
HETATM   10  C18 UNL     1       3.707  55.392  -8.048  1.00  0.00    -0.028 C 
HETATM   11  C19 UNL     1       3.569  54.115  -7.168  1.00  0.00     0.016 C 
HETATM   12  C20 UNL     1      -0.223  54.065  -9.557  1.00  0.00    -0.014 C 
HETATM   13  C21 UNL     1      -1.044  55.127 -10.326  1.00  0.00     0.020 C 
HETATM   14  C22 UNL     1      -0.965  53.691  -8.240  1.00  0.00     0.021 C 
HETATM   15  C23 UNL     1      -2.046  52.619  -8.348  1.00  0.00     0.080 C 
HETATM   16  C24 UNL     1      -2.475  52.349  -9.766  1.00  0.00     0.135 C 
HETATM   17  O4  UNL     1      -3.671  52.322 -10.058  1.00  0.00    -0.297 OA
HETATM   18  C25 UNL     1      -1.372  52.021 -10.779  1.00  0.00     0.018 C 
HETATM   19  C26 UNL     1      -1.868  52.380 -12.196  1.00  0.00     0.023 C 
HETATM   20  C27 UNL     1      -1.170  50.494 -10.733  1.00  0.00     0.023 C 
HETATM   21  C28 UNL     1      -0.038  52.741 -10.371  1.00  0.00     0.020 C 
HETATM   22  C29 UNL     1       0.914  52.946 -11.549  1.00  0.00     0.090 C 
HETATM   23  C30 UNL     1       2.252  53.462 -11.088  1.00  0.00     0.157 C 
HETATM   24  O5  UNL     1       3.269  53.169 -11.713  1.00  0.00    -0.293 OA
ENDROOT
BRANCH   1  25
HETATM   25  C2  UNL     1       5.871  56.199  -6.560  1.00  0.00    -0.014 C 
HETATM   26  C1  UNL     1       5.141  55.705  -5.303  1.00  0.00     0.010 C 
BRANCH  25  27
HETATM   27  C3  UNL     1       6.323  57.667  -6.393  1.00  0.00     0.007 C 
BRANCH  27  28
HETATM   28  C4  UNL     1       7.095  58.009  -5.108  1.00  0.00     0.035 C 
BRANCH  28  29
HETATM   29  C5  UNL     1       7.782  59.384  -5.001  1.00  0.00     0.154 C 
BRANCH  29  30
HETATM   30  O1  UNL     1       7.061  60.220  -4.084  1.00  0.00    -0.392 OA
HETATM   31  H10 UNL     1       7.316  59.902  -3.194  1.00  0.00     0.210 HD
ENDBRANCH  29  30
BRANCH  29  32
HETATM   32  C6  UNL     1       9.292  59.416  -4.625  1.00  0.00     0.101 C 
HETATM   33  C7  UNL     1       9.574  60.260  -3.383  1.00  0.00     0.051 C 
BRANCH  32  34
HETATM   34  O2  UNL     1      10.024  59.975  -5.735  1.00  0.00    -0.385 OA
HETATM   35  H14 UNL     1      10.501  59.229  -6.156  1.00  0.00     0.210 HD
ENDBRANCH  32  34
BRANCH  32  36
HETATM   36  C8  UNL     1       9.818  57.976  -4.399  1.00  0.00     0.204 C 
BRANCH  36  37
HETATM   37  O3  UNL     1      10.871  57.680  -5.319  1.00  0.00    -0.398 OA
HETATM   38  H17 UNL     1      10.512  57.832  -6.219  1.00  0.00     0.209 HD
ENDBRANCH  36  37
ENDBRANCH  32  36
ENDBRANCH  29  32
ENDBRANCH  28  29
ENDBRANCH  27  28
ENDBRANCH  25  27
ENDBRANCH   1  25
TORSDOF 9
ENDMDL
