MODEL 1
REMARK minimizedAffinity -7.77695084
REMARK CNNscore 0.632009685
REMARK CNNaffinity 7.16984367
REMARK  11 active torsions:
REMARK  status: ('A' for Active; 'I' for Inactive)
REMARK    1  A    between atoms: C3_3  and  O1_4 
REMARK    2  A    between atoms: N1_14  and  O2_16 
REMARK    3  A    between atoms: O2_16  and  C13_17 
REMARK    4  A    between atoms: C13_17  and  C14_18 
REMARK       I    between atoms: C14_18  and  N2_20 
REMARK    5  A    between atoms: N2_20  and  C15_21 
REMARK    6  A    between atoms: C15_21  and  C16_22 
REMARK    7  A    between atoms: C15_21  and  C19_27 
REMARK    8  A    between atoms: C16_22  and  O5_24 
REMARK    9  A    between atoms: O5_24  and  C17_25 
REMARK   10  A    between atoms: C19_27  and  O6_28 
REMARK   11  A    between atoms: C19_27  and  C20_29 
ROOT
HETATM    1  C1  UNL     1      -5.039   4.056  12.296  1.00  0.00     0.015 C 
HETATM    2  C2  UNL     1      -6.158   4.040  12.733  1.00  0.00    -0.078 C 
HETATM    3  C3  UNL     1      -7.533   4.005  13.279  1.00  0.00     0.128 C 
HETATM    4  C4  UNL     1      -7.481   3.933  14.813  1.00  0.00     0.052 C 
HETATM    5  C5  UNL     1      -7.576   5.380  15.312  1.00  0.00     0.010 C 
HETATM    6  C6  UNL     1      -7.793   6.269  14.071  1.00  0.00     0.002 C 
HETATM    7  C7  UNL     1      -8.642   7.539  14.298  1.00  0.00    -0.004 C 
HETATM    8  C8  UNL     1      -8.071   8.390  15.443  1.00  0.00     0.010 C 
HETATM    9  C9  UNL     1      -8.853   9.685  15.622  1.00  0.00     0.035 C 
HETATM   10  C10 UNL     1     -10.323   9.412  15.834  1.00  0.00    -0.069 C 
HETATM   11  C11 UNL     1     -10.948   9.927  16.909  1.00  0.00     0.030 C 
HETATM   12  C12 UNL     1     -12.411   9.743  17.117  1.00  0.00     0.032 C 
HETATM   13  N1  UNL     1     -13.074  10.018  18.198  1.00  0.00    -0.271 N 
ATOM     14  H1  UNL     1     -14.080   9.883  18.299  1.00  0.00     0.194 HD
HETATM   15  C26 UNL     1     -13.200   9.217  15.939  1.00  0.00     0.060 C 
HETATM   16  C27 UNL     1     -12.421   8.099  15.265  1.00  0.00     0.020 C 
HETATM   17  C28 UNL     1     -11.009   8.537  14.776  1.00  0.00    -0.016 C 
HETATM   18  C29 UNL     1     -11.173   9.379  13.489  1.00  0.00     0.020 C 
HETATM   19  C30 UNL     1     -10.145   7.237  14.531  1.00  0.00     0.002 C 
HETATM   20  C31 UNL     1     -10.686   6.348  13.394  1.00  0.00     0.007 C 
HETATM   21  C32 UNL     1      -9.876   5.061  13.235  1.00  0.00     0.014 C 
HETATM   22  C33 UNL     1      -8.359   5.303  13.004  1.00  0.00     0.003 C 
HETATM   23  C34 UNL     1      -8.160   5.848  11.575  1.00  0.00     0.020 C 
ENDROOT
BRANCH   3  24
HETATM   24  O1  UNL     1      -8.184   2.851  12.768  1.00  0.00    -0.377 OA
HETATM   25  H2  UNL     1      -8.090   2.881  11.801  1.00  0.00     0.211 HD
ENDBRANCH   3  24
BRANCH  13  26
HETATM   26  O2  UNL     1     -12.246  10.522  19.211  1.00  0.00    -0.271 OA
BRANCH  26  27
HETATM   27  C13 UNL     1     -11.880   9.457  20.084  1.00  0.00     0.303 C 
BRANCH  27  28
HETATM   28  C14 UNL     1     -12.010   9.869  21.544  1.00  0.00     0.244 C 
HETATM   29  O3  UNL     1     -12.931  10.572  21.951  1.00  0.00    -0.271 OA
HETATM   30  N2  UNL     1     -10.980   9.446  22.357  1.00  0.00    -0.343 N 
HETATM   31  H16 UNL     1     -10.138   9.122  21.888  1.00  0.00     0.163 HD
BRANCH  30  32
HETATM   32  C15 UNL     1     -10.790  10.019  23.704  1.00  0.00     0.217 C 
BRANCH  32  33
HETATM   33  C16 UNL     1     -11.840   9.468  24.683  1.00  0.00     0.284 C 
HETATM   34  O4  UNL     1     -12.308  10.100  25.624  1.00  0.00    -0.263 OA
BRANCH  33  35
HETATM   35  O5  UNL     1     -12.225   8.196  24.353  1.00  0.00    -0.320 OA
BRANCH  35  36
HETATM   36  C17 UNL     1     -13.637   7.941  24.381  1.00  0.00     0.174 C 
HETATM   37  C18 UNL     1     -13.896   6.452  24.514  1.00  0.00     0.034 C 
ENDBRANCH  35  36
ENDBRANCH  33  35
ENDBRANCH  32  33
BRANCH  32  38
HETATM   38  C19 UNL     1     -10.866  11.559  23.615  1.00  0.00     0.183 C 
BRANCH  38  39
HETATM   39  O6  UNL     1     -11.150  12.134  24.900  1.00  0.00    -0.388 OA
HETATM   40  H24 UNL     1     -10.948  13.085  24.830  1.00  0.00     0.210 HD
ENDBRANCH  38  39
BRANCH  38  41
HETATM   41  C20 UNL     1      -9.684  12.237  22.953  1.00  0.00    -0.027 A 
HETATM   42  C21 UNL     1      -8.528  12.576  23.676  1.00  0.00     0.010 A 
HETATM   43  C22 UNL     1      -7.446  13.188  23.043  1.00  0.00     0.001 A 
HETATM   44  C23 UNL     1      -7.502  13.474  21.681  1.00  0.00     0.000 A 
HETATM   45  C24 UNL     1      -8.641  13.146  20.949  1.00  0.00     0.001 A 
HETATM   46  C25 UNL     1      -9.725  12.530  21.581  1.00  0.00     0.010 A 
ENDBRANCH  38  41
ENDBRANCH  32  38
ENDBRANCH  30  32
ENDBRANCH  27  28
ENDBRANCH  26  27
ENDBRANCH  13  26
TORSDOF 11
ENDMDL
