MODEL 1
REMARK minimizedAffinity -8.23614788
REMARK  10 active torsions:
REMARK  status: ('A' for Active; 'I' for Inactive)
REMARK    1  A    between atoms: C7_7  and  C9_9 
REMARK    2  A    between atoms: C9_9  and  C10_10 
REMARK    3  A    between atoms: C10_10  and  O1_11 
REMARK    4  A    between atoms: C10_10  and  C13_15 
REMARK    5  A    between atoms: O1_11  and  C11_12 
REMARK    6  A    between atoms: C13_15  and  C16_19 
REMARK    7  A    between atoms: C14_16  and  C15_17 
REMARK    8  A    between atoms: C15_17  and  O3_18 
REMARK    9  A    between atoms: C16_19  and  O4_20 
REMARK   10  A    between atoms: O4_20  and  C17_21 
ROOT
HETATM    1  C9  UNL     1       1.049   7.220  10.911  1.00  0.00     0.047 C 
ENDROOT
BRANCH   1   2
HETATM    2  C7  UNL     1       0.252   6.841  12.240  1.00  0.00    -0.034 C 
HETATM    3  C6  UNL     1      -0.830   5.697  11.962  1.00  0.00     0.006 C 
HETATM    4  C5  UNL     1      -0.264   4.255  11.858  1.00  0.00     0.007 C 
HETATM    5  C23 UNL     1      -2.107   5.638  12.901  1.00  0.00    -0.017 C 
HETATM    6  C4  UNL     1      -1.319   3.205  11.478  1.00  0.00     0.005 C 
HETATM    7  C3  UNL     1      -2.678   3.804  11.135  1.00  0.00     0.034 C 
HETATM    8  C2  UNL     1      -3.169   4.726  12.230  1.00  0.00    -0.081 C 
HETATM    9  C1  UNL     1      -4.467   4.696  12.585  1.00  0.00     0.015 C 
HETATM   10  C22 UNL     1      -2.670   7.057  13.106  1.00  0.00     0.014 C 
HETATM   11  C24 UNL     1      -1.827   5.012  14.293  1.00  0.00     0.020 C 
HETATM   12  C21 UNL     1      -1.625   8.022  13.640  1.00  0.00     0.006 C 
HETATM   13  C19 UNL     1      -0.480   8.196  12.643  1.00  0.00    -0.010 C 
HETATM   14  C20 UNL     1       0.445   9.307  13.175  1.00  0.00     0.011 C 
HETATM   15  C8  UNL     1       1.248   6.436  13.344  1.00  0.00     0.016 C 
ENDBRANCH   1   2
BRANCH   1  16
HETATM   16  C10 UNL     1       1.676   6.171   9.961  1.00  0.00     0.163 C 
BRANCH  16  17
HETATM   17  O1  UNL     1       1.599   6.689   8.608  1.00  0.00    -0.312 OA
BRANCH  17  18
HETATM   18  C11 UNL     1       1.570   8.044   8.485  1.00  0.00     0.255 C 
HETATM   19  C12 UNL     1       2.884   8.542   7.966  1.00  0.00     0.126 C 
HETATM   20  O2  UNL     1       0.634   8.770   8.792  1.00  0.00    -0.266 OA
ENDBRANCH  17  18
ENDBRANCH  16  17
BRANCH  16  21
HETATM   21  C13 UNL     1       3.146   5.815  10.137  1.00  0.00    -0.028 C 
HETATM   22  C14 UNL     1       4.033   6.610  10.777  1.00  0.00     0.006 C 
BRANCH  22  23
HETATM   23  C15 UNL     1       5.488   6.344  11.005  1.00  0.00     0.192 C 
BRANCH  23  24
HETATM   24  O3  UNL     1       5.708   6.242  12.405  1.00  0.00    -0.397 OA
HETATM   25  H22 UNL     1       5.433   7.084  12.804  1.00  0.00     0.209 HD
ENDBRANCH  23  24
ENDBRANCH  22  23
BRANCH  21  26
HETATM   26  C16 UNL     1       3.552   4.512   9.479  1.00  0.00     0.215 C 
BRANCH  26  27
HETATM   27  O4  UNL     1       3.508   4.648   8.051  1.00  0.00    -0.317 OA
BRANCH  27  28
HETATM   28  C17 UNL     1       4.179   3.705   7.340  1.00  0.00     0.255 C 
HETATM   29  C18 UNL     1       3.586   3.585   5.968  1.00  0.00     0.126 C 
HETATM   30  O5  UNL     1       5.137   3.052   7.730  1.00  0.00    -0.266 OA
ENDBRANCH  27  28
ENDBRANCH  26  27
ENDBRANCH  21  26
ENDBRANCH  16  21
ENDBRANCH   1  16
TORSDOF 10
ENDMDL
