MODEL 1
REMARK minimizedAffinity -7.69311571
REMARK CNNscore 0.545761824
REMARK CNNaffinity 6.43242311
REMARK  6 active torsions:
REMARK  status: ('A' for Active; 'I' for Inactive)
REMARK    1  A    between atoms: C9_10  and  C10_11 
REMARK    2  A    between atoms: C11_13  and  O3_14 
REMARK    3  A    between atoms: C12_15  and  C13_16 
REMARK    4  A    between atoms: C14_18  and  O5_19 
REMARK    5  A    between atoms: C16_21  and  C17_22 
REMARK    6  A    between atoms: C17_22  and  C18_23 
ROOT
HETATM    1  C1  UNL     1      -2.119  43.948 -15.826  1.00  0.00     0.043 C 
HETATM    2  C2  UNL     1      -2.717  45.193 -16.451  1.00  0.00    -0.087 C 
HETATM    3  C3  UNL     1      -2.445  46.383 -15.878  1.00  0.00    -0.024 C 
HETATM    4  C4  UNL     1      -2.905  47.760 -16.246  1.00  0.00     0.030 C 
HETATM    5  C5  UNL     1      -1.788  48.564 -16.920  1.00  0.00     0.042 C 
HETATM    6  C6  UNL     1      -2.246  49.764 -17.800  1.00  0.00     0.069 C 
HETATM    7  C7  UNL     1      -3.479  50.455 -17.179  1.00  0.00     0.047 C 
HETATM    8  O1  UNL     1      -1.172  50.717 -17.639  1.00  0.00    -0.338 OA
HETATM    9  C8  UNL     1      -0.722  51.486 -18.672  1.00  0.00     0.095 A 
HETATM   10  C9  UNL     1       0.417  52.269 -18.389  1.00  0.00     0.070 A 
HETATM   11  C11 UNL     1       1.030  53.007 -19.401  1.00  0.00     0.097 A 
HETATM   12  C12 UNL     1       0.537  52.934 -20.703  1.00  0.00     0.069 A 
HETATM   13  C14 UNL     1      -0.621  52.174 -20.977  1.00  0.00     0.091 A 
HETATM   14  C15 UNL     1      -1.298  51.465 -19.962  1.00  0.00     0.015 A 
HETATM   15  C16 UNL     1      -2.608  50.677 -20.125  1.00  0.00     0.032 C 
HETATM   16  C21 UNL     1      -2.407  49.352 -19.314  1.00  0.00     0.034 C 
HETATM   17  C22 UNL     1      -3.477  48.289 -19.541  1.00  0.00     0.006 A 
HETATM   18  C23 UNL     1      -3.192  46.810 -19.281  1.00  0.00    -0.001 A 
HETATM   19  C24 UNL     1      -4.193  45.933 -18.571  1.00  0.00     0.010 C 
HETATM   20  C25 UNL     1      -3.551  44.860 -17.680  1.00  0.00     0.034 C 
HETATM   21  C26 UNL     1      -3.431  47.283 -20.704  1.00  0.00    -0.039 A 
HETATM   22  C27 UNL     1      -2.243  47.163 -21.631  1.00  0.00     0.015 C 
HETATM   23  C28 UNL     1      -4.743  46.981 -21.397  1.00  0.00     0.015 C 
ENDROOT
BRANCH  15  24
HETATM   24  C17 UNL     1      -3.197  50.487 -21.545  1.00  0.00     0.014 C 
BRANCH  24  25
HETATM   25  C18 UNL     1      -4.517  51.262 -21.804  1.00  0.00    -0.022 C 
HETATM   26  C19 UNL     1      -5.699  50.313 -22.035  1.00  0.00     0.009 C 
HETATM   27  C20 UNL     1      -4.353  52.168 -23.028  1.00  0.00     0.009 C 
ENDBRANCH  24  25
ENDBRANCH  15  24
BRANCH  13  28
HETATM   28  O5  UNL     1      -1.078  52.091 -22.265  1.00  0.00    -0.359 OA
HETATM   29  H15 UNL     1      -0.525  52.647 -22.860  1.00  0.00     0.217 HD
ENDBRANCH  13  28
BRANCH  10  30
HETATM   30  C10 UNL     1       1.005  52.338 -17.026  1.00  0.00     0.275 C 
HETATM   31  O2  UNL     1       1.174  51.365 -16.302  1.00  0.00    -0.301 OA
ENDBRANCH  10  30
BRANCH  12  32
HETATM   32  C13 UNL     1       1.261  53.632 -21.788  1.00  0.00     0.275 C 
HETATM   33  O4  UNL     1       1.622  54.798 -21.658  1.00  0.00    -0.301 OA
ENDBRANCH  12  32
BRANCH  11  34
HETATM   34  O3  UNL     1       2.115  53.788 -19.100  1.00  0.00    -0.359 OA
HETATM   35  H13 UNL     1       1.869  54.722 -19.245  1.00  0.00     0.217 HD
ENDBRANCH  11  34
TORSDOF 6
ENDMDL
