MODEL 1
REMARK minimizedAffinity -10.3013182
REMARK  8 active torsions:
REMARK  status: ('A' for Active; 'I' for Inactive)
REMARK    1  A    between atoms: C4_4  and  C5_5 
REMARK    2  A    between atoms: C5_5  and  C6_6 
REMARK    3  A    between atoms: C6_6  and  C7_7 
REMARK    4  A    between atoms: C7_7  and  C9_9 
REMARK    5  A    between atoms: C22_22  and  O1_23 
REMARK    6  A    between atoms: C24_25  and  O2_26 
REMARK    7  A    between atoms: C25_27  and  C27_29 
REMARK    8  A    between atoms: C27_29  and  O4_31 
ROOT
HETATM    1  C9  UNL     1      -1.553  48.962 -18.564  1.00  0.00    -0.002 C 
HETATM    2  C10 UNL     1      -2.927  48.271 -18.736  1.00  0.00     0.007 C 
HETATM    3  C11 UNL     1      -3.319  48.431 -20.224  1.00  0.00     0.015 C 
HETATM    4  C12 UNL     1      -2.033  48.905 -20.941  1.00  0.00    -0.005 C 
HETATM    5  C13 UNL     1      -1.197  47.625 -21.257  1.00  0.00     0.021 C 
HETATM    6  C14 UNL     1      -2.093  49.655 -22.266  1.00  0.00    -0.000 C 
HETATM    7  C15 UNL     1      -1.121  50.540 -22.620  1.00  0.00    -0.058 C 
HETATM    8  C16 UNL     1       0.028  50.859 -21.646  1.00  0.00     0.036 C 
HETATM    9  C17 UNL     1      -0.011  50.222 -20.240  1.00  0.00     0.015 C 
HETATM   10  C18 UNL     1      -1.438  49.854 -19.833  1.00  0.00    -0.028 C 
HETATM   11  C19 UNL     1      -2.245  51.175 -19.655  1.00  0.00     0.016 C 
HETATM   12  C20 UNL     1      -1.121  51.323 -23.977  1.00  0.00     0.011 C 
HETATM   13  C21 UNL     1      -1.716  52.719 -23.668  1.00  0.00     0.023 C 
HETATM   14  C22 UNL     1       0.327  51.486 -24.574  1.00  0.00     0.133 C 
HETATM   15  C23 UNL     1       0.346  52.007 -26.009  1.00  0.00     0.065 C 
HETATM   16  C24 UNL     1      -0.502  51.158 -26.941  1.00  0.00     0.139 C 
HETATM   17  C25 UNL     1      -1.983  51.045 -26.493  1.00  0.00     0.072 C 
HETATM   18  C26 UNL     1      -2.691  50.060 -27.453  1.00  0.00     0.030 C 
HETATM   19  C28 UNL     1      -1.979  50.501 -25.016  1.00  0.00     0.029 C 
HETATM   20  C29 UNL     1      -3.365  50.182 -24.446  1.00  0.00     0.090 C 
HETATM   21  C30 UNL     1      -3.228  49.356 -23.194  1.00  0.00     0.157 C 
HETATM   22  O5  UNL     1      -4.045  48.473 -22.943  1.00  0.00    -0.293 OA
ENDROOT
BRANCH   1  23
HETATM   23  C7  UNL     1      -1.256  49.588 -17.169  1.00  0.00    -0.014 C 
HETATM   24  C8  UNL     1      -2.247  50.748 -16.950  1.00  0.00     0.010 C 
BRANCH  23  25
HETATM   25  C6  UNL     1       0.192  50.094 -16.955  1.00  0.00     0.008 C 
BRANCH  25  26
HETATM   26  C5  UNL     1       0.316  51.620 -16.800  1.00  0.00     0.028 C 
BRANCH  26  27
HETATM   27  C4  UNL     1       1.727  52.134 -16.853  1.00  0.00    -0.025 C 
HETATM   28  C2  UNL     1       2.665  52.098 -15.887  1.00  0.00    -0.091 C 
HETATM   29  C1  UNL     1       4.041  52.659 -16.140  1.00  0.00     0.042 C 
HETATM   30  C3  UNL     1       2.472  51.544 -14.502  1.00  0.00     0.042 C 
ENDBRANCH  26  27
ENDBRANCH  25  26
ENDBRANCH  23  25
ENDBRANCH   1  23
BRANCH  14  31
HETATM   31  O1  UNL     1       1.109  52.403 -23.805  1.00  0.00    -0.394 OA
HETATM   32  H35 UNL     1       2.018  52.385 -24.155  1.00  0.00     0.210 HD
ENDBRANCH  14  31
BRANCH  17  33
HETATM   33  C27 UNL     1      -2.771  52.348 -26.624  1.00  0.00     0.151 C 
HETATM   34  O3  UNL     1      -3.673  52.720 -25.892  1.00  0.00    -0.649 OA
BRANCH  33  35
HETATM   35  O4  UNL     1      -2.447  53.104 -27.692  1.00  0.00    -0.776 OA
HETATM   36  H43 UNL     1      -3.073  53.861 -27.631  1.00  0.00     0.167 HD
ENDBRANCH  33  35
ENDBRANCH  17  33
BRANCH  16  37
HETATM   37  O2  UNL     1      -0.355  51.634 -28.278  1.00  0.00    -0.394 OA
HETATM   38  H39 UNL     1      -0.782  52.514 -28.315  1.00  0.00     0.210 HD
ENDBRANCH  16  37
TORSDOF 8
ENDMDL
