MODEL 1
REMARK minimizedAffinity -7.94969511
REMARK CNNscore 0.622496665
REMARK CNNaffinity 6.84995794
REMARK  15 active torsions:
REMARK  status: ('A' for Active; 'I' for Inactive)
REMARK    1  A    between atoms: C2_2  and  C3_3 
REMARK    2  A    between atoms: C2_2  and  C37_47 
REMARK    3  A    between atoms: C3_3  and  C4_4 
REMARK    4  A    between atoms: C4_4  and  C5_5 
REMARK    5  A    between atoms: C5_5  and  C6_6 
REMARK    6  A    between atoms: C5_5  and  C13_20 
REMARK    7  A    between atoms: C6_6  and  O2_8 
REMARK    8  A    between atoms: O2_8  and  C7_9 
REMARK    9  A    between atoms: C8_11  and  C9_12 
REMARK   10  A    between atoms: C9_12  and  O4_13 
REMARK   11  A    between atoms: C10_14  and  O5_15 
REMARK   12  A    between atoms: C11_16  and  O6_17 
REMARK   13  A    between atoms: C12_18  and  O7_19 
REMARK   14  A    between atoms: C14_21  and  O8_22 
REMARK   15  A    between atoms: O8_22  and  C15_23 
ROOT
HETATM    1  C13 UNL     1       3.655  11.450  19.976  1.00  0.00     0.038 C 
HETATM    2  C14 UNL     1       2.691  10.767  20.990  1.00  0.00     0.138 C 
HETATM    3  C17 UNL     1       1.245  11.037  20.496  1.00  0.00     0.047 C 
HETATM    4  C18 UNL     1       1.405  11.675  19.099  1.00  0.00    -0.010 C 
HETATM    5  C19 UNL     1       1.522  10.508  18.069  1.00  0.00     0.021 C 
HETATM    6  C20 UNL     1       0.291  12.564  18.549  1.00  0.00    -0.068 C 
HETATM    7  C21 UNL     1       0.581  13.575  17.690  1.00  0.00    -0.068 C 
HETATM    8  C22 UNL     1       2.031  13.901  17.309  1.00  0.00     0.036 C 
HETATM    9  C23 UNL     1       3.152  13.065  17.958  1.00  0.00     0.015 C 
HETATM   10  C24 UNL     1       2.719  12.512  19.316  1.00  0.00    -0.026 C 
HETATM   11  C25 UNL     1       2.521  13.718  20.294  1.00  0.00     0.016 C 
HETATM   12  C26 UNL     1      -0.524  14.483  17.085  1.00  0.00    -0.015 C 
HETATM   13  C27 UNL     1      -0.553  15.767  17.944  1.00  0.00     0.020 C 
HETATM   14  C28 UNL     1      -0.221  14.828  15.609  1.00  0.00     0.021 C 
HETATM   15  C29 UNL     1      -1.263  15.694  14.921  1.00  0.00     0.080 C 
HETATM   16  C30 UNL     1      -2.627  15.702  15.562  1.00  0.00     0.135 C 
HETATM   17  O10 UNL     1      -3.386  16.648  15.326  1.00  0.00    -0.297 OA
HETATM   18  C31 UNL     1      -3.083  14.501  16.403  1.00  0.00     0.018 C 
HETATM   19  C32 UNL     1      -3.811  13.554  15.423  1.00  0.00     0.023 C 
HETATM   20  C33 UNL     1      -4.128  15.017  17.424  1.00  0.00     0.023 C 
HETATM   21  C34 UNL     1      -1.892  13.723  17.072  1.00  0.00     0.013 C 
HETATM   22  C35 UNL     1      -2.205  13.154  18.466  1.00  0.00     0.011 C 
HETATM   23  C36 UNL     1      -1.115  12.205  18.959  1.00  0.00     0.036 C 
ENDROOT
BRANCH   1  24
HETATM   24  C5  UNL     1       5.015  11.967  20.528  1.00  0.00     0.093 C 
BRANCH  24  25
HETATM   25  C4  UNL     1       5.396  11.502  21.952  1.00  0.00     0.019 C 
BRANCH  25  26
HETATM   26  C3  UNL     1       5.516  12.664  22.951  1.00  0.00     0.034 C 
BRANCH  26  27
HETATM   27  C2  UNL     1       6.930  13.209  23.018  1.00  0.00    -0.086 C 
HETATM   28  C1  UNL     1       7.966  12.373  23.213  1.00  0.00     0.014 C 
BRANCH  27  29
HETATM   29  C37 UNL     1       7.078  14.722  22.878  1.00  0.00     0.005 C 
HETATM   30  C38 UNL     1       8.264  15.315  23.649  1.00  0.00     0.014 C 
HETATM   31  C39 UNL     1       5.784  15.431  23.285  1.00  0.00     0.014 C 
ENDBRANCH  27  29
ENDBRANCH  26  27
ENDBRANCH  25  26
ENDBRANCH  24  25
BRANCH  24  32
HETATM   32  C6  UNL     1       6.131  11.537  19.576  1.00  0.00     0.266 C 
HETATM   33  O1  UNL     1       7.317  11.765  19.771  1.00  0.00    -0.265 OA
BRANCH  32  34
HETATM   34  O2  UNL     1       5.631  10.880  18.495  1.00  0.00    -0.287 OA
BRANCH  34  35
HETATM   35  C7  UNL     1       6.202  11.262  17.237  1.00  0.00     0.301 C 
HETATM   36  O3  UNL     1       7.560  10.768  17.167  1.00  0.00    -0.348 OA
HETATM   37  C8  UNL     1       7.628   9.461  16.602  1.00  0.00     0.179 C 
HETATM   38  C10 UNL     1       7.311   9.526  15.089  1.00  0.00     0.180 C 
HETATM   39  C11 UNL     1       6.246  10.605  14.800  1.00  0.00     0.183 C 
HETATM   40  C12 UNL     1       5.337  10.801  16.025  1.00  0.00     0.205 C 
BRANCH  37  41
HETATM   41  C9  UNL     1       9.026   8.874  16.825  1.00  0.00     0.198 C 
BRANCH  41  42
HETATM   42  O4  UNL     1       8.943   7.459  16.991  1.00  0.00    -0.398 OA
HETATM   43  H12 UNL     1       9.855   7.133  17.082  1.00  0.00     0.209 HD
ENDBRANCH  41  42
ENDBRANCH  37  41
BRANCH  38  44
HETATM   44  O5  UNL     1       6.860   8.249  14.627  1.00  0.00    -0.390 OA
HETATM   45  H14 UNL     1       7.518   7.597  14.954  1.00  0.00     0.210 HD
ENDBRANCH  38  44
BRANCH  39  46
HETATM   46  O6  UNL     1       6.860  11.850  14.436  1.00  0.00    -0.390 OA
HETATM   47  H16 UNL     1       7.593  12.021  15.056  1.00  0.00     0.210 HD
ENDBRANCH  39  46
BRANCH  40  48
HETATM   48  O7  UNL     1       4.636   9.580  16.332  1.00  0.00    -0.388 OA
HETATM   49  H18 UNL     1       4.391   9.153  15.491  1.00  0.00     0.210 HD
ENDBRANCH  40  48
ENDBRANCH  34  35
ENDBRANCH  32  34
ENDBRANCH  24  32
ENDBRANCH   1  24
BRANCH   2  50
HETATM   50  O8  UNL     1       2.964   9.358  21.020  1.00  0.00    -0.316 OA
BRANCH  50  51
HETATM   51  C15 UNL     1       2.522   8.696  22.125  1.00  0.00     0.255 C 
HETATM   52  C16 UNL     1       3.050   9.352  23.363  1.00  0.00     0.126 C 
HETATM   53  O9  UNL     1       1.803   7.706  22.125  1.00  0.00    -0.266 OA
ENDBRANCH  50  51
ENDBRANCH   2  50
TORSDOF 15
ENDMDL
