MODEL 1
REMARK minimizedAffinity -9.77872562
REMARK  6 active torsions:
REMARK  status: ('A' for Active; 'I' for Inactive)
REMARK    1  A    between atoms: C2_2  and  C30_32 
REMARK    2  A    between atoms: C3_3  and  C4_4 
REMARK    3  A    between atoms: C4_4  and  C5_5 
REMARK    4  A    between atoms: C5_5  and  C6_6 
REMARK    5  A    between atoms: C6_6  and  C8_8 
REMARK    6  A    between atoms: C30_32  and  O3_33 
ROOT
HETATM    1  C8  UNL     1      -4.078  50.109 -24.666  1.00  0.00    -0.002 C 
HETATM    2  C9  UNL     1      -5.542  49.822 -24.232  1.00  0.00     0.007 C 
HETATM    3  C10 UNL     1      -5.554  49.787 -22.692  1.00  0.00     0.015 C 
HETATM    4  C11 UNL     1      -4.206  50.398 -22.260  1.00  0.00    -0.005 C 
HETATM    5  C12 UNL     1      -4.377  51.949 -22.286  1.00  0.00     0.021 C 
HETATM    6  C13 UNL     1      -3.634  50.102 -20.881  1.00  0.00    -0.000 C 
HETATM    7  C14 UNL     1      -2.293  50.088 -20.661  1.00  0.00    -0.060 C 
HETATM    8  C15 UNL     1      -1.310  50.306 -21.825  1.00  0.00     0.036 C 
HETATM    9  C16 UNL     1      -1.898  50.483 -23.242  1.00  0.00     0.015 C 
HETATM   10  C17 UNL     1      -3.261  49.795 -23.378  1.00  0.00    -0.028 C 
HETATM   11  C18 UNL     1      -3.046  48.260 -23.237  1.00  0.00     0.016 C 
HETATM   12  C19 UNL     1      -1.660  49.823 -19.265  1.00  0.00    -0.014 C 
HETATM   13  C20 UNL     1      -1.144  48.367 -19.273  1.00  0.00     0.020 C 
HETATM   14  C21 UNL     1      -0.481  50.800 -19.012  1.00  0.00     0.021 C 
HETATM   15  C22 UNL     1       0.012  50.910 -17.573  1.00  0.00     0.080 C 
HETATM   16  C23 UNL     1      -0.666  49.983 -16.594  1.00  0.00     0.135 C 
HETATM   17  O1  UNL     1      -0.005  49.455 -15.698  1.00  0.00    -0.297 OA
HETATM   18  C24 UNL     1      -2.190  49.832 -16.676  1.00  0.00     0.018 C 
HETATM   19  C25 UNL     1      -2.787  50.888 -15.724  1.00  0.00     0.023 C 
HETATM   20  C26 UNL     1      -2.575  48.441 -16.127  1.00  0.00     0.023 C 
HETATM   21  C27 UNL     1      -2.704  50.093 -18.134  1.00  0.00     0.020 C 
HETATM   22  C28 UNL     1      -4.031  49.397 -18.437  1.00  0.00     0.090 C 
HETATM   23  C29 UNL     1      -4.588  49.869 -19.753  1.00  0.00     0.157 C 
HETATM   24  O2  UNL     1      -5.798  50.027 -19.891  1.00  0.00    -0.293 OA
ENDROOT
BRANCH   1  25
HETATM   25  C6  UNL     1      -3.715  49.543 -26.073  1.00  0.00    -0.014 C 
HETATM   26  C7  UNL     1      -4.486  48.298 -26.527  1.00  0.00     0.010 C 
BRANCH  25  27
HETATM   27  C5  UNL     1      -2.187  49.350 -26.225  1.00  0.00     0.008 C 
BRANCH  27  28
HETATM   28  C4  UNL     1      -1.442  50.532 -26.871  1.00  0.00     0.028 C 
BRANCH  28  29
HETATM   29  C3  UNL     1      -0.019  50.689 -26.410  1.00  0.00    -0.022 C 
HETATM   30  C2  UNL     1       0.969  51.420 -26.971  1.00  0.00    -0.064 C 
HETATM   31  C1  UNL     1       0.819  52.233 -28.231  1.00  0.00     0.045 C 
BRANCH  30  32
HETATM   32  C30 UNL     1       2.374  51.482 -26.408  1.00  0.00     0.197 C 
BRANCH  32  33
HETATM   33  O3  UNL     1       3.368  51.496 -27.424  1.00  0.00    -0.397 OA
HETATM   34  H46 UNL     1       3.271  50.657 -27.907  1.00  0.00     0.209 HD
ENDBRANCH  32  33
ENDBRANCH  30  32
ENDBRANCH  28  29
ENDBRANCH  27  28
ENDBRANCH  25  27
ENDBRANCH   1  25
TORSDOF 6
ENDMDL
