MODEL 1
REMARK minimizedAffinity -8.0248642
REMARK CNNscore 0.627921104
REMARK CNNaffinity 7.31647539
REMARK  7 active torsions:
REMARK  status: ('A' for Active; 'I' for Inactive)
REMARK    1  A    between atoms: C4_4  and  C5_5 
REMARK    2  A    between atoms: C5_5  and  C6_6 
REMARK    3  A    between atoms: C6_6  and  C7_7 
REMARK    4  A    between atoms: C7_7  and  C9_9 
REMARK    5  A    between atoms: C16_16  and  O1_17 
REMARK    6  A    between atoms: C18_19  and  O2_20 
REMARK    7  A    between atoms: C19_21  and  O3_22 
ROOT
HETATM    1  C9  UNL     1      -6.862   7.999  15.066  1.00  0.00    -0.002 C 
HETATM    2  C10 UNL     1      -5.723   8.819  15.740  1.00  0.00     0.006 C 
HETATM    3  C11 UNL     1      -4.391   8.197  15.295  1.00  0.00     0.011 C 
HETATM    4  C12 UNL     1      -4.741   7.365  14.048  1.00  0.00    -0.032 C 
HETATM    5  C13 UNL     1      -4.817   8.359  12.848  1.00  0.00     0.016 C 
HETATM    6  C14 UNL     1      -3.734   6.225  13.738  1.00  0.00     0.006 C 
HETATM    7  C15 UNL     1      -2.380   6.712  13.203  1.00  0.00     0.038 C 
HETATM    8  C16 UNL     1      -1.426   5.538  12.996  1.00  0.00     0.126 C 
HETATM    9  C17 UNL     1      -1.934   4.641  11.855  1.00  0.00     0.055 C 
HETATM   10  C18 UNL     1      -1.113   3.338  11.728  1.00  0.00     0.154 C 
HETATM   11  C19 UNL     1      -1.678   2.400  10.628  1.00  0.00     0.147 C 
HETATM   12  C20 UNL     1      -2.785   3.051   9.796  1.00  0.00     0.035 C 
HETATM   13  C21 UNL     1      -3.917   3.636  10.650  1.00  0.00     0.013 C 
HETATM   14  C22 UNL     1      -3.411   4.286  11.937  1.00  0.00    -0.023 A 
HETATM   15  C23 UNL     1      -3.967   3.708  13.215  1.00  0.00     0.021 A 
HETATM   16  C24 UNL     1      -4.351   5.127  12.835  1.00  0.00    -0.027 A 
HETATM   17  C25 UNL     1      -5.778   5.352  12.322  1.00  0.00     0.011 C 
HETATM   18  C26 UNL     1      -6.759   6.117  13.230  1.00  0.00     0.011 C 
HETATM   19  C27 UNL     1      -6.127   6.748  14.477  1.00  0.00    -0.032 C 
HETATM   20  C28 UNL     1      -6.016   5.639  15.557  1.00  0.00     0.016 C 
ENDROOT
BRANCH   1  21
HETATM   21  C7  UNL     1      -8.150   7.905  15.944  1.00  0.00    -0.014 C 
HETATM   22  C8  UNL     1      -8.979   6.617  15.820  1.00  0.00     0.010 C 
BRANCH  21  23
HETATM   23  C6  UNL     1      -9.100   9.117  15.816  1.00  0.00     0.008 C 
BRANCH  23  24
HETATM   24  C5  UNL     1     -10.292   9.080  16.780  1.00  0.00     0.028 C 
BRANCH  24  25
HETATM   25  C4  UNL     1     -10.861  10.460  16.975  1.00  0.00    -0.025 C 
HETATM   26  C2  UNL     1     -11.298  11.033  18.113  1.00  0.00    -0.091 C 
HETATM   27  C1  UNL     1     -11.829  12.444  18.101  1.00  0.00     0.042 C 
HETATM   28  C3  UNL     1     -11.316  10.385  19.471  1.00  0.00     0.042 C 
ENDBRANCH  24  25
ENDBRANCH  23  24
ENDBRANCH  21  23
ENDBRANCH   1  21
BRANCH   8  29
HETATM   29  O1  UNL     1      -0.141   6.077  12.673  1.00  0.00    -0.395 OA
HETATM   30  H28 UNL     1       0.359   5.359  12.227  1.00  0.00     0.210 HD
ENDBRANCH   8  29
BRANCH  10  31
HETATM   31  O2  UNL     1       0.252   3.679  11.436  1.00  0.00    -0.393 OA
HETATM   32  H31 UNL     1       0.753   2.846  11.360  1.00  0.00     0.210 HD
ENDBRANCH  10  31
BRANCH  11  33
HETATM   33  O3  UNL     1      -2.210   1.212  11.221  1.00  0.00    -0.393 OA
HETATM   34  H33 UNL     1      -1.484   0.747  11.671  1.00  0.00     0.210 HD
ENDBRANCH  11  33
TORSDOF 7
ENDMDL
