MODEL 1
REMARK minimizedAffinity -7.50324106
REMARK CNNscore 0.860731542
REMARK CNNaffinity 7.45504236
REMARK  5 active torsions:
REMARK  status: ('A' for Active; 'I' for Inactive)
REMARK    1  A    between atoms: C4_4  and  C5_5 
REMARK    2  A    between atoms: C5_5  and  C6_6 
REMARK    3  A    between atoms: C6_6  and  C7_7 
REMARK    4  A    between atoms: C7_7  and  C9_9 
REMARK    5  A    between atoms: C30_31  and  O2_32 
ROOT
HETATM    1  C9  UNL     1      -1.881  52.129 -10.076  1.00  0.00    -0.002 C 
HETATM    2  C10 UNL     1      -1.202  50.739 -10.152  1.00  0.00     0.007 C 
HETATM    3  C11 UNL     1       0.285  50.948  -9.783  1.00  0.00     0.015 C 
HETATM    4  C12 UNL     1       0.363  52.368  -9.184  1.00  0.00    -0.010 C 
HETATM    5  C13 UNL     1      -0.042  52.252  -7.679  1.00  0.00     0.021 C 
HETATM    6  C14 UNL     1       1.689  53.129  -9.198  1.00  0.00    -0.039 C 
HETATM    7  C15 UNL     1       1.672  54.491  -9.176  1.00  0.00    -0.066 C 
HETATM    8  C16 UNL     1       0.353  55.279  -9.230  1.00  0.00     0.036 C 
HETATM    9  C17 UNL     1      -0.953  54.490  -9.470  1.00  0.00     0.015 C 
HETATM   10  C18 UNL     1      -0.678  53.118 -10.095  1.00  0.00    -0.029 C 
HETATM   11  C19 UNL     1      -0.176  53.343 -11.553  1.00  0.00     0.016 C 
HETATM   12  C20 UNL     1       2.984  55.324  -9.152  1.00  0.00    -0.015 C 
HETATM   13  C21 UNL     1       3.223  55.766 -10.615  1.00  0.00     0.020 C 
HETATM   14  C22 UNL     1       2.848  56.574  -8.248  1.00  0.00     0.021 C 
HETATM   15  C23 UNL     1       4.140  57.364  -8.115  1.00  0.00     0.080 C 
HETATM   16  C24 UNL     1       5.265  56.508  -7.590  1.00  0.00     0.135 C 
HETATM   17  O1  UNL     1       6.022  56.959  -6.727  1.00  0.00    -0.297 OA
HETATM   18  C25 UNL     1       5.508  55.145  -8.257  1.00  0.00     0.018 C 
HETATM   19  C26 UNL     1       6.404  55.369  -9.485  1.00  0.00     0.023 C 
HETATM   20  C27 UNL     1       6.317  54.276  -7.257  1.00  0.00     0.023 C 
HETATM   21  C28 UNL     1       4.136  54.442  -8.543  1.00  0.00     0.016 C 
HETATM   22  C29 UNL     1       4.253  53.127  -9.337  1.00  0.00     0.043 C 
HETATM   23  C30 UNL     1       2.962  52.310  -9.218  1.00  0.00     0.148 C 
ENDROOT
BRANCH   1  24
HETATM   24  C7  UNL     1      -3.076  52.388 -11.044  1.00  0.00    -0.014 C 
HETATM   25  C8  UNL     1      -3.979  53.480 -10.443  1.00  0.00     0.010 C 
BRANCH  24  26
HETATM   26  C6  UNL     1      -3.928  51.146 -11.401  1.00  0.00     0.008 C 
BRANCH  26  27
HETATM   27  C5  UNL     1      -4.512  50.408 -10.184  1.00  0.00     0.028 C 
BRANCH  27  28
HETATM   28  C4  UNL     1      -6.012  50.287 -10.222  1.00  0.00    -0.025 C 
HETATM   29  C2  UNL     1      -6.732  49.284 -10.759  1.00  0.00    -0.091 C 
HETATM   30  C1  UNL     1      -8.237  49.330 -10.762  1.00  0.00     0.042 C 
HETATM   31  C3  UNL     1      -6.148  48.046 -11.381  1.00  0.00     0.042 C 
ENDBRANCH  27  28
ENDBRANCH  26  27
ENDBRANCH  24  26
ENDBRANCH   1  24
BRANCH  23  32
HETATM   32  O2  UNL     1       3.017  51.561  -8.006  1.00  0.00    -0.391 OA
HETATM   33  H48 UNL     1       3.759  50.940  -8.083  1.00  0.00     0.210 HD
ENDBRANCH  23  32
TORSDOF 5
ENDMDL
