MODEL 1
REMARK minimizedAffinity -8.35613823
REMARK  9 active torsions:
REMARK  status: ('A' for Active; 'I' for Inactive)
REMARK    1  A    between atoms: C2_2  and  C3_3 
REMARK    2  A    between atoms: C3_3  and  C5_5 
REMARK    3  A    between atoms: C5_5  and  C6_6 
REMARK    4  A    between atoms: C6_6  and  O2_8 
REMARK    5  A    between atoms: O2_8  and  C7_9 
REMARK    6  A    between atoms: C7_9  and  C8_10 
REMARK    7  A    between atoms: C20_22  and  O3_23 
REMARK    8  A    between atoms: C20_22  and  C21_24 
REMARK    9  A    between atoms: C21_24  and  O4_25 
ROOT
HETATM    1  C8  UNL     1      -2.059   7.885  13.226  1.00  0.00    -0.018 C 
HETATM    2  C9  UNL     1      -2.464   8.919  12.135  1.00  0.00     0.018 C 
HETATM    3  C10 UNL     1      -1.833   8.676  14.539  1.00  0.00     0.012 C 
HETATM    4  C11 UNL     1      -3.095   9.166  15.243  1.00  0.00     0.002 C 
HETATM    5  C12 UNL     1      -4.355   8.348  14.971  1.00  0.00     0.010 C 
HETATM    6  C13 UNL     1      -4.106   6.862  14.633  1.00  0.00    -0.032 C 
HETATM    7  C14 UNL     1      -3.346   6.202  15.826  1.00  0.00     0.016 C 
HETATM    8  C15 UNL     1      -3.222   6.805  13.337  1.00  0.00     0.005 C 
HETATM    9  C16 UNL     1      -2.818   5.336  13.037  1.00  0.00     0.007 C 
HETATM   10  C17 UNL     1      -3.965   4.328  13.225  1.00  0.00     0.006 C 
HETATM   11  C18 UNL     1      -5.320   5.028  13.187  1.00  0.00    -0.002 C 
HETATM   12  C19 UNL     1      -6.499   4.051  13.077  1.00  0.00     0.045 C 
HETATM   13  C20 UNL     1      -7.836   4.819  13.017  1.00  0.00     0.083 C 
HETATM   14  C22 UNL     1      -7.875   5.953  14.079  1.00  0.00     0.023 C 
HETATM   15  C23 UNL     1      -7.609   5.420  15.493  1.00  0.00     0.008 C 
HETATM   16  C24 UNL     1      -6.083   5.437  15.651  1.00  0.00     0.011 C 
HETATM   17  C25 UNL     1      -5.490   6.081  14.357  1.00  0.00    -0.029 C 
HETATM   18  C26 UNL     1      -6.705   6.944  13.925  1.00  0.00     0.018 C 
ENDROOT
BRANCH   1  19
HETATM   19  C7  UNL     1      -0.701   7.267  12.784  1.00  0.00     0.188 C 
BRANCH  19  20
HETATM   20  O2  UNL     1      -0.528   7.400  11.363  1.00  0.00    -0.321 OA
BRANCH  20  21
HETATM   21  C6  UNL     1       0.581   8.090  10.987  1.00  0.00     0.259 C 
HETATM   22  O1  UNL     1       1.335   8.680  11.749  1.00  0.00    -0.265 OA
BRANCH  21  23
HETATM   23  C5  UNL     1       0.742   8.080   9.486  1.00  0.00     0.115 C 
BRANCH  23  24
HETATM   24  C3  UNL     1       2.150   7.682   9.013  1.00  0.00    -0.010 C 
HETATM   25  C4  UNL     1       2.382   6.191   9.276  1.00  0.00     0.010 C 
BRANCH  24  26
HETATM   26  C2  UNL     1       2.439   8.047   7.541  1.00  0.00     0.000 C 
HETATM   27  C1  UNL     1       1.805   7.133   6.503  1.00  0.00     0.005 C 
ENDBRANCH  24  26
ENDBRANCH  23  24
ENDBRANCH  21  23
ENDBRANCH  20  21
ENDBRANCH  19  20
ENDBRANCH   1  19
BRANCH  13  28
HETATM   28  O3  UNL     1      -8.922   3.906  13.268  1.00  0.00    -0.387 OA
HETATM   29  H34 UNL     1      -8.699   3.363  14.042  1.00  0.00     0.210 HD
ENDBRANCH  13  28
BRANCH  13  30
HETATM   30  C21 UNL     1      -8.100   5.357  11.588  1.00  0.00     0.202 C 
BRANCH  30  31
HETATM   31  O4  UNL     1      -9.291   6.145  11.574  1.00  0.00    -0.398 OA
HETATM   32  H37 UNL     1      -9.935   5.618  12.091  1.00  0.00     0.209 HD
ENDBRANCH  30  31
ENDBRANCH  13  30
TORSDOF 9
ENDMDL
