MODEL 1
REMARK minimizedAffinity -10.5210285
REMARK  6 active torsions:
REMARK  status: ('A' for Active; 'I' for Inactive)
REMARK    1  A    between atoms: C3_3  and  O1_4 
REMARK    2  A    between atoms: N1_14  and  O2_16 
REMARK    3  A    between atoms: O2_16  and  C13_17 
REMARK    4  A    between atoms: C13_17  and  C14_18 
REMARK       I    between atoms: C14_18  and  N2_20 
REMARK    5  A    between atoms: N2_20  and  C15_21 
REMARK    6  A    between atoms: C15_21  and  C17_23 
ROOT
HETATM    1  C1  UNL     1      -8.730   5.725  12.020  1.00  0.00     0.015 C 
HETATM    2  C2  UNL     1      -8.206   5.885  13.089  1.00  0.00    -0.078 C 
HETATM    3  C3  UNL     1      -7.579   6.083  14.414  1.00  0.00     0.128 C 
HETATM    4  C4  UNL     1      -7.702   7.575  14.831  1.00  0.00     0.052 C 
HETATM    5  C5  UNL     1      -6.347   8.239  14.503  1.00  0.00     0.010 C 
HETATM    6  C6  UNL     1      -5.548   7.161  13.773  1.00  0.00     0.002 C 
HETATM    7  C7  UNL     1      -4.019   7.282  13.734  1.00  0.00    -0.004 C 
HETATM    8  C8  UNL     1      -3.582   8.605  13.092  1.00  0.00     0.010 C 
HETATM    9  C9  UNL     1      -2.065   8.714  13.030  1.00  0.00     0.035 C 
HETATM   10  C10 UNL     1      -1.435   7.534  12.326  1.00  0.00    -0.069 C 
HETATM   11  C11 UNL     1      -0.535   7.748  11.351  1.00  0.00     0.030 C 
HETATM   12  C12 UNL     1       0.221   6.637  10.719  1.00  0.00     0.032 C 
HETATM   13  N1  UNL     1       1.056   6.935   9.765  1.00  0.00    -0.271 N 
ATOM     14  H1  UNL     1       1.187   7.875   9.391  1.00  0.00     0.194 HD
HETATM   15  C23 UNL     1       0.019   5.244  11.278  1.00  0.00     0.060 C 
HETATM   16  C24 UNL     1      -1.409   5.067  11.772  1.00  0.00     0.020 C 
HETATM   17  C25 UNL     1      -1.859   6.141  12.806  1.00  0.00    -0.016 C 
HETATM   18  C26 UNL     1      -1.159   5.860  14.155  1.00  0.00     0.020 C 
HETATM   19  C27 UNL     1      -3.430   6.081  12.931  1.00  0.00     0.002 C 
HETATM   20  C28 UNL     1      -3.968   4.717  13.446  1.00  0.00     0.007 C 
HETATM   21  C29 UNL     1      -5.501   4.674  13.579  1.00  0.00     0.014 C 
HETATM   22  C30 UNL     1      -6.035   5.847  14.421  1.00  0.00     0.003 C 
HETATM   23  C31 UNL     1      -5.543   5.660  15.887  1.00  0.00     0.020 C 
ENDROOT
BRANCH   3  24
HETATM   24  O1  UNL     1      -8.259   5.233  15.325  1.00  0.00    -0.377 OA
HETATM   25  H2  UNL     1      -8.126   5.573  16.224  1.00  0.00     0.211 HD
ENDBRANCH   3  24
BRANCH  13  26
HETATM   26  O2  UNL     1       1.752   5.806   9.316  1.00  0.00    -0.271 OA
BRANCH  26  27
HETATM   27  C13 UNL     1       3.011   6.216   8.789  1.00  0.00     0.303 C 
BRANCH  27  28
HETATM   28  C14 UNL     1       3.865   6.849   9.883  1.00  0.00     0.244 C 
HETATM   29  O3  UNL     1       3.731   8.021  10.225  1.00  0.00    -0.271 OA
HETATM   30  N2  UNL     1       4.758   5.987  10.479  1.00  0.00    -0.351 N 
HETATM   31  H16 UNL     1       4.895   5.086  10.031  1.00  0.00     0.163 HD
BRANCH  30  32
HETATM   32  C15 UNL     1       5.706   6.408  11.494  1.00  0.00     0.113 C 
HETATM   33  C16 UNL     1       7.103   5.837  11.233  1.00  0.00     0.037 C 
BRANCH  32  34
HETATM   34  C17 UNL     1       5.714   7.926  11.577  1.00  0.00    -0.036 A 
HETATM   35  C18 UNL     1       4.911   8.578  12.527  1.00  0.00     0.009 A 
HETATM   36  C19 UNL     1       4.885   9.971  12.602  1.00  0.00     0.001 A 
HETATM   37  C20 UNL     1       5.654  10.732  11.726  1.00  0.00     0.000 A 
HETATM   38  C21 UNL     1       6.449  10.102  10.771  1.00  0.00     0.001 A 
HETATM   39  C22 UNL     1       6.476   8.708  10.694  1.00  0.00     0.009 A 
ENDBRANCH  32  34
ENDBRANCH  30  32
ENDBRANCH  27  28
ENDBRANCH  26  27
ENDBRANCH  13  26
TORSDOF 6
ENDMDL
