MODEL 1
REMARK minimizedAffinity -7.86994743
REMARK CNNscore 0.462591588
REMARK CNNaffinity 5.87043333
REMARK  9 active torsions:
REMARK  status: ('A' for Active; 'I' for Inactive)
REMARK    1  A    between atoms: C6_6  and  C8_8 
REMARK    2  A    between atoms: C8_8  and  O2_10 
REMARK    3  A    between atoms: O2_10  and  C9_11 
REMARK    4  A    between atoms: C9_11  and  C10_12 
REMARK    5  A    between atoms: C10_12  and  O3_13 
REMARK    6  A    between atoms: C27_33  and  O7_34 
REMARK    7  A    between atoms: C38_45  and  O8_46 
REMARK    8  A    between atoms: C38_45  and  C39_47 
REMARK    9  A    between atoms: C39_47  and  O9_48 
ROOT
HETATM    1  O2  UNL     1     -17.005   1.398  15.190  1.00  0.00    -0.317 OA
ENDROOT
BRANCH   1   2
HETATM    2  C8  UNL     1     -18.034   2.237  14.903  1.00  0.00     0.267 C 
HETATM    3  O1  UNL     1     -18.928   1.968  14.109  1.00  0.00    -0.264 OA
BRANCH   2   4
HETATM    4  C6  UNL     1     -17.907   3.580  15.635  1.00  0.00     0.049 C 
HETATM    5  C5  UNL     1     -19.261   4.304  15.880  1.00  0.00     0.020 C 
HETATM    6  C4  UNL     1     -19.852   4.980  14.646  1.00  0.00     0.002 C 
HETATM    7  C3  UNL     1     -18.853   5.898  13.934  1.00  0.00     0.010 C 
HETATM    8  C2  UNL     1     -17.518   5.197  13.572  1.00  0.00    -0.035 C 
HETATM    9  C1  UNL     1     -17.829   4.129  12.485  1.00  0.00     0.016 C 
HETATM   10  C29 UNL     1     -16.956   4.585  14.904  1.00  0.00     0.012 C 
HETATM   11  C37 UNL     1     -16.440   6.163  12.904  1.00  0.00     0.010 C 
HETATM   12  C30 UNL     1     -15.496   4.159  14.728  1.00  0.00     0.008 C 
HETATM   13  C31 UNL     1     -14.590   5.382  14.545  1.00  0.00     0.018 C 
HETATM   14  C32 UNL     1     -15.240   6.560  13.807  1.00  0.00     0.028 C 
HETATM   15  C33 UNL     1     -14.177   7.276  12.937  1.00  0.00     0.026 C 
HETATM   16  C40 UNL     1     -15.619   7.743  14.714  1.00  0.00     0.172 C 
HETATM   17  C34 UNL     1     -14.835   8.629  12.654  1.00  0.00     0.031 C 
HETATM   18  C35 UNL     1     -15.997   8.392  11.673  1.00  0.00     0.009 C 
HETATM   19  C38 UNL     1     -15.238   9.079  14.074  1.00  0.00     0.143 C 
HETATM   20  C36 UNL     1     -17.044   7.390  12.178  1.00  0.00     0.007 C 
HETATM   21  O10 UNL     1     -16.128   7.657  15.826  1.00  0.00    -0.294 OA
HETATM   22  C7  UNL     1     -17.351   3.206  17.031  1.00  0.00     0.026 C 
BRANCH  19  23
HETATM   23  O8  UNL     1     -14.062   9.578  14.736  1.00  0.00    -0.379 OA
HETATM   24  H53 UNL     1     -14.273   9.617  15.690  1.00  0.00     0.211 HD
ENDBRANCH  19  23
BRANCH  19  25
HETATM   25  C39 UNL     1     -16.322  10.148  14.183  1.00  0.00     0.210 C 
BRANCH  25  26
HETATM   26  O9  UNL     1     -15.854  11.379  13.629  1.00  0.00    -0.397 OA
HETATM   27  H56 UNL     1     -14.953  11.512  13.983  1.00  0.00     0.209 HD
ENDBRANCH  25  26
ENDBRANCH  19  25
ENDBRANCH   2   4
ENDBRANCH   1   2
BRANCH   1  28
HETATM   28  C9  UNL     1     -17.200   0.005  14.889  1.00  0.00     0.227 C 
BRANCH  28  29
HETATM   29  C10 UNL     1     -16.046  -0.486  14.018  1.00  0.00     0.171 C 
HETATM   30  C11 UNL     1     -15.333  -1.714  14.587  1.00  0.00     0.175 C 
HETATM   31  O4  UNL     1     -15.006  -1.811  15.764  1.00  0.00    -0.294 OA
HETATM   32  C12 UNL     1     -15.067  -2.781  13.503  1.00  0.00     0.037 C 
HETATM   33  C13 UNL     1     -13.655  -3.385  13.603  1.00  0.00     0.019 C 
HETATM   34  C23 UNL     1     -16.222  -3.844  13.517  1.00  0.00     0.003 C 
HETATM   35  C28 UNL     1     -15.152  -1.845  12.278  1.00  0.00     0.059 C 
HETATM   36  C14 UNL     1     -13.579  -4.755  14.287  1.00  0.00     0.010 C 
HETATM   37  C15 UNL     1     -14.648  -4.914  15.362  1.00  0.00     0.040 C 
HETATM   38  C16 UNL     1     -14.749  -6.292  16.030  1.00  0.00     0.051 C 
HETATM   39  C21 UNL     1     -16.081  -4.780  14.810  1.00  0.00     0.084 C 
HETATM   40  C17 UNL     1     -13.422  -7.001  16.275  1.00  0.00     0.026 C 
HETATM   41  C18 UNL     1     -15.600  -6.220  17.316  1.00  0.00     0.020 C 
HETATM   42  C22 UNL     1     -15.595  -7.033  15.025  1.00  0.00     0.268 C 
HETATM   43  C19 UNL     1     -16.557  -5.024  17.359  1.00  0.00     0.004 C 
HETATM   44  C20 UNL     1     -17.028  -4.471  16.000  1.00  0.00     0.040 C 
HETATM   45  O5  UNL     1     -16.411  -6.135  14.403  1.00  0.00    -0.308 OA
HETATM   46  O6  UNL     1     -15.607  -8.233  14.813  1.00  0.00    -0.264 OA
HETATM   47  C24 UNL     1     -16.146  -4.716  12.216  1.00  0.00     0.019 C 
HETATM   48  C25 UNL     1     -17.611  -3.130  13.427  1.00  0.00     0.016 C 
HETATM   49  C26 UNL     1     -17.634  -1.912  12.489  1.00  0.00     0.042 C 
HETATM   50  C27 UNL     1     -16.393  -1.008  12.599  1.00  0.00     0.099 C 
BRANCH  29  51
HETATM   51  O3  UNL     1     -15.068   0.568  13.876  1.00  0.00    -0.377 OA
HETATM   52  H15 UNL     1     -14.757   0.792  14.774  1.00  0.00     0.211 HD
ENDBRANCH  29  51
BRANCH  50  53
HETATM   53  O7  UNL     1     -16.502   0.053  11.656  1.00  0.00    -0.386 OA
HETATM   54  H37 UNL     1     -15.891   0.754  11.965  1.00  0.00     0.210 HD
ENDBRANCH  50  53
ENDBRANCH  28  29
ENDBRANCH   1  28
TORSDOF 9
ENDMDL
