MODEL 1
REMARK minimizedAffinity -9.31679535
REMARK  9 active torsions:
REMARK  status: ('A' for Active; 'I' for Inactive)
REMARK    1  A    between atoms: C11_11  and  C13_13 
REMARK    2  A    between atoms: C13_13  and  O2_15 
REMARK    3  A    between atoms: C15_17  and  C16_18 
REMARK    4  A    between atoms: C16_18  and  C17_19 
REMARK    5  A    between atoms: C17_19  and  C18_20 
REMARK    6  A    between atoms: C19_21  and  C20_22 
REMARK    7  A    between atoms: C20_22  and  O3_23 
REMARK    8  A    between atoms: O3_23  and  C21_24 
REMARK    9  A    between atoms: C21_24  and  C22_26 
ROOT
HETATM    1  C16 UNL     1      -2.648  49.787 -22.873  1.00  0.00     0.014 C 
ENDROOT
BRANCH   1   2
HETATM    2  C15 UNL     1      -2.284  50.063 -24.357  1.00  0.00     0.022 C 
HETATM    3  C2  UNL     1      -3.029  49.208 -25.381  1.00  0.00    -0.084 C 
HETATM    4  C1  UNL     1      -4.106  48.436 -25.154  1.00  0.00     0.014 C 
HETATM    5  C3  UNL     1      -2.470  49.344 -26.772  1.00  0.00     0.034 C 
HETATM    6  C4  UNL     1      -2.612  50.787 -27.232  1.00  0.00     0.011 C 
HETATM    7  C5  UNL     1      -1.957  51.823 -26.283  1.00  0.00     0.012 C 
HETATM    8  C6  UNL     1      -2.386  51.589 -24.772  1.00  0.00    -0.032 C 
HETATM    9  C11 UNL     1      -0.405  52.097 -26.508  1.00  0.00     0.049 C 
HETATM   10  C7  UNL     1      -3.849  52.084 -24.588  1.00  0.00     0.016 C 
HETATM   11  C8  UNL     1      -1.500  52.501 -23.891  1.00  0.00     0.010 C 
HETATM   12  C9  UNL     1      -0.026  52.126 -23.929  1.00  0.00     0.002 C 
HETATM   13  C10 UNL     1       0.463  51.666 -25.302  1.00  0.00     0.020 C 
HETATM   14  C12 UNL     1       0.205  51.400 -27.749  1.00  0.00     0.026 C 
BRANCH   9  15
HETATM   15  C13 UNL     1      -0.252  53.604 -26.834  1.00  0.00     0.267 C 
HETATM   16  O1  UNL     1      -0.889  54.173 -27.716  1.00  0.00    -0.264 OA
BRANCH  15  17
HETATM   17  O2  UNL     1       0.646  54.230 -26.026  1.00  0.00    -0.326 OA
HETATM   18  C14 UNL     1       0.281  55.557 -25.646  1.00  0.00     0.213 C 
ENDBRANCH  15  17
ENDBRANCH   9  15
ENDBRANCH   1   2
BRANCH   1  19
HETATM   19  C17 UNL     1      -1.580  48.945 -22.154  1.00  0.00     0.042 C 
BRANCH  19  20
HETATM   20  C18 UNL     1      -2.178  48.000 -21.161  1.00  0.00    -0.024 A 
HETATM   21  C19 UNL     1      -2.000  47.984 -19.785  1.00  0.00     0.083 A 
HETATM   22  O5  UNL     1      -2.721  46.965 -19.232  1.00  0.00    -0.324 OA
HETATM   23  C28 UNL     1      -3.365  46.333 -20.243  1.00  0.00     0.143 A 
HETATM   24  C29 UNL     1      -3.068  46.924 -21.445  1.00  0.00     0.034 A 
BRANCH  21  25
HETATM   25  C20 UNL     1      -1.201  48.802 -18.834  1.00  0.00     0.244 C 
BRANCH  25  26
HETATM   26  O3  UNL     1      -1.484  50.179 -19.119  1.00  0.00    -0.311 OA
BRANCH  26  27
HETATM   27  C21 UNL     1      -1.628  50.999 -18.053  1.00  0.00     0.293 C 
HETATM   28  O4  UNL     1      -2.678  51.316 -17.516  1.00  0.00    -0.259 OA
BRANCH  27  29
HETATM   29  C22 UNL     1      -0.294  51.467 -17.582  1.00  0.00     0.039 A 
HETATM   30  C23 UNL     1       0.196  50.964 -16.367  1.00  0.00     0.019 A 
HETATM   31  C24 UNL     1       1.450  51.362 -15.893  1.00  0.00     0.025 A 
HETATM   32  C25 UNL     1       2.217  52.266 -16.628  1.00  0.00     0.034 A 
HETATM   33 CL1  UNL     1       3.755  52.761 -16.041  1.00  0.00    -0.084 Cl
HETATM   34  C26 UNL     1       1.740  52.777 -17.834  1.00  0.00     0.025 A 
HETATM   35  C27 UNL     1       0.488  52.378 -18.312  1.00  0.00     0.019 A 
ENDBRANCH  27  29
ENDBRANCH  26  27
ENDBRANCH  25  26
ENDBRANCH  21  25
ENDBRANCH  19  20
ENDBRANCH   1  19
TORSDOF 9
ENDMDL
