MODEL 1
REMARK minimizedAffinity -8.03022766
REMARK CNNscore 0.64551878
REMARK CNNaffinity 7.07137823
REMARK  9 active torsions:
REMARK  status: ('A' for Active; 'I' for Inactive)
REMARK    1  A    between atoms: C3_3  and  O1_4 
REMARK    2  A    between atoms: N1_14  and  O2_16 
REMARK    3  A    between atoms: O2_16  and  C13_17 
REMARK    4  A    between atoms: C13_17  and  C14_18 
REMARK       I    between atoms: C14_18  and  N2_20 
REMARK    5  A    between atoms: N2_20  and  C15_21 
REMARK    6  A    between atoms: C15_21  and  C16_22 
REMARK    7  A    between atoms: C15_21  and  C18_26 
REMARK    8  A    between atoms: C16_22  and  C17_23 
REMARK    9  A    between atoms: C17_23  and  O5_25 
ROOT
HETATM    1  C1  UNL     1     -12.468   3.070  30.414  1.00  0.00     0.015 C 
HETATM    2  C2  UNL     1     -12.815   2.653  29.342  1.00  0.00    -0.078 C 
HETATM    3  C3  UNL     1     -13.253   2.112  28.047  1.00  0.00     0.128 C 
HETATM    4  C4  UNL     1     -12.080   1.721  27.151  1.00  0.00     0.052 C 
HETATM    5  C5  UNL     1     -12.736   1.503  25.793  1.00  0.00     0.010 C 
HETATM    6  C6  UNL     1     -13.885   2.534  25.707  1.00  0.00     0.002 C 
HETATM    7  C7  UNL     1     -13.599   3.599  24.604  1.00  0.00    -0.004 C 
HETATM    8  C8  UNL     1     -13.798   2.970  23.201  1.00  0.00     0.010 C 
HETATM    9  C9  UNL     1     -14.877   3.658  22.365  1.00  0.00     0.035 C 
HETATM   10  C10 UNL     1     -14.556   5.122  22.286  1.00  0.00    -0.069 C 
HETATM   11  C11 UNL     1     -14.250   5.694  21.107  1.00  0.00     0.030 C 
HETATM   12  C12 UNL     1     -13.773   7.102  21.063  1.00  0.00     0.032 C 
HETATM   13  N1  UNL     1     -13.804   7.879  20.024  1.00  0.00    -0.271 N 
ATOM     14  H1  UNL     1     -13.454   8.836  20.016  1.00  0.00     0.194 HD
HETATM   15  C25 UNL     1     -13.207   7.700  22.340  1.00  0.00     0.060 C 
HETATM   16  C26 UNL     1     -13.193   6.739  23.529  1.00  0.00     0.020 C 
HETATM   17  C27 UNL     1     -14.473   5.873  23.618  1.00  0.00    -0.016 C 
HETATM   18  C28 UNL     1     -15.721   6.779  23.777  1.00  0.00     0.020 C 
HETATM   19  C29 UNL     1     -14.467   4.858  24.824  1.00  0.00     0.002 C 
HETATM   20  C30 UNL     1     -14.184   5.502  26.202  1.00  0.00     0.007 C 
HETATM   21  C31 UNL     1     -13.534   4.553  27.214  1.00  0.00     0.014 C 
HETATM   22  C32 UNL     1     -14.074   3.104  27.156  1.00  0.00     0.003 C 
HETATM   23  C33 UNL     1     -15.566   3.106  27.562  1.00  0.00     0.020 C 
ENDROOT
BRANCH   3  24
HETATM   24  O1  UNL     1     -14.011   0.924  28.295  1.00  0.00    -0.377 OA
HETATM   25  H2  UNL     1     -13.504   0.393  28.934  1.00  0.00     0.211 HD
ENDBRANCH   3  24
BRANCH  13  26
HETATM   26  O2  UNL     1     -14.378   7.244  18.910  1.00  0.00    -0.271 OA
BRANCH  26  27
HETATM   27  C13 UNL     1     -15.149   8.203  18.193  1.00  0.00     0.303 C 
BRANCH  27  28
HETATM   28  C14 UNL     1     -15.503   7.661  16.818  1.00  0.00     0.244 C 
HETATM   29  O3  UNL     1     -16.576   7.894  16.269  1.00  0.00    -0.271 OA
HETATM   30  N2  UNL     1     -14.486   6.938  16.224  1.00  0.00    -0.354 N 
HETATM   31  H16 UNL     1     -13.602   6.867  16.729  1.00  0.00     0.162 HD
BRANCH  30  32
HETATM   32  C15 UNL     1     -14.528   6.514  14.827  1.00  0.00     0.098 C 
BRANCH  32  33
HETATM   33  C16 UNL     1     -14.688   4.995  14.712  1.00  0.00     0.135 C 
BRANCH  33  34
HETATM   34  C17 UNL     1     -16.110   4.524  14.644  1.00  0.00     0.141 C 
HETATM   35  O4  UNL     1     -16.940   4.855  13.814  1.00  0.00    -0.650 OA
BRANCH  34  36
HETATM   36  O5  UNL     1     -16.426   3.658  15.629  1.00  0.00    -0.776 OA
HETATM   37  H20 UNL     1     -17.381   3.474  15.488  1.00  0.00     0.167 HD
ENDBRANCH  34  36
ENDBRANCH  33  34
ENDBRANCH  32  33
BRANCH  32  38
HETATM   38  C18 UNL     1     -13.381   7.162  13.999  1.00  0.00     0.014 C 
HETATM   39  C19 UNL     1     -13.836   8.219  12.974  1.00  0.00     0.033 C 
HETATM   40  C20 UNL     1     -12.724   9.202  12.626  1.00  0.00     0.169 C 
HETATM   41  O6  UNL     1     -11.456   8.555  12.656  1.00  0.00    -0.381 OA
HETATM   42  C21 UNL     1     -11.038   8.141  13.966  1.00  0.00     0.054 C 
HETATM   43  C22 UNL     1     -10.098   6.948  13.751  1.00  0.00     0.045 C 
HETATM   44  C23 UNL     1     -10.252   9.286  14.620  1.00  0.00     0.045 C 
HETATM   45  C24 UNL     1     -12.236   7.726  14.854  1.00  0.00     0.044 C 
ENDBRANCH  32  38
ENDBRANCH  30  32
ENDBRANCH  27  28
ENDBRANCH  26  27
ENDBRANCH  13  26
TORSDOF 9
ENDMDL
