MODEL 1
REMARK minimizedAffinity -7.50172806
REMARK CNNscore 0.67949158
REMARK CNNaffinity 7.08104563
REMARK  9 active torsions:
REMARK  status: ('A' for Active; 'I' for Inactive)
REMARK    1  A    between atoms: O1_2  and  C2_3 
REMARK    2  A    between atoms: C2_3  and  C3_4 
REMARK    3  A    between atoms: C3_4  and  C4_5 
REMARK    4  A    between atoms: C4_5  and  O2_6 
REMARK    5  A    between atoms: O2_6  and  C5_7 
REMARK    6  A    between atoms: C15_18  and  O4_19 
REMARK    7  A    between atoms: C21_25  and  O5_27 
REMARK    8  A    between atoms: C23_28  and  O6_29 
REMARK    9  A    between atoms: C29_37  and  O8_38 
ROOT
HETATM    1  C5  UNL     1       0.996  57.374  -3.614  1.00  0.00     0.122 C 
HETATM    2  C6  UNL     1      -0.407  56.986  -4.116  1.00  0.00     0.033 C 
HETATM    3  C7  UNL     1      -0.381  55.937  -5.227  1.00  0.00     0.014 C 
HETATM    4  C8  UNL     1       0.440  56.396  -6.489  1.00  0.00    -0.010 C 
HETATM    5  C9  UNL     1      -0.514  57.322  -7.297  1.00  0.00     0.018 C 
HETATM    6  C10 UNL     1       1.602  57.355  -6.054  1.00  0.00     0.073 C 
HETATM    7  C11 UNL     1       2.103  57.072  -4.636  1.00  0.00     0.045 C 
HETATM    8  C12 UNL     1       2.742  57.530  -7.049  1.00  0.00     0.161 C 
HETATM    9  O3  UNL     1       3.548  58.455  -6.913  1.00  0.00    -0.292 OA
HETATM   10  C13 UNL     1       2.916  56.586  -8.189  1.00  0.00    -0.005 C 
HETATM   11  C14 UNL     1       2.122  55.501  -8.291  1.00  0.00    -0.013 C 
HETATM   12  C15 UNL     1       2.539  54.431  -9.263  1.00  0.00     0.095 C 
HETATM   13  C16 UNL     1       3.413  54.864 -10.436  1.00  0.00     0.026 C 
HETATM   14  C17 UNL     1       4.616  55.643  -9.933  1.00  0.00     0.013 C 
HETATM   15  C18 UNL     1       4.129  56.840  -9.083  1.00  0.00     0.043 C 
HETATM   16  C19 UNL     1       3.636  53.535 -11.199  1.00  0.00     0.016 C 
HETATM   17  C20 UNL     1       2.506  52.548 -10.692  1.00  0.00     0.034 C 
HETATM   18  C21 UNL     1       2.162  51.346 -11.633  1.00  0.00     0.087 C 
HETATM   19  C22 UNL     1       2.068  51.774 -13.119  1.00  0.00     0.049 C 
HETATM   20  C23 UNL     1       3.255  50.182 -11.548  1.00  0.00     0.181 C 
HETATM   21  C24 UNL     1       3.404  49.197 -10.330  1.00  0.00     0.158 C 
HETATM   22  O7  UNL     1       4.753  48.583 -10.486  1.00  0.00    -0.373 OA
HETATM   23  C25 UNL     1       5.686  49.328  -9.626  1.00  0.00     0.185 C 
HETATM   24  C26 UNL     1       4.836  50.413  -8.966  1.00  0.00     0.028 C 
HETATM   25  C27 UNL     1       5.484  50.968  -7.715  1.00  0.00     0.053 C 
HETATM   26  C28 UNL     1       5.778  49.910  -6.656  1.00  0.00     0.309 C 
HETATM   27  N1  UNL     1       5.807  48.530  -7.199  1.00  0.00     0.128 N 
HETATM   28  C29 UNL     1       6.386  48.437  -8.538  1.00  0.00     0.384 C 
HETATM   29  C30 UNL     1       4.764  50.087  -5.492  1.00  0.00     0.233 C 
HETATM   30  O9  UNL     1       3.914  49.263  -5.168  1.00  0.00    -0.277 OA
HETATM   31  N2  UNL     1       4.983  51.310  -4.831  1.00  0.00    -0.243 NA
HETATM   32  C31 UNL     1       4.618  51.457  -3.457  1.00  0.00     0.120 A 
HETATM   33  C32 UNL     1       3.975  52.295  -4.520  1.00  0.00     0.090 A 
HETATM   34  C33 UNL     1       2.502  52.152  -4.754  1.00  0.00     0.115 C 
HETATM   35  C34 UNL     1       2.085  53.301  -5.589  1.00  0.00    -0.104 C 
HETATM   36  C35 UNL     1       1.642  54.161  -6.314  1.00  0.00    -0.090 C 
HETATM   37  C36 UNL     1       0.999  55.116  -7.314  1.00  0.00     0.062 C 
HETATM   38  C37 UNL     1      -0.093  54.242  -8.112  1.00  0.00     0.012 C 
HETATM   39  C38 UNL     1      -0.915  55.019  -9.167  1.00  0.00     0.007 C 
HETATM   40  C39 UNL     1      -0.899  54.404 -10.552  1.00  0.00     0.001 C 
HETATM   41  C40 UNL     1       0.547  54.233 -11.010  1.00  0.00     0.013 C 
HETATM   42  C41 UNL     1       1.470  53.517  -9.972  1.00  0.00     0.002 C 
HETATM   43  C42 UNL     1       0.573  53.006  -8.827  1.00  0.00     0.020 C 
HETATM   44  C43 UNL     1       3.513  49.655  -8.890  1.00  0.00     0.020 C 
HETATM   45  C44 UNL     1       2.298  50.230  -8.228  1.00  0.00     0.013 C 
HETATM   46  H42 UNL     1       6.309  47.927  -6.552  1.00  0.00     0.320 HD
ENDROOT
BRANCH   1  47
HETATM   47  O2  UNL     1       1.006  58.788  -3.379  1.00  0.00    -0.386 OA
BRANCH  47  48
HETATM   48  C4  UNL     1       0.002  59.248  -2.483  1.00  0.00     0.170 C 
BRANCH  48  49
HETATM   49  C3  UNL     1       0.048  60.760  -2.263  1.00  0.00     0.052 C 
BRANCH  49  50
HETATM   50  C2  UNL     1       1.371  61.225  -1.660  1.00  0.00     0.169 C 
BRANCH  50  51
HETATM   51  O1  UNL     1       1.640  62.559  -2.089  1.00  0.00    -0.396 OA
HETATM   52  C1  UNL     1       2.944  62.682  -2.643  1.00  0.00     0.201 C 
ENDBRANCH  50  51
ENDBRANCH  49  50
ENDBRANCH  48  49
ENDBRANCH  47  48
ENDBRANCH   1  47
BRANCH  12  53
HETATM   53  O4  UNL     1       3.398  53.580  -8.446  1.00  0.00    -0.384 OA
HETATM   54  H21 UNL     1       3.868  54.125  -7.796  1.00  0.00     0.211 HD
ENDBRANCH  12  53
BRANCH  18  55
HETATM   55  O5  UNL     1       0.888  50.809 -11.272  1.00  0.00    -0.387 OA
HETATM   56  H33 UNL     1       0.769  50.015 -11.828  1.00  0.00     0.210 HD
ENDBRANCH  18  55
BRANCH  20  57
HETATM   57  O6  UNL     1       3.023  49.288 -12.675  1.00  0.00    -0.390 OA
HETATM   58  H35 UNL     1       3.727  48.609 -12.614  1.00  0.00     0.210 HD
ENDBRANCH  20  57
BRANCH  28  59
HETATM   59  O8  UNL     1       7.750  48.811  -8.438  1.00  0.00    -0.366 OA
HETATM   60  H44 UNL     1       8.270  48.002  -8.581  1.00  0.00     0.212 HD
ENDBRANCH  28  59
TORSDOF 9
ENDMDL
