MODEL 1
REMARK minimizedAffinity -7.38128233
REMARK CNNscore 0.399040163
REMARK CNNaffinity 6.0419693
REMARK  20 active torsions:
REMARK  status: ('A' for Active; 'I' for Inactive)
REMARK    1  A    between atoms: C2_2  and  C3_3 
REMARK    2  A    between atoms: C2_2  and  C28_35 
REMARK    3  A    between atoms: C4_4  and  C5_5 
REMARK    4  A    between atoms: C6_6  and  C7_7 
REMARK    5  A    between atoms: C6_6  and  C9_11 
REMARK    6  A    between atoms: C7_7  and  O1_8 
REMARK    7  A    between atoms: O1_8  and  C8_9 
REMARK    8  A    between atoms: C8_9  and  O2_10 
REMARK    9  A    between atoms: C13_15  and  O3_16 
REMARK   10  A    between atoms: C14_17  and  C15_18 
REMARK   11  A    between atoms: C15_18  and  C16_19 
REMARK   12  A    between atoms: C16_19  and  C17_20 
REMARK   13  A    between atoms: C17_20  and  O4_21 
REMARK   14  A    between atoms: C19_23  and  C21_25 
REMARK   15  A    between atoms: C24_29  and  O6_30 
REMARK   16  A    between atoms: C24_29  and  C25_31 
REMARK   17  A    between atoms: C25_31  and  C26_32 
REMARK   18  A    between atoms: C26_32  and  N1_33 
REMARK   19  A    between atoms: C28_35  and  C29_36 
REMARK   20  A    between atoms: C29_36  and  C30_37 
ROOT
HETATM    1  C9  UNL     1      -7.767  47.146 -27.955  1.00  0.00     0.046 C 
HETATM    2  C10 UNL     1      -7.083  45.857 -28.452  1.00  0.00     0.013 C 
HETATM    3  C11 UNL     1      -7.453  45.697 -29.933  1.00  0.00     0.017 C 
HETATM    4  C12 UNL     1      -8.175  47.018 -30.387  1.00  0.00     0.025 C 
HETATM    5  C13 UNL     1      -7.701  47.990 -29.256  1.00  0.00     0.138 C 
HETATM    6  C14 UNL     1      -9.762  46.712 -30.303  1.00  0.00     0.029 C 
HETATM    7  C18 UNL     1     -10.129  45.620 -31.335  1.00  0.00    -0.066 C 
HETATM    8  C19 UNL     1     -10.730  44.443 -31.030  1.00  0.00    -0.021 C 
HETATM    9  C20 UNL     1     -11.025  43.360 -32.027  1.00  0.00     0.052 C 
HETATM   10  C22 UNL     1      -9.726  45.983 -32.751  1.00  0.00     0.038 C 
HETATM   11  C23 UNL     1      -8.245  46.352 -32.859  1.00  0.00     0.043 C 
HETATM   12  C24 UNL     1      -7.806  47.457 -31.865  1.00  0.00     0.070 C 
ENDROOT
BRANCH   5  13
HETATM   13  O3  UNL     1      -6.350  48.406 -29.465  1.00  0.00    -0.394 OA
HETATM   14  H17 UNL     1      -6.028  48.823 -28.646  1.00  0.00     0.210 HD
ENDBRANCH   5  13
BRANCH   6  15
HETATM   15  C15 UNL     1     -10.821  47.847 -30.468  1.00  0.00     0.012 C 
BRANCH  15  16
HETATM   16  C16 UNL     1     -12.035  47.841 -29.532  1.00  0.00     0.027 C 
BRANCH  16  17
HETATM   17  C17 UNL     1     -11.689  47.787 -28.044  1.00  0.00     0.164 C 
BRANCH  17  18
HETATM   18  O4  UNL     1     -12.323  48.836 -27.322  1.00  0.00    -0.401 OA
HETATM   19  H25 UNL     1     -11.788  49.638 -27.469  1.00  0.00     0.209 HD
ENDBRANCH  17  18
ENDBRANCH  16  17
ENDBRANCH  15  16
ENDBRANCH   6  15
BRANCH  12  20
HETATM   20  O6  UNL     1      -8.617  48.628 -32.159  1.00  0.00    -0.389 OA
HETATM   21  H34 UNL     1      -8.454  48.868 -33.088  1.00  0.00     0.210 HD
ENDBRANCH  12  20
BRANCH  12  22
HETATM   22  C25 UNL     1      -6.366  47.951 -32.217  1.00  0.00     0.068 C 
BRANCH  22  23
HETATM   23  C26 UNL     1      -5.226  46.976 -32.523  1.00  0.00     0.272 C 
BRANCH  23  24
HETATM   24  N1  UNL     1      -4.737  47.104 -33.899  1.00  0.00     0.079 N 
HETATM   25  C27 UNL     1      -3.459  47.804 -33.928  1.00  0.00     0.306 C 
HETATM   26  H39 UNL     1      -5.414  47.641 -34.439  1.00  0.00     0.315 HD
ENDBRANCH  23  24
ENDBRANCH  22  23
ENDBRANCH  12  22
BRANCH   1  27
HETATM   27  C6  UNL     1      -7.235  47.676 -26.614  1.00  0.00    -0.050 C 
HETATM   28  C5  UNL     1      -5.966  47.992 -26.268  1.00  0.00     0.005 C 
BRANCH  28  29
HETATM   29  C4  UNL     1      -4.769  47.976 -27.076  1.00  0.00     0.001 C 
HETATM   30  C3  UNL     1      -3.551  48.482 -26.817  1.00  0.00     0.006 C 
BRANCH  30  31
HETATM   31  C2  UNL     1      -3.007  49.212 -25.670  1.00  0.00    -0.067 C 
HETATM   32  C1  UNL     1      -2.021  50.100 -25.902  1.00  0.00     0.019 C 
BRANCH  31  33
HETATM   33  C28 UNL     1      -3.627  49.009 -24.298  1.00  0.00     0.041 C 
BRANCH  33  34
HETATM   34  C29 UNL     1      -2.743  48.395 -23.200  1.00  0.00     0.032 C 
BRANCH  34  35
HETATM   35  C30 UNL     1      -1.917  49.454 -22.514  1.00  0.00    -0.024 C 
HETATM   36  C31 UNL     1      -1.142  49.306 -21.422  1.00  0.00    -0.091 C 
HETATM   37  C32 UNL     1      -0.387  50.475 -20.845  1.00  0.00     0.042 C 
HETATM   38  C33 UNL     1      -0.926  48.008 -20.687  1.00  0.00     0.042 C 
ENDBRANCH  34  35
ENDBRANCH  33  34
ENDBRANCH  31  33
ENDBRANCH  30  31
ENDBRANCH  28  29
BRANCH  27  39
HETATM   39  C7  UNL     1      -8.319  48.001 -25.589  1.00  0.00     0.205 C 
BRANCH  39  40
HETATM   40  O1  UNL     1      -8.518  46.950 -24.649  1.00  0.00    -0.363 OA
BRANCH  40  41
HETATM   41  C8  UNL     1      -9.629  47.169 -23.800  1.00  0.00     0.334 C 
BRANCH  41  42
HETATM   42  O2  UNL     1     -10.752  47.440 -24.616  1.00  0.00    -0.377 OA
HETATM   43  H10 UNL     1     -10.445  48.135 -25.224  1.00  0.00     0.212 HD
ENDBRANCH  41  42
ENDBRANCH  40  41
ENDBRANCH  39  40
ENDBRANCH  27  39
ENDBRANCH   1  27
BRANCH   8  44
HETATM   44  C21 UNL     1     -11.140  44.087 -29.638  1.00  0.00     0.265 C 
HETATM   45  O5  UNL     1     -12.236  44.340 -29.155  1.00  0.00    -0.302 OA
ENDBRANCH   8  44
TORSDOF 20
ENDMDL
