MODEL 1
REMARK minimizedAffinity -9.89087772
REMARK  6 active torsions:
REMARK  status: ('A' for Active; 'I' for Inactive)
REMARK    1  A    between atoms: C2_2  and  C3_3 
REMARK    2  A    between atoms: C4_5  and  C5_6 
REMARK    3  A    between atoms: C5_6  and  C6_7 
REMARK    4  A    between atoms: C6_7  and  C7_8 
REMARK    5  A    between atoms: C7_8  and  C9_10 
REMARK    6  A    between atoms: C30_32  and  O3_33 
ROOT
HETATM    1  C9  UNL     1      -0.813  49.592 -18.950  1.00  0.00    -0.002 C 
HETATM    2  C10 UNL     1      -1.962  48.670 -18.457  1.00  0.00     0.007 C 
HETATM    3  C11 UNL     1      -2.918  48.446 -19.643  1.00  0.00     0.015 C 
HETATM    4  C12 UNL     1      -2.157  48.954 -20.882  1.00  0.00    -0.010 C 
HETATM    5  C13 UNL     1      -1.217  47.800 -21.354  1.00  0.00     0.021 C 
HETATM    6  C14 UNL     1      -2.925  49.375 -22.137  1.00  0.00    -0.039 C 
HETATM    7  C15 UNL     1      -2.418  50.342 -22.950  1.00  0.00    -0.066 C 
HETATM    8  C16 UNL     1      -1.106  51.060 -22.625  1.00  0.00     0.036 C 
HETATM    9  C17 UNL     1      -0.410  50.710 -21.295  1.00  0.00     0.015 C 
HETATM   10  C18 UNL     1      -1.413  50.202 -20.254  1.00  0.00    -0.029 C 
HETATM   11  C19 UNL     1      -2.378  51.371 -19.875  1.00  0.00     0.016 C 
HETATM   12  C20 UNL     1      -3.233  50.866 -24.154  1.00  0.00    -0.015 C 
HETATM   13  C21 UNL     1      -4.232  51.911 -23.564  1.00  0.00     0.020 C 
HETATM   14  C22 UNL     1      -2.357  51.632 -25.188  1.00  0.00     0.021 C 
HETATM   15  C23 UNL     1      -3.044  51.812 -26.528  1.00  0.00     0.080 C 
HETATM   16  C24 UNL     1      -3.270  50.472 -27.175  1.00  0.00     0.135 C 
HETATM   17  O2  UNL     1      -3.273  50.377 -28.405  1.00  0.00    -0.297 OA
HETATM   18  C25 UNL     1      -3.503  49.258 -26.261  1.00  0.00     0.018 C 
HETATM   19  C26 UNL     1      -4.539  48.355 -26.974  1.00  0.00     0.023 C 
HETATM   20  C27 UNL     1      -2.177  48.481 -26.159  1.00  0.00     0.023 C 
HETATM   21  C28 UNL     1      -4.073  49.734 -24.871  1.00  0.00     0.016 C 
HETATM   22  C29 UNL     1      -4.412  48.530 -23.965  1.00  0.00     0.043 C 
HETATM   23  C30 UNL     1      -4.253  48.736 -22.463  1.00  0.00     0.148 C 
ENDROOT
BRANCH   1  24
HETATM   24  C7  UNL     1      -0.296  50.531 -17.822  1.00  0.00    -0.014 C 
HETATM   25  C8  UNL     1      -1.297  50.684 -16.671  1.00  0.00     0.010 C 
BRANCH  24  26
HETATM   26  C6  UNL     1       0.118  51.932 -18.344  1.00  0.00     0.008 C 
BRANCH  26  27
HETATM   27  C5  UNL     1       1.415  52.493 -17.751  1.00  0.00     0.028 C 
BRANCH  27  28
HETATM   28  C4  UNL     1       1.670  51.925 -16.383  1.00  0.00    -0.017 C 
HETATM   29  C2  UNL     1       2.836  51.910 -15.711  1.00  0.00    -0.028 C 
HETATM   30  C1  UNL     1       4.138  52.497 -16.154  1.00  0.00     0.051 C 
BRANCH  29  31
HETATM   31  C3  UNL     1       2.858  51.264 -14.363  1.00  0.00     0.265 C 
HETATM   32  O1  UNL     1       2.600  50.083 -14.163  1.00  0.00    -0.302 OA
ENDBRANCH  29  31
ENDBRANCH  27  28
ENDBRANCH  26  27
ENDBRANCH  24  26
ENDBRANCH   1  24
BRANCH  23  33
HETATM   33  O3  UNL     1      -4.367  47.448 -21.868  1.00  0.00    -0.391 OA
HETATM   34  H46 UNL     1      -5.264  47.123 -22.049  1.00  0.00     0.210 HD
ENDBRANCH  23  33
TORSDOF 6
ENDMDL
