MODEL 1
REMARK minimizedAffinity -8.574646
REMARK  12 active torsions:
REMARK  status: ('A' for Active; 'I' for Inactive)
REMARK    1  A    between atoms: C4_4  and  C5_5 
REMARK    2  A    between atoms: C5_5  and  C6_6 
REMARK    3  A    between atoms: C6_6  and  C7_7 
REMARK    4  A    between atoms: C9_9  and  C10_10 
REMARK    5  A    between atoms: C11_11  and  C12_12 
REMARK    6  A    between atoms: C14_14  and  C15_15 
REMARK    7  A    between atoms: C19_20  and  C20_21 
REMARK    8  A    between atoms: C20_21  and  C21_22 
REMARK    9  A    between atoms: C21_22  and  C22_23 
REMARK   10  A    between atoms: C22_23  and  O2_24 
REMARK   11  A    between atoms: C24_26  and  C26_28 
REMARK   12  A    between atoms: C29_32  and  O4_34 
ROOT
HETATM    1  C15 UNL     1      -5.066  47.575 -29.027  1.00  0.00     0.145 C 
HETATM    2  C16 UNL     1      -6.498  47.316 -28.551  1.00  0.00     0.051 C 
HETATM    3  C17 UNL     1      -7.393  47.629 -29.762  1.00  0.00     0.022 C 
HETATM    4  C18 UNL     1      -6.525  48.715 -30.419  1.00  0.00     0.181 C 
HETATM    5  O1  UNL     1      -5.167  48.281 -30.279  1.00  0.00    -0.381 OA
HETATM    6  C19 UNL     1      -7.616  46.391 -30.728  1.00  0.00     0.029 C 
HETATM    7  C23 UNL     1      -8.446  46.852 -31.949  1.00  0.00    -0.066 C 
HETATM    8  C24 UNL     1      -8.087  46.983 -33.251  1.00  0.00    -0.021 C 
HETATM    9  C25 UNL     1      -9.055  47.299 -34.366  1.00  0.00     0.052 C 
HETATM   10  C27 UNL     1      -9.839  47.262 -31.484  1.00  0.00     0.038 C 
HETATM   11  C28 UNL     1      -9.714  48.456 -30.536  1.00  0.00     0.042 C 
HETATM   12  C29 UNL     1      -8.801  48.186 -29.321  1.00  0.00     0.065 C 
HETATM   13  C30 UNL     1      -9.524  47.267 -28.314  1.00  0.00     0.047 C 
ENDROOT
BRANCH   6  14
HETATM   14  C20 UNL     1      -6.419  45.433 -30.955  1.00  0.00     0.012 C 
BRANCH  14  15
HETATM   15  C21 UNL     1      -5.315  45.939 -31.903  1.00  0.00     0.027 C 
BRANCH  15  16
HETATM   16  C22 UNL     1      -4.214  44.931 -32.215  1.00  0.00     0.164 C 
BRANCH  16  17
HETATM   17  O2  UNL     1      -4.608  44.091 -33.291  1.00  0.00    -0.401 OA
HETATM   18  H34 UNL     1      -3.952  43.374 -33.346  1.00  0.00     0.209 HD
ENDBRANCH  16  17
ENDBRANCH  15  16
ENDBRANCH  14  15
ENDBRANCH   6  14
BRANCH  12  19
HETATM   19  O4  UNL     1      -8.620  49.440 -28.646  1.00  0.00    -0.389 OA
HETATM   20  H46 UNL     1      -9.484  49.744 -28.312  1.00  0.00     0.210 HD
ENDBRANCH  12  19
BRANCH   1  21
HETATM   21  C14 UNL     1      -4.269  48.420 -28.074  1.00  0.00     0.011 C 
HETATM   22  C12 UNL     1      -4.471  48.571 -26.747  1.00  0.00    -0.063 C 
HETATM   23  C13 UNL     1      -5.599  47.905 -26.000  1.00  0.00     0.048 C 
BRANCH  22  24
HETATM   24  C11 UNL     1      -3.564  49.439 -25.995  1.00  0.00     0.006 C 
HETATM   25  C10 UNL     1      -2.281  49.707 -26.294  1.00  0.00     0.001 C 
BRANCH  25  26
HETATM   26  C9  UNL     1      -1.459  50.575 -25.475  1.00  0.00     0.002 C 
HETATM   27  C7  UNL     1      -0.322  51.203 -25.837  1.00  0.00    -0.084 C 
HETATM   28  C8  UNL     1       0.314  51.157 -27.202  1.00  0.00     0.043 C 
BRANCH  27  29
HETATM   29  C6  UNL     1       0.415  52.063 -24.823  1.00  0.00     0.037 C 
BRANCH  29  30
HETATM   30  C5  UNL     1      -0.185  51.946 -23.417  1.00  0.00     0.031 C 
BRANCH  30  31
HETATM   31  C4  UNL     1       0.483  52.889 -22.452  1.00  0.00    -0.024 C 
HETATM   32  C2  UNL     1       0.503  52.800 -21.107  1.00  0.00    -0.091 C 
HETATM   33  C1  UNL     1       1.256  53.809 -20.280  1.00  0.00     0.042 C 
HETATM   34  C3  UNL     1      -0.202  51.741 -20.303  1.00  0.00     0.042 C 
ENDBRANCH  30  31
ENDBRANCH  29  30
ENDBRANCH  27  29
ENDBRANCH  25  26
ENDBRANCH  22  24
ENDBRANCH   1  21
BRANCH   8  35
HETATM   35  C26 UNL     1      -6.670  46.901 -33.720  1.00  0.00     0.265 C 
HETATM   36  O3  UNL     1      -6.077  47.850 -34.220  1.00  0.00    -0.302 OA
ENDBRANCH   8  35
TORSDOF 12
ENDMDL
