MODEL 1
REMARK minimizedAffinity -9.86780834
REMARK CNNscore 0.492394686
REMARK CNNaffinity 7.09673738
REMARK  12 active torsions:
REMARK  status: ('A' for Active; 'I' for Inactive)
REMARK    1  A    between atoms: C2_2  and  C3_3 
REMARK    2  A    between atoms: C4_4  and  C18_19 
REMARK    3  A    between atoms: C19_20  and  O1_21 
REMARK    4  A    between atoms: N2_22  and  C20_23 
REMARK    5  A    between atoms: C20_23  and  C21_24 
REMARK    6  A    between atoms: C21_24  and  O3_26 
REMARK    7  A    between atoms: O3_26  and  C22_27 
REMARK    8  A    between atoms: C25_30  and  C26_31 
REMARK    9  A    between atoms: C32_38  and  C33_39 
REMARK   10  A    between atoms: C39_47  and  O7_48 
REMARK   11  A    between atoms: C43_52  and  O8_53 
REMARK   12  A    between atoms: C45_55  and  O9_56 
ROOT
HETATM    1  C22 UNL     1      -7.910  45.489 -24.100  1.00  0.00     0.164 C 
HETATM    2  C23 UNL     1      -7.786  46.683 -25.042  1.00  0.00     0.042 C 
HETATM    3  C24 UNL     1      -6.495  47.452 -24.798  1.00  0.00     0.032 C 
HETATM    4  C25 UNL     1      -6.487  48.149 -23.403  1.00  0.00     0.076 C 
HETATM    5  C27 UNL     1      -5.018  48.537 -23.016  1.00  0.00     0.019 C 
HETATM    6  C28 UNL     1      -4.272  49.396 -24.051  1.00  0.00     0.008 C 
HETATM    7  C29 UNL     1      -2.796  49.558 -23.661  1.00  0.00     0.013 C 
HETATM    8  C30 UNL     1      -2.573  50.185 -22.252  1.00  0.00    -0.005 C 
HETATM    9  C31 UNL     1      -2.867  51.698 -22.346  1.00  0.00     0.019 C 
HETATM   10  C32 UNL     1      -1.100  49.875 -21.793  1.00  0.00     0.028 C 
HETATM   11  C37 UNL     1      -1.190  48.529 -21.034  1.00  0.00     0.013 C 
HETATM   12  C38 UNL     1      -2.671  48.166 -20.901  1.00  0.00     0.040 C 
HETATM   13  C39 UNL     1      -3.449  49.459 -21.180  1.00  0.00     0.070 C 
HETATM   14  C40 UNL     1      -4.921  49.237 -21.634  1.00  0.00     0.027 C 
HETATM   15  C41 UNL     1      -5.806  48.568 -20.566  1.00  0.00     0.011 C 
HETATM   16  C42 UNL     1      -6.296  47.189 -20.980  1.00  0.00     0.040 C 
HETATM   17  C43 UNL     1      -7.109  47.197 -22.301  1.00  0.00     0.082 C 
HETATM   18  C44 UNL     1      -7.198  45.722 -22.761  1.00  0.00     0.080 C 
HETATM   19 BR1  UNL     1      -8.500  47.262 -22.919  1.00  0.00    -0.120 Br
ENDROOT
BRANCH   1  20
HETATM   20  O3  UNL     1      -9.326  45.218 -23.972  1.00  0.00    -0.307 OA
BRANCH  20  21
HETATM   21  C21 UNL     1      -9.823  44.151 -24.645  1.00  0.00     0.286 C 
HETATM   22  O2  UNL     1      -9.249  43.087 -24.810  1.00  0.00    -0.263 OA
BRANCH  21  23
HETATM   23  C20 UNL     1     -11.224  44.444 -25.165  1.00  0.00     0.352 C 
BRANCH  23  24
HETATM   24  N2  UNL     1     -11.347  45.443 -26.374  1.00  0.00    -0.021 N 
HETATM   25  C6  UNL     1     -12.768  45.229 -27.028  1.00  0.00     0.214 C 
HETATM   26  C5  UNL     1     -13.092  46.505 -27.826  1.00  0.00     0.041 C 
HETATM   27  C7  UNL     1     -12.798  43.988 -27.979  1.00  0.00     0.109 C 
HETATM   28  C4  UNL     1     -11.780  47.179 -28.249  1.00  0.00     0.004 C 
HETATM   29  C3  UNL     1     -11.273  47.897 -26.971  1.00  0.00     0.047 C 
HETATM   30  C45 UNL     1     -11.225  46.857 -25.809  1.00  0.00     0.329 C 
HETATM   31  N1  UNL     1     -12.957  42.669 -27.299  1.00  0.00    -0.279 NA
HETATM   32  C15 UNL     1     -11.496  43.834 -28.822  1.00  0.00     0.035 C 
HETATM   33  C8  UNL     1     -14.277  42.327 -26.761  1.00  0.00     0.117 C 
HETATM   34  C9  UNL     1     -12.511  41.783 -28.342  1.00  0.00     0.018 A 
HETATM   35  C10 UNL     1     -12.760  40.426 -28.468  1.00  0.00     0.024 A 
HETATM   36  C14 UNL     1     -11.698  42.440 -29.296  1.00  0.00    -0.024 A 
HETATM   37  C11 UNL     1     -12.226  39.747 -29.571  1.00  0.00     0.002 A 
HETATM   38  C12 UNL     1     -11.441  40.420 -30.526  1.00  0.00     0.001 A 
HETATM   39  C13 UNL     1     -11.163  41.776 -30.387  1.00  0.00     0.010 A 
HETATM   40  C16 UNL     1     -10.226  43.870 -27.967  1.00  0.00     0.053 C 
HETATM   41  C19 UNL     1     -11.244  45.041 -29.724  1.00  0.00     0.139 C 
HETATM   42  C17 UNL     1     -10.270  45.288 -27.468  1.00  0.00     0.203 C 
HETATM   43  C18 UNL     1     -10.745  46.117 -28.707  1.00  0.00     0.051 C 
BRANCH  29  44
HETATM   44  C2  UNL     1      -9.921  48.621 -27.129  1.00  0.00     0.005 C 
HETATM   45  C1  UNL     1      -9.616  49.592 -26.001  1.00  0.00     0.005 C 
ENDBRANCH  29  44
BRANCH  30  46
HETATM   46  O9  UNL     1     -12.257  47.122 -24.891  1.00  0.00    -0.369 OA
HETATM   47  H59 UNL     1     -12.035  47.971 -24.443  1.00  0.00     0.212 HD
ENDBRANCH  30  46
BRANCH  41  48
HETATM   48  O1  UNL     1     -12.387  45.468 -30.433  1.00  0.00    -0.394 OA
HETATM   49  H24 UNL     1     -12.262  45.263 -31.383  1.00  0.00     0.210 HD
ENDBRANCH  41  48
ENDBRANCH  23  24
ENDBRANCH  21  23
ENDBRANCH  20  21
ENDBRANCH   1  20
BRANCH  17  50
HETATM   50  O8  UNL     1      -8.467  47.585 -22.002  1.00  0.00    -0.388 OA
HETATM   51  H55 UNL     1      -8.481  48.006 -21.120  1.00  0.00     0.210 HD
ENDBRANCH  17  50
BRANCH   4  52
HETATM   52  C26 UNL     1      -7.320  49.436 -23.506  1.00  0.00     0.253 C 
HETATM   53  O4  UNL     1      -7.385  50.300 -22.632  1.00  0.00    -0.305 OA
ENDBRANCH   4  52
BRANCH  13  54
HETATM   54  O7  UNL     1      -3.465  50.257 -19.998  1.00  0.00    -0.389 OA
HETATM   55  H49 UNL     1      -3.640  49.704 -19.208  1.00  0.00     0.210 HD
ENDBRANCH  13  54
BRANCH  10  56
HETATM   56  C33 UNL     1      -0.377  50.924 -20.986  1.00  0.00    -0.045 A 
HETATM   57  C34 UNL     1       0.295  51.998 -21.402  1.00  0.00     0.087 A 
HETATM   58  C35 UNL     1       0.780  52.700 -20.216  1.00  0.00     0.283 A 
HETATM   59  O5  UNL     1       1.443  53.718 -20.232  1.00  0.00    -0.260 OA
HETATM   60  O6  UNL     1       0.372  52.028 -19.105  1.00  0.00    -0.314 OA
HETATM   61  C36 UNL     1      -0.379  50.882 -19.502  1.00  0.00     0.213 A 
ENDBRANCH  10  56
TORSDOF 12
ENDMDL
