MODEL 1
REMARK minimizedAffinity -8.78428555
REMARK  9 active torsions:
REMARK  status: ('A' for Active; 'I' for Inactive)
REMARK    1  A    between atoms: C11_11  and  C13_13 
REMARK    2  A    between atoms: C13_13  and  O2_15 
REMARK    3  A    between atoms: C15_17  and  C16_18 
REMARK    4  A    between atoms: C16_18  and  C17_19 
REMARK    5  A    between atoms: C17_19  and  C18_20 
REMARK    6  A    between atoms: C19_21  and  C20_22 
REMARK    7  A    between atoms: C20_22  and  O3_23 
REMARK    8  A    between atoms: O3_23  and  C21_24 
REMARK    9  A    between atoms: C21_24  and  C22_26 
ROOT
HETATM    1  C16 UNL     1       1.266   6.668  14.182  1.00  0.00     0.014 C 
ENDROOT
BRANCH   1   2
HETATM    2  C15 UNL     1       1.609   6.561  12.673  1.00  0.00     0.022 C 
HETATM    3  C2  UNL     1       0.462   5.984  11.858  1.00  0.00    -0.084 C 
HETATM    4  C1  UNL     1       0.260   4.661  11.726  1.00  0.00     0.014 C 
HETATM    5  C3  UNL     1      -0.365   6.968  11.095  1.00  0.00     0.034 C 
HETATM    6  C4  UNL     1       0.506   7.656  10.050  1.00  0.00     0.011 C 
HETATM    7  C5  UNL     1       1.930   8.068  10.517  1.00  0.00     0.012 C 
HETATM    8  C6  UNL     1       2.171   7.924  12.073  1.00  0.00    -0.032 C 
HETATM    9  C11 UNL     1       3.085   7.501   9.611  1.00  0.00     0.049 C 
HETATM   10  C7  UNL     1       1.507   9.172  12.739  1.00  0.00     0.016 C 
HETATM   11  C8  UNL     1       3.694   8.012  12.406  1.00  0.00     0.010 C 
HETATM   12  C9  UNL     1       4.478   8.802  11.367  1.00  0.00     0.002 C 
HETATM   13  C10 UNL     1       4.472   8.080  10.022  1.00  0.00     0.020 C 
HETATM   14  C12 UNL     1       3.163   5.960   9.657  1.00  0.00     0.026 C 
BRANCH   9  15
HETATM   15  C13 UNL     1       2.841   7.912   8.142  1.00  0.00     0.267 C 
HETATM   16  O1  UNL     1       3.043   9.029   7.682  1.00  0.00    -0.264 OA
BRANCH  15  17
HETATM   17  O2  UNL     1       2.352   6.866   7.413  1.00  0.00    -0.326 OA
HETATM   18  C14 UNL     1       1.515   7.253   6.323  1.00  0.00     0.213 C 
ENDBRANCH  15  17
ENDBRANCH   9  15
ENDBRANCH   1   2
BRANCH   1  19
HETATM   19  C17 UNL     1      -0.193   6.339  14.529  1.00  0.00     0.042 C 
BRANCH  19  20
HETATM   20  C18 UNL     1      -0.832   7.421  15.340  1.00  0.00    -0.024 A 
HETATM   21  C19 UNL     1      -2.138   7.476  15.803  1.00  0.00     0.083 A 
HETATM   22  O5  UNL     1      -2.338   8.625  16.512  1.00  0.00    -0.324 OA
HETATM   23  C28 UNL     1      -1.169   9.312  16.500  1.00  0.00     0.143 A 
HETATM   24  C29 UNL     1      -0.213   8.619  15.798  1.00  0.00     0.034 A 
BRANCH  21  25
HETATM   25  C20 UNL     1      -3.305   6.564  15.691  1.00  0.00     0.244 C 
BRANCH  25  26
HETATM   26  O3  UNL     1      -4.399   7.326  15.166  1.00  0.00    -0.311 OA
BRANCH  26  27
HETATM   27  C21 UNL     1      -4.484   7.392  13.819  1.00  0.00     0.293 C 
HETATM   28  O4  UNL     1      -4.514   8.409  13.144  1.00  0.00    -0.259 OA
BRANCH  27  29
HETATM   29  C22 UNL     1      -4.534   6.021  13.238  1.00  0.00     0.039 A 
HETATM   30  C23 UNL     1      -5.733   5.300  13.341  1.00  0.00     0.019 A 
HETATM   31  C24 UNL     1      -5.831   4.011  12.810  1.00  0.00     0.025 A 
HETATM   32  C25 UNL     1      -4.730   3.439  12.173  1.00  0.00     0.034 A 
HETATM   33 CL1  UNL     1      -4.849   1.853  11.518  1.00  0.00    -0.084 Cl
HETATM   34  C26 UNL     1      -3.532   4.144  12.065  1.00  0.00     0.025 A 
HETATM   35  C27 UNL     1      -3.431   5.434  12.597  1.00  0.00     0.019 A 
ENDBRANCH  27  29
ENDBRANCH  26  27
ENDBRANCH  25  26
ENDBRANCH  21  25
ENDBRANCH  19  20
ENDBRANCH   1  19
TORSDOF 9
ENDMDL
