MODEL 1
REMARK minimizedAffinity -6.63584757
REMARK CNNscore 0.44005689
REMARK CNNaffinity 7.20151758
REMARK  13 active torsions:
REMARK  status: ('A' for Active; 'I' for Inactive)
REMARK    1  A    between atoms: O1_2  and  C2_3 
REMARK    2  A    between atoms: C12_14  and  C13_15 
REMARK    3  A    between atoms: C13_15  and  C15_17 
REMARK    4  A    between atoms: C15_17  and  C16_18 
REMARK    5  A    between atoms: C17_19  and  C18_20 
REMARK    6  A    between atoms: C18_20  and  O3_23 
REMARK    7  A    between atoms: C29_32  and  O4_33 
REMARK    8  A    between atoms: O4_33  and  C30_34 
REMARK    9  A    between atoms: C31_36  and  C32_37 
REMARK   10  A    between atoms: C32_37  and  O6_38 
REMARK   11  A    between atoms: C33_39  and  O7_40 
REMARK   12  A    between atoms: C34_41  and  O8_42 
REMARK   13  A    between atoms: C35_43  and  O9_44 
ROOT
HETATM    1  C2  UNL     1       0.855  14.325   2.117  1.00  0.00     0.270 C 
HETATM    2  O2  UNL     1       2.266  14.195   1.828  1.00  0.00    -0.344 OA
HETATM    3  C3  UNL     1       2.952  15.309   2.435  1.00  0.00     0.095 C 
HETATM    4  C4  UNL     1       3.262  14.834   3.850  1.00  0.00     0.008 C 
HETATM    5  C5  UNL     1       2.336  14.847   4.820  1.00  0.00    -0.021 C 
HETATM    6  C6  UNL     1       0.911  15.279   4.546  1.00  0.00     0.030 C 
HETATM    7  C7  UNL     1       0.671  15.606   3.007  1.00  0.00     0.024 C 
HETATM    8  C8  UNL     1      -0.730  16.210   2.765  1.00  0.00     0.016 C 
HETATM    9  C9  UNL     1      -1.244  17.231   3.796  1.00  0.00     0.011 C 
HETATM   10  C10 UNL     1      -1.097  16.724   5.243  1.00  0.00    -0.032 C 
HETATM   11  C11 UNL     1      -2.025  15.477   5.418  1.00  0.00     0.016 C 
HETATM   12  C12 UNL     1      -1.388  17.724   6.402  1.00  0.00    -0.002 C 
HETATM   13  C22 UNL     1      -0.604  17.088   7.597  1.00  0.00     0.006 C 
HETATM   14  C23 UNL     1       0.411  16.088   7.001  1.00  0.00     0.011 C 
HETATM   15  C24 UNL     1       0.434  16.426   5.497  1.00  0.00    -0.029 C 
HETATM   16  C25 UNL     1       1.358  17.694   5.376  1.00  0.00     0.016 C 
HETATM   17  C26 UNL     1       1.870  16.415   2.457  1.00  0.00     0.039 C 
HETATM   18  C27 UNL     1       1.621  17.063   1.085  1.00  0.00     0.011 C 
HETATM   19  C28 UNL     1       2.912  17.509   0.413  1.00  0.00     0.033 C 
HETATM   20  C29 UNL     1       3.898  16.349   0.265  1.00  0.00     0.136 C 
HETATM   21  C36 UNL     1       4.251  15.694   1.641  1.00  0.00     0.014 C 
HETATM   22  C37 UNL     1       5.149  14.448   1.388  1.00  0.00     0.021 C 
HETATM   23  C38 UNL     1       5.098  16.716   2.448  1.00  0.00     0.021 C 
ENDROOT
BRANCH  20  24
HETATM   24  O4  UNL     1       3.289  15.384  -0.605  1.00  0.00    -0.352 OA
BRANCH  24  25
HETATM   25  C30 UNL     1       3.163  15.843  -1.955  1.00  0.00     0.292 C 
HETATM   26  O5  UNL     1       1.827  15.627  -2.388  1.00  0.00    -0.348 OA
HETATM   27  C31 UNL     1       1.624  14.516  -3.262  1.00  0.00     0.179 C 
HETATM   28  C33 UNL     1       2.443  13.292  -2.825  1.00  0.00     0.180 C 
HETATM   29  C34 UNL     1       3.949  13.607  -2.783  1.00  0.00     0.183 C 
HETATM   30  C35 UNL     1       4.241  15.112  -2.777  1.00  0.00     0.204 C 
BRANCH  27  31
HETATM   31  C32 UNL     1       0.116  14.197  -3.282  1.00  0.00     0.198 C 
BRANCH  31  32
HETATM   32  O6  UNL     1      -0.314  13.414  -2.171  1.00  0.00    -0.398 OA
HETATM   33  H50 UNL     1       0.366  13.511  -1.465  1.00  0.00     0.209 HD
ENDBRANCH  31  32
ENDBRANCH  27  31
BRANCH  28  34
HETATM   34  O7  UNL     1       2.229  12.188  -3.735  1.00  0.00    -0.390 OA
HETATM   35  H52 UNL     1       2.695  11.430  -3.327  1.00  0.00     0.210 HD
ENDBRANCH  28  34
BRANCH  29  36
HETATM   36  O8  UNL     1       4.510  12.954  -1.633  1.00  0.00    -0.390 OA
HETATM   37  H54 UNL     1       4.410  13.572  -0.876  1.00  0.00     0.210 HD
ENDBRANCH  29  36
BRANCH  30  38
HETATM   38  O9  UNL     1       4.280  15.626  -4.113  1.00  0.00    -0.388 OA
HETATM   39  H56 UNL     1       5.057  15.243  -4.564  1.00  0.00     0.210 HD
ENDBRANCH  30  38
ENDBRANCH  24  25
ENDBRANCH  20  24
BRANCH   1  40
HETATM   40  O1  UNL     1       0.291  13.169   2.727  1.00  0.00    -0.365 OA
HETATM   41  C1  UNL     1      -1.051  12.940   2.321  1.00  0.00     0.204 C 
ENDBRANCH   1  40
BRANCH  12  42
HETATM   42  C13 UNL     1      -2.848  18.083   6.806  1.00  0.00    -0.010 C 
HETATM   43  C14 UNL     1      -3.237  17.527   8.182  1.00  0.00     0.010 C 
BRANCH  42  44
HETATM   44  C15 UNL     1      -3.839  17.564   5.725  1.00  0.00     0.031 C 
BRANCH  44  45
HETATM   45  C16 UNL     1      -5.261  17.470   6.210  1.00  0.00    -0.027 C 
HETATM   46  C17 UNL     1      -6.324  17.520   5.387  1.00  0.00     0.006 C 
BRANCH  46  47
HETATM   47  C18 UNL     1      -7.795  17.453   5.750  1.00  0.00     0.070 C 
HETATM   48  C19 UNL     1      -8.580  18.491   4.927  1.00  0.00     0.050 C 
HETATM   49  C20 UNL     1      -8.430  16.079   5.480  1.00  0.00     0.050 C 
BRANCH  47  50
HETATM   50  O3  UNL     1      -7.947  17.651   7.170  1.00  0.00    -0.382 OA
HETATM   51  C21 UNL     1      -9.265  17.837   7.664  1.00  0.00     0.202 C 
ENDBRANCH  47  50
ENDBRANCH  46  47
ENDBRANCH  44  45
ENDBRANCH  42  44
ENDBRANCH  12  42
TORSDOF 13
ENDMDL
