MODEL 1
REMARK minimizedAffinity -7.17854548
REMARK CNNscore 0.305457473
REMARK CNNaffinity 6.48461294
REMARK  13 active torsions:
REMARK  status: ('A' for Active; 'I' for Inactive)
REMARK    1  A    between atoms: C2_2  and  C3_3 
REMARK    2  A    between atoms: C2_2  and  C9_9 
REMARK    3  A    between atoms: C3_3  and  C4_4 
REMARK    4  A    between atoms: C4_4  and  C5_5 
REMARK    5  A    between atoms: C18_18  and  O1_19 
REMARK    6  A    between atoms: C19_20  and  C21_22 
REMARK    7  A    between atoms: C21_22  and  O3_24 
REMARK    8  A    between atoms: C30_33  and  O4_34 
REMARK    9  A    between atoms: O4_34  and  C31_35 
REMARK   10  A    between atoms: C32_37  and  C33_38 
REMARK   11  A    between atoms: C33_38  and  O6_39 
REMARK   12  A    between atoms: C34_40  and  O7_41 
REMARK   13  A    between atoms: C35_42  and  O8_43 
ROOT
HETATM    1  C9  UNL     1      -0.980  12.333  17.754  1.00  0.00     0.047 C 
HETATM    2  C10 UNL     1      -1.474  11.374  16.651  1.00  0.00     0.005 C 
HETATM    3  C11 UNL     1      -1.616  11.929  15.242  1.00  0.00     0.006 C 
HETATM    4  C12 UNL     1      -2.069  10.833  14.260  1.00  0.00     0.006 C 
HETATM    5  C13 UNL     1      -1.200   9.544  14.315  1.00  0.00     0.003 C 
HETATM    6  C14 UNL     1      -1.496   8.499  13.162  1.00  0.00    -0.035 C 
HETATM    7  C15 UNL     1      -2.988   8.067  13.125  1.00  0.00     0.016 C 
HETATM    8  C16 UNL     1      -1.242   9.200  11.787  1.00  0.00     0.012 C 
HETATM    9  C17 UNL     1      -0.867   8.226  10.688  1.00  0.00     0.034 C 
HETATM   10  C18 UNL     1       0.467   7.529  10.952  1.00  0.00     0.137 C 
HETATM   11  C19 UNL     1       0.748   7.197  12.465  1.00  0.00     0.072 C 
HETATM   12  C20 UNL     1       1.439   5.806  12.539  1.00  0.00     0.030 C 
HETATM   13  C22 UNL     1      -0.602   7.197  13.292  1.00  0.00     0.015 C 
HETATM   14  C23 UNL     1      -0.490   6.704  14.755  1.00  0.00     0.007 C 
HETATM   15  C24 UNL     1      -0.123   7.770  15.786  1.00  0.00     0.011 C 
HETATM   16  C25 UNL     1      -1.071   8.989  15.794  1.00  0.00    -0.032 C 
HETATM   17  C26 UNL     1      -2.442   8.498  16.348  1.00  0.00     0.016 C 
HETATM   18  C27 UNL     1      -0.488  10.177  16.705  1.00  0.00    -0.030 C 
HETATM   19  C28 UNL     1       0.966  10.578  16.277  1.00  0.00     0.016 C 
HETATM   20  C29 UNL     1      -0.447   9.954  18.238  1.00  0.00     0.043 C 
HETATM   21  C30 UNL     1      -0.450  11.369  18.866  1.00  0.00     0.134 C 
ENDROOT
BRANCH  21  22
HETATM   22  O4  UNL     1       0.896  11.712  19.203  1.00  0.00    -0.353 OA
BRANCH  22  23
HETATM   23  C31 UNL     1       1.699  10.594  19.547  1.00  0.00     0.292 C 
HETATM   24  O5  UNL     1       3.073  10.870  19.224  1.00  0.00    -0.348 OA
HETATM   25  C32 UNL     1       3.560  11.784  20.248  1.00  0.00     0.179 C 
HETATM   26  C34 UNL     1       2.667  11.563  21.481  1.00  0.00     0.182 C 
HETATM   27  C35 UNL     1       1.744  10.423  21.059  1.00  0.00     0.204 C 
BRANCH  25  28
HETATM   28  C33 UNL     1       5.056  11.575  20.490  1.00  0.00     0.198 C 
BRANCH  28  29
HETATM   29  O6  UNL     1       5.657  10.961  19.348  1.00  0.00    -0.398 OA
HETATM   30  H52 UNL     1       6.597  10.818  19.564  1.00  0.00     0.209 HD
ENDBRANCH  28  29
ENDBRANCH  25  28
BRANCH  26  31
HETATM   31  O7  UNL     1       3.373  11.237  22.678  1.00  0.00    -0.390 OA
HETATM   32  H54 UNL     1       3.212  10.282  22.833  1.00  0.00     0.210 HD
ENDBRANCH  26  31
BRANCH  27  33
HETATM   33  O8  UNL     1       2.357   9.174  21.437  1.00  0.00    -0.388 OA
HETATM   34  H56 UNL     1       3.062   8.995  20.780  1.00  0.00     0.210 HD
ENDBRANCH  27  33
ENDBRANCH  22  23
ENDBRANCH  21  22
BRANCH   1  35
HETATM   35  C2  UNL     1      -2.019  13.333  18.249  1.00  0.00    -0.082 C 
HETATM   36  C1  UNL     1      -1.819  14.664  18.226  1.00  0.00     0.015 C 
BRANCH  35  37
HETATM   37  C3  UNL     1      -3.337  12.761  18.736  1.00  0.00     0.037 C 
BRANCH  37  38
HETATM   38  C4  UNL     1      -4.308  13.830  19.252  1.00  0.00     0.031 C 
BRANCH  38  39
HETATM   39  C5  UNL     1      -5.199  13.273  20.334  1.00  0.00    -0.024 C 
HETATM   40  C6  UNL     1      -5.491  13.821  21.530  1.00  0.00    -0.091 C 
HETATM   41  C7  UNL     1      -4.995  15.154  22.022  1.00  0.00     0.042 C 
HETATM   42  C8  UNL     1      -6.389  13.102  22.502  1.00  0.00     0.042 C 
ENDBRANCH  38  39
ENDBRANCH  37  38
ENDBRANCH  35  37
ENDBRANCH   1  35
BRANCH  11  43
HETATM   43  C21 UNL     1       1.747   8.245  12.969  1.00  0.00     0.151 C 
HETATM   44  O2  UNL     1       2.482   8.150  13.940  1.00  0.00    -0.649 OA
BRANCH  43  45
HETATM   45  O3  UNL     1       1.790   9.379  12.243  1.00  0.00    -0.776 OA
HETATM   46  H33 UNL     1       2.457   9.932  12.699  1.00  0.00     0.167 HD
ENDBRANCH  43  45
ENDBRANCH  11  43
BRANCH  10  47
HETATM   47  O1  UNL     1       0.476   6.351  10.135  1.00  0.00    -0.394 OA
HETATM   48  H29 UNL     1       0.396   6.637   9.207  1.00  0.00     0.210 HD
ENDBRANCH  10  47
TORSDOF 13
ENDMDL
