MODEL 1
REMARK minimizedAffinity -9.35614204
REMARK  5 active torsions:
REMARK  status: ('A' for Active; 'I' for Inactive)
REMARK    1  A    between atoms: C2_2  and  C4_4 
REMARK    2  A    between atoms: C7_7  and  C8_8 
REMARK    3  A    between atoms: C8_8  and  O2_10 
REMARK    4  A    between atoms: C21_24  and  C23_26 
REMARK    5  A    between atoms: C23_26  and  O4_27 
ROOT
HETATM    1  C4  UNL     1      -0.127  51.895 -23.259  1.00  0.00     0.019 C 
HETATM    2  C5  UNL     1       0.391  52.862 -24.359  1.00  0.00     0.011 C 
HETATM    3  C6  UNL     1      -0.742  53.016 -25.404  1.00  0.00     0.021 C 
HETATM    4  C7  UNL     1      -1.766  51.921 -25.049  1.00  0.00     0.050 C 
HETATM    5  C9  UNL     1      -3.215  52.261 -25.423  1.00  0.00     0.022 C 
HETATM    6  C10 UNL     1      -4.239  51.359 -24.684  1.00  0.00     0.011 C 
HETATM    7  C11 UNL     1      -4.104  51.294 -23.112  1.00  0.00    -0.032 C 
HETATM    8  C12 UNL     1      -4.463  52.732 -22.613  1.00  0.00     0.016 C 
HETATM    9  C13 UNL     1      -2.596  50.962 -22.770  1.00  0.00     0.000 C 
HETATM   10  C14 UNL     1      -2.185  49.487 -22.965  1.00  0.00     0.006 C 
HETATM   11  C15 UNL     1      -3.341  48.496 -23.007  1.00  0.00     0.006 C 
HETATM   12  C16 UNL     1      -4.380  48.895 -21.966  1.00  0.00     0.003 C 
HETATM   13  C17 UNL     1      -5.277  47.712 -21.432  1.00  0.00    -0.031 C 
HETATM   14  C18 UNL     1      -5.805  46.828 -22.594  1.00  0.00     0.016 C 
HETATM   15  C19 UNL     1      -4.411  46.805 -20.518  1.00  0.00     0.036 C 
HETATM   16  C20 UNL     1      -5.198  45.663 -19.881  1.00  0.00     0.169 C 
HETATM   17  O3  UNL     1      -6.595  45.915 -19.793  1.00  0.00    -0.378 OA
HETATM   18  C21 UNL     1      -6.950  47.262 -19.433  1.00  0.00     0.082 C 
HETATM   19  C22 UNL     1      -8.494  47.261 -19.413  1.00  0.00     0.049 C 
HETATM   20  C24 UNL     1      -6.471  48.259 -20.566  1.00  0.00     0.030 C 
HETATM   21  C25 UNL     1      -6.199  49.678 -20.035  1.00  0.00     0.009 C 
HETATM   22  C26 UNL     1      -5.748  50.737 -21.059  1.00  0.00     0.011 C 
HETATM   23  C27 UNL     1      -5.131  50.208 -22.396  1.00  0.00    -0.032 C 
HETATM   24  C28 UNL     1      -6.323  49.972 -23.359  1.00  0.00     0.016 C 
HETATM   25  C29 UNL     1      -1.645  51.931 -23.508  1.00  0.00     0.017 C 
ENDROOT
BRANCH   4  26
HETATM   26  C8  UNL     1      -1.377  50.639 -25.817  1.00  0.00     0.149 C 
HETATM   27  O1  UNL     1      -2.089  49.672 -26.037  1.00  0.00    -0.649 OA
BRANCH  26  28
HETATM   28  O2  UNL     1      -0.116  50.616 -26.286  1.00  0.00    -0.776 OA
HETATM   29  H11 UNL     1      -0.055  49.750 -26.741  1.00  0.00     0.167 HD
ENDBRANCH  26  28
ENDBRANCH   4  26
BRANCH   1  30
HETATM   30  C2  UNL     1       0.411  52.265 -21.886  1.00  0.00    -0.088 C 
HETATM   31  C1  UNL     1       1.068  53.398 -21.590  1.00  0.00     0.014 C 
HETATM   32  C3  UNL     1       0.155  51.238 -20.811  1.00  0.00     0.043 C 
ENDBRANCH   1  30
BRANCH  18  33
HETATM   33  C23 UNL     1      -6.446  47.543 -17.985  1.00  0.00     0.202 C 
BRANCH  33  34
HETATM   34  O4  UNL     1      -7.385  48.219 -17.155  1.00  0.00    -0.398 OA
HETATM   35  H37 UNL     1      -8.071  47.575 -16.907  1.00  0.00     0.209 HD
ENDBRANCH  33  34
ENDBRANCH  18  33
TORSDOF 5
ENDMDL
