MODEL 1
REMARK minimizedAffinity -8.1039772
REMARK  4 active torsions:
REMARK  status: ('A' for Active; 'I' for Inactive)
REMARK       I    between atoms: N1_1  and  C1_2 
REMARK       I    between atoms: C1_2  and  N2_4 
REMARK    1  A    between atoms: N2_4  and  N3_5 
REMARK    2  A    between atoms: C2_7  and  C3_8 
REMARK    3  A    between atoms: C6_11  and  O2_12 
REMARK    4  A    between atoms: O2_12  and  C7_13 
ROOT
HETATM    1  C3  UNL     1       5.562  -4.269  30.724  1.00  0.00    -0.019 A 
HETATM    2  C4  UNL     1       5.615  -2.950  31.185  1.00  0.00     0.015 A 
HETATM    3  C5  UNL     1       6.849  -2.368  31.481  1.00  0.00     0.038 A 
HETATM    4  C6  UNL     1       8.023  -3.109  31.332  1.00  0.00     0.076 A 
HETATM    5  C13 UNL     1       7.973  -4.419  30.848  1.00  0.00     0.038 A 
HETATM    6  C14 UNL     1       6.740  -5.003  30.550  1.00  0.00     0.015 A 
ENDROOT
BRANCH   1   7
HETATM    7  C2  UNL     1       4.272  -4.913  30.403  1.00  0.00     0.118 C 
HETATM    8  N3  UNL     1       3.940  -5.198  29.182  1.00  0.00    -0.307 N 
ATOM      9  H3  UNL     1       4.549  -4.958  28.399  1.00  0.00     0.186 HD
BRANCH   8  10
HETATM   10  N2  UNL     1       2.741  -5.835  28.982  1.00  0.00    -0.252 N 
HETATM   11  C1  UNL     1       2.551  -6.939  28.172  1.00  0.00     0.332 C 
HETATM   12  N1  UNL     1       1.232  -7.265  28.036  1.00  0.00    -0.351 N 
HETATM   13  O1  UNL     1       3.407  -7.630  27.633  1.00  0.00    -0.246 OA
HETATM   14  H1  UNL     1       1.085  -8.015  27.370  1.00  0.00     0.160 HD
HETATM   15  H2  UNL     1       0.560  -6.515  27.972  1.00  0.00     0.160 HD
HETATM   16  H3  UNL     1       1.943  -5.225  29.103  1.00  0.00     0.191 HD
ENDBRANCH   8  10
ENDBRANCH   1   7
BRANCH   4  17
HETATM   17  O2  UNL     1       9.207  -2.465  31.609  1.00  0.00    -0.311 OA
BRANCH  17  18
HETATM   18  C7  UNL     1       9.906  -2.881  32.719  1.00  0.00     0.076 A 
HETATM   19  C8  UNL     1      11.165  -2.311  32.924  1.00  0.00     0.040 A 
HETATM   20  C9  UNL     1      11.910  -2.663  34.050  1.00  0.00     0.045 A 
HETATM   21  C10 UNL     1      11.382  -3.569  34.965  1.00  0.00     0.116 A 
HETATM   22  F1  UNL     1      12.098  -3.906  36.045  1.00  0.00    -0.206 F 
HETATM   23  C11 UNL     1      10.120  -4.124  34.780  1.00  0.00     0.045 A 
HETATM   24  C12 UNL     1       9.372  -3.773  33.656  1.00  0.00     0.040 A 
ENDBRANCH  17  18
ENDBRANCH   4  17
TORSDOF 4
ENDMDL
