MODEL 1
REMARK minimizedAffinity -8.99787521
REMARK  2 active torsions:
REMARK  status: ('A' for Active; 'I' for Inactive)
REMARK    1  A    between atoms: C1_2  and  C2_3 
REMARK       I    between atoms: C1_2  and  N2_16 
REMARK    2  A    between atoms: C10_14  and  O2_15 
ROOT
HETATM    1  O1  UNL     1      12.173  35.804  17.633  1.00  0.00    -0.267 OA
HETATM    2  C1  UNL     1      13.242  36.214  18.076  1.00  0.00     0.258 C 
HETATM    3  N2  UNL     1      13.602  36.243  19.424  1.00  0.00    -0.339 N 
HETATM    4  C11 UNL     1      15.002  35.992  19.817  1.00  0.00     0.127 C 
HETATM    5  C12 UNL     1      15.145  34.959  20.943  1.00  0.00     0.024 C 
HETATM    6  C13 UNL     1      14.063  33.885  20.855  1.00  0.00     0.037 C 
HETATM    7  C14 UNL     1      12.705  34.522  20.952  1.00  0.00    -0.060 C 
HETATM    8  C15 UNL     1      11.574  33.831  21.319  1.00  0.00    -0.015 C 
HETATM    9  C16 UNL     1      10.178  34.520  21.538  1.00  0.00     0.031 C 
HETATM   10  C17 UNL     1      10.549  35.960  21.732  1.00  0.00     0.019 C 
HETATM   11  C18 UNL     1      11.146  36.221  20.319  1.00  0.00     0.031 C 
HETATM   12  C19 UNL     1      10.040  36.918  19.594  1.00  0.00     0.124 C 
HETATM   13  N3  UNL     1       8.907  35.908  19.595  1.00  0.00    -0.407 N 
HETATM   14  C20 UNL     1       7.592  36.518  19.701  1.00  0.00     0.117 C 
HETATM   15  C21 UNL     1       6.499  35.548  19.257  1.00  0.00     0.019 C 
HETATM   16  C22 UNL     1       6.639  34.148  19.851  1.00  0.00     0.004 C 
HETATM   17  C23 UNL     1       7.741  34.068  20.897  1.00  0.00     0.026 C 
HETATM   18  C24 UNL     1       9.089  34.577  20.345  1.00  0.00     0.086 C 
HETATM   19  C25 UNL     1      12.637  36.047  20.509  1.00  0.00     0.122 C 
ENDROOT
BRANCH   2  20
HETATM   20  C2  UNL     1      14.196  36.700  17.054  1.00  0.00     0.081 A 
HETATM   21  C3  UNL     1      14.716  35.857  16.095  1.00  0.00     0.108 A 
HETATM   22  N1  UNL     1      15.582  36.253  15.133  1.00  0.00    -0.363 N 
HETATM   23  C4  UNL     1      16.005  37.543  15.112  1.00  0.00     0.067 A 
ATOM     24  H1  UNL     1      15.913  35.590  14.432  1.00  0.00     0.165 HD
HETATM   25  C5  UNL     1      16.898  38.011  14.136  1.00  0.00     0.061 A 
HETATM   26  C9  UNL     1      15.564  38.469  16.084  1.00  0.00     0.026 A 
HETATM   27 CL1  UNL     1      17.489  36.947  12.898  1.00  0.00    -0.082 Cl
HETATM   28  C6  UNL     1      17.354  39.334  14.108  1.00  0.00     0.026 A 
HETATM   29  C7  UNL     1      16.919  40.234  15.070  1.00  0.00     0.003 A 
HETATM   30  C8  UNL     1      16.031  39.802  16.052  1.00  0.00     0.017 A 
HETATM   31  C10 UNL     1      14.663  38.013  17.068  1.00  0.00     0.095 A 
BRANCH  31  32
HETATM   32  O2  UNL     1      14.261  38.900  18.043  1.00  0.00    -0.359 OA
HETATM   33  H5  UNL     1      13.879  38.379  18.788  1.00  0.00     0.217 HD
ENDBRANCH  31  32
ENDBRANCH   2  20
TORSDOF 2
ENDMDL
