MODEL 1
REMARK minimizedAffinity -7.6533246
REMARK CNNscore 0.424004704
REMARK CNNaffinity 6.84982538
REMARK  5 active torsions:
REMARK  status: ('A' for Active; 'I' for Inactive)
REMARK    1  A    between atoms: C2_2  and  C3_3 
REMARK    2  A    between atoms: C2_2  and  C9_10 
REMARK    3  A    between atoms: C3_3  and  C4_4 
REMARK    4  A    between atoms: C5_5  and  C6_6 
REMARK    5  A    between atoms: C6_6  and  O1_9 
ROOT
HETATM    1  C9  UNL     1      -1.184  10.539  16.248  1.00  0.00    -0.002 C 
HETATM    2  C10 UNL     1       0.067  10.208  17.114  1.00  0.00     0.006 C 
HETATM    3  C11 UNL     1       0.948   9.250  16.288  1.00  0.00     0.011 C 
HETATM    4  C12 UNL     1       0.417   9.374  14.844  1.00  0.00    -0.032 C 
HETATM    5  C13 UNL     1       1.069  10.672  14.254  1.00  0.00     0.016 C 
HETATM    6  C14 UNL     1       0.722   8.159  13.911  1.00  0.00     0.003 C 
HETATM    7  C15 UNL     1       2.236   8.008  13.612  1.00  0.00     0.007 C 
HETATM    8  C16 UNL     1       2.505   6.834  12.675  1.00  0.00     0.011 C 
HETATM    9  C17 UNL     1       1.841   6.993  11.265  1.00  0.00    -0.030 C 
HETATM   10  C18 UNL     1       1.284   5.600  10.875  1.00  0.00     0.016 C 
HETATM   11  C19 UNL     1       0.751   8.125  11.316  1.00  0.00     0.003 C 
HETATM   12  C20 UNL     1       0.016   8.317   9.971  1.00  0.00     0.013 C 
HETATM   13  C21 UNL     1       0.845   8.005   8.732  1.00  0.00     0.079 C 
HETATM   14  C22 UNL     1       2.336   8.060   8.953  1.00  0.00     0.131 C 
HETATM   15  O2  UNL     1       3.067   8.538   8.074  1.00  0.00    -0.298 OA
HETATM   16  C23 UNL     1       2.930   7.462  10.226  1.00  0.00     0.060 C 
HETATM   17  C24 UNL     1       3.956   6.399   9.817  1.00  0.00     0.018 C 
HETATM   18  C25 UNL     1      -0.185   8.131  12.596  1.00  0.00    -0.035 C 
HETATM   19  C26 UNL     1      -1.097   6.870  12.607  1.00  0.00     0.016 C 
HETATM   20  C27 UNL     1      -1.167   9.353  12.514  1.00  0.00     0.011 C 
HETATM   21  C28 UNL     1      -1.878   9.798  13.810  1.00  0.00     0.011 C 
HETATM   22  C29 UNL     1      -1.136   9.458  15.120  1.00  0.00    -0.032 C 
HETATM   23  C30 UNL     1      -1.735   8.132  15.684  1.00  0.00     0.016 C 
ENDROOT
BRANCH   1  24
HETATM   24  C2  UNL     1      -2.458  10.864  17.085  1.00  0.00    -0.010 C 
HETATM   25  C1  UNL     1      -2.876   9.853  18.163  1.00  0.00     0.010 C 
BRANCH  24  26
HETATM   26  C3  UNL     1      -3.652  11.223  16.168  1.00  0.00     0.031 C 
BRANCH  26  27
HETATM   27  C4  UNL     1      -4.283  10.028  15.505  1.00  0.00    -0.027 C 
HETATM   28  C5  UNL     1      -5.475   9.519  15.853  1.00  0.00     0.006 C 
BRANCH  28  29
HETATM   29  C6  UNL     1      -6.143   8.310  15.233  1.00  0.00     0.068 C 
HETATM   30  C7  UNL     1      -5.559   8.008  13.849  1.00  0.00     0.050 C 
HETATM   31  C8  UNL     1      -7.656   8.528  15.134  1.00  0.00     0.050 C 
BRANCH  29  32
HETATM   32  O1  UNL     1      -5.927   7.166  16.063  1.00  0.00    -0.387 OA
HETATM   33  H15 UNL     1      -4.974   6.955  16.006  1.00  0.00     0.211 HD
ENDBRANCH  29  32
ENDBRANCH  28  29
ENDBRANCH  26  27
ENDBRANCH  24  26
ENDBRANCH   1  24
TORSDOF 5
ENDMDL
