MODEL 1
REMARK minimizedAffinity -8.6132803
REMARK CNNscore 0.672702193
REMARK CNNaffinity 7.17382956
REMARK  13 active torsions:
REMARK  status: ('A' for Active; 'I' for Inactive)
REMARK    1  A    between atoms: C19_21  and  O3_22 
REMARK    2  A    between atoms: C19_21  and  C20_23 
REMARK    3  A    between atoms: C20_23  and  C21_25 
REMARK    4  A    between atoms: C21_25  and  O5_26 
REMARK    5  A    between atoms: O5_26  and  C22_27 
REMARK    6  A    between atoms: C22_27  and  C23_29 
REMARK    7  A    between atoms: C23_29  and  C24_30 
REMARK    8  A    between atoms: C24_30  and  C25_31 
REMARK       I    between atoms: C25_31  and  N1_33 
REMARK    9  A    between atoms: N1_33  and  C26_34 
REMARK   10  A    between atoms: C26_34  and  C27_35 
REMARK   11  A    between atoms: C27_35  and  C28_36 
REMARK   12  A    between atoms: C27_35  and  C29_39 
REMARK   13  A    between atoms: C28_36  and  O9_38 
ROOT
HETATM    1  C20 UNL     1      -7.446   5.563  15.042  1.00  0.00     0.185 C 
HETATM    2  O4  UNL     1      -7.308   4.341  15.131  1.00  0.00    -0.292 OA
ENDROOT
BRANCH   1   3
HETATM    3  C19 UNL     1      -6.624   6.418  14.032  1.00  0.00     0.128 C 
HETATM    4  C14 UNL     1      -5.087   6.153  14.038  1.00  0.00     0.005 C 
HETATM    5  C13 UNL     1      -4.603   4.956  13.210  1.00  0.00     0.091 C 
HETATM    6  C15 UNL     1      -4.554   6.021  15.490  1.00  0.00     0.019 C 
HETATM    7  C16 UNL     1      -4.583   7.432  13.316  1.00  0.00     0.002 C 
HETATM    8  C12 UNL     1      -3.088   5.008  13.072  1.00  0.00     0.133 C 
HETATM    9  C11 UNL     1      -2.491   6.299  12.482  1.00  0.00     0.072 C 
HETATM   10  O2  UNL     1      -2.416   4.025  13.380  1.00  0.00    -0.297 OA
HETATM   11  C2  UNL     1      -0.927   6.317  12.341  1.00  0.00    -0.009 C 
HETATM   12  C10 UNL     1      -3.052   7.534  13.246  1.00  0.00     0.003 C 
HETATM   13  C1  UNL     1      -0.207   6.107  13.694  1.00  0.00     0.021 C 
HETATM   14  C3  UNL     1      -0.501   5.200  11.340  1.00  0.00     0.022 C 
HETATM   15  C7  UNL     1      -0.490   7.689  11.794  1.00  0.00    -0.067 C 
HETATM   16  C4  UNL     1       0.926   5.341  10.827  1.00  0.00     0.084 C 
HETATM   17  C5  UNL     1       1.127   6.698  10.208  1.00  0.00     0.149 C 
HETATM   18  O1  UNL     1       1.911   6.890   9.282  1.00  0.00    -0.293 OA
HETATM   19  C6  UNL     1       0.407   7.846  10.803  1.00  0.00     0.053 C 
HETATM   20  C8  UNL     1      -1.091   8.911  12.448  1.00  0.00     0.035 C 
HETATM   21  C9  UNL     1      -2.609   8.824  12.544  1.00  0.00     0.010 C 
HETATM   22  C17 UNL     1      -5.346   8.557  14.002  1.00  0.00     0.009 C 
HETATM   23  C18 UNL     1      -6.703   7.934  14.382  1.00  0.00     0.047 C 
BRANCH   3  24
HETATM   24  O3  UNL     1      -7.126   6.313  12.695  1.00  0.00    -0.381 OA
HETATM   25  H25 UNL     1      -7.580   5.454  12.597  1.00  0.00     0.211 HD
ENDBRANCH   3  24
ENDBRANCH   1   3
BRANCH   1  26
HETATM   26  C21 UNL     1      -8.502   6.271  15.884  1.00  0.00     0.260 C 
BRANCH  26  27
HETATM   27  O5  UNL     1      -9.638   6.604  15.088  1.00  0.00    -0.314 OA
BRANCH  27  28
HETATM   28  C22 UNL     1     -10.137   7.848  15.333  1.00  0.00     0.259 C 
HETATM   29  O6  UNL     1     -10.034   8.451  16.391  1.00  0.00    -0.265 OA
BRANCH  28  30
HETATM   30  C23 UNL     1     -10.862   8.373  14.118  1.00  0.00     0.120 C 
BRANCH  30  31
HETATM   31  C24 UNL     1     -11.968   7.417  13.694  1.00  0.00     0.112 C 
BRANCH  31  32
HETATM   32  C25 UNL     1     -13.293   7.778  14.335  1.00  0.00     0.218 C 
HETATM   33  O7  UNL     1     -13.441   7.908  15.546  1.00  0.00    -0.274 OA
HETATM   34  N1  UNL     1     -14.317   7.925  13.427  1.00  0.00    -0.360 N 
HETATM   35  H32 UNL     1     -14.079   8.047  12.445  1.00  0.00     0.162 HD
BRANCH  34  36
HETATM   36  C26 UNL     1     -15.647   8.328  13.863  1.00  0.00     0.142 C 
BRANCH  36  37
HETATM   37  C27 UNL     1     -16.800   7.518  13.244  1.00  0.00     0.134 C 
BRANCH  37  38
HETATM   38  C28 UNL     1     -16.802   7.838  11.761  1.00  0.00     0.150 C 
HETATM   39  O8  UNL     1     -17.658   8.461  11.150  1.00  0.00    -0.649 OA
BRANCH  38  40
HETATM   40  O9  UNL     1     -15.729   7.341  11.111  1.00  0.00    -0.776 OA
HETATM   41  H36 UNL     1     -15.856   7.620  10.179  1.00  0.00     0.167 HD
ENDBRANCH  38  40
ENDBRANCH  37  38
BRANCH  37  42
HETATM   42  C29 UNL     1     -16.835   6.016  13.508  1.00  0.00    -0.042 A 
HETATM   43  C30 UNL     1     -17.577   5.116  12.727  1.00  0.00     0.008 A 
HETATM   44  C31 UNL     1     -17.557   3.744  12.999  1.00  0.00     0.001 A 
HETATM   45  C32 UNL     1     -16.788   3.245  14.046  1.00  0.00     0.000 A 
HETATM   46  C33 UNL     1     -16.025   4.115  14.817  1.00  0.00     0.001 A 
HETATM   47  C34 UNL     1     -16.043   5.486  14.545  1.00  0.00     0.008 A 
ENDBRANCH  37  42
ENDBRANCH  36  37
ENDBRANCH  34  36
ENDBRANCH  31  32
ENDBRANCH  30  31
ENDBRANCH  28  30
ENDBRANCH  27  28
ENDBRANCH  26  27
ENDBRANCH   1  26
TORSDOF 13
ENDMDL
