MODEL 1
REMARK minimizedAffinity -6.71757603
REMARK CNNscore 0.294851065
REMARK CNNaffinity 7.03129625
REMARK  12 active torsions:
REMARK  status: ('A' for Active; 'I' for Inactive)
REMARK    1  A    between atoms: C2_2  and  C4_4 
REMARK    2  A    between atoms: C13_13  and  C14_14 
REMARK    3  A    between atoms: C14_14  and  C16_16 
REMARK    4  A    between atoms: C16_16  and  C17_17 
REMARK    5  A    between atoms: C17_17  and  C18_18 
REMARK    6  A    between atoms: C19_19  and  C21_21 
REMARK    7  A    between atoms: C21_21  and  O2_23 
REMARK    8  A    between atoms: C27_29  and  C28_30 
REMARK    9  A    between atoms: C28_30  and  C29_31 
REMARK   10  A    between atoms: C29_31  and  C30_32 
REMARK   11  A    between atoms: C30_32  and  O4_34 
REMARK   12  A    between atoms: O4_34  and  C31_35 
ROOT
HETATM    1  C4  UNL     1      -2.446   3.976  12.288  1.00  0.00     0.022 C 
HETATM    2  C5  UNL     1      -3.577   3.906  11.249  1.00  0.00     0.010 C 
HETATM    3  C6  UNL     1      -4.921   3.885  11.957  1.00  0.00     0.007 C 
HETATM    4  C7  UNL     1      -5.228   5.238  12.626  1.00  0.00     0.004 C 
HETATM    5  C8  UNL     1      -4.068   5.737  13.536  1.00  0.00    -0.027 A 
HETATM    6  C9  UNL     1      -4.429   6.443  14.874  1.00  0.00     0.011 C 
HETATM    7  C10 UNL     1      -5.904   6.674  15.243  1.00  0.00     0.011 C 
HETATM    8  C11 UNL     1      -6.842   6.617  14.044  1.00  0.00    -0.032 C 
HETATM    9  C12 UNL     1      -6.553   7.847  13.148  1.00  0.00     0.016 C 
HETATM   10  C13 UNL     1      -8.361   6.530  14.398  1.00  0.00    -0.002 C 
HETATM   11  C22 UNL     1      -8.979   5.811  13.176  1.00  0.00     0.006 C 
HETATM   12  C23 UNL     1      -7.817   5.157  12.407  1.00  0.00     0.011 C 
HETATM   13  C24 UNL     1      -6.599   5.233  13.347  1.00  0.00    -0.032 C 
HETATM   14  C25 UNL     1      -6.674   4.001  14.308  1.00  0.00     0.016 C 
HETATM   15  C26 UNL     1      -2.964   6.481  12.795  1.00  0.00     0.022 A 
HETATM   16  C27 UNL     1      -2.636   5.109  13.325  1.00  0.00    -0.024 A 
ENDROOT
BRANCH  10  17
HETATM   17  C14 UNL     1      -9.136   7.777  14.924  1.00  0.00    -0.014 C 
HETATM   18  C15 UNL     1      -9.241   7.667  16.458  1.00  0.00     0.010 C 
BRANCH  17  19
HETATM   19  C16 UNL     1     -10.543   8.022  14.319  1.00  0.00     0.008 C 
BRANCH  19  20
HETATM   20  C17 UNL     1     -11.547   6.895  14.606  1.00  0.00     0.028 C 
BRANCH  20  21
HETATM   21  C18 UNL     1     -12.639   6.857  13.569  1.00  0.00    -0.013 C 
HETATM   22  C19 UNL     1     -13.924   7.252  13.682  1.00  0.00     0.008 C 
HETATM   23  C20 UNL     1     -14.860   7.235  12.508  1.00  0.00     0.055 C 
BRANCH  22  24
HETATM   24  C21 UNL     1     -14.542   7.758  14.929  1.00  0.00     0.171 C 
HETATM   25  O1  UNL     1     -15.152   7.082  15.739  1.00  0.00    -0.646 OA
BRANCH  24  26
HETATM   26  O2  UNL     1     -14.286   9.053  15.165  1.00  0.00    -0.773 OA
HETATM   27  H32 UNL     1     -14.721   9.222  16.024  1.00  0.00     0.167 HD
ENDBRANCH  24  26
ENDBRANCH  22  24
ENDBRANCH  20  21
ENDBRANCH  19  20
ENDBRANCH  17  19
ENDBRANCH  10  17
BRANCH  16  28
HETATM   28  C28 UNL     1      -1.765   4.887  14.577  1.00  0.00     0.020 C 
BRANCH  28  29
HETATM   29  C29 UNL     1      -0.970   6.078  15.093  1.00  0.00     0.112 C 
BRANCH  29  30
HETATM   30  C30 UNL     1       0.141   6.453  14.146  1.00  0.00     0.258 C 
HETATM   31  O3  UNL     1       1.042   5.695  13.814  1.00  0.00    -0.265 OA
BRANCH  30  32
HETATM   32  O4  UNL     1       0.010   7.745  13.740  1.00  0.00    -0.322 OA
BRANCH  32  33
HETATM   33  C31 UNL     1       0.782   8.118  12.589  1.00  0.00     0.174 C 
HETATM   34  C32 UNL     1       1.869   9.105  12.972  1.00  0.00     0.034 C 
ENDBRANCH  32  33
ENDBRANCH  30  32
ENDBRANCH  29  30
ENDBRANCH  28  29
ENDBRANCH  16  28
BRANCH   1  35
HETATM   35  C2  UNL     1      -1.084   3.954  11.593  1.00  0.00    -0.088 C 
HETATM   36  C1  UNL     1      -0.308   2.857  11.618  1.00  0.00     0.014 C 
HETATM   37  C3  UNL     1      -0.626   5.190  10.866  1.00  0.00     0.043 C 
ENDBRANCH   1  35
TORSDOF 12
ENDMDL
