MODEL 1
REMARK minimizedAffinity -8.01200485
REMARK CNNscore 0.424627602
REMARK CNNaffinity 5.596838
REMARK  12 active torsions:
REMARK  status: ('A' for Active; 'I' for Inactive)
REMARK    1  A    between atoms: C2_2  and  C27_36 
REMARK    2  A    between atoms: C3_3  and  C4_4 
REMARK    3  A    between atoms: C4_4  and  C5_5 
REMARK    4  A    between atoms: C5_5  and  C6_6 
REMARK    5  A    between atoms: C6_6  and  C8_8 
REMARK    6  A    between atoms: C10_10  and  O1_11 
REMARK    7  A    between atoms: O1_11  and  S1_12 
REMARK    8  A    between atoms: C11_16  and  O5_17 
REMARK    9  A    between atoms: C12_18  and  O6_19 
REMARK   10  A    between atoms: C14_21  and  O7_22 
REMARK   11  A    between atoms: C17_25  and  O8_26 
REMARK   12  A    between atoms: C27_36  and  O9_37 
ROOT
HETATM    1  C8  UNL     1     -12.297  46.742 -27.537  1.00  0.00     0.005 C 
HETATM    2  C9  UNL     1     -11.628  47.297 -26.233  1.00  0.00     0.044 C 
HETATM    3  C10 UNL     1     -10.105  47.185 -26.427  1.00  0.00     0.201 C 
HETATM    4  C11 UNL     1      -9.949  47.141 -27.954  1.00  0.00     0.162 A 
HETATM    5  C12 UNL     1      -8.549  46.825 -28.577  1.00  0.00     0.139 A 
HETATM    6  C13 UNL     1      -7.531  47.978 -28.423  1.00  0.00     0.093 C 
HETATM    7  C14 UNL     1      -6.175  47.654 -29.052  1.00  0.00     0.127 C 
HETATM    8  C15 UNL     1      -6.332  47.406 -30.559  1.00  0.00     0.025 C 
HETATM    9  C16 UNL     1      -4.980  47.173 -31.261  1.00  0.00     0.039 C 
HETATM   10  C17 UNL     1      -5.129  46.996 -32.776  1.00  0.00     0.118 C 
HETATM   11  C18 UNL     1      -6.570  47.069 -33.271  1.00  0.00     0.032 C 
HETATM   12  C19 UNL     1      -7.581  46.261 -32.442  1.00  0.00     0.012 C 
HETATM   13  C20 UNL     1      -7.357  46.277 -30.890  1.00  0.00    -0.030 C 
HETATM   14  C21 UNL     1      -6.807  44.883 -30.488  1.00  0.00     0.016 C 
HETATM   15  C22 UNL     1      -8.715  46.595 -30.134  1.00  0.00     0.050 C 
HETATM   16  C23 UNL     1      -9.871  45.627 -30.481  1.00  0.00     0.011 C 
HETATM   17  C24 UNL     1     -11.204  46.037 -29.832  1.00  0.00     0.015 C 
HETATM   18  C25 UNL     1     -11.080  46.099 -28.302  1.00  0.00     0.013 C 
HETATM   19  C26 UNL     1     -10.837  44.657 -27.770  1.00  0.00     0.020 C 
HETATM   20 NA1  UNL     1     -10.697  46.645 -28.345  1.00  0.00    -0.358 Na
ATOM     21  HA1 UNL     1     -11.652  46.324 -28.503  1.00  0.00     0.159 HD
ENDROOT
BRANCH   1  22
HETATM   22  C6  UNL     1     -13.562  45.887 -27.230  1.00  0.00    -0.013 C 
HETATM   23  C7  UNL     1     -14.540  45.860 -28.412  1.00  0.00     0.010 C 
BRANCH  22  24
HETATM   24  C5  UNL     1     -14.297  46.417 -25.968  1.00  0.00     0.008 C 
BRANCH  24  25
HETATM   25  C4  UNL     1     -15.385  45.459 -25.464  1.00  0.00     0.028 C 
BRANCH  25  26
HETATM   26  C3  UNL     1     -16.555  46.213 -24.889  1.00  0.00    -0.022 C 
HETATM   27  C2  UNL     1     -17.858  46.102 -25.215  1.00  0.00    -0.064 C 
HETATM   28  C1  UNL     1     -18.410  45.190 -26.279  1.00  0.00     0.045 C 
BRANCH  27  29
HETATM   29  C27 UNL     1     -18.902  46.919 -24.493  1.00  0.00     0.197 C 
BRANCH  29  30
HETATM   30  O9  UNL     1     -20.170  46.679 -25.084  1.00  0.00    -0.397 OA
HETATM   31  H45 UNL     1     -20.072  46.892 -26.028  1.00  0.00     0.209 HD
ENDBRANCH  29  30
ENDBRANCH  27  29
ENDBRANCH  25  26
ENDBRANCH  24  25
ENDBRANCH  22  24
ENDBRANCH   1  22
BRANCH   3  32
HETATM   32  O1  UNL     1      -9.432  48.287 -25.858  1.00  0.00    -0.246 OA
BRANCH  32  33
HETATM   33  S1  UNL     1      -8.462  47.975 -24.580  1.00  0.00     0.252 S 
HETATM   34  O2  UNL     1      -7.456  47.063 -25.135  1.00  0.00    -0.572 OA
HETATM   35  O3  UNL     1      -7.942  49.292 -24.233  1.00  0.00    -0.572 OA
HETATM   36  O4  UNL     1      -9.366  47.374 -23.609  1.00  0.00    -0.572 OA
ENDBRANCH  32  33
ENDBRANCH   3  32
BRANCH   4  37
HETATM   37  O5  UNL     1     -10.349  48.445 -28.470  1.00  0.00    -0.368 OA
HETATM   38  H17 UNL     1      -9.977  49.096 -27.838  1.00  0.00     0.212 HD
ENDBRANCH   4  37
BRANCH   5  39
HETATM   39  O6  UNL     1      -8.000  45.674 -27.935  1.00  0.00    -0.370 OA
HETATM   40  H18 UNL     1      -7.727  45.944 -27.019  1.00  0.00     0.212 HD
ENDBRANCH   5  39
BRANCH   7  41
HETATM   41  O7  UNL     1      -5.309  48.776 -28.853  1.00  0.00    -0.395 OA
HETATM   42  H22 UNL     1      -5.277  48.928 -27.888  1.00  0.00     0.210 HD
ENDBRANCH   7  41
BRANCH  10  43
HETATM   43  O8  UNL     1      -4.530  45.770 -33.199  1.00  0.00    -0.396 OA
HETATM   44  H27 UNL     1      -5.075  45.040 -32.863  1.00  0.00     0.210 HD
ENDBRANCH  10  43
TORSDOF 12
ENDMDL
