MODEL 1
REMARK minimizedAffinity -9.31491184
REMARK CNNscore 0.689720988
REMARK CNNaffinity 7.89206362
REMARK  9 active torsions:
REMARK  status: ('A' for Active; 'I' for Inactive)
REMARK    1  A    between atoms: O1_2  and  C2_3 
REMARK    2  A    between atoms: C2_3  and  C3_4 
REMARK    3  A    between atoms: C3_4  and  N1_5 
REMARK       I    between atoms: N1_5  and  C4_6 
REMARK    4  A    between atoms: C4_6  and  C5_8 
REMARK    5  A    between atoms: C5_8  and  C7_10 
REMARK    6  A    between atoms: C15_20  and  C16_21 
REMARK    7  A    between atoms: C16_21  and  O3_22 
REMARK    8  A    between atoms: O3_22  and  C17_23 
REMARK    9  A    between atoms: C26_34  and  O4_35 
ROOT
HETATM    1  C7  UNL     1      -6.465   5.835  13.998  1.00  0.00     0.027 C 
HETATM    2  C8  UNL     1      -5.810   5.902  15.382  1.00  0.00     0.009 C 
HETATM    3  C9  UNL     1      -4.437   6.576  15.329  1.00  0.00     0.010 C 
HETATM    4  C10 UNL     1      -3.597   6.274  14.053  1.00  0.00    -0.033 C 
HETATM    5  C11 UNL     1      -3.691   7.482  13.082  1.00  0.00     0.016 C 
HETATM    6  C12 UNL     1      -2.103   6.119  14.496  1.00  0.00     0.058 C 
HETATM    7  C13 UNL     1      -1.286   5.523  13.401  1.00  0.00     0.008 A 
HETATM    8  C14 UNL     1      -1.778   4.814  12.328  1.00  0.00     0.027 A 
HETATM    9  N2  UNL     1      -0.826   4.399  11.420  1.00  0.00    -0.354 N 
ATOM     10  H2  UNL     1      -1.022   3.905  10.549  1.00  0.00     0.166 HD
HETATM   11  C15 UNL     1       0.377   4.736  11.847  1.00  0.00     0.076 A 
HETATM   12  S1  UNL     1       0.410   5.625  13.326  1.00  0.00    -0.077 SA
HETATM   13  C23 UNL     1      -3.247   4.565  12.096  1.00  0.00     0.040 C 
HETATM   14  C24 UNL     1      -3.488   3.120  11.640  1.00  0.00     0.017 C 
HETATM   15  C25 UNL     1      -4.085   4.942  13.376  1.00  0.00     0.033 C 
HETATM   16  C26 UNL     1      -5.611   4.918  13.084  1.00  0.00     0.128 C 
ENDROOT
BRANCH   1  17
HETATM   17  C5  UNL     1      -7.962   5.421  14.089  1.00  0.00     0.080 C 
HETATM   18  C6  UNL     1      -8.462   4.708  12.827  1.00  0.00     0.020 C 
BRANCH  17  19
HETATM   19  C4  UNL     1      -8.866   6.623  14.368  1.00  0.00     0.222 C 
HETATM   20  N1  UNL     1     -10.167   6.507  13.934  1.00  0.00    -0.359 N 
HETATM   21  H8  UNL     1     -10.512   5.625  13.583  1.00  0.00     0.162 HD
HETATM   22  O2  UNL     1      -8.449   7.627  14.938  1.00  0.00    -0.273 OA
BRANCH  20  23
HETATM   23  C3  UNL     1     -11.130   7.579  14.130  1.00  0.00     0.148 C 
BRANCH  23  24
HETATM   24  C2  UNL     1     -12.021   7.849  12.911  1.00  0.00     0.186 C 
BRANCH  24  25
HETATM   25  O1  UNL     1     -13.185   7.012  12.916  1.00  0.00    -0.394 OA
HETATM   26  C1  UNL     1     -13.457   6.444  14.189  1.00  0.00     0.201 C 
ENDBRANCH  24  25
ENDBRANCH  23  24
ENDBRANCH  20  23
ENDBRANCH  17  19
ENDBRANCH   1  17
BRANCH  16  27
HETATM   27  O4  UNL     1      -6.042   3.567  13.271  1.00  0.00    -0.395 OA
HETATM   28  H35 UNL     1      -6.387   3.233  12.425  1.00  0.00     0.210 HD
ENDBRANCH  16  27
BRANCH  11  29
HETATM   29  C16 UNL     1       1.656   4.430  11.125  1.00  0.00     0.240 C 
BRANCH  29  30
HETATM   30  O3  UNL     1       2.335   5.672  10.917  1.00  0.00    -0.345 OA
BRANCH  30  31
HETATM   31  C17 UNL     1       2.035   6.361   9.773  1.00  0.00     0.070 A 
HETATM   32  C18 UNL     1       2.702   6.252   8.550  1.00  0.00     0.037 A 
HETATM   33  C19 UNL     1       2.290   7.018   7.455  1.00  0.00     0.004 A 
HETATM   34  C20 UNL     1       1.210   7.891   7.577  1.00  0.00     0.024 A 
HETATM   35  C21 UNL     1       0.546   7.998   8.797  1.00  0.00     0.036 A 
HETATM   36 CL1  UNL     1      -0.785   9.079   8.952  1.00  0.00    -0.084 Cl
HETATM   37  C22 UNL     1       0.955   7.239   9.891  1.00  0.00     0.060 A 
ENDBRANCH  30  31
ENDBRANCH  29  30
ENDBRANCH  11  29
TORSDOF 9
ENDMDL
