MODEL 1
REMARK minimizedAffinity -11.0680828
REMARK  7 active torsions:
REMARK  status: ('A' for Active; 'I' for Inactive)
REMARK    1  A    between atoms: C4_4  and  C5_5 
REMARK    2  A    between atoms: C5_5  and  C6_6 
REMARK    3  A    between atoms: C6_6  and  C7_7 
REMARK    4  A    between atoms: C7_7  and  C9_9 
REMARK    5  A    between atoms: C18_18  and  O1_19 
REMARK    6  A    between atoms: O1_19  and  C19_20 
REMARK    7  A    between atoms: C19_20  and  C20_22 
ROOT
HETATM    1  C9  UNL     1      -6.331   6.602  13.914  1.00  0.00    -0.002 C 
HETATM    2  C10 UNL     1      -6.346   8.131  14.187  1.00  0.00     0.006 C 
HETATM    3  C11 UNL     1      -4.924   8.656  13.959  1.00  0.00     0.010 C 
HETATM    4  C12 UNL     1      -4.185   7.476  13.337  1.00  0.00     0.023 C 
HETATM    5  C13 UNL     1      -2.677   7.451  13.286  1.00  0.00    -0.070 C 
HETATM    6  C14 UNL     1      -1.907   8.515  13.560  1.00  0.00     0.004 C 
HETATM    7  C15 UNL     1      -0.497   8.532  13.273  1.00  0.00     0.004 C 
HETATM    8  C16 UNL     1       0.190   7.425  12.947  1.00  0.00    -0.069 C 
HETATM    9  C17 UNL     1       1.678   7.490  12.685  1.00  0.00     0.067 C 
HETATM   10  C18 UNL     1       2.094   6.700  11.442  1.00  0.00     0.136 C 
HETATM   11  C26 UNL     1       1.575   5.263  11.527  1.00  0.00     0.034 C 
HETATM   12  C27 UNL     1       0.055   5.241  11.673  1.00  0.00     0.017 C 
HETATM   13  C28 UNL     1      -0.487   6.049  12.889  1.00  0.00    -0.013 C 
HETATM   14  C29 UNL     1      -0.100   5.323  14.202  1.00  0.00     0.021 C 
HETATM   15  C30 UNL     1      -2.072   6.166  12.719  1.00  0.00     0.027 C 
HETATM   16  C31 UNL     1      -2.824   4.890  13.188  1.00  0.00     0.011 C 
HETATM   17  C32 UNL     1      -4.355   5.018  13.217  1.00  0.00     0.011 C 
HETATM   18  C33 UNL     1      -4.812   6.243  14.036  1.00  0.00    -0.033 C 
HETATM   19  C34 UNL     1      -4.382   6.117  15.518  1.00  0.00     0.016 C 
ENDROOT
BRANCH  10  20
HETATM   20  O1  UNL     1       3.535   6.688  11.395  1.00  0.00    -0.312 OA
BRANCH  20  21
HETATM   21  C19 UNL     1       4.086   6.189  10.259  1.00  0.00     0.293 C 
HETATM   22  O2  UNL     1       5.019   5.405  10.199  1.00  0.00    -0.259 OA
BRANCH  21  23
HETATM   23  C20 UNL     1       3.389   6.728   9.059  1.00  0.00     0.039 A 
HETATM   24  C21 UNL     1       2.876   5.812   8.127  1.00  0.00     0.017 A 
HETATM   25  C22 UNL     1       2.213   6.266   6.986  1.00  0.00     0.001 A 
HETATM   26  C23 UNL     1       2.059   7.634   6.766  1.00  0.00     0.000 A 
HETATM   27  C24 UNL     1       2.569   8.552   7.686  1.00  0.00     0.001 A 
HETATM   28  C25 UNL     1       3.232   8.102   8.831  1.00  0.00     0.017 A 
ENDBRANCH  21  23
ENDBRANCH  20  21
ENDBRANCH  10  20
BRANCH   1  29
HETATM   29  C7  UNL     1      -7.377   5.830  14.774  1.00  0.00    -0.014 C 
HETATM   30  C8  UNL     1      -7.136   6.017  16.279  1.00  0.00     0.010 C 
BRANCH  29  31
HETATM   31  C6  UNL     1      -7.370   4.299  14.491  1.00  0.00     0.008 C 
BRANCH  31  32
HETATM   32  C5  UNL     1      -7.912   3.896  13.113  1.00  0.00     0.028 C 
BRANCH  32  33
HETATM   33  C4  UNL     1      -7.332   2.577  12.675  1.00  0.00    -0.025 C 
HETATM   34  C2  UNL     1      -6.409   2.350  11.719  1.00  0.00    -0.091 C 
HETATM   35  C1  UNL     1      -5.931   0.950  11.435  1.00  0.00     0.042 C 
HETATM   36  C3  UNL     1      -5.774   3.403  10.853  1.00  0.00     0.042 C 
ENDBRANCH  32  33
ENDBRANCH  31  32
ENDBRANCH  29  31
ENDBRANCH   1  29
TORSDOF 7
ENDMDL
