MODEL 1
REMARK minimizedAffinity -9.37130642
REMARK  5 active torsions:
REMARK  status: ('A' for Active; 'I' for Inactive)
REMARK    1  A    between atoms: C2_2  and  C4_4 
REMARK    2  A    between atoms: C7_7  and  C8_8 
REMARK    3  A    between atoms: C8_8  and  O2_10 
REMARK    4  A    between atoms: C22_25  and  C24_27 
REMARK    5  A    between atoms: C24_27  and  O4_28 
ROOT
HETATM    1  C4  UNL     1      -7.969   5.515  13.905  1.00  0.00     0.019 C 
HETATM    2  C5  UNL     1      -9.257   6.106  14.540  1.00  0.00     0.011 C 
HETATM    3  C6  UNL     1      -8.905   7.516  15.043  1.00  0.00     0.021 C 
HETATM    4  C7  UNL     1      -7.389   7.470  15.249  1.00  0.00     0.050 C 
HETATM    5  C9  UNL     1      -6.686   8.836  15.235  1.00  0.00     0.022 C 
HETATM    6  C10 UNL     1      -5.152   8.660  15.205  1.00  0.00     0.011 C 
HETATM    7  C11 UNL     1      -4.613   7.770  14.029  1.00  0.00    -0.032 C 
HETATM    8  C12 UNL     1      -4.863   8.606  12.728  1.00  0.00     0.016 C 
HETATM    9  C13 UNL     1      -5.438   6.418  13.983  1.00  0.00     0.000 C 
HETATM   10  C14 UNL     1      -4.964   5.504  12.847  1.00  0.00     0.006 C 
HETATM   11  C15 UNL     1      -3.466   5.197  12.933  1.00  0.00     0.006 C 
HETATM   12  C16 UNL     1      -2.597   6.473  12.992  1.00  0.00     0.003 C 
HETATM   13  C17 UNL     1      -1.042   6.212  12.788  1.00  0.00    -0.035 C 
HETATM   14  C18 UNL     1      -0.468   5.191  13.799  1.00  0.00     0.016 C 
HETATM   15  C19 UNL     1      -0.840   5.585  11.358  1.00  0.00     0.017 C 
HETATM   16  C20 UNL     1       0.454   5.968  10.645  1.00  0.00     0.080 C 
HETATM   17  C21 UNL     1       1.539   6.320  11.628  1.00  0.00     0.137 C 
HETATM   18  O3  UNL     1       2.584   5.671  11.671  1.00  0.00    -0.297 OA
HETATM   19  C22 UNL     1       1.262   7.517  12.548  1.00  0.00     0.042 C 
HETATM   20  C23 UNL     1       2.112   7.377  13.826  1.00  0.00     0.026 C 
HETATM   21  C25 UNL     1      -0.290   7.590  12.826  1.00  0.00     0.012 C 
HETATM   22  C26 UNL     1      -0.646   8.415  14.076  1.00  0.00     0.007 C 
HETATM   23  C27 UNL     1      -2.150   8.687  14.164  1.00  0.00     0.011 C 
HETATM   24  C28 UNL     1      -3.031   7.409  14.193  1.00  0.00    -0.032 C 
HETATM   25  C29 UNL     1      -2.785   6.723  15.569  1.00  0.00     0.016 C 
HETATM   26  C30 UNL     1      -6.959   6.687  13.986  1.00  0.00     0.017 C 
ENDROOT
BRANCH   4  27
HETATM   27  C8  UNL     1      -7.157   6.847  16.635  1.00  0.00     0.149 C 
HETATM   28  O1  UNL     1      -7.719   7.190  17.667  1.00  0.00    -0.649 OA
BRANCH  27  29
HETATM   29  O2  UNL     1      -6.290   5.826  16.681  1.00  0.00    -0.776 OA
HETATM   30  H11 UNL     1      -6.292   5.559  17.624  1.00  0.00     0.167 HD
ENDBRANCH  27  29
ENDBRANCH   4  27
BRANCH   1  31
HETATM   31  C2  UNL     1      -8.282   4.889  12.552  1.00  0.00    -0.088 C 
HETATM   32  C1  UNL     1      -8.693   5.556  11.461  1.00  0.00     0.014 C 
HETATM   33  C3  UNL     1      -8.103   3.392  12.496  1.00  0.00     0.043 C 
ENDBRANCH   1  31
BRANCH  19  34
HETATM   34  C24 UNL     1       1.684   8.800  11.783  1.00  0.00     0.181 C 
BRANCH  34  35
HETATM   35  O4  UNL     1       2.271   9.792  12.613  1.00  0.00    -0.400 OA
HETATM   36  H37 UNL     1       1.602  10.111  13.243  1.00  0.00     0.209 HD
ENDBRANCH  34  35
ENDBRANCH  19  34
TORSDOF 5
ENDMDL
