MODEL 1
REMARK minimizedAffinity -9.56823921
REMARK  2 active torsions:
REMARK  status: ('A' for Active; 'I' for Inactive)
REMARK       I    between atoms: C1_2  and  N1_3 
REMARK    1  A    between atoms: C1_2  and  C14_18 
REMARK    2  A    between atoms: N1_3  and  C2_4 
ROOT
HETATM    1  C2  UNL     1      -7.058   3.920  13.628  1.00  0.00     0.135 C 
HETATM    2  C3  UNL     1      -7.828   2.897  12.758  1.00  0.00     0.032 C 
HETATM    3  C4  UNL     1      -6.939   1.730  12.291  1.00  0.00     0.007 C 
HETATM    4  C5  UNL     1      -5.751   2.217  11.439  1.00  0.00     0.042 C 
HETATM    5  C6  UNL     1      -5.078   3.381  12.087  1.00  0.00    -0.021 A 
HETATM    6  C7  UNL     1      -5.695   4.138  13.063  1.00  0.00     0.040 A 
HETATM    7  N2  UNL     1      -4.811   5.091  13.487  1.00  0.00    -0.355 N 
HETATM    8  C8  UNL     1      -3.644   5.004  12.758  1.00  0.00     0.065 A 
HETATM    9  C9  UNL     1      -2.476   5.775  12.814  1.00  0.00     0.061 A 
HETATM   10 CL1  UNL     1      -2.330   7.090  13.912  1.00  0.00    -0.082 Cl
HETATM   11  C10 UNL     1      -1.426   5.452  11.953  1.00  0.00     0.026 A 
HETATM   12  C11 UNL     1      -1.540   4.387  11.062  1.00  0.00     0.003 A 
HETATM   13  C12 UNL     1      -2.711   3.620  11.013  1.00  0.00     0.014 A 
HETATM   14  C13 UNL     1      -3.784   3.931  11.872  1.00  0.00     0.001 A 
HETATM   15  H9  UNL     1      -4.981   5.767  14.222  1.00  0.00     0.166 HD
ENDROOT
BRANCH   1  16
HETATM   16  N1  UNL     1      -7.739   5.194  13.645  1.00  0.00    -0.347 N 
HETATM   17  C1  UNL     1      -8.002   5.849  14.828  1.00  0.00     0.252 C 
HETATM   18  O1  UNL     1      -7.570   5.480  15.913  1.00  0.00    -0.268 OA
HETATM   19  H1  UNL     1      -8.142   5.520  12.779  1.00  0.00     0.163 HD
BRANCH  17  20
HETATM   20  C14 UNL     1      -8.833   7.083  14.732  1.00  0.00     0.034 A 
HETATM   21  C15 UNL     1     -10.101   6.972  14.151  1.00  0.00     0.018 A 
HETATM   22  C16 UNL     1     -10.937   8.090  14.031  1.00  0.00     0.015 A 
HETATM   23  C17 UNL     1     -10.485   9.340  14.493  1.00  0.00    -0.008 A 
HETATM   24  C18 UNL     1     -11.053  10.644  14.526  1.00  0.00     0.030 A 
HETATM   25  C20 UNL     1      -9.210   9.433  15.052  1.00  0.00     0.043 A 
HETATM   26  C19 UNL     1     -10.126  11.490  15.090  1.00  0.00     0.089 A 
HETATM   27  N3  UNL     1      -9.016  10.751  15.399  1.00  0.00    -0.365 N 
HETATM   28  H17 UNL     1      -8.174  11.118  15.822  1.00  0.00     0.165 HD
HETATM   29  C21 UNL     1      -8.357   8.326  15.182  1.00  0.00     0.047 A 
ENDBRANCH  17  20
ENDBRANCH   1  16
TORSDOF 2
ENDMDL
