MODEL 1
REMARK minimizedAffinity -9.73494053
REMARK  12 active torsions:
REMARK  status: ('A' for Active; 'I' for Inactive)
REMARK    1  A    between atoms: C2_2  and  C3_3 
REMARK    2  A    between atoms: C2_2  and  C26_31 
REMARK    3  A    between atoms: C3_3  and  C4_4 
REMARK    4  A    between atoms: C4_4  and  C5_5 
REMARK    5  A    between atoms: C5_5  and  C7_7 
REMARK    6  A    between atoms: C8_8  and  O1_9 
REMARK    7  A    between atoms: C9_10  and  O2_11 
REMARK    8  A    between atoms: C20_22  and  O3_23 
REMARK    9  A    between atoms: C23_26  and  O4_27 
REMARK   10  A    between atoms: C25_29  and  O5_30 
REMARK   11  A    between atoms: C26_31  and  C28_33 
REMARK   12  A    between atoms: C28_33  and  O6_34 
ROOT
HETATM    1  C7  UNL     1      -2.825  51.909 -22.271  1.00  0.00     0.029 C 
HETATM    2  C8  UNL     1      -4.109  51.032 -22.094  1.00  0.00     0.152 C 
HETATM    3  C9  UNL     1      -3.937  50.232 -20.779  1.00  0.00     0.155 C 
HETATM    4  C10 UNL     1      -2.735  50.890 -20.110  1.00  0.00     0.060 C 
HETATM    5  C11 UNL     1      -1.788  51.201 -21.329  1.00  0.00    -0.029 C 
HETATM    6  C12 UNL     1      -1.187  49.964 -22.046  1.00  0.00     0.016 C 
HETATM    7  C13 UNL     1      -0.630  52.086 -20.819  1.00  0.00     0.011 C 
HETATM    8  C14 UNL     1       0.083  51.503 -19.578  1.00  0.00     0.009 C 
HETATM    9  C15 UNL     1      -0.921  51.215 -18.446  1.00  0.00     0.029 C 
HETATM   10  C16 UNL     1      -0.320  50.853 -17.047  1.00  0.00    -0.031 C 
HETATM   11  C17 UNL     1       0.212  49.400 -16.997  1.00  0.00     0.016 C 
HETATM   12  C18 UNL     1       0.853  51.797 -16.650  1.00  0.00     0.012 C 
HETATM   13  C19 UNL     1       1.296  51.645 -15.189  1.00  0.00     0.032 C 
HETATM   14  C20 UNL     1       0.138  51.719 -14.194  1.00  0.00     0.118 C 
HETATM   15  C21 UNL     1      -1.052  50.837 -14.585  1.00  0.00     0.039 C 
HETATM   16  C22 UNL     1      -1.476  51.122 -16.030  1.00  0.00     0.025 C 
HETATM   17  C23 UNL     1      -2.867  50.596 -16.467  1.00  0.00     0.126 C 
HETATM   18  C24 UNL     1      -2.924  49.754 -17.741  1.00  0.00     0.071 C 
HETATM   19  C25 UNL     1      -2.025  50.206 -18.914  1.00  0.00     0.071 C 
ENDROOT
BRANCH   1  20
HETATM   20  C5  UNL     1      -2.467  52.211 -23.760  1.00  0.00    -0.011 C 
HETATM   21  C6  UNL     1      -3.690  52.127 -24.682  1.00  0.00     0.010 C 
BRANCH  20  22
HETATM   22  C4  UNL     1      -1.371  51.225 -24.259  1.00  0.00     0.009 C 
BRANCH  22  23
HETATM   23  C3  UNL     1      -0.004  51.894 -24.492  1.00  0.00     0.034 C 
BRANCH  23  24
HETATM   24  C2  UNL     1       0.283  52.431 -25.894  1.00  0.00    -0.083 C 
HETATM   25  C1  UNL     1      -0.087  53.658 -26.304  1.00  0.00     0.015 C 
BRANCH  24  26
HETATM   26  C26 UNL     1       1.016  51.430 -26.807  1.00  0.00     0.033 C 
HETATM   27  C27 UNL     1       0.913  51.732 -28.309  1.00  0.00     0.017 C 
BRANCH  26  28
HETATM   28  C28 UNL     1       2.494  51.263 -26.400  1.00  0.00     0.172 C 
BRANCH  28  29
HETATM   29  O6  UNL     1       3.382  51.561 -27.474  1.00  0.00    -0.400 OA
HETATM   30  H48 UNL     1       3.158  52.457 -27.782  1.00  0.00     0.209 HD
ENDBRANCH  28  29
ENDBRANCH  26  28
ENDBRANCH  24  26
ENDBRANCH  23  24
ENDBRANCH  22  23
ENDBRANCH  20  22
ENDBRANCH   1  20
BRANCH   2  31
HETATM   31  O1  UNL     1      -4.292  50.121 -23.175  1.00  0.00    -0.393 OA
HETATM   32  H13 UNL     1      -5.198  49.775 -23.121  1.00  0.00     0.210 HD
ENDBRANCH   2  31
BRANCH   3  33
HETATM   33  O2  UNL     1      -5.108  50.356 -19.981  1.00  0.00    -0.392 OA
HETATM   34  H15 UNL     1      -5.830  49.892 -20.439  1.00  0.00     0.210 HD
ENDBRANCH   3  33
BRANCH  19  35
HETATM   35  O5  UNL     1      -1.398  49.007 -19.390  1.00  0.00    -0.389 OA
HETATM   36  H41 UNL     1      -2.092  48.367 -19.624  1.00  0.00     0.210 HD
ENDBRANCH  19  35
BRANCH  17  37
HETATM   37  O4  UNL     1      -3.509  49.882 -15.411  1.00  0.00    -0.395 OA
HETATM   38  H38 UNL     1      -3.018  49.054 -15.269  1.00  0.00     0.210 HD
ENDBRANCH  17  37
BRANCH  14  39
HETATM   39  O3  UNL     1       0.617  51.335 -12.910  1.00  0.00    -0.396 OA
HETATM   40  H33 UNL     1      -0.129  51.397 -12.289  1.00  0.00     0.210 HD
ENDBRANCH  14  39
TORSDOF 12
ENDMDL
