MODEL 1
REMARK minimizedAffinity -9.65040207
REMARK  6 active torsions:
REMARK  status: ('A' for Active; 'I' for Inactive)
REMARK    1  A    between atoms: C4_4  and  C5_5 
REMARK    2  A    between atoms: C5_5  and  O1_6 
REMARK    3  A    between atoms: C5_5  and  C6_7 
REMARK    4  A    between atoms: C6_7  and  C7_8 
REMARK    5  A    between atoms: C7_8  and  C9_10 
REMARK    6  A    between atoms: C30_32  and  O3_33 
ROOT
HETATM    1  C9  UNL     1      -1.565  51.073 -23.736  1.00  0.00    -0.002 C 
HETATM    2  C10 UNL     1      -2.504  51.747 -24.777  1.00  0.00     0.007 C 
HETATM    3  C11 UNL     1      -3.861  51.033 -24.708  1.00  0.00     0.015 C 
HETATM    4  C12 UNL     1      -3.587  49.713 -23.965  1.00  0.00    -0.010 C 
HETATM    5  C13 UNL     1      -2.990  48.725 -25.018  1.00  0.00     0.021 C 
HETATM    6  C14 UNL     1      -4.733  48.923 -23.310  1.00  0.00    -0.039 C 
HETATM    7  C15 UNL     1      -4.470  48.112 -22.249  1.00  0.00    -0.066 C 
HETATM    8  C16 UNL     1      -3.068  48.083 -21.613  1.00  0.00     0.036 C 
HETATM    9  C17 UNL     1      -1.972  48.988 -22.201  1.00  0.00     0.015 C 
HETATM   10  C18 UNL     1      -2.559  50.225 -22.879  1.00  0.00    -0.029 C 
HETATM   11  C19 UNL     1      -3.221  51.131 -21.797  1.00  0.00     0.016 C 
HETATM   12  C20 UNL     1      -5.541  47.169 -21.602  1.00  0.00    -0.015 C 
HETATM   13  C21 UNL     1      -4.871  45.790 -21.377  1.00  0.00     0.020 C 
HETATM   14  C22 UNL     1      -5.948  47.796 -20.242  1.00  0.00     0.021 C 
HETATM   15  C23 UNL     1      -7.065  47.056 -19.528  1.00  0.00     0.080 C 
HETATM   16  C24 UNL     1      -8.284  46.945 -20.409  1.00  0.00     0.135 C 
HETATM   17  O2  UNL     1      -9.391  47.273 -19.979  1.00  0.00    -0.297 OA
HETATM   18  C25 UNL     1      -8.096  46.329 -21.801  1.00  0.00     0.018 C 
HETATM   19  C26 UNL     1      -7.973  44.798 -21.634  1.00  0.00     0.023 C 
HETATM   20  C27 UNL     1      -9.396  46.546 -22.620  1.00  0.00     0.023 C 
HETATM   21  C28 UNL     1      -6.831  46.985 -22.509  1.00  0.00     0.016 C 
HETATM   22  C29 UNL     1      -7.204  48.344 -23.130  1.00  0.00     0.043 C 
HETATM   23  C30 UNL     1      -6.089  48.969 -23.961  1.00  0.00     0.148 C 
ENDROOT
BRANCH   1  24
HETATM   24  C7  UNL     1      -0.609  52.109 -23.059  1.00  0.00    -0.011 C 
HETATM   25  C8  UNL     1       0.001  51.573 -21.762  1.00  0.00     0.010 C 
BRANCH  24  26
HETATM   26  C6  UNL     1       0.498  52.541 -24.071  1.00  0.00     0.040 C 
BRANCH  26  27
HETATM   27  C5  UNL     1       0.114  53.685 -25.028  1.00  0.00     0.141 C 
BRANCH  27  28
HETATM   28  C4  UNL     1       0.241  53.268 -26.473  1.00  0.00     0.006 C 
HETATM   29  C2  UNL     1       1.079  52.334 -26.969  1.00  0.00    -0.089 C 
HETATM   30  C1  UNL     1       2.032  51.518 -26.137  1.00  0.00     0.042 C 
HETATM   31  C3  UNL     1       1.109  52.022 -28.442  1.00  0.00     0.042 C 
ENDBRANCH  27  28
BRANCH  27  32
HETATM   32  O1  UNL     1       0.988  54.788 -24.813  1.00  0.00    -0.392 OA
HETATM   33  H9  UNL     1       1.712  54.724 -25.459  1.00  0.00     0.210 HD
ENDBRANCH  27  32
ENDBRANCH  26  27
ENDBRANCH  24  26
ENDBRANCH   1  24
BRANCH  23  34
HETATM   34  O3  UNL     1      -6.487  50.314 -24.200  1.00  0.00    -0.391 OA
HETATM   35  H48 UNL     1      -7.359  50.291 -24.625  1.00  0.00     0.210 HD
ENDBRANCH  23  34
TORSDOF 6
ENDMDL
