MODEL 1
REMARK minimizedAffinity -8.37244892
REMARK CNNscore 0.730633378
REMARK CNNaffinity 7.22633553
REMARK  8 active torsions:
REMARK  status: ('A' for Active; 'I' for Inactive)
REMARK    1  A    between atoms: C2_2  and  C3_3 
REMARK    2  A    between atoms: C2_2  and  C29_30 
REMARK    3  A    between atoms: C3_3  and  C4_4 
REMARK    4  A    between atoms: C4_4  and  C5_5 
REMARK    5  A    between atoms: C5_5  and  C7_7 
REMARK    6  A    between atoms: C29_30  and  C31_32 
REMARK    7  A    between atoms: C31_32  and  O2_33 
REMARK    8  A    between atoms: O2_33  and  C32_34 
ROOT
HETATM    1  C7  UNL     1      -1.907  10.067  17.820  1.00  0.00    -0.002 C 
HETATM    2  C8  UNL     1      -3.365  10.393  18.167  1.00  0.00     0.006 C 
HETATM    3  C9  UNL     1      -4.052  10.695  16.850  1.00  0.00     0.011 C 
HETATM    4  C10 UNL     1      -3.384   9.800  15.768  1.00  0.00    -0.032 C 
HETATM    5  C11 UNL     1      -3.159  10.688  14.523  1.00  0.00     0.016 C 
HETATM    6  C12 UNL     1      -4.346   8.593  15.426  1.00  0.00     0.004 C 
HETATM    7  C13 UNL     1      -5.616   8.973  14.645  1.00  0.00     0.007 C 
HETATM    8  C14 UNL     1      -6.486   7.738  14.446  1.00  0.00     0.007 C 
HETATM    9  C15 UNL     1      -5.842   6.700  13.501  1.00  0.00     0.010 C 
HETATM   10  C16 UNL     1      -6.698   5.387  13.401  1.00  0.00     0.018 C 
HETATM   11  C17 UNL     1      -8.031   5.687  12.675  1.00  0.00     0.023 C 
HETATM   12  C18 UNL     1      -7.034   4.765  14.769  1.00  0.00     0.023 C 
HETATM   13  C19 UNL     1      -5.968   4.320  12.569  1.00  0.00     0.135 C 
HETATM   14  O1  UNL     1      -6.579   3.424  11.978  1.00  0.00    -0.297 OA
HETATM   15  C20 UNL     1      -4.467   4.375  12.479  1.00  0.00     0.080 C 
HETATM   16  C21 UNL     1      -3.889   5.017  13.722  1.00  0.00     0.018 C 
HETATM   17  C22 UNL     1      -4.349   6.458  13.837  1.00  0.00    -0.026 A 
HETATM   18  C23 UNL     1      -3.370   7.467  13.266  1.00  0.00     0.021 A 
HETATM   19  C24 UNL     1      -3.590   7.441  14.762  1.00  0.00    -0.027 A 
HETATM   20  C25 UNL     1      -2.471   6.883  15.625  1.00  0.00     0.011 C 
HETATM   21  C26 UNL     1      -2.139   7.783  16.810  1.00  0.00     0.011 C 
HETATM   22  C27 UNL     1      -2.020   9.301  16.445  1.00  0.00    -0.032 C 
HETATM   23  C28 UNL     1      -0.787   9.432  15.532  1.00  0.00     0.016 C 
ENDROOT
BRANCH   1  24
HETATM   24  C5  UNL     1      -0.949  11.283  18.035  1.00  0.00    -0.014 C 
HETATM   25  C6  UNL     1      -0.600  12.117  16.803  1.00  0.00     0.010 C 
BRANCH  24  26
HETATM   26  C4  UNL     1       0.249  10.913  18.958  1.00  0.00     0.009 C 
BRANCH  26  27
HETATM   27  C3  UNL     1       1.584  11.616  18.679  1.00  0.00     0.034 C 
BRANCH  27  28
HETATM   28  C2  UNL     1       2.361  11.917  19.952  1.00  0.00    -0.083 C 
HETATM   29  C1  UNL     1       1.806  12.698  20.898  1.00  0.00     0.015 C 
BRANCH  28  30
HETATM   30  C29 UNL     1       3.754  11.290  20.079  1.00  0.00     0.034 C 
HETATM   31  C30 UNL     1       4.869  12.319  20.314  1.00  0.00     0.017 C 
BRANCH  30  32
HETATM   32  C31 UNL     1       3.802  10.221  21.191  1.00  0.00     0.187 C 
BRANCH  32  33
HETATM   33  O2  UNL     1       2.700   9.298  21.106  1.00  0.00    -0.321 OA
BRANCH  33  34
HETATM   34  C32 UNL     1       2.335   8.707  22.275  1.00  0.00     0.254 C 
HETATM   35  C33 UNL     1       2.959   9.428  23.429  1.00  0.00     0.126 C 
HETATM   36  O3  UNL     1       1.609   7.729  22.382  1.00  0.00    -0.266 OA
ENDBRANCH  33  34
ENDBRANCH  32  33
ENDBRANCH  30  32
ENDBRANCH  28  30
ENDBRANCH  27  28
ENDBRANCH  26  27
ENDBRANCH  24  26
ENDBRANCH   1  24
TORSDOF 8
ENDMDL
