MODEL 1
REMARK minimizedAffinity -8.61872768
REMARK CNNscore 0.79672426
REMARK CNNaffinity 6.72026873
REMARK  7 active torsions:
REMARK  status: ('A' for Active; 'I' for Inactive)
REMARK    1  A    between atoms: C2_2  and  C4_4 
REMARK    2  A    between atoms: C4_4  and  O1_6 
REMARK    3  A    between atoms: C4_4  and  C6_7 
REMARK    4  A    between atoms: C7_9  and  C8_10 
REMARK    5  A    between atoms: C8_10  and  C9_11 
REMARK    6  A    between atoms: C12_14  and  O3_15 
REMARK    7  A    between atoms: C18_22  and  O5_23 
ROOT
HETATM    1  C9  UNL     1     -14.611  45.320 -26.658  1.00  0.00     0.034 C 
HETATM    2  C10 UNL     1     -13.944  44.741 -25.370  1.00  0.00     0.012 C 
HETATM    3  C11 UNL     1     -12.419  44.882 -25.548  1.00  0.00     0.044 C 
HETATM    4  C12 UNL     1     -12.272  45.856 -26.718  1.00  0.00     0.089 C 
HETATM    5  C13 UNL     1     -10.989  46.004 -27.496  1.00  0.00    -0.037 C 
HETATM    6  C14 UNL     1      -9.927  45.202 -27.329  1.00  0.00     0.057 C 
HETATM    7  C15 UNL     1      -8.785  45.237 -28.269  1.00  0.00     0.154 C 
HETATM    8  O4  UNL     1      -7.807  44.537 -28.017  1.00  0.00    -0.293 OA
HETATM    9  C16 UNL     1      -8.910  46.087 -29.535  1.00  0.00     0.071 C 
HETATM   10  C17 UNL     1      -7.524  46.345 -30.154  1.00  0.00     0.045 C 
HETATM   11  C18 UNL     1      -6.717  47.442 -29.450  1.00  0.00     0.119 C 
HETATM   12  C19 UNL     1      -7.351  47.957 -28.163  1.00  0.00     0.032 C 
HETATM   13  C20 UNL     1      -8.836  48.320 -28.299  1.00  0.00     0.013 C 
HETATM   14  C21 UNL     1      -9.679  47.399 -29.250  1.00  0.00    -0.026 C 
HETATM   15  C22 UNL     1      -9.909  48.178 -30.570  1.00  0.00     0.016 C 
HETATM   16  C23 UNL     1     -11.069  47.089 -28.574  1.00  0.00     0.026 C 
HETATM   17  C24 UNL     1     -12.237  46.742 -29.532  1.00  0.00     0.011 C 
HETATM   18  C25 UNL     1     -13.570  46.468 -28.792  1.00  0.00     0.014 C 
HETATM   19  C26 UNL     1     -13.425  45.404 -27.679  1.00  0.00    -0.002 C 
HETATM   20  C27 UNL     1     -13.130  44.039 -28.351  1.00  0.00     0.019 C 
ENDROOT
BRANCH   1  21
HETATM   21  C8  UNL     1     -16.016  44.689 -27.008  1.00  0.00     0.094 C 
HETATM   22  C28 UNL     1     -16.227  44.439 -28.536  1.00  0.00     0.045 C 
HETATM   23  C29 UNL     1     -16.932  43.145 -28.991  1.00  0.00    -0.014 C 
HETATM   24  C30 UNL     1     -18.170  43.409 -29.847  1.00  0.00     0.010 C 
HETATM   25  C31 UNL     1     -17.222  42.184 -27.848  1.00  0.00     0.030 C 
HETATM   26  C32 UNL     1     -16.072  42.240 -26.870  1.00  0.00     0.169 C 
HETATM   27  O6  UNL     1     -16.069  43.489 -26.204  1.00  0.00    -0.377 OA
BRANCH  21  28
HETATM   28  C7  UNL     1     -17.089  45.581 -26.385  1.00  0.00     0.189 A 
HETATM   29  C6  UNL     1     -18.143  45.082 -25.411  1.00  0.00     0.188 A 
HETATM   30  O2  UNL     1     -18.443  45.357 -26.791  1.00  0.00    -0.369 OA
BRANCH  29  31
HETATM   31  C4  UNL     1     -18.863  45.964 -24.406  1.00  0.00     0.086 C 
HETATM   32  C5  UNL     1     -20.168  45.255 -24.002  1.00  0.00     0.049 C 
BRANCH  31  33
HETATM   33  C2  UNL     1     -17.960  46.224 -23.157  1.00  0.00     0.014 C 
HETATM   34  C1  UNL     1     -16.880  45.150 -22.963  1.00  0.00     0.012 C 
HETATM   35  C3  UNL     1     -18.759  46.336 -21.849  1.00  0.00     0.012 C 
ENDBRANCH  31  33
BRANCH  31  36
HETATM   36  O1  UNL     1     -19.256  47.208 -24.993  1.00  0.00    -0.387 OA
HETATM   37  H11 UNL     1     -18.455  47.691 -25.248  1.00  0.00     0.210 HD
ENDBRANCH  31  36
ENDBRANCH  29  31
ENDBRANCH  21  28
ENDBRANCH   1  21
BRANCH   4  38
HETATM   38  O3  UNL     1     -12.550  47.157 -26.172  1.00  0.00    -0.384 OA
HETATM   39  H19 UNL     1     -11.828  47.370 -25.557  1.00  0.00     0.211 HD
ENDBRANCH   4  38
BRANCH  11  40
HETATM   40  O5  UNL     1      -6.553  48.536 -30.353  1.00  0.00    -0.396 OA
HETATM   41  H25 UNL     1      -5.916  49.152 -29.954  1.00  0.00     0.210 HD
ENDBRANCH  11  40
TORSDOF 7
ENDMDL
