MODEL 1
REMARK minimizedAffinity -7.45464373
REMARK CNNscore 0.482575357
REMARK CNNaffinity 6.4630661
REMARK  5 active torsions:
REMARK  status: ('A' for Active; 'I' for Inactive)
REMARK    1  A    between atoms: C2_2  and  C3_3 
REMARK    2  A    between atoms: C6_6  and  C7_7 
REMARK    3  A    between atoms: C7_7  and  O1_8 
REMARK    4  A    between atoms: C7_7  and  C8_9 
REMARK    5  A    between atoms: C26_32  and  O6_33 
ROOT
HETATM    1  C3  UNL     1      -6.273  14.619  22.053  1.00  0.00     0.008 C 
HETATM    2  C4  UNL     1      -5.581  13.451  21.371  1.00  0.00    -0.023 C 
HETATM    3  C5  UNL     1      -5.488  13.241  20.045  1.00  0.00     0.005 C 
HETATM    4  C6  UNL     1      -5.936  14.187  18.954  1.00  0.00     0.187 C 
HETATM    5  O2  UNL     1      -7.203  13.700  18.472  1.00  0.00    -0.308 OA
HETATM    6  C12 UNL     1      -8.043  14.692  18.041  1.00  0.00     0.276 C 
HETATM    7  O3  UNL     1      -7.712  15.875  17.948  1.00  0.00    -0.264 OA
HETATM    8  C13 UNL     1      -9.410  14.135  17.554  1.00  0.00     0.095 C 
HETATM    9  C14 UNL     1     -10.470  15.258  17.635  1.00  0.00     0.036 C 
HETATM   10  C15 UNL     1      -9.138  13.910  16.079  1.00  0.00     0.003 C 
HETATM   11  C16 UNL     1      -9.541  12.969  15.225  1.00  0.00     0.072 C 
HETATM   12  C17 UNL     1     -10.425  11.829  15.451  1.00  0.00     0.245 C 
HETATM   13  O4  UNL     1     -10.851  11.214  14.474  1.00  0.00    -0.268 OA
HETATM   14  N1  UNL     1     -10.744  11.412  16.689  1.00  0.00    -0.320 N 
HETATM   15  C18 UNL     1     -10.481  11.816  17.976  1.00  0.00     0.098 A 
HETATM   16  C19 UNL     1      -9.899  12.949  18.396  1.00  0.00     0.045 A 
HETATM   17  C20 UNL     1      -9.756  13.172  19.889  1.00  0.00     0.194 A 
HETATM   18  O5  UNL     1      -9.305  14.230  20.298  1.00  0.00    -0.287 OA
HETATM   19  C21 UNL     1     -10.164  12.136  20.862  1.00  0.00     0.046 A 
HETATM   20  C22 UNL     1     -10.805  11.001  20.386  1.00  0.00     0.032 A 
HETATM   21  C23 UNL     1     -11.258   9.996  21.263  1.00  0.00     0.026 A 
HETATM   22  C24 UNL     1     -11.065  10.099  22.643  1.00  0.00    -0.027 A 
HETATM   23  C25 UNL     1     -11.557   9.001  23.542  1.00  0.00     0.051 C 
HETATM   24  C26 UNL     1     -10.407  11.233  23.127  1.00  0.00     0.086 A 
HETATM   25  C27 UNL     1      -9.944  12.240  22.250  1.00  0.00     0.059 A 
HETATM   26  C28 UNL     1      -9.215  13.371  22.872  1.00  0.00     0.163 C 
HETATM   27  O7  UNL     1      -9.783  14.447  23.020  1.00  0.00    -0.292 OA
HETATM   28  C29 UNL     1      -7.833  13.048  23.417  1.00  0.00     0.084 C 
HETATM   29  C30 UNL     1      -6.853  14.224  23.430  1.00  0.00     0.016 C 
HETATM   30  C31 UNL     1     -11.010  10.806  18.951  1.00  0.00     0.210 A 
HETATM   31  O8  UNL     1     -11.603   9.812  18.539  1.00  0.00    -0.285 OA
HETATM   32  H24 UNL     1     -11.289  10.546  16.638  1.00  0.00     0.169 HD
ENDROOT
BRANCH   4  33
HETATM   33  C7  UNL     1      -4.914  14.275  17.771  1.00  0.00     0.174 C 
BRANCH  33  34
HETATM   34  O1  UNL     1      -3.568  14.397  18.250  1.00  0.00    -0.389 OA
HETATM   35  H11 UNL     1      -3.476  13.791  19.012  1.00  0.00     0.210 HD
ENDBRANCH  33  34
BRANCH  33  36
HETATM   36  C8  UNL     1      -4.950  13.078  16.854  1.00  0.00     0.009 C 
HETATM   37  C9  UNL     1      -4.173  11.975  16.934  1.00  0.00    -0.089 C 
HETATM   38  C10 UNL     1      -4.332  10.841  15.955  1.00  0.00     0.042 C 
HETATM   39  C11 UNL     1      -3.124  11.749  17.989  1.00  0.00     0.042 C 
ENDBRANCH  33  36
ENDBRANCH   4  33
BRANCH   1  40
HETATM   40  C2  UNL     1      -5.341  15.845  22.181  1.00  0.00     0.004 C 
HETATM   41  C1  UNL     1      -4.057  15.620  22.967  1.00  0.00     0.006 C 
ENDBRANCH   1  40
BRANCH  24  42
HETATM   42  O6  UNL     1     -10.188  11.383  24.470  1.00  0.00    -0.359 OA
HETATM   43  H29 UNL     1     -10.817  10.843  24.979  1.00  0.00     0.217 HD
ENDBRANCH  24  42
TORSDOF 5
ENDMDL
