MODEL 1
REMARK minimizedAffinity -8.25544071
REMARK CNNscore 0.536634982
REMARK CNNaffinity 8.0261116
REMARK  11 active torsions:
REMARK  status: ('A' for Active; 'I' for Inactive)
REMARK    1  A    between atoms: C12_13  and  O2_14 
REMARK    2  A    between atoms: C19_21  and  O3_22 
REMARK    3  A    between atoms: C19_21  and  C20_23 
REMARK    4  A    between atoms: C20_23  and  C21_25 
REMARK    5  A    between atoms: C21_25  and  O5_26 
REMARK    6  A    between atoms: O5_26  and  C22_27 
REMARK    7  A    between atoms: C22_27  and  C23_29 
REMARK    8  A    between atoms: C23_29  and  C24_30 
REMARK    9  A    between atoms: C24_30  and  C25_31 
REMARK       I    between atoms: C25_31  and  N1_33 
REMARK   10  A    between atoms: N1_33  and  C26_34 
REMARK   11  A    between atoms: C26_34  and  C27_35 
ROOT
HETATM    1  C1  UNL     1     -12.031   9.549  12.575  1.00  0.00     0.020 C 
HETATM    2  C2  UNL     1     -11.775   9.043  14.016  1.00  0.00    -0.014 C 
HETATM    3  C3  UNL     1     -13.015   8.258  14.509  1.00  0.00     0.022 C 
HETATM    4  C4  UNL     1     -14.252   9.132  14.700  1.00  0.00     0.084 C 
HETATM    5  C5  UNL     1     -13.960  10.356  15.533  1.00  0.00     0.149 C 
HETATM    6  O1  UNL     1     -14.850  10.977  16.111  1.00  0.00    -0.293 OA
HETATM    7  C6  UNL     1     -12.566  10.846  15.618  1.00  0.00     0.053 C 
HETATM    8  C7  UNL     1     -11.569  10.263  14.931  1.00  0.00    -0.068 C 
HETATM    9  C8  UNL     1     -10.143  10.726  15.102  1.00  0.00     0.035 C 
HETATM   10  C9  UNL     1      -9.262   9.623  15.712  1.00  0.00     0.010 C 
HETATM   11  C10 UNL     1      -9.785   8.205  15.412  1.00  0.00    -0.002 C 
HETATM   12  C11 UNL     1     -10.455   8.177  14.011  1.00  0.00     0.031 C 
HETATM   13  C12 UNL     1     -10.538   6.747  13.433  1.00  0.00     0.124 C 
HETATM   14  C13 UNL     1      -9.139   6.100  13.266  1.00  0.00     0.045 C 
HETATM   15  C14 UNL     1      -8.076   6.561  14.305  1.00  0.00     0.001 C 
HETATM   16  C15 UNL     1      -7.169   7.649  13.669  1.00  0.00     0.019 C 
HETATM   17  C16 UNL     1      -8.782   7.055  15.592  1.00  0.00     0.002 C 
HETATM   18  C17 UNL     1      -7.668   7.174  16.623  1.00  0.00     0.009 C 
HETATM   19  C18 UNL     1      -6.691   6.039  16.256  1.00  0.00     0.047 C 
HETATM   20  C19 UNL     1      -7.192   5.421  14.916  1.00  0.00     0.128 C 
ENDROOT
BRANCH  20  21
HETATM   21  O3  UNL     1      -8.026   4.312  15.276  1.00  0.00    -0.381 OA
HETATM   22  H27 UNL     1      -7.436   3.640  15.678  1.00  0.00     0.211 HD
ENDBRANCH  20  21
BRANCH  20  23
HETATM   23  C20 UNL     1      -6.019   4.961  14.012  1.00  0.00     0.185 C 
HETATM   24  O4  UNL     1      -6.188   4.137  13.107  1.00  0.00    -0.292 OA
BRANCH  23  25
HETATM   25  C21 UNL     1      -4.600   5.455  14.325  1.00  0.00     0.260 C 
BRANCH  25  26
HETATM   26  O5  UNL     1      -3.788   6.038  13.317  1.00  0.00    -0.314 OA
BRANCH  26  27
HETATM   27  C22 UNL     1      -2.754   6.790  13.773  1.00  0.00     0.259 C 
HETATM   28  O6  UNL     1      -2.385   6.819  14.942  1.00  0.00    -0.265 OA
BRANCH  27  29
HETATM   29  C23 UNL     1      -2.015   7.488  12.655  1.00  0.00     0.120 C 
BRANCH  29  30
HETATM   30  C24 UNL     1      -0.619   6.948  12.366  1.00  0.00     0.112 C 
BRANCH  30  31
HETATM   31  C25 UNL     1      -0.547   5.441  12.496  1.00  0.00     0.218 C 
HETATM   32  O7  UNL     1       0.222   4.868  13.260  1.00  0.00    -0.274 OA
HETATM   33  N1  UNL     1      -1.410   4.785  11.646  1.00  0.00    -0.357 N 
HETATM   34  H34 UNL     1      -2.135   5.316  11.184  1.00  0.00     0.162 HD
BRANCH  33  35
HETATM   35  C26 UNL     1      -1.561   3.347  11.683  1.00  0.00     0.161 C 
BRANCH  35  36
HETATM   36  C27 UNL     1      -2.966   2.942  11.333  1.00  0.00    -0.038 A 
HETATM   37  C28 UNL     1      -3.516   1.752  11.817  1.00  0.00     0.025 A 
HETATM   38  C29 UNL     1      -4.810   1.417  11.443  1.00  0.00     0.088 A 
HETATM   39  N2  UNL     1      -5.576   2.173  10.629  1.00  0.00    -0.375 N 
HETATM   40  C30 UNL     1      -5.024   3.314  10.165  1.00  0.00     0.088 A 
ATOM     41  H2  UNL     1      -6.525   1.896  10.377  1.00  0.00     0.164 HD
HETATM   42  C31 UNL     1      -3.742   3.735  10.481  1.00  0.00     0.025 A 
ENDBRANCH  35  36
ENDBRANCH  33  35
ENDBRANCH  30  31
ENDBRANCH  29  30
ENDBRANCH  27  29
ENDBRANCH  26  27
ENDBRANCH  25  26
ENDBRANCH  23  25
ENDBRANCH  20  23
BRANCH  13  43
HETATM   43  O2  UNL     1     -11.362   5.907  14.238  1.00  0.00    -0.395 OA
HETATM   44  H16 UNL     1     -10.803   5.330  14.788  1.00  0.00     0.210 HD
ENDBRANCH  13  43
TORSDOF 11
ENDMDL
