MODEL 1
REMARK minimizedAffinity -9.52079391
REMARK  6 active torsions:
REMARK  status: ('A' for Active; 'I' for Inactive)
REMARK    1  A    between atoms: C2_2  and  C30_31 
REMARK    2  A    between atoms: C3_3  and  C4_4 
REMARK    3  A    between atoms: C4_4  and  C5_5 
REMARK    4  A    between atoms: C5_5  and  C6_6 
REMARK    5  A    between atoms: C6_6  and  C8_8 
REMARK    6  A    between atoms: C30_31  and  O3_33 
ROOT
HETATM    1  C8  UNL     1       0.690   7.487  12.694  1.00  0.00    -0.002 C 
HETATM    2  C9  UNL     1       0.698   6.220  11.784  1.00  0.00     0.007 C 
HETATM    3  C10 UNL     1      -0.679   5.541  11.920  1.00  0.00     0.015 C 
HETATM    4  C11 UNL     1      -1.331   6.223  13.139  1.00  0.00    -0.013 C 
HETATM    5  C12 UNL     1      -0.758   5.494  14.397  1.00  0.00     0.021 C 
HETATM    6  C13 UNL     1      -2.850   6.163  13.270  1.00  0.00    -0.070 C 
HETATM    7  C14 UNL     1      -3.567   5.112  12.835  1.00  0.00    -0.022 C 
HETATM    8  C15 UNL     1      -5.040   4.945  13.038  1.00  0.00     0.034 C 
HETATM    9  C16 UNL     1      -5.770   6.195  13.583  1.00  0.00     0.013 C 
HETATM   10  C17 UNL     1      -7.259   5.899  13.997  1.00  0.00     0.018 C 
HETATM   11  C18 UNL     1      -7.486   4.525  14.660  1.00  0.00     0.023 C 
HETATM   12  C19 UNL     1      -8.162   5.954  12.746  1.00  0.00     0.023 C 
HETATM   13  C20 UNL     1      -7.755   6.995  14.944  1.00  0.00     0.135 C 
HETATM   14  O1  UNL     1      -8.675   6.821  15.744  1.00  0.00    -0.297 OA
HETATM   15  C21 UNL     1      -7.118   8.348  14.794  1.00  0.00     0.080 C 
HETATM   16  C22 UNL     1      -5.626   8.287  15.081  1.00  0.00     0.017 C 
HETATM   17  C23 UNL     1      -4.906   6.966  14.651  1.00  0.00    -0.031 C 
HETATM   18  C24 UNL     1      -4.678   6.109  15.919  1.00  0.00     0.016 C 
HETATM   19  C25 UNL     1      -3.528   7.343  13.969  1.00  0.00     0.024 C 
HETATM   20  C26 UNL     1      -2.547   8.127  14.875  1.00  0.00     0.010 C 
HETATM   21  C27 UNL     1      -1.208   8.524  14.208  1.00  0.00     0.011 C 
HETATM   22  C28 UNL     1      -0.840   7.705  12.950  1.00  0.00    -0.029 C 
HETATM   23  C29 UNL     1      -1.446   8.406  11.692  1.00  0.00     0.016 C 
ENDROOT
BRANCH   1  24
HETATM   24  C6  UNL     1       1.556   8.642  12.104  1.00  0.00    -0.014 C 
HETATM   25  C7  UNL     1       2.070   9.590  13.192  1.00  0.00     0.010 C 
BRANCH  24  26
HETATM   26  C5  UNL     1       2.749   8.057  11.299  1.00  0.00     0.008 C 
BRANCH  26  27
HETATM   27  C4  UNL     1       2.367   6.895  10.375  1.00  0.00     0.028 C 
BRANCH  27  28
HETATM   28  C3  UNL     1       2.060   7.385   8.984  1.00  0.00    -0.013 C 
HETATM   29  C2  UNL     1       2.294   6.761   7.811  1.00  0.00     0.008 C 
HETATM   30  C1  UNL     1       1.894   7.378   6.501  1.00  0.00     0.055 C 
BRANCH  29  31
HETATM   31  C30 UNL     1       3.005   5.462   7.748  1.00  0.00     0.171 C 
HETATM   32  O2  UNL     1       2.962   4.637   6.854  1.00  0.00    -0.646 OA
BRANCH  31  33
HETATM   33  O3  UNL     1       3.743   5.246   8.851  1.00  0.00    -0.773 OA
HETATM   34  H46 UNL     1       4.151   4.372   8.681  1.00  0.00     0.167 HD
ENDBRANCH  31  33
ENDBRANCH  29  31
ENDBRANCH  27  28
ENDBRANCH  26  27
ENDBRANCH  24  26
ENDBRANCH   1  24
TORSDOF 6
ENDMDL
