MODEL 1
REMARK minimizedAffinity -9.93877411
REMARK  10 active torsions:
REMARK  status: ('A' for Active; 'I' for Inactive)
REMARK    1  A    between atoms: C14_14  and  C15_15 
REMARK    2  A    between atoms: C15_15  and  C17_17 
REMARK    3  A    between atoms: C17_17  and  C18_18 
REMARK    4  A    between atoms: C18_18  and  C19_19 
REMARK    5  A    between atoms: C20_20  and  C22_22 
REMARK    6  A    between atoms: C22_22  and  O2_24 
REMARK    7  A    between atoms: C27_29  and  C28_30 
REMARK    8  A    between atoms: C28_30  and  C29_31 
REMARK    9  A    between atoms: C29_31  and  C30_32 
REMARK   10  A    between atoms: C30_32  and  O4_34 
ROOT
HETATM    1  C1  UNL     1      -1.954  50.065 -16.250  1.00  0.00     0.043 C 
HETATM    2  C2  UNL     1      -1.203  50.529 -17.484  1.00  0.00    -0.085 C 
HETATM    3  C3  UNL     1       0.258  50.171 -17.384  1.00  0.00     0.043 C 
HETATM    4  C4  UNL     1      -1.824  51.134 -18.534  1.00  0.00    -0.073 C 
HETATM    5  C5  UNL     1      -3.346  51.111 -18.596  1.00  0.00     0.035 C 
HETATM    6  C6  UNL     1      -3.914  51.317 -20.000  1.00  0.00     0.010 C 
HETATM    7  C7  UNL     1      -3.120  50.587 -21.118  1.00  0.00     0.003 C 
HETATM    8  C8  UNL     1      -1.529  50.828 -21.039  1.00  0.00    -0.032 C 
HETATM    9  C9  UNL     1      -0.775  49.491 -20.805  1.00  0.00     0.016 C 
HETATM   10  C10 UNL     1      -0.959  51.410 -22.371  1.00  0.00     0.011 C 
HETATM   11  C11 UNL     1      -1.486  50.826 -23.700  1.00  0.00     0.011 C 
HETATM   12  C12 UNL     1      -2.892  50.202 -23.654  1.00  0.00    -0.032 C 
HETATM   13  C13 UNL     1      -2.776  48.654 -23.463  1.00  0.00     0.016 C 
HETATM   14  C14 UNL     1      -3.792  50.438 -24.920  1.00  0.00    -0.002 C 
HETATM   15  C23 UNL     1      -5.230  50.262 -24.338  1.00  0.00     0.006 C 
HETATM   16  C24 UNL     1      -5.121  50.315 -22.802  1.00  0.00     0.011 C 
HETATM   17  C25 UNL     1      -3.725  50.910 -22.531  1.00  0.00    -0.032 C 
HETATM   18  C26 UNL     1      -3.886  52.459 -22.712  1.00  0.00     0.016 C 
HETATM   19  C27 UNL     1      -1.226  51.782 -19.804  1.00  0.00     0.024 C 
ENDROOT
BRANCH  14  20
HETATM   20  C15 UNL     1      -3.551  49.589 -26.207  1.00  0.00    -0.014 C 
HETATM   21  C16 UNL     1      -4.191  48.199 -26.079  1.00  0.00     0.010 C 
BRANCH  20  22
HETATM   22  C17 UNL     1      -2.031  49.437 -26.497  1.00  0.00     0.008 C 
BRANCH  22  23
HETATM   23  C18 UNL     1      -1.366  50.706 -27.057  1.00  0.00     0.028 C 
BRANCH  23  24
HETATM   24  C19 UNL     1       0.121  50.768 -26.858  1.00  0.00    -0.013 C 
HETATM   25  C20 UNL     1       0.997  51.621 -27.427  1.00  0.00     0.008 C 
HETATM   26  C21 UNL     1       0.670  52.680 -28.436  1.00  0.00     0.055 C 
BRANCH  25  27
HETATM   27  C22 UNL     1       2.421  51.469 -27.026  1.00  0.00     0.171 C 
HETATM   28  O1  UNL     1       2.855  50.774 -26.124  1.00  0.00    -0.646 OA
BRANCH  27  29
HETATM   29  O2  UNL     1       3.246  52.213 -27.780  1.00  0.00    -0.773 OA
HETATM   30  H35 UNL     1       4.130  52.024 -27.402  1.00  0.00     0.167 HD
ENDBRANCH  27  29
ENDBRANCH  25  27
ENDBRANCH  23  24
ENDBRANCH  22  23
ENDBRANCH  20  22
ENDBRANCH  14  20
BRANCH  19  31
HETATM   31  C28 UNL     1       0.203  52.389 -19.713  1.00  0.00     0.020 C 
BRANCH  31  32
HETATM   32  C29 UNL     1       0.725  52.912 -21.057  1.00  0.00     0.110 C 
BRANCH  32  33
HETATM   33  C30 UNL     1       1.608  54.122 -20.966  1.00  0.00     0.139 C 
HETATM   34  O3  UNL     1       1.879  54.888 -21.876  1.00  0.00    -0.650 OA
BRANCH  33  35
HETATM   35  O4  UNL     1       2.133  54.295 -19.739  1.00  0.00    -0.776 OA
HETATM   36  H48 UNL     1       2.652  55.121 -19.829  1.00  0.00     0.167 HD
ENDBRANCH  33  35
ENDBRANCH  32  33
ENDBRANCH  31  32
ENDBRANCH  19  31
TORSDOF 10
ENDMDL
