MODEL 1
REMARK minimizedAffinity -8.5609436
REMARK CNNscore 0.676608086
REMARK CNNaffinity 7.4513793
REMARK  5 active torsions:
REMARK  status: ('A' for Active; 'I' for Inactive)
REMARK    1  A    between atoms: C2_2  and  C25_28 
REMARK    2  A    between atoms: C3_3  and  C4_4 
REMARK    3  A    between atoms: C4_4  and  C6_6 
REMARK    4  A    between atoms: C20_20  and  O1_21 
REMARK    5  A    between atoms: C25_28  and  C27_30 
ROOT
HETATM    1  C6  UNL     1      -2.609   5.894  12.321  1.00  0.00     0.001 C 
HETATM    2  C7  UNL     1      -3.124   4.460  11.967  1.00  0.00     0.006 C 
HETATM    3  C8  UNL     1      -4.531   4.318  12.570  1.00  0.00     0.009 C 
HETATM    4  C9  UNL     1      -4.847   5.730  13.037  1.00  0.00     0.036 C 
HETATM    5  C10 UNL     1      -3.488   6.285  13.557  1.00  0.00    -0.033 C 
HETATM    6  C11 UNL     1      -2.934   5.594  14.830  1.00  0.00     0.016 C 
HETATM    7  C12 UNL     1      -3.618   7.795  13.875  1.00  0.00     0.010 C 
HETATM    8  C13 UNL     1      -5.003   8.418  13.669  1.00  0.00     0.010 C 
HETATM    9  C14 UNL     1      -6.241   7.553  13.989  1.00  0.00     0.039 C 
HETATM   10  C15 UNL     1      -6.030   5.997  13.957  1.00  0.00     0.123 C 
HETATM   11  C16 UNL     1      -6.016   5.278  15.292  1.00  0.00     0.014 C 
HETATM   12  C17 UNL     1      -7.063   5.562  16.082  1.00  0.00     0.014 C 
HETATM   13  C18 UNL     1      -7.966   6.609  15.486  1.00  0.00     0.124 C 
HETATM   14  C19 UNL     1      -9.216   6.905  16.309  1.00  0.00     0.078 C 
HETATM   15  C20 UNL     1     -10.153   7.881  15.584  1.00  0.00     0.121 C 
HETATM   16  C21 UNL     1      -9.472   8.763  14.531  1.00  0.00     0.033 C 
HETATM   17  C22 UNL     1      -8.048   9.142  14.930  1.00  0.00     0.015 C 
HETATM   18  C23 UNL     1      -7.125   7.921  15.222  1.00  0.00     0.001 C 
HETATM   19  C24 UNL     1      -6.245   8.324  16.437  1.00  0.00     0.019 C 
HETATM   20  O2  UNL     1      -8.425   6.065  14.197  1.00  0.00    -0.223 OA
HETATM   21  O3  UNL     1      -7.272   5.506  13.390  1.00  0.00    -0.224 OA
ENDROOT
BRANCH   1  22
HETATM   22  C4  UNL     1      -1.060   5.935  12.435  1.00  0.00     0.009 C 
HETATM   23  C5  UNL     1      -0.522   6.251  13.833  1.00  0.00     0.014 C 
BRANCH  22  24
HETATM   24  C3  UNL     1      -0.402   6.826  11.394  1.00  0.00    -0.019 C 
HETATM   25  C2  UNL     1       0.761   6.689  10.721  1.00  0.00    -0.083 C 
HETATM   26  C1  UNL     1       1.711   5.529  10.852  1.00  0.00     0.043 C 
BRANCH  25  27
HETATM   27  C25 UNL     1       1.236   7.766   9.734  1.00  0.00     0.013 C 
HETATM   28  C26 UNL     1       0.047   8.240   8.881  1.00  0.00     0.015 C 
BRANCH  27  29
HETATM   29  C27 UNL     1       2.458   7.326   8.871  1.00  0.00    -0.015 C 
HETATM   30  C28 UNL     1       2.079   7.119   7.399  1.00  0.00     0.010 C 
HETATM   31  C29 UNL     1       3.601   8.348   8.947  1.00  0.00     0.010 C 
ENDBRANCH  27  29
ENDBRANCH  25  27
ENDBRANCH  22  24
ENDBRANCH   1  22
BRANCH  15  32
HETATM   32  O1  UNL     1     -10.762   8.730  16.561  1.00  0.00    -0.395 OA
HETATM   33  H28 UNL     1     -11.337   8.170  17.112  1.00  0.00     0.210 HD
ENDBRANCH  15  32
TORSDOF 5
ENDMDL
