MODEL 1
REMARK minimizedAffinity -10.2606087
REMARK CNNscore 0.636173129
REMARK CNNaffinity 7.42291021
REMARK  13 active torsions:
REMARK  status: ('A' for Active; 'I' for Inactive)
REMARK    1  A    between atoms: C19_21  and  O3_22 
REMARK    2  A    between atoms: C19_21  and  C20_23 
REMARK    3  A    between atoms: C20_23  and  C21_25 
REMARK    4  A    between atoms: C21_25  and  O5_26 
REMARK    5  A    between atoms: O5_26  and  C22_27 
REMARK    6  A    between atoms: C22_27  and  C23_29 
REMARK    7  A    between atoms: C23_29  and  C24_30 
REMARK    8  A    between atoms: C24_30  and  C25_31 
REMARK       I    between atoms: C25_31  and  N1_33 
REMARK    9  A    between atoms: N1_33  and  C26_34 
REMARK   10  A    between atoms: C26_34  and  C27_35 
REMARK   11  A    between atoms: C27_35  and  C28_36 
REMARK   12  A    between atoms: C31_39  and  O8_40 
REMARK   13  A    between atoms: C32_41  and  O9_42 
ROOT
HETATM    1  C20 UNL     1      -2.417   5.867  13.666  1.00  0.00     0.185 C 
HETATM    2  O4  UNL     1      -2.882   6.907  14.149  1.00  0.00    -0.292 OA
ENDROOT
BRANCH   1   3
HETATM    3  C19 UNL     1      -0.874   5.668  13.490  1.00  0.00     0.128 C 
HETATM    4  C14 UNL     1      -0.108   6.966  13.071  1.00  0.00     0.005 C 
HETATM    5  C13 UNL     1       1.413   6.801  13.295  1.00  0.00     0.091 C 
HETATM    6  C15 UNL     1      -0.569   8.218  13.841  1.00  0.00     0.019 C 
HETATM    7  C16 UNL     1      -0.443   7.068  11.568  1.00  0.00     0.002 C 
HETATM    8  C12 UNL     1       2.235   7.836  12.565  1.00  0.00     0.133 C 
HETATM    9  C11 UNL     1       1.939   8.102  11.095  1.00  0.00     0.072 C 
HETATM   10  O2  UNL     1       3.192   8.380  13.119  1.00  0.00    -0.297 OA
HETATM   11  C2  UNL     1       2.923   7.368  10.111  1.00  0.00    -0.009 C 
HETATM   12  C10 UNL     1       0.419   8.078  10.781  1.00  0.00     0.003 C 
HETATM   13  C1  UNL     1       4.179   8.267   9.927  1.00  0.00     0.021 C 
HETATM   14  C3  UNL     1       3.400   5.986  10.631  1.00  0.00     0.022 C 
HETATM   15  C7  UNL     1       2.279   7.198   8.740  1.00  0.00    -0.067 C 
HETATM   16  C4  UNL     1       4.208   5.195   9.604  1.00  0.00     0.084 C 
HETATM   17  C5  UNL     1       3.469   5.081   8.294  1.00  0.00     0.149 C 
HETATM   18  O1  UNL     1       3.651   4.147   7.516  1.00  0.00    -0.293 OA
HETATM   19  C6  UNL     1       2.519   6.157   7.924  1.00  0.00     0.053 C 
HETATM   20  C8  UNL     1       1.277   8.254   8.364  1.00  0.00     0.035 C 
HETATM   21  C9  UNL     1       0.067   8.099   9.275  1.00  0.00     0.010 C 
HETATM   22  C17 UNL     1      -0.445   5.617  11.064  1.00  0.00     0.009 C 
HETATM   23  C18 UNL     1      -0.622   4.722  12.297  1.00  0.00     0.047 C 
BRANCH   3  24
HETATM   24  O3  UNL     1      -0.269   5.100  14.644  1.00  0.00    -0.381 OA
HETATM   25  H25 UNL     1      -0.692   4.236  14.803  1.00  0.00     0.211 HD
ENDBRANCH   3  24
ENDBRANCH   1   3
BRANCH   1  26
HETATM   26  C21 UNL     1      -3.348   4.707  13.334  1.00  0.00     0.260 C 
BRANCH  26  27
HETATM   27  O5  UNL     1      -3.953   4.859  12.051  1.00  0.00    -0.314 OA
BRANCH  27  28
HETATM   28  C22 UNL     1      -3.870   3.755  11.255  1.00  0.00     0.259 C 
HETATM   29  O6  UNL     1      -3.361   3.726  10.143  1.00  0.00    -0.265 OA
BRANCH  28  30
HETATM   30  C23 UNL     1      -4.544   2.579  11.918  1.00  0.00     0.120 C 
BRANCH  30  31
HETATM   31  C24 UNL     1      -5.987   2.448  11.446  1.00  0.00     0.112 C 
BRANCH  31  32
HETATM   32  C25 UNL     1      -6.959   2.798  12.556  1.00  0.00     0.218 C 
HETATM   33  O7  UNL     1      -7.980   2.155  12.777  1.00  0.00    -0.274 OA
HETATM   34  N1  UNL     1      -6.566   3.879  13.314  1.00  0.00    -0.361 N 
HETATM   35  H32 UNL     1      -5.859   4.496  12.935  1.00  0.00     0.162 HD
BRANCH  34  36
HETATM   36  C26 UNL     1      -7.432   4.428  14.342  1.00  0.00     0.127 C 
BRANCH  36  37
HETATM   37  C27 UNL     1      -7.271   5.943  14.519  1.00  0.00     0.058 C 
BRANCH  37  38
HETATM   38  C28 UNL     1      -8.595   6.678  14.501  1.00  0.00    -0.054 A 
HETATM   39  C29 UNL     1      -9.540   6.403  13.497  1.00  0.00     0.010 A 
HETATM   40  C30 UNL     1     -10.757   7.086  13.457  1.00  0.00     0.040 A 
HETATM   41  C31 UNL     1     -11.029   8.040  14.424  1.00  0.00     0.098 A 
HETATM   42  C32 UNL     1     -10.105   8.322  15.427  1.00  0.00     0.099 A 
HETATM   43  C33 UNL     1      -8.886   7.649  15.473  1.00  0.00     0.046 A 
BRANCH  41  44
HETATM   44  O8  UNL     1     -12.222   8.707  14.387  1.00  0.00    -0.358 OA
HETATM   45  H39 UNL     1     -12.189   9.311  15.156  1.00  0.00     0.217 HD
ENDBRANCH  41  44
BRANCH  42  46
HETATM   46  O9  UNL     1     -10.442   9.273  16.352  1.00  0.00    -0.358 OA
HETATM   47  H40 UNL     1      -9.711   9.348  16.987  1.00  0.00     0.217 HD
ENDBRANCH  42  46
ENDBRANCH  37  38
ENDBRANCH  36  37
ENDBRANCH  34  36
ENDBRANCH  31  32
ENDBRANCH  30  31
ENDBRANCH  28  30
ENDBRANCH  27  28
ENDBRANCH  26  27
ENDBRANCH   1  26
TORSDOF 13
ENDMDL
