MODEL 1
REMARK minimizedAffinity -9.59357643
REMARK  9 active torsions:
REMARK  status: ('A' for Active; 'I' for Inactive)
REMARK    1  A    between atoms: C2_2  and  C3_3 
REMARK    2  A    between atoms: C2_2  and  C27_31 
REMARK    3  A    between atoms: C3_3  and  C4_4 
REMARK    4  A    between atoms: C4_4  and  C5_5 
REMARK    5  A    between atoms: C5_5  and  C7_7 
REMARK    6  A    between atoms: C22_24  and  O3_26 
REMARK    7  A    between atoms: C26_29  and  O4_30 
REMARK    8  A    between atoms: C27_31  and  C29_33 
REMARK    9  A    between atoms: C29_33  and  O6_35 
ROOT
HETATM    1  C7  UNL     1      -2.020   6.542  12.427  1.00  0.00    -0.002 C 
HETATM    2  C8  UNL     1      -1.972   8.060  12.728  1.00  0.00     0.006 C 
HETATM    3  C9  UNL     1      -0.603   8.356  13.331  1.00  0.00     0.010 C 
HETATM    4  C10 UNL     1       0.226   7.075  13.174  1.00  0.00     0.027 C 
HETATM    5  C11 UNL     1       1.691   7.341  12.890  1.00  0.00    -0.036 C 
HETATM    6  C12 UNL     1       2.268   7.200  11.675  1.00  0.00     0.002 C 
HETATM    7  C13 UNL     1       1.358   6.935  10.495  1.00  0.00     0.157 C 
HETATM    8  O1  UNL     1       1.794   6.927   9.344  1.00  0.00    -0.293 OA
HETATM    9  C14 UNL     1      -0.133   6.778  10.709  1.00  0.00     0.093 C 
HETATM   10  C15 UNL     1      -0.506   6.243  12.105  1.00  0.00    -0.026 C 
HETATM   11  C16 UNL     1      -0.090   4.764  12.176  1.00  0.00     0.016 C 
HETATM   12  C17 UNL     1       3.800   7.321  11.428  1.00  0.00    -0.006 C 
HETATM   13  C18 UNL     1       4.279   6.036  10.698  1.00  0.00     0.021 C 
HETATM   14  C19 UNL     1       4.064   8.581  10.553  1.00  0.00     0.022 C 
HETATM   15  C20 UNL     1       5.534   8.935  10.379  1.00  0.00     0.083 C 
HETATM   16  C21 UNL     1       6.166   9.105  11.735  1.00  0.00     0.161 C 
HETATM   17  O2  UNL     1       6.682  10.171  12.070  1.00  0.00    -0.295 OA
HETATM   18  C22 UNL     1       6.096   7.876  12.651  1.00  0.00     0.119 C 
HETATM   19  C23 UNL     1       6.806   8.164  13.980  1.00  0.00     0.055 C 
HETATM   20  C24 UNL     1       4.605   7.436  12.803  1.00  0.00     0.043 C 
HETATM   21  C25 UNL     1       3.839   8.341  13.787  1.00  0.00     0.045 C 
HETATM   22  C26 UNL     1       2.468   7.760  14.106  1.00  0.00     0.148 C 
ENDROOT
BRANCH   1  23
HETATM   23  C5  UNL     1      -2.666   5.683  13.573  1.00  0.00    -0.014 C 
HETATM   24  C6  UNL     1      -1.676   5.456  14.734  1.00  0.00     0.010 C 
BRANCH  23  25
HETATM   25  C4  UNL     1      -3.220   4.297  13.148  1.00  0.00     0.009 C 
BRANCH  25  26
HETATM   26  C3  UNL     1      -4.133   4.315  11.914  1.00  0.00     0.034 C 
BRANCH  26  27
HETATM   27  C2  UNL     1      -5.352   3.419  12.082  1.00  0.00    -0.075 C 
HETATM   28  C1  UNL     1      -5.489   2.336  11.294  1.00  0.00     0.015 C 
BRANCH  27  29
HETATM   29  C27 UNL     1      -6.346   3.826  13.172  1.00  0.00     0.107 C 
HETATM   30  C28 UNL     1      -6.730   5.307  13.202  1.00  0.00     0.026 C 
BRANCH  29  31
HETATM   31  C29 UNL     1      -7.632   3.009  13.066  1.00  0.00     0.147 C 
HETATM   32  O5  UNL     1      -7.746   1.802  12.923  1.00  0.00    -0.650 OA
BRANCH  31  33
HETATM   33  O6  UNL     1      -8.737   3.783  13.135  1.00  0.00    -0.776 OA
HETATM   34  H42 UNL     1      -9.476   3.142  13.058  1.00  0.00     0.167 HD
ENDBRANCH  31  33
ENDBRANCH  29  31
ENDBRANCH  27  29
ENDBRANCH  26  27
ENDBRANCH  25  26
ENDBRANCH  23  25
ENDBRANCH   1  23
BRANCH  22  35
HETATM   35  O4  UNL     1       2.619   6.607  14.928  1.00  0.00    -0.391 OA
HETATM   36  H37 UNL     1       2.973   6.900  15.784  1.00  0.00     0.210 HD
ENDBRANCH  22  35
BRANCH  18  37
HETATM   37  O3  UNL     1       6.842   6.827  12.026  1.00  0.00    -0.382 OA
HETATM   38  H32 UNL     1       7.007   6.132  12.686  1.00  0.00     0.211 HD
ENDBRANCH  18  37
TORSDOF 9
ENDMDL
