MODEL 1
REMARK minimizedAffinity -8.53752232
REMARK  12 active torsions:
REMARK  status: ('A' for Active; 'I' for Inactive)
REMARK    1  A    between atoms: C2_2  and  O1_3 
REMARK    2  A    between atoms: C2_2  and  C3_4 
REMARK    3  A    between atoms: C4_5  and  C5_6 
REMARK    4  A    between atoms: C5_6  and  O2_7 
REMARK    5  A    between atoms: C8_10  and  O3_11 
REMARK    6  A    between atoms: O3_11  and  C9_12 
REMARK    7  A    between atoms: C10_14  and  C11_15 
REMARK    8  A    between atoms: C11_15  and  O5_16 
REMARK    9  A    between atoms: C12_17  and  O6_18 
REMARK   10  A    between atoms: C13_19  and  O7_20 
REMARK   11  A    between atoms: C14_21  and  O8_22 
REMARK   12  A    between atoms: C15_23  and  O9_24 
ROOT
HETATM    1  C5  UNL     1      -1.489   7.235  12.953  1.00  0.00     0.088 C 
HETATM    2  C6  UNL     1      -2.157   5.823  12.985  1.00  0.00     0.052 C 
HETATM    3  C7  UNL     1      -1.261   4.650  12.550  1.00  0.00     0.016 C 
HETATM    4  C8  UNL     1      -2.809   5.474  14.352  1.00  0.00     0.160 C 
HETATM    5  C15 UNL     1      -3.179   6.730  15.165  1.00  0.00     0.148 C 
HETATM    6  C16 UNL     1      -1.975   7.652  15.427  1.00  0.00     0.046 C 
HETATM    7  C17 UNL     1      -0.865   7.650  14.334  1.00  0.00    -0.010 C 
HETATM    8  C18 UNL     1      -0.263   9.079  14.283  1.00  0.00     0.018 C 
HETATM    9  C19 UNL     1       0.279   6.715  14.791  1.00  0.00     0.018 C 
ENDROOT
BRANCH   4  10
HETATM   10  O3  UNL     1      -3.964   4.670  14.030  1.00  0.00    -0.350 OA
BRANCH  10  11
HETATM   11  C9  UNL     1      -4.545   4.933  12.754  1.00  0.00     0.292 C 
HETATM   12  O4  UNL     1      -5.708   5.743  12.931  1.00  0.00    -0.348 OA
HETATM   13  C10 UNL     1      -6.797   5.115  13.616  1.00  0.00     0.179 C 
HETATM   14  C12 UNL     1      -6.924   3.594  13.389  1.00  0.00     0.180 C 
HETATM   15  C13 UNL     1      -6.331   3.246  12.025  1.00  0.00     0.183 C 
HETATM   16  C14 UNL     1      -4.842   3.599  12.027  1.00  0.00     0.204 C 
BRANCH  13  17
HETATM   17  C11 UNL     1      -6.783   5.454  15.114  1.00  0.00     0.198 C 
BRANCH  17  18
HETATM   18  O5  UNL     1      -7.732   4.648  15.817  1.00  0.00    -0.398 OA
HETATM   19  H18 UNL     1      -8.476   5.230  16.057  1.00  0.00     0.209 HD
ENDBRANCH  17  18
ENDBRANCH  13  17
BRANCH  14  20
HETATM   20  O6  UNL     1      -8.308   3.222  13.473  1.00  0.00    -0.390 OA
HETATM   21  H20 UNL     1      -8.581   3.438  14.387  1.00  0.00     0.210 HD
ENDBRANCH  14  20
BRANCH  15  22
HETATM   22  O7  UNL     1      -6.453   1.841  11.746  1.00  0.00    -0.390 OA
HETATM   23  H22 UNL     1      -6.101   1.728  10.842  1.00  0.00     0.210 HD
ENDBRANCH  15  22
BRANCH  16  24
HETATM   24  O8  UNL     1      -4.376   3.622  10.663  1.00  0.00    -0.388 OA
HETATM   25  H24 UNL     1      -3.420   3.832  10.733  1.00  0.00     0.210 HD
ENDBRANCH  16  24
ENDBRANCH  10  11
ENDBRANCH   4  10
BRANCH   5  26
HETATM   26  O9  UNL     1      -3.732   6.383  16.449  1.00  0.00    -0.393 OA
HETATM   27  H26 UNL     1      -3.915   7.230  16.901  1.00  0.00     0.210 HD
ENDBRANCH   5  26
BRANCH   1  28
HETATM   28  C4  UNL     1      -0.559   7.393  11.760  1.00  0.00     0.010 C 
HETATM   29  C3  UNL     1      -0.568   8.439  10.911  1.00  0.00     0.003 C 
BRANCH  29  30
HETATM   30  C2  UNL     1       0.343   8.591   9.731  1.00  0.00     0.136 C 
HETATM   31  C1  UNL     1       0.965   7.262   9.328  1.00  0.00     0.043 C 
BRANCH  30  32
HETATM   32  O1  UNL     1      -0.436   9.094   8.651  1.00  0.00    -0.392 OA
HETATM   33  H5  UNL     1      -1.057   8.397   8.382  1.00  0.00     0.210 HD
ENDBRANCH  30  32
ENDBRANCH  29  30
ENDBRANCH   1  28
BRANCH   1  34
HETATM   34  O2  UNL     1      -2.581   8.159  12.732  1.00  0.00    -0.385 OA
HETATM   35  H8  UNL     1      -2.200   8.985  12.384  1.00  0.00     0.211 HD
ENDBRANCH   1  34
TORSDOF 12
ENDMDL
