MODEL 1
REMARK minimizedAffinity -7.53546762
REMARK CNNscore 0.756080747
REMARK CNNaffinity 6.30415773
REMARK  10 active torsions:
REMARK  status: ('A' for Active; 'I' for Inactive)
REMARK    1  A    between atoms: C2_2  and  O2_4 
REMARK    2  A    between atoms: O2_4  and  C3_5 
REMARK    3  A    between atoms: C3_5  and  C4_6 
REMARK    4  A    between atoms: C18_21  and  O4_22 
REMARK    5  A    between atoms: C21_25  and  O5_26 
REMARK    6  A    between atoms: C21_25  and  C22_27 
REMARK    7  A    between atoms: C22_27  and  O6_29 
REMARK    8  A    between atoms: C22_27  and  C24_30 
REMARK    9  A    between atoms: C28_34  and  C29_35 
REMARK   10  A    between atoms: C29_35  and  O7_36 
ROOT
HETATM    1  C4  UNL     1     -15.910  -2.722  14.731  1.00  0.00     0.047 C 
HETATM    2  C5  UNL     1     -14.755  -1.804  15.159  1.00  0.00     0.018 C 
HETATM    3  C6  UNL     1     -15.253  -0.390  15.519  1.00  0.00     0.007 C 
HETATM    4  C7  UNL     1     -16.112   0.296  14.413  1.00  0.00     0.013 C 
HETATM    5  C8  UNL     1     -17.213  -0.665  13.858  1.00  0.00     0.030 C 
HETATM    6  C9  UNL     1     -17.921  -0.036  12.647  1.00  0.00     0.035 C 
HETATM    7  C10 UNL     1     -18.316   1.384  12.889  1.00  0.00    -0.022 C 
HETATM    8  C11 UNL     1     -17.818   2.161  13.868  1.00  0.00    -0.064 C 
HETATM    9  C12 UNL     1     -18.315   3.583  14.025  1.00  0.00     0.062 C 
HETATM   10  C13 UNL     1     -17.197   4.550  14.263  1.00  0.00    -0.019 C 
HETATM   11  C14 UNL     1     -15.946   4.195  14.577  1.00  0.00     0.047 C 
HETATM   12  C15 UNL     1     -15.584   2.765  14.766  1.00  0.00     0.162 C 
HETATM   13  O3  UNL     1     -14.390   2.500  14.908  1.00  0.00    -0.292 OA
HETATM   14  C16 UNL     1     -16.714   1.699  14.835  1.00  0.00     0.048 C 
HETATM   15  C17 UNL     1     -17.264   1.680  16.275  1.00  0.00     0.029 C 
HETATM   16  C18 UNL     1     -16.621  -2.054  13.520  1.00  0.00     0.075 C 
HETATM   17  C19 UNL     1     -17.598  -3.132  13.069  1.00  0.00     0.042 C 
HETATM   18  C20 UNL     1     -16.775  -4.430  13.168  1.00  0.00     0.045 C 
HETATM   19  C21 UNL     1     -15.584  -4.163  14.160  1.00  0.00     0.103 C 
ENDROOT
BRANCH  19  20
HETATM   20  O5  UNL     1     -15.802  -5.132  15.229  1.00  0.00    -0.386 OA
HETATM   21  H27 UNL     1     -15.502  -5.986  14.844  1.00  0.00     0.210 HD
ENDBRANCH  19  20
BRANCH  19  22
HETATM   22  C22 UNL     1     -14.178  -4.605  13.556  1.00  0.00     0.113 C 
HETATM   23  C23 UNL     1     -13.010  -3.741  14.069  1.00  0.00     0.052 C 
BRANCH  22  24
HETATM   24  O6  UNL     1     -13.958  -5.900  14.244  1.00  0.00    -0.384 OA
HETATM   25  H31 UNL     1     -13.270  -6.365  13.721  1.00  0.00     0.210 HD
ENDBRANCH  22  24
BRANCH  22  26
HETATM   26  C24 UNL     1     -14.035  -4.917  12.023  1.00  0.00     0.173 C 
HETATM   27  C25 UNL     1     -15.165  -5.693  11.346  1.00  0.00     0.070 C 
HETATM   28  C26 UNL     1     -14.903  -5.772   9.862  1.00  0.00    -0.067 C 
HETATM   29  C27 UNL     1     -15.451  -6.996   9.182  1.00  0.00     0.044 C 
HETATM   30  C28 UNL     1     -14.240  -4.775   9.236  1.00  0.00     0.042 C 
HETATM   31  C30 UNL     1     -13.827  -3.567  10.001  1.00  0.00     0.292 C 
HETATM   32  O8  UNL     1     -13.394  -2.561   9.455  1.00  0.00    -0.260 OA
HETATM   33  O9  UNL     1     -13.978  -3.616  11.349  1.00  0.00    -0.309 OA
BRANCH  30  34
HETATM   34  C29 UNL     1     -13.912  -4.740   7.774  1.00  0.00     0.209 C 
BRANCH  34  35
HETATM   35  O7  UNL     1     -14.896  -3.971   7.090  1.00  0.00    -0.396 OA
HETATM   36  H40 UNL     1     -14.485  -3.661   6.264  1.00  0.00     0.209 HD
ENDBRANCH  34  35
ENDBRANCH  30  34
ENDBRANCH  22  26
ENDBRANCH  19  22
BRANCH   1  37
HETATM   37  C3  UNL     1     -16.894  -2.874  15.964  1.00  0.00     0.194 C 
BRANCH  37  38
HETATM   38  O2  UNL     1     -16.157  -3.139  17.172  1.00  0.00    -0.321 OA
BRANCH  38  39
HETATM   39  C2  UNL     1     -16.822  -2.836  18.317  1.00  0.00     0.254 C 
HETATM   40  C1  UNL     1     -18.253  -3.261  18.206  1.00  0.00     0.126 C 
HETATM   41  O1  UNL     1     -16.328  -2.324  19.313  1.00  0.00    -0.266 OA
ENDBRANCH  38  39
ENDBRANCH  37  38
ENDBRANCH   1  37
BRANCH  16  42
HETATM   42  O4  UNL     1     -15.698  -1.928  12.426  1.00  0.00    -0.388 OA
HETATM   43  H22 UNL     1     -15.419  -1.003  12.322  1.00  0.00     0.210 HD
ENDBRANCH  16  42
TORSDOF 10
ENDMDL
