MODEL 1
REMARK minimizedAffinity -8.33932686
REMARK  11 active torsions:
REMARK  status: ('A' for Active; 'I' for Inactive)
REMARK    1  A    between atoms: C4_4  and  O1_5 
REMARK    2  A    between atoms: O1_5  and  C5_6 
REMARK    3  A    between atoms: C6_8  and  C7_9 
REMARK    4  A    between atoms: C7_9  and  O3_10 
REMARK    5  A    between atoms: C8_11  and  O4_12 
REMARK    6  A    between atoms: C9_13  and  O5_14 
REMARK    7  A    between atoms: C10_15  and  O6_16 
REMARK    8  A    between atoms: C15_21  and  O7_22 
REMARK    9  A    between atoms: C15_21  and  C16_23 
REMARK   10  A    between atoms: C17_24  and  C18_25 
REMARK   11  A    between atoms: C18_25  and  O8_27 
ROOT
HETATM    1  C1  UNL     1      -2.046  48.421 -22.615  1.00  0.00     0.013 C 
HETATM    2  C2  UNL     1      -3.407  48.406 -23.324  1.00  0.00     0.023 C 
HETATM    3  C3  UNL     1      -3.254  48.520 -24.854  1.00  0.00     0.039 C 
HETATM    4  C4  UNL     1      -3.055  49.947 -25.372  1.00  0.00     0.126 C 
HETATM    5  C11 UNL     1      -4.145  50.886 -24.833  1.00  0.00     0.044 C 
HETATM    6  C12 UNL     1      -4.343  50.871 -23.291  1.00  0.00    -0.010 C 
HETATM    7  C13 UNL     1      -3.198  51.641 -22.588  1.00  0.00     0.018 C 
HETATM    8  C14 UNL     1      -5.618  51.710 -22.984  1.00  0.00     0.018 C 
HETATM    9  C15 UNL     1      -4.484  49.388 -22.760  1.00  0.00     0.086 C 
ENDROOT
BRANCH   4  10
HETATM   10  O1  UNL     1      -1.789  50.500 -25.017  1.00  0.00    -0.353 OA
BRANCH  10  11
HETATM   11  C5  UNL     1      -1.154  51.262 -26.056  1.00  0.00     0.292 C 
HETATM   12  O2  UNL     1       0.001  50.579 -26.536  1.00  0.00    -0.348 OA
HETATM   13  C6  UNL     1       0.992  51.399 -27.191  1.00  0.00     0.179 C 
HETATM   14  C8  UNL     1       0.486  52.785 -27.622  1.00  0.00     0.180 C 
HETATM   15  C9  UNL     1      -0.183  53.547 -26.469  1.00  0.00     0.183 C 
HETATM   16  C10 UNL     1      -0.779  52.607 -25.417  1.00  0.00     0.204 C 
BRANCH  13  17
HETATM   17  C7  UNL     1       2.233  51.477 -26.290  1.00  0.00     0.198 C 
BRANCH  17  18
HETATM   18  O3  UNL     1       3.341  51.963 -27.052  1.00  0.00    -0.398 OA
HETATM   19  H12 UNL     1       3.332  51.457 -27.887  1.00  0.00     0.209 HD
ENDBRANCH  17  18
ENDBRANCH  13  17
BRANCH  14  20
HETATM   20  O4  UNL     1      -0.493  52.609 -28.663  1.00  0.00    -0.390 OA
HETATM   21  H14 UNL     1      -0.036  52.225 -29.434  1.00  0.00     0.210 HD
ENDBRANCH  14  20
BRANCH  15  22
HETATM   22  O5  UNL     1       0.771  54.409 -25.833  1.00  0.00    -0.390 OA
HETATM   23  H16 UNL     1       0.264  54.919 -25.170  1.00  0.00     0.210 HD
ENDBRANCH  15  22
BRANCH  16  24
HETATM   24  O6  UNL     1      -1.905  53.241 -24.791  1.00  0.00    -0.388 OA
HETATM   25  H18 UNL     1      -2.343  52.528 -24.282  1.00  0.00     0.210 HD
ENDBRANCH  16  24
ENDBRANCH  10  11
ENDBRANCH   4  10
BRANCH   9  26
HETATM   26  O7  UNL     1      -4.382  49.383 -21.332  1.00  0.00    -0.385 OA
HETATM   27  H27 UNL     1      -5.107  49.930 -20.987  1.00  0.00     0.211 HD
ENDBRANCH   9  26
BRANCH   9  28
HETATM   28  C16 UNL     1      -5.849  48.793 -23.121  1.00  0.00     0.010 C 
HETATM   29  C17 UNL     1      -6.678  49.218 -24.096  1.00  0.00     0.003 C 
BRANCH  29  30
HETATM   30  C18 UNL     1      -8.006  48.591 -24.400  1.00  0.00     0.136 C 
HETATM   31  C19 UNL     1      -8.639  47.973 -23.161  1.00  0.00     0.043 C 
BRANCH  30  32
HETATM   32  O8  UNL     1      -8.860  49.605 -24.915  1.00  0.00    -0.392 OA
HETATM   33  H34 UNL     1      -9.018  50.246 -24.202  1.00  0.00     0.210 HD
ENDBRANCH  30  32
ENDBRANCH  29  30
ENDBRANCH   9  28
TORSDOF 11
ENDMDL
