MODEL 1
REMARK minimizedAffinity -7.23948383
REMARK CNNscore 0.890131474
REMARK CNNaffinity 7.4806819
REMARK  7 active torsions:
REMARK  status: ('A' for Active; 'I' for Inactive)
REMARK    1  A    between atoms: C2_2  and  C3_3 
REMARK    2  A    between atoms: C4_5  and  C5_6 
REMARK    3  A    between atoms: C5_6  and  C6_7 
REMARK    4  A    between atoms: C6_7  and  C7_8 
REMARK    5  A    between atoms: C7_8  and  C9_10 
REMARK    6  A    between atoms: C11_12  and  O2_13 
REMARK    7  A    between atoms: C30_33  and  O4_34 
ROOT
HETATM    1  C9  UNL     1      -1.771  52.193 -11.076  1.00  0.00     0.001 C 
HETATM    2  C10 UNL     1      -1.003  52.498 -12.395  1.00  0.00     0.038 C 
HETATM    3  C11 UNL     1       0.283  53.260 -12.017  1.00  0.00     0.132 C 
HETATM    4  C12 UNL     1       0.439  53.050 -10.488  1.00  0.00     0.016 C 
HETATM    5  C13 UNL     1       1.089  51.651 -10.237  1.00  0.00     0.023 C 
HETATM    6  C14 UNL     1       1.274  54.053  -9.672  1.00  0.00    -0.037 C 
HETATM    7  C15 UNL     1       0.955  54.298  -8.370  1.00  0.00    -0.065 C 
HETATM    8  C16 UNL     1      -0.237  53.598  -7.696  1.00  0.00     0.036 C 
HETATM    9  C17 UNL     1      -1.164  52.741  -8.579  1.00  0.00     0.015 C 
HETATM   10  C18 UNL     1      -1.082  53.150 -10.053  1.00  0.00    -0.026 C 
HETATM   11  C19 UNL     1      -1.681  54.585 -10.206  1.00  0.00     0.016 C 
HETATM   12  C20 UNL     1       1.731  55.327  -7.499  1.00  0.00    -0.015 C 
HETATM   13  C21 UNL     1       0.813  56.568  -7.349  1.00  0.00     0.020 C 
HETATM   14  C22 UNL     1       2.025  54.735  -6.092  1.00  0.00     0.021 C 
HETATM   15  C23 UNL     1       3.183  55.376  -5.328  1.00  0.00     0.080 C 
HETATM   16  C24 UNL     1       3.600  56.718  -5.882  1.00  0.00     0.135 C 
HETATM   17  O3  UNL     1       3.730  57.686  -5.133  1.00  0.00    -0.297 OA
HETATM   18  C25 UNL     1       3.933  56.784  -7.379  1.00  0.00     0.018 C 
HETATM   19  C26 UNL     1       5.443  56.493  -7.507  1.00  0.00     0.023 C 
HETATM   20  C27 UNL     1       3.696  58.218  -7.894  1.00  0.00     0.023 C 
HETATM   21  C28 UNL     1       3.115  55.688  -8.144  1.00  0.00     0.016 C 
HETATM   22  C29 UNL     1       2.959  55.967  -9.647  1.00  0.00     0.043 C 
HETATM   23  C30 UNL     1       2.434  54.728 -10.373  1.00  0.00     0.148 C 
ENDROOT
BRANCH   1  24
HETATM   24  C7  UNL     1      -3.313  52.248 -11.267  1.00  0.00    -0.013 C 
HETATM   25  C8  UNL     1      -3.869  53.676 -11.259  1.00  0.00     0.010 C 
BRANCH  24  26
HETATM   26  C6  UNL     1      -4.090  51.348 -10.264  1.00  0.00     0.008 C 
BRANCH  26  27
HETATM   27  C5  UNL     1      -5.014  50.257 -10.821  1.00  0.00     0.028 C 
BRANCH  27  28
HETATM   28  C4  UNL     1      -6.319  50.094 -10.101  1.00  0.00    -0.017 C 
HETATM   29  C2  UNL     1      -7.243  49.141 -10.320  1.00  0.00    -0.028 C 
HETATM   30  C1  UNL     1      -7.193  48.070 -11.362  1.00  0.00     0.051 C 
BRANCH  29  31
HETATM   31  C3  UNL     1      -8.468  49.141  -9.461  1.00  0.00     0.265 C 
HETATM   32  O1  UNL     1      -9.409  48.372  -9.613  1.00  0.00    -0.302 OA
ENDBRANCH  29  31
ENDBRANCH  27  28
ENDBRANCH  26  27
ENDBRANCH  24  26
ENDBRANCH   1  24
BRANCH   3  33
HETATM   33  O2  UNL     1       1.378  52.769 -12.773  1.00  0.00    -0.394 OA
HETATM   34  H18 UNL     1       1.204  52.961 -13.709  1.00  0.00     0.210 HD
ENDBRANCH   3  33
BRANCH  23  35
HETATM   35  O4  UNL     1       3.523  53.817 -10.491  1.00  0.00    -0.391 OA
HETATM   36  H46 UNL     1       3.391  53.109  -9.842  1.00  0.00     0.210 HD
ENDBRANCH  23  35
TORSDOF 7
ENDMDL
