MODEL 1
REMARK minimizedAffinity -8.47757149
REMARK CNNscore 0.599362314
REMARK CNNaffinity 7.0760932
REMARK  11 active torsions:
REMARK  status: ('A' for Active; 'I' for Inactive)
REMARK    1  A    between atoms: C3_3  and  O1_4 
REMARK    2  A    between atoms: N1_14  and  O2_16 
REMARK    3  A    between atoms: O2_16  and  C13_17 
REMARK    4  A    between atoms: C13_17  and  C14_18 
REMARK       I    between atoms: C14_18  and  N2_20 
REMARK    5  A    between atoms: N2_20  and  C15_21 
REMARK    6  A    between atoms: C15_21  and  C16_22 
REMARK    7  A    between atoms: C15_21  and  C17_25 
REMARK    8  A    between atoms: C16_22  and  O5_24 
REMARK    9  A    between atoms: C17_25  and  O6_26 
REMARK   10  A    between atoms: C17_25  and  C18_27 
REMARK   11  A    between atoms: C22_31  and  N3_32 
ROOT
HETATM    1  C1  UNL     1     -12.836   3.001  30.405  1.00  0.00     0.015 C 
HETATM    2  C2  UNL     1     -13.138   2.640  29.300  1.00  0.00    -0.078 C 
HETATM    3  C3  UNL     1     -13.518   2.180  27.956  1.00  0.00     0.128 C 
HETATM    4  C4  UNL     1     -12.288   1.902  27.077  1.00  0.00     0.052 C 
HETATM    5  C5  UNL     1     -12.723   2.197  25.635  1.00  0.00     0.010 C 
HETATM    6  C6  UNL     1     -14.189   2.665  25.697  1.00  0.00     0.002 C 
HETATM    7  C7  UNL     1     -14.630   3.637  24.580  1.00  0.00    -0.004 C 
HETATM    8  C8  UNL     1     -14.334   3.051  23.192  1.00  0.00     0.010 C 
HETATM    9  C9  UNL     1     -14.876   3.948  22.090  1.00  0.00     0.035 C 
HETATM   10  C10 UNL     1     -14.346   5.358  22.200  1.00  0.00    -0.069 C 
HETATM   11  C11 UNL     1     -13.844   5.959  21.107  1.00  0.00     0.030 C 
HETATM   12  C12 UNL     1     -13.462   7.394  21.102  1.00  0.00     0.032 C 
HETATM   13  N1  UNL     1     -13.056   7.903  19.974  1.00  0.00    -0.271 N 
ATOM     14  H1  UNL     1     -12.935   7.367  19.114  1.00  0.00     0.194 HD
HETATM   15  C24 UNL     1     -13.655   8.185  22.377  1.00  0.00     0.060 C 
HETATM   16  C25 UNL     1     -13.546   7.291  23.606  1.00  0.00     0.020 C 
HETATM   17  C26 UNL     1     -14.471   6.040  23.566  1.00  0.00    -0.016 C 
HETATM   18  C27 UNL     1     -15.941   6.491  23.738  1.00  0.00     0.020 C 
HETATM   19  C28 UNL     1     -14.014   5.052  24.714  1.00  0.00     0.002 C 
HETATM   20  C29 UNL     1     -14.266   5.599  26.133  1.00  0.00     0.007 C 
HETATM   21  C30 UNL     1     -13.754   4.652  27.220  1.00  0.00     0.014 C 
HETATM   22  C31 UNL     1     -14.347   3.220  27.134  1.00  0.00     0.003 C 
HETATM   23  C32 UNL     1     -15.827   3.240  27.562  1.00  0.00     0.020 C 
ENDROOT
BRANCH   3  24
HETATM   24  O1  UNL     1     -14.245   0.959  28.117  1.00  0.00    -0.377 OA
HETATM   25  H2  UNL     1     -14.273   0.501  27.264  1.00  0.00     0.211 HD
ENDBRANCH   3  24
BRANCH  13  26
HETATM   26  O2  UNL     1     -12.804   9.279  20.085  1.00  0.00    -0.271 OA
BRANCH  26  27
HETATM   27  C13 UNL     1     -11.498   9.541  19.585  1.00  0.00     0.303 C 
BRANCH  27  28
HETATM   28  C14 UNL     1     -11.578   9.870  18.103  1.00  0.00     0.244 C 
HETATM   29  O3  UNL     1     -11.773  11.009  17.684  1.00  0.00    -0.271 OA
HETATM   30  N2  UNL     1     -11.472   8.778  17.276  1.00  0.00    -0.342 N 
HETATM   31  H16 UNL     1     -11.183   7.884  17.665  1.00  0.00     0.163 HD
BRANCH  30  32
HETATM   32  C15 UNL     1     -11.549   8.879  15.816  1.00  0.00     0.216 C 
BRANCH  32  33
HETATM   33  C16 UNL     1     -12.488  10.007  15.395  1.00  0.00     0.166 C 
HETATM   34  O4  UNL     1     -12.175  10.995  14.748  1.00  0.00    -0.648 OA
BRANCH  33  35
HETATM   35  O5  UNL     1     -13.769   9.851  15.807  1.00  0.00    -0.775 OA
HETATM   36  H18 UNL     1     -14.221  10.658  15.476  1.00  0.00     0.167 HD
ENDBRANCH  33  35
ENDBRANCH  32  33
BRANCH  32  37
HETATM   37  C17 UNL     1     -10.175   9.134  15.150  1.00  0.00     0.184 C 
BRANCH  37  38
HETATM   38  O6  UNL     1      -9.507  10.238  15.781  1.00  0.00    -0.388 OA
HETATM   39  H20 UNL     1      -8.651  10.337  15.327  1.00  0.00     0.210 HD
ENDBRANCH  37  38
BRANCH  37  40
HETATM   40  C18 UNL     1      -9.269   7.912  15.150  1.00  0.00    -0.025 A 
HETATM   41  C19 UNL     1      -8.439   7.607  16.242  1.00  0.00     0.010 A 
HETATM   42  C20 UNL     1      -7.637   6.463  16.242  1.00  0.00     0.003 A 
HETATM   43  C21 UNL     1      -7.656   5.595  15.151  1.00  0.00     0.036 A 
HETATM   44  C22 UNL     1      -8.485   5.883  14.061  1.00  0.00     0.103 A 
HETATM   45  C23 UNL     1      -9.287   7.034  14.054  1.00  0.00     0.045 A 
BRANCH  44  46
HETATM   46  N3  UNL     1      -8.511   4.972  12.910  1.00  0.00    -0.116 N 
HETATM   47  O7  UNL     1      -8.406   3.756  13.133  1.00  0.00    -0.532 OA
HETATM   48  O8  UNL     1      -8.650   5.468  11.783  1.00  0.00    -0.532 OA
ENDBRANCH  44  46
ENDBRANCH  37  40
ENDBRANCH  32  37
ENDBRANCH  30  32
ENDBRANCH  27  28
ENDBRANCH  26  27
ENDBRANCH  13  26
TORSDOF 11
ENDMDL
