MODEL 1
REMARK minimizedAffinity -8.7743578
REMARK CNNscore 0.641442358
REMARK CNNaffinity 7.21540976
REMARK  18 active torsions:
REMARK  status: ('A' for Active; 'I' for Inactive)
REMARK    1  A    between atoms: C19_20  and  O2_21 
REMARK    2  A    between atoms: C19_20  and  C20_22 
REMARK    3  A    between atoms: C20_22  and  C21_24 
REMARK    4  A    between atoms: C21_24  and  O4_25 
REMARK    5  A    between atoms: O4_25  and  C22_26 
REMARK    6  A    between atoms: C22_26  and  C23_28 
REMARK    7  A    between atoms: C23_28  and  C24_29 
REMARK    8  A    between atoms: C24_29  and  C25_30 
REMARK       I    between atoms: C25_30  and  N1_32 
REMARK    9  A    between atoms: N1_32  and  C26_33 
REMARK   10  A    between atoms: C26_33  and  C27_34 
REMARK   11  A    between atoms: C27_34  and  C28_35 
REMARK   12  A    between atoms: C28_35  and  C29_36 
REMARK   13  A    between atoms: C29_36  and  C30_37 
REMARK   14  A    between atoms: C30_37  and  C31_38 
REMARK       I    between atoms: C31_38  and  N2_40 
REMARK   15  A    between atoms: N2_40  and  C32_41 
REMARK   16  A    between atoms: C32_41  and  C33_42 
REMARK   17  A    between atoms: C36_45  and  C37_46 
REMARK   18  A    between atoms: C37_46  and  O9_48 
ROOT
HETATM    1  C22 UNL     1      -6.662  47.803 -28.909  1.00  0.00     0.259 C 
HETATM    2  O5  UNL     1      -5.630  47.997 -29.535  1.00  0.00    -0.265 OA
ENDROOT
BRANCH   1   3
HETATM    3  O4  UNL     1      -6.732  47.666 -27.556  1.00  0.00    -0.314 OA
BRANCH   3   4
HETATM    4  C21 UNL     1      -5.537  48.011 -26.854  1.00  0.00     0.260 C 
BRANCH   4   5
HETATM    5  C20 UNL     1      -5.721  48.158 -25.344  1.00  0.00     0.185 C 
HETATM    6  O3  UNL     1      -6.574  47.484 -24.767  1.00  0.00    -0.292 OA
BRANCH   5   7
HETATM    7  C19 UNL     1      -4.779  49.150 -24.615  1.00  0.00     0.128 C 
HETATM    8  C14 UNL     1      -3.429  49.505 -25.335  1.00  0.00    -0.002 C 
HETATM    9  C13 UNL     1      -3.539  50.539 -26.482  1.00  0.00     0.013 C 
HETATM   10  C15 UNL     1      -2.679  48.232 -25.822  1.00  0.00     0.019 C 
HETATM   11  C16 UNL     1      -2.693  50.176 -24.155  1.00  0.00     0.002 C 
HETATM   12  C12 UNL     1      -2.447  51.640 -26.456  1.00  0.00     0.007 C 
HETATM   13  C11 UNL     1      -1.091  51.119 -25.935  1.00  0.00     0.002 C 
HETATM   14  C2  UNL     1       0.179  52.018 -26.179  1.00  0.00    -0.016 C 
HETATM   15  C10 UNL     1      -1.245  50.632 -24.444  1.00  0.00    -0.004 C 
HETATM   16  C1  UNL     1       1.422  51.077 -26.166  1.00  0.00     0.020 C 
HETATM   17  C3  UNL     1       0.210  52.695 -27.583  1.00  0.00     0.022 C 
HETATM   18  C7  UNL     1       0.326  53.042 -25.062  1.00  0.00    -0.068 C 
HETATM   19  C4  UNL     1      -0.437  54.072 -27.655  1.00  0.00     0.084 C 
HETATM   20  C5  UNL     1       0.110  54.970 -26.578  1.00  0.00     0.149 C 
HETATM   21  O1  UNL     1       0.281  56.175 -26.745  1.00  0.00    -0.293 OA
HETATM   22  C6  UNL     1       0.343  54.372 -25.245  1.00  0.00     0.053 C 
HETATM   23  C8  UNL     1       0.407  52.467 -23.675  1.00  0.00     0.035 C 
HETATM   24  C9  UNL     1      -0.876  51.703 -23.388  1.00  0.00     0.010 C 
HETATM   25  C17 UNL     1      -2.910  49.213 -22.987  1.00  0.00     0.009 C 
HETATM   26  C18 UNL     1      -4.299  48.593 -23.248  1.00  0.00     0.047 C 
BRANCH   7  27
HETATM   27  O2  UNL     1      -5.501  50.370 -24.370  1.00  0.00    -0.381 OA
HETATM   28  H27 UNL     1      -6.117  50.223 -23.628  1.00  0.00     0.211 HD
ENDBRANCH   7  27
ENDBRANCH   5   7
ENDBRANCH   4   5
ENDBRANCH   3   4
ENDBRANCH   1   3
BRANCH   1  29
HETATM   29  C23 UNL     1      -8.003  47.586 -29.555  1.00  0.00     0.120 C 
BRANCH  29  30
HETATM   30  C24 UNL     1      -9.157  48.133 -28.722  1.00  0.00     0.112 C 
BRANCH  30  31
HETATM   31  C25 UNL     1     -10.492  47.742 -29.320  1.00  0.00     0.217 C 
HETATM   32  O6  UNL     1     -10.726  47.788 -30.520  1.00  0.00    -0.274 OA
HETATM   33  N1  UNL     1     -11.405  47.319 -28.380  1.00  0.00    -0.361 N 
HETATM   34  H34 UNL     1     -11.151  47.309 -27.401  1.00  0.00     0.162 HD
BRANCH  33  35
HETATM   35  C26 UNL     1     -12.760  46.950 -28.739  1.00  0.00     0.122 C 
BRANCH  35  36
HETATM   36  C27 UNL     1     -12.853  45.570 -29.393  1.00  0.00     0.020 C 
BRANCH  36  37
HETATM   37  C28 UNL     1     -13.719  44.555 -28.635  1.00  0.00     0.002 C 
BRANCH  37  38
HETATM   38  C29 UNL     1     -14.990  45.145 -28.020  1.00  0.00     0.009 C 
BRANCH  38  39
HETATM   39  C30 UNL     1     -15.503  44.326 -26.836  1.00  0.00     0.103 C 
BRANCH  39  40
HETATM   40  C31 UNL     1     -15.236  44.976 -25.488  1.00  0.00     0.217 C 
HETATM   41  O7  UNL     1     -14.685  44.408 -24.552  1.00  0.00    -0.274 OA
HETATM   42  N2  UNL     1     -15.682  46.280 -25.436  1.00  0.00    -0.357 N 
HETATM   43  H45 UNL     1     -15.944  46.740 -26.297  1.00  0.00     0.162 HD
BRANCH  42  44
HETATM   44  C32 UNL     1     -15.466  47.109 -24.272  1.00  0.00     0.161 C 
BRANCH  44  45
HETATM   45  C33 UNL     1     -16.425  46.758 -23.163  1.00  0.00    -0.040 A 
HETATM   46  C34 UNL     1     -17.793  46.589 -23.422  1.00  0.00     0.010 A 
HETATM   47  C35 UNL     1     -18.675  46.275 -22.384  1.00  0.00     0.019 A 
HETATM   48  C36 UNL     1     -18.201  46.129 -21.073  1.00  0.00     0.037 A 
HETATM   49  C38 UNL     1     -16.839  46.305 -20.808  1.00  0.00     0.019 A 
HETATM   50  C39 UNL     1     -15.959  46.625 -21.846  1.00  0.00     0.010 A 
BRANCH  48  51
HETATM   51  C37 UNL     1     -19.174  45.792 -20.006  1.00  0.00     0.176 C 
HETATM   52  O8  UNL     1     -19.791  46.593 -19.329  1.00  0.00    -0.646 OA
BRANCH  51  53
HETATM   53  O9  UNL     1     -19.335  44.467 -19.845  1.00  0.00    -0.773 OA
HETATM   54  H50 UNL     1     -19.996  44.397 -19.125  1.00  0.00     0.167 HD
ENDBRANCH  51  53
ENDBRANCH  48  51
ENDBRANCH  44  45
ENDBRANCH  42  44
ENDBRANCH  39  40
ENDBRANCH  38  39
ENDBRANCH  37  38
ENDBRANCH  36  37
ENDBRANCH  35  36
ENDBRANCH  33  35
ENDBRANCH  30  31
ENDBRANCH  29  30
ENDBRANCH   1  29
TORSDOF 18
ENDMDL
