MODEL 1
REMARK minimizedAffinity -8.07499599
REMARK CNNscore 0.706382155
REMARK CNNaffinity 6.62484932
REMARK  12 active torsions:
REMARK  status: ('A' for Active; 'I' for Inactive)
REMARK    1  A    between atoms: C2_2  and  N1_3 
REMARK    2  A    between atoms: N1_3  and  C3_4 
REMARK    3  A    between atoms: C3_4  and  C4_5 
REMARK    4  A    between atoms: C4_5  and  C5_6 
REMARK    5  A    between atoms: C4_5  and  C32_37 
REMARK    6  A    between atoms: C5_6  and  C7_8 
REMARK    7  A    between atoms: C9_10  and  O1_11 
REMARK    8  A    between atoms: C31_35  and  O4_36 
REMARK    9  A    between atoms: C32_37  and  O5_38 
REMARK   10  A    between atoms: C32_37  and  C33_39 
REMARK   11  A    between atoms: C34_40  and  C36_42 
REMARK   12  A    between atoms: C36_42  and  O7_44 
ROOT
HETATM    1  C7  UNL     1     -12.970  45.497 -27.689  1.00  0.00     0.002 C 
HETATM    2  C8  UNL     1     -12.763  46.542 -26.556  1.00  0.00     0.038 C 
HETATM    3  C9  UNL     1     -11.409  47.242 -26.831  1.00  0.00     0.132 C 
HETATM    4  C10 UNL     1     -11.014  46.807 -28.277  1.00  0.00     0.017 C 
HETATM    5  C11 UNL     1     -11.787  47.711 -29.303  1.00  0.00     0.023 C 
HETATM    6  C12 UNL     1      -9.556  46.859 -28.756  1.00  0.00    -0.029 C 
HETATM    7  C13 UNL     1      -9.073  45.941 -29.640  1.00  0.00     0.003 C 
HETATM    8  C14 UNL     1     -10.031  44.931 -30.235  1.00  0.00     0.157 C 
HETATM    9  O2  UNL     1      -9.729  44.239 -31.206  1.00  0.00    -0.293 OA
HETATM   10  C15 UNL     1     -11.406  44.740 -29.634  1.00  0.00     0.094 C 
HETATM   11  C16 UNL     1     -11.499  45.289 -28.212  1.00  0.00    -0.016 C 
HETATM   12  C17 UNL     1     -10.726  44.291 -27.233  1.00  0.00     0.011 C 
HETATM   13  C18 UNL     1      -9.369  44.604 -26.573  1.00  0.00     0.001 C 
HETATM   14  C19 UNL     1      -8.232  43.618 -26.879  1.00  0.00     0.000 C 
HETATM   15  C20 UNL     1      -7.629  43.692 -28.283  1.00  0.00     0.001 C 
HETATM   16  C21 UNL     1      -6.975  45.051 -28.625  1.00  0.00     0.015 C 
HETATM   17  C22 UNL     1      -7.552  45.812 -29.897  1.00  0.00    -0.004 C 
HETATM   18  C23 UNL     1      -7.140  44.972 -31.152  1.00  0.00     0.022 C 
HETATM   19  C24 UNL     1      -5.703  45.202 -31.586  1.00  0.00     0.080 C 
HETATM   20  C25 UNL     1      -5.561  46.608 -32.093  1.00  0.00     0.135 C 
HETATM   21  O3  UNL     1      -4.804  46.856 -33.031  1.00  0.00    -0.297 OA
HETATM   22  C26 UNL     1      -6.399  47.702 -31.410  1.00  0.00     0.018 C 
HETATM   23  C27 UNL     1      -7.566  48.043 -32.355  1.00  0.00     0.023 C 
HETATM   24  C28 UNL     1      -5.487  48.951 -31.307  1.00  0.00     0.023 C 
HETATM   25  C29 UNL     1      -6.847  47.237 -29.970  1.00  0.00     0.017 C 
HETATM   26  C30 UNL     1      -7.619  48.361 -29.243  1.00  0.00     0.043 C 
HETATM   27  C31 UNL     1      -8.633  47.921 -28.199  1.00  0.00     0.149 C 
ENDROOT
BRANCH   1  28
HETATM   28  C5  UNL     1     -14.014  44.366 -27.364  1.00  0.00    -0.005 C 
HETATM   29  C6  UNL     1     -13.827  43.013 -28.061  1.00  0.00     0.011 C 
BRANCH  28  30
HETATM   30  C4  UNL     1     -15.498  44.893 -27.361  1.00  0.00     0.050 C 
BRANCH  30  31
HETATM   31  C3  UNL     1     -16.368  44.535 -28.596  1.00  0.00     0.277 C 
BRANCH  31  32
HETATM   32  N1  UNL     1     -17.647  43.893 -28.319  1.00  0.00     0.083 N 
HETATM   33  H6  UNL     1     -17.680  43.542 -27.363  1.00  0.00     0.315 HD
BRANCH  32  34
HETATM   34  C2  UNL     1     -17.915  42.795 -29.246  1.00  0.00     0.265 C 
HETATM   35  C1  UNL     1     -18.577  43.331 -30.507  1.00  0.00     0.037 C 
ENDBRANCH  32  34
ENDBRANCH  31  32
ENDBRANCH  30  31
BRANCH  30  36
HETATM   36  C32 UNL     1     -16.245  44.681 -26.008  1.00  0.00     0.147 C 
BRANCH  36  37
HETATM   37  O5  UNL     1     -16.588  43.299 -25.936  1.00  0.00    -0.391 OA
HETATM   38  H50 UNL     1     -15.863  42.856 -25.468  1.00  0.00     0.210 HD
ENDBRANCH  36  37
BRANCH  36  39
HETATM   39  C33 UNL     1     -17.463  45.537 -25.777  1.00  0.00     0.018 C 
HETATM   40  C34 UNL     1     -18.356  45.537 -24.763  1.00  0.00     0.010 C 
HETATM   41  C35 UNL     1     -18.296  44.642 -23.555  1.00  0.00     0.055 C 
BRANCH  40  42
HETATM   42  C36 UNL     1     -19.491  46.490 -24.782  1.00  0.00     0.171 C 
HETATM   43  O6  UNL     1     -20.673  46.198 -24.839  1.00  0.00    -0.646 OA
BRANCH  42  44
HETATM   44  O7  UNL     1     -19.118  47.779 -24.767  1.00  0.00    -0.773 OA
HETATM   45  H55 UNL     1     -19.975  48.251 -24.797  1.00  0.00     0.167 HD
ENDBRANCH  42  44
ENDBRANCH  40  42
ENDBRANCH  36  39
ENDBRANCH  30  36
ENDBRANCH  28  30
ENDBRANCH   1  28
BRANCH   3  46
HETATM   46  O1  UNL     1     -11.560  48.631 -26.591  1.00  0.00    -0.394 OA
HETATM   47  H18 UNL     1     -11.187  49.120 -27.358  1.00  0.00     0.210 HD
ENDBRANCH   3  46
BRANCH  27  48
HETATM   48  O4  UNL     1      -9.363  49.095 -27.856  1.00  0.00    -0.391 OA
HETATM   49  H48 UNL     1      -9.097  49.333 -26.950  1.00  0.00     0.210 HD
ENDBRANCH  27  48
TORSDOF 12
ENDMDL
