MODEL 1
REMARK minimizedAffinity -8.99441719
REMARK  6 active torsions:
REMARK  status: ('A' for Active; 'I' for Inactive)
REMARK    1  A    between atoms: C10_10  and  O1_12 
REMARK    2  A    between atoms: C12_13  and  C14_15 
REMARK    3  A    between atoms: C14_15  and  O2_16 
REMARK    4  A    between atoms: C15_17  and  C16_18 
REMARK    5  A    between atoms: C16_18  and  C17_19 
REMARK    6  A    between atoms: C21_25  and  O5_26 
ROOT
HETATM    1  C1  UNL     1       0.081  52.586 -20.418  1.00  0.00     0.015 C 
HETATM    2  C2  UNL     1      -0.078  51.556 -21.267  1.00  0.00    -0.084 C 
HETATM    3  C3  UNL     1      -0.114  50.127 -20.760  1.00  0.00     0.034 C 
HETATM    4  C4  UNL     1      -1.278  49.323 -21.372  1.00  0.00     0.010 C 
HETATM    5  C5  UNL     1      -2.374  50.266 -21.917  1.00  0.00     0.008 C 
HETATM    6  C6  UNL     1      -1.802  51.120 -23.123  1.00  0.00    -0.032 C 
HETATM    7  C7  UNL     1      -1.629  50.315 -24.437  1.00  0.00     0.016 C 
HETATM    8  C8  UNL     1      -2.816  52.262 -23.373  1.00  0.00     0.013 C 
HETATM    9  C9  UNL     1      -4.254  51.769 -23.589  1.00  0.00     0.039 C 
HETATM   10  C10 UNL     1      -4.800  50.902 -22.435  1.00  0.00     0.064 C 
HETATM   11  C11 UNL     1      -6.241  50.493 -22.784  1.00  0.00     0.046 C 
HETATM   12  C12 UNL     1      -3.839  49.689 -22.082  1.00  0.00     0.012 C 
HETATM   13  C13 UNL     1      -4.263  49.072 -20.712  1.00  0.00     0.021 C 
HETATM   14  C15 UNL     1      -0.332  51.651 -22.769  1.00  0.00     0.025 C 
ENDROOT
BRANCH  14  15
HETATM   15  C16 UNL     1       0.039  52.993 -23.455  1.00  0.00     0.037 C 
BRANCH  15  16
HETATM   16  C17 UNL     1      -0.632  53.182 -24.797  1.00  0.00    -0.010 C 
HETATM   17  C18 UNL     1      -0.137  52.876 -26.008  1.00  0.00     0.044 C 
HETATM   18  C19 UNL     1       1.186  52.283 -26.320  1.00  0.00     0.291 C 
HETATM   19  C21 UNL     1      -0.845  53.052 -27.299  1.00  0.00     0.181 C 
HETATM   20  O3  UNL     1       2.132  52.173 -25.563  1.00  0.00    -0.260 OA
HETATM   21  O4  UNL     1       1.178  51.880 -27.621  1.00  0.00    -0.315 OA
HETATM   22  C20 UNL     1      -0.135  52.038 -28.171  1.00  0.00     0.215 C 
BRANCH  19  23
HETATM   23  O5  UNL     1      -0.636  54.372 -27.790  1.00  0.00    -0.389 OA
HETATM   24  H32 UNL     1      -0.806  54.991 -27.058  1.00  0.00     0.210 HD
ENDBRANCH  19  23
ENDBRANCH  15  16
ENDBRANCH  14  15
BRANCH  12  25
HETATM   25  C14 UNL     1      -3.988  48.548 -23.121  1.00  0.00     0.176 C 
BRANCH  25  26
HETATM   26  O2  UNL     1      -5.236  48.595 -23.795  1.00  0.00    -0.400 OA
HETATM   27  H24 UNL     1      -5.279  47.821 -24.382  1.00  0.00     0.209 HD
ENDBRANCH  25  26
ENDBRANCH  12  25
BRANCH  10  28
HETATM   28  O1  UNL     1      -4.894  51.793 -21.307  1.00  0.00    -0.389 OA
HETATM   29  H18 UNL     1      -5.423  51.361 -20.616  1.00  0.00     0.210 HD
ENDBRANCH  10  28
TORSDOF 6
ENDMDL
