MODEL 1
REMARK minimizedAffinity -6.32829285
REMARK CNNscore 0.638577938
REMARK CNNaffinity 5.98564672
REMARK  5 active torsions:
REMARK  status: ('A' for Active; 'I' for Inactive)
REMARK    1  A    between atoms: C2_2  and  C3_3 
REMARK    2  A    between atoms: C6_6  and  C7_7 
REMARK    3  A    between atoms: C7_7  and  O1_9 
REMARK    4  A    between atoms: C23_29  and  O6_30 
REMARK    5  A    between atoms: C28_36  and  O8_37 
ROOT
HETATM    1  C3  UNL     1       4.347  53.886  -9.795  1.00  0.00     0.008 C 
HETATM    2  C4  UNL     1       5.758  54.433  -9.676  1.00  0.00    -0.023 C 
HETATM    3  C5  UNL     1       6.363  55.207  -8.753  1.00  0.00     0.004 C 
HETATM    4  C6  UNL     1       5.953  55.902  -7.464  1.00  0.00     0.183 C 
HETATM    5  O2  UNL     1       4.539  55.887  -7.203  1.00  0.00    -0.306 OA
HETATM    6  C9  UNL     1       4.088  56.924  -6.433  1.00  0.00     0.289 C 
HETATM    7  O3  UNL     1       4.729  57.900  -6.072  1.00  0.00    -0.260 OA
HETATM    8  C10 UNL     1       2.668  56.683  -6.079  1.00  0.00     0.010 C 
HETATM    9  C11 UNL     1       1.666  57.467  -6.853  1.00  0.00     0.054 C 
HETATM   10  C12 UNL     1       2.461  55.690  -5.189  1.00  0.00     0.004 C 
HETATM   11  C13 UNL     1       1.210  54.837  -5.086  1.00  0.00     0.147 C 
HETATM   12  C14 UNL     1       1.014  54.193  -3.703  1.00  0.00     0.233 C 
HETATM   13  O4  UNL     1       0.968  54.773  -2.632  1.00  0.00    -0.272 OA
HETATM   14  N1  UNL     1       0.864  52.819  -3.860  1.00  0.00    -0.327 N 
HETATM   15  C15 UNL     1       0.985  52.410  -5.148  1.00  0.00     0.056 C 
HETATM   16  C16 UNL     1       0.909  51.174  -5.653  1.00  0.00     0.084 C 
HETATM   17  C17 UNL     1       1.147  51.041  -7.131  1.00  0.00     0.185 C 
HETATM   18  O5  UNL     1       1.433  49.956  -7.612  1.00  0.00    -0.287 OA
HETATM   19  C18 UNL     1       0.916  52.260  -7.982  1.00  0.00     0.040 C 
HETATM   20  C19 UNL     1       0.687  53.482  -7.334  1.00  0.00    -0.001 C 
HETATM   21  C20 UNL     1       0.057  54.519  -8.028  1.00  0.00     0.021 C 
HETATM   22  C21 UNL     1      -0.215  54.386  -9.397  1.00  0.00    -0.027 C 
HETATM   23  C22 UNL     1      -0.864  55.514 -10.147  1.00  0.00     0.051 C 
HETATM   24  C23 UNL     1       0.293  53.269 -10.073  1.00  0.00     0.086 C 
HETATM   25  C24 UNL     1       0.946  52.251  -9.366  1.00  0.00     0.058 C 
HETATM   26  C25 UNL     1       1.996  51.489 -10.085  1.00  0.00     0.163 C 
HETATM   27  O7  UNL     1       1.734  51.061 -11.211  1.00  0.00    -0.292 OA
HETATM   28  C26 UNL     1       3.405  51.457  -9.490  1.00  0.00     0.084 C 
HETATM   29  C27 UNL     1       4.407  52.373 -10.210  1.00  0.00     0.016 C 
HETATM   30  C28 UNL     1       1.363  53.583  -5.996  1.00  0.00     0.143 C 
HETATM   31  H20 UNL     1       0.688  52.221  -3.063  1.00  0.00     0.168 HD
ENDROOT
BRANCH   4  32
HETATM   32  C7  UNL     1       6.738  55.306  -6.253  1.00  0.00     0.147 C 
HETATM   33  C8  UNL     1       8.093  55.967  -6.023  1.00  0.00     0.042 C 
BRANCH  32  34
HETATM   34  O1  UNL     1       6.991  53.898  -6.394  1.00  0.00    -0.393 OA
HETATM   35  H14 UNL     1       6.293  53.505  -6.960  1.00  0.00     0.210 HD
ENDBRANCH  32  34
ENDBRANCH   4  32
BRANCH   1  36
HETATM   36  C2  UNL     1       3.611  54.689 -10.898  1.00  0.00     0.004 C 
HETATM   37  C1  UNL     1       2.949  55.970 -10.402  1.00  0.00     0.006 C 
ENDBRANCH   1  36
BRANCH  30  38
HETATM   38  O8  UNL     1       2.761  53.346  -6.316  1.00  0.00    -0.377 OA
HETATM   39  H31 UNL     1       3.242  53.182  -5.489  1.00  0.00     0.211 HD
ENDBRANCH  30  38
BRANCH  24  40
HETATM   40  O6  UNL     1       0.210  53.253 -11.444  1.00  0.00    -0.359 OA
HETATM   41  H26 UNL     1       0.667  52.438 -11.759  1.00  0.00     0.217 HD
ENDBRANCH  24  40
TORSDOF 5
ENDMDL
