MODEL 1
REMARK minimizedAffinity -8.94565868
REMARK CNNscore 0.610408068
REMARK CNNaffinity 7.24621153
REMARK  4 active torsions:
REMARK  status: ('A' for Active; 'I' for Inactive)
REMARK    1  A    between atoms: C4_4  and  C5_5 
REMARK    2  A    between atoms: C5_5  and  C6_6 
REMARK    3  A    between atoms: C6_6  and  C7_7 
REMARK    4  A    between atoms: C7_7  and  C9_9 
ROOT
HETATM    1  C9  UNL     1      -6.604   7.217  14.386  1.00  0.00    -0.002 C 
HETATM    2  C10 UNL     1      -6.348   8.552  15.148  1.00  0.00     0.006 C 
HETATM    3  C11 UNL     1      -4.826   8.769  15.222  1.00  0.00     0.011 C 
HETATM    4  C12 UNL     1      -4.235   7.776  14.207  1.00  0.00    -0.032 C 
HETATM    5  C13 UNL     1      -4.338   8.453  12.804  1.00  0.00     0.016 C 
HETATM    6  C14 UNL     1      -2.762   7.350  14.479  1.00  0.00     0.004 C 
HETATM    7  C15 UNL     1      -1.755   8.519  14.450  1.00  0.00     0.007 C 
HETATM    8  C16 UNL     1      -1.049   8.725  13.115  1.00  0.00     0.007 C 
HETATM    9  C17 UNL     1      -0.173   7.517  12.739  1.00  0.00     0.010 C 
HETATM   10  C18 UNL     1       0.652   7.766  11.427  1.00  0.00     0.018 C 
HETATM   11  C19 UNL     1       1.786   8.779  11.721  1.00  0.00     0.023 C 
HETATM   12  C20 UNL     1      -0.182   8.331  10.261  1.00  0.00     0.023 C 
HETATM   13  C21 UNL     1       1.323   6.471  10.946  1.00  0.00     0.135 C 
HETATM   14  O1  UNL     1       2.395   6.476  10.334  1.00  0.00    -0.297 OA
HETATM   15  C22 UNL     1       0.643   5.154  11.224  1.00  0.00     0.080 C 
HETATM   16  C23 UNL     1      -0.828   5.330  11.538  1.00  0.00     0.018 C 
HETATM   17  C24 UNL     1      -1.016   6.224  12.750  1.00  0.00    -0.026 A 
HETATM   18  C25 UNL     1      -1.043   5.492  14.070  1.00  0.00     0.021 A 
HETATM   19  C26 UNL     1      -2.327   6.148  13.597  1.00  0.00    -0.027 A 
HETATM   20  C27 UNL     1      -3.421   5.110  13.255  1.00  0.00     0.011 C 
HETATM   21  C28 UNL     1      -4.885   5.575  13.251  1.00  0.00     0.011 C 
HETATM   22  C29 UNL     1      -5.194   6.538  14.405  1.00  0.00    -0.032 C 
HETATM   23  C30 UNL     1      -5.002   5.799  15.766  1.00  0.00     0.016 C 
ENDROOT
BRANCH   1  24
HETATM   24  C7  UNL     1      -7.855   6.463  14.942  1.00  0.00    -0.014 C 
HETATM   25  C8  UNL     1      -8.161   6.927  16.380  1.00  0.00     0.010 C 
BRANCH  24  26
HETATM   26  C6  UNL     1      -9.103   6.642  14.047  1.00  0.00     0.008 C 
BRANCH  26  27
HETATM   27  C5  UNL     1     -10.227   7.480  14.675  1.00  0.00     0.028 C 
BRANCH  27  28
HETATM   28  C4  UNL     1     -11.574   7.008  14.194  1.00  0.00    -0.025 C 
HETATM   29  C2  UNL     1     -12.385   7.590  13.289  1.00  0.00    -0.091 C 
HETATM   30  C1  UNL     1     -13.710   6.964  12.940  1.00  0.00     0.042 C 
HETATM   31  C3  UNL     1     -12.091   8.861  12.542  1.00  0.00     0.042 C 
ENDBRANCH  27  28
ENDBRANCH  26  27
ENDBRANCH  24  26
ENDBRANCH   1  24
TORSDOF 4
ENDMDL
