MODEL 1
REMARK minimizedAffinity -9.21275997
REMARK  5 active torsions:
REMARK  status: ('A' for Active; 'I' for Inactive)
REMARK    1  A    between atoms: C2_2  and  C4_4 
REMARK    2  A    between atoms: C7_7  and  C8_8 
REMARK    3  A    between atoms: C8_8  and  O2_10 
REMARK    4  A    between atoms: C11_13  and  C12_14 
REMARK    5  A    between atoms: C12_14  and  O4_16 
ROOT
HETATM    1  C4  UNL     1       2.418   7.995   8.921  1.00  0.00     0.019 C 
HETATM    2  C5  UNL     1       3.240   6.702   8.988  1.00  0.00     0.011 C 
HETATM    3  C6  UNL     1       4.114   6.810  10.241  1.00  0.00     0.021 C 
HETATM    4  C7  UNL     1       3.677   8.082  10.996  1.00  0.00     0.050 C 
HETATM    5  C9  UNL     1       3.600   7.845  12.513  1.00  0.00     0.022 C 
HETATM    6  C10 UNL     1       2.455   6.968  13.049  1.00  0.00     0.023 C 
HETATM    7  C11 UNL     1       1.147   6.847  12.177  1.00  0.00     0.057 C 
HETATM    8  C13 UNL     1       1.117   8.175  11.353  1.00  0.00     0.011 C 
HETATM    9  C14 UNL     1      -0.268   8.504  10.845  1.00  0.00     0.007 C 
HETATM   10  C15 UNL     1      -1.206   8.779  12.017  1.00  0.00     0.006 C 
HETATM   11  C16 UNL     1      -0.931   8.019  13.363  1.00  0.00     0.003 C 
HETATM   12  C17 UNL     1      -2.274   7.955  14.242  1.00  0.00    -0.035 C 
HETATM   13  C18 UNL     1      -1.908   7.590  15.704  1.00  0.00     0.016 C 
HETATM   14  C19 UNL     1      -2.969   9.353  14.298  1.00  0.00     0.017 C 
HETATM   15  C20 UNL     1      -4.332   9.345  14.983  1.00  0.00     0.080 C 
HETATM   16  C21 UNL     1      -5.252   8.305  14.387  1.00  0.00     0.135 C 
HETATM   17  O5  UNL     1      -6.424   8.600  14.136  1.00  0.00    -0.297 OA
HETATM   18  C22 UNL     1      -4.709   6.873  14.213  1.00  0.00     0.017 C 
HETATM   19  C23 UNL     1      -4.779   6.162  15.571  1.00  0.00     0.023 C 
HETATM   20  C24 UNL     1      -5.670   6.117  13.259  1.00  0.00     0.023 C 
HETATM   21  C25 UNL     1      -3.282   6.957  13.565  1.00  0.00     0.009 C 
HETATM   22  C26 UNL     1      -2.627   5.594  13.272  1.00  0.00     0.007 C 
HETATM   23  C27 UNL     1      -1.314   5.711  12.469  1.00  0.00     0.011 C 
HETATM   24  C28 UNL     1      -0.216   6.629  13.107  1.00  0.00    -0.022 C 
HETATM   25  C29 UNL     1       0.232   5.887  14.403  1.00  0.00     0.017 C 
HETATM   26  C30 UNL     1       2.307   8.495  10.390  1.00  0.00     0.018 C 
ENDROOT
BRANCH   4  27
HETATM   27  C8  UNL     1       4.698   9.215  10.775  1.00  0.00     0.149 C 
HETATM   28  O1  UNL     1       5.183   9.559   9.705  1.00  0.00    -0.649 OA
BRANCH  27  29
HETATM   29  O2  UNL     1       5.088   9.843  11.904  1.00  0.00    -0.776 OA
HETATM   30  H11 UNL     1       5.728  10.514  11.585  1.00  0.00     0.167 HD
ENDBRANCH  27  29
ENDBRANCH   4  27
BRANCH   1  31
HETATM   31  C2  UNL     1       1.213   8.063   8.003  1.00  0.00    -0.088 C 
HETATM   32  C1  UNL     1       0.003   8.536   8.348  1.00  0.00     0.014 C 
HETATM   33  C3  UNL     1       1.395   7.424   6.646  1.00  0.00     0.043 C 
ENDBRANCH   1  31
BRANCH   7  34
HETATM   34  C12 UNL     1       1.286   5.576  11.334  1.00  0.00     0.149 C 
HETATM   35  O3  UNL     1       0.667   5.303  10.317  1.00  0.00    -0.649 OA
BRANCH  34  36
HETATM   36  O4  UNL     1       2.260   4.746  11.735  1.00  0.00    -0.776 OA
HETATM   37  H16 UNL     1       2.259   4.039  11.057  1.00  0.00     0.167 HD
ENDBRANCH  34  36
ENDBRANCH   7  34
TORSDOF 5
ENDMDL
