MODEL 1
REMARK minimizedAffinity -8.86545753
REMARK CNNscore 0.568660855
REMARK CNNaffinity 7.58743525
REMARK  11 active torsions:
REMARK  status: ('A' for Active; 'I' for Inactive)
REMARK    1  A    between atoms: C2_2  and  C4_4 
REMARK    2  A    between atoms: C4_4  and  C6_6 
REMARK    3  A    between atoms: C7_8  and  C8_9 
REMARK    4  A    between atoms: C8_9  and  O2_10 
REMARK    5  A    between atoms: C25_28  and  O4_29 
REMARK    6  A    between atoms: C26_30  and  O5_31 
REMARK    7  A    between atoms: C27_32  and  O6_33 
REMARK    8  A    between atoms: C31_37  and  C32_38 
REMARK    9  A    between atoms: C32_38  and  C33_39 
REMARK   10  A    between atoms: C33_39  and  C34_40 
REMARK   11  A    between atoms: C38_44  and  O7_45 
ROOT
HETATM    1  C8  UNL     1       3.136   9.882  14.632  1.00  0.00     0.094 C 
HETATM    2  C9  UNL     1       3.823   8.485  14.667  1.00  0.00     0.067 C 
HETATM    3  C10 UNL     1       3.376   7.403  13.720  1.00  0.00    -0.027 C 
HETATM    4  C11 UNL     1       2.141   6.900  13.579  1.00  0.00    -0.025 C 
HETATM    5  C12 UNL     1       0.907   7.384  14.301  1.00  0.00     0.021 C 
HETATM    6  C13 UNL     1      -0.324   6.511  13.904  1.00  0.00     0.019 C 
HETATM    7  C14 UNL     1      -1.647   6.969  14.573  1.00  0.00     0.028 C 
HETATM    8  C15 UNL     1      -1.846   8.474  14.349  1.00  0.00    -0.037 C 
HETATM    9  C16 UNL     1      -2.921   9.007  13.749  1.00  0.00     0.057 C 
HETATM   10  C17 UNL     1      -3.947   8.152  13.114  1.00  0.00     0.155 C 
HETATM   11  O3  UNL     1      -4.956   8.682  12.660  1.00  0.00    -0.293 OA
HETATM   12  C18 UNL     1      -3.674   6.657  13.015  1.00  0.00     0.075 C 
HETATM   13  C19 UNL     1      -4.967   5.842  12.789  1.00  0.00     0.029 C 
HETATM   14  C20 UNL     1      -4.597   4.370  12.511  1.00  0.00     0.008 C 
HETATM   15  C21 UNL     1      -3.779   3.750  13.635  1.00  0.00     0.001 C 
HETATM   16  C22 UNL     1      -2.579   4.626  13.999  1.00  0.00     0.011 C 
HETATM   17  C23 UNL     1      -2.943   6.119  14.265  1.00  0.00    -0.019 C 
HETATM   18  C24 UNL     1      -3.893   6.164  15.517  1.00  0.00     0.045 C 
HETATM   19  C25 UNL     1      -5.353   6.553  15.262  1.00  0.00     0.148 C 
HETATM   20  C26 UNL     1      -5.972   6.028  13.952  1.00  0.00     0.151 C 
HETATM   21  C27 UNL     1      -0.688   9.291  14.855  1.00  0.00     0.090 C 
HETATM   22  C28 UNL     1      -0.637  10.822  14.818  1.00  0.00     0.044 C 
HETATM   23  C29 UNL     1       0.858  11.142  15.070  1.00  0.00     0.012 C 
HETATM   24  C30 UNL     1       1.627   9.786  14.989  1.00  0.00     0.035 C 
HETATM   25  C31 UNL     1       0.650   8.908  14.125  1.00  0.00     0.009 C 
ENDROOT
BRANCH   1  26
HETATM   26  C7  UNL     1       3.796  10.874  15.600  1.00  0.00     0.186 A 
HETATM   27  C6  UNL     1       3.608  10.850  17.110  1.00  0.00     0.158 A 
HETATM   28  O1  UNL     1       4.778  10.298  16.477  1.00  0.00    -0.372 OA
BRANCH  27  29
HETATM   29  C4  UNL     1       3.904  11.991  18.064  1.00  0.00     0.017 C 
HETATM   30  C5  UNL     1       4.743  11.552  19.270  1.00  0.00     0.013 C 
BRANCH  29  31
HETATM   31  C2  UNL     1       2.594  12.728  18.489  1.00  0.00    -0.016 C 
HETATM   32  C1  UNL     1       2.362  14.009  17.671  1.00  0.00     0.010 C 
HETATM   33  C3  UNL     1       2.585  13.097  19.977  1.00  0.00     0.010 C 
ENDBRANCH  29  31
ENDBRANCH  27  29
ENDBRANCH   1  26
BRANCH   1  34
HETATM   34  O2  UNL     1       3.306  10.442  13.326  1.00  0.00    -0.386 OA
HETATM   35  H14 UNL     1       4.212  10.812  13.290  1.00  0.00     0.210 HD
ENDBRANCH   1  34
BRANCH  25  36
HETATM   36  C32 UNL     1       0.747   9.367  12.602  1.00  0.00     0.018 C 
BRANCH  36  37
HETATM   37  C33 UNL     1      -0.069   8.671  11.510  1.00  0.00     0.039 C 
BRANCH  37  38
HETATM   38  C34 UNL     1       0.785   8.341  10.302  1.00  0.00    -0.056 A 
HETATM   39  C35 UNL     1       0.236   8.357   9.013  1.00  0.00     0.007 A 
HETATM   40  C36 UNL     1       1.022   8.035   7.904  1.00  0.00     0.003 A 
HETATM   41  C37 UNL     1       2.366   7.700   8.072  1.00  0.00     0.036 A 
HETATM   42  C38 UNL     1       2.910   7.678   9.351  1.00  0.00     0.066 A 
HETATM   43  C39 UNL     1       2.133   7.990  10.463  1.00  0.00     0.043 A 
BRANCH  42  44
HETATM   44  O7  UNL     1       4.216   7.353   9.564  1.00  0.00    -0.361 OA
HETATM   45  H51 UNL     1       4.622   7.131   8.710  1.00  0.00     0.217 HD
ENDBRANCH  42  44
ENDBRANCH  37  38
ENDBRANCH  36  37
ENDBRANCH  25  36
BRANCH  21  46
HETATM   46  O6  UNL     1      -0.621   8.952  16.259  1.00  0.00    -0.384 OA
HETATM   47  H38 UNL     1      -1.458   9.241  16.664  1.00  0.00     0.211 HD
ENDBRANCH  21  46
BRANCH  19  48
HETATM   48  O4  UNL     1      -6.146   6.132  16.379  1.00  0.00    -0.393 OA
HETATM   49  H35 UNL     1      -6.217   5.166  16.301  1.00  0.00     0.210 HD
ENDBRANCH  19  48
BRANCH  20  50
HETATM   50  O5  UNL     1      -6.710   4.827  14.216  1.00  0.00    -0.393 OA
HETATM   51  H37 UNL     1      -7.529   5.114  14.661  1.00  0.00     0.210 HD
ENDBRANCH  20  50
TORSDOF 11
ENDMDL
