MODEL 1
REMARK minimizedAffinity -7.26355219
REMARK CNNscore 0.564016044
REMARK CNNaffinity 7.06993484
REMARK  13 active torsions:
REMARK  status: ('A' for Active; 'I' for Inactive)
REMARK    1  A    between atoms: C3_3  and  O1_4 
REMARK    2  A    between atoms: N1_14  and  O2_16 
REMARK    3  A    between atoms: O2_16  and  C13_17 
REMARK    4  A    between atoms: C13_17  and  C14_18 
REMARK       I    between atoms: C14_18  and  N2_20 
REMARK    5  A    between atoms: N2_20  and  C15_21 
REMARK    6  A    between atoms: C15_21  and  C16_22 
REMARK    7  A    between atoms: C15_21  and  C21_32 
REMARK       I    between atoms: C16_22  and  N3_24 
REMARK    8  A    between atoms: N3_24  and  C17_25 
REMARK    9  A    between atoms: C17_25  and  C18_26 
REMARK   10  A    between atoms: C17_25  and  C19_28 
REMARK   11  A    between atoms: C18_26  and  S1_27 
REMARK   12  A    between atoms: C19_28  and  C20_29 
REMARK   13  A    between atoms: C20_29  and  O6_31 
ROOT
HETATM    1  C1  UNL     1      -5.778  17.351  16.667  1.00  0.00     0.015 C 
HETATM    2  C2  UNL     1      -5.126  16.421  17.058  1.00  0.00    -0.078 C 
HETATM    3  C3  UNL     1      -4.315  15.284  17.530  1.00  0.00     0.128 C 
HETATM    4  C4  UNL     1      -4.284  15.206  19.059  1.00  0.00     0.052 C 
HETATM    5  C5  UNL     1      -4.036  13.732  19.400  1.00  0.00     0.010 C 
HETATM    6  C6  UNL     1      -4.124  12.921  18.081  1.00  0.00     0.002 C 
HETATM    7  C7  UNL     1      -2.725  12.430  17.628  1.00  0.00    -0.004 C 
HETATM    8  C8  UNL     1      -2.132  11.356  18.561  1.00  0.00     0.010 C 
HETATM    9  C9  UNL     1      -2.749   9.983  18.351  1.00  0.00     0.035 C 
HETATM   10  C10 UNL     1      -2.578   9.527  16.927  1.00  0.00    -0.069 C 
HETATM   11  C11 UNL     1      -2.024   8.327  16.676  1.00  0.00     0.030 C 
HETATM   12  C12 UNL     1      -1.928   7.771  15.302  1.00  0.00     0.032 C 
HETATM   13  N1  UNL     1      -1.401   6.586  15.166  1.00  0.00    -0.271 N 
ATOM     14  H1  UNL     1      -1.029   6.030  15.936  1.00  0.00     0.194 HD
HETATM   15  C24 UNL     1      -2.509   8.584  14.167  1.00  0.00     0.060 C 
HETATM   16  C25 UNL     1      -2.447  10.075  14.473  1.00  0.00     0.020 C 
HETATM   17  C26 UNL     1      -3.087  10.477  15.840  1.00  0.00    -0.016 C 
HETATM   18  C27 UNL     1      -4.612  10.282  15.736  1.00  0.00     0.020 C 
HETATM   19  C28 UNL     1      -2.644  11.967  16.152  1.00  0.00     0.002 C 
HETATM   20  C29 UNL     1      -3.228  13.051  15.231  1.00  0.00     0.007 C 
HETATM   21  C30 UNL     1      -4.617  13.551  15.610  1.00  0.00     0.014 C 
HETATM   22  C31 UNL     1      -4.853  13.884  17.099  1.00  0.00     0.003 C 
HETATM   23  C32 UNL     1      -6.385  13.772  17.354  1.00  0.00     0.020 C 
ENDROOT
BRANCH   3  24
HETATM   24  O1  UNL     1      -2.981  15.484  17.073  1.00  0.00    -0.377 OA
HETATM   25  H2  UNL     1      -2.725  16.388  17.319  1.00  0.00     0.211 HD
ENDBRANCH   3  24
BRANCH  13  26
HETATM   26  O2  UNL     1      -1.411   6.172  13.825  1.00  0.00    -0.271 OA
BRANCH  26  27
HETATM   27  C13 UNL     1      -0.097   5.791  13.458  1.00  0.00     0.303 C 
BRANCH  27  28
HETATM   28  C14 UNL     1       0.655   6.954  12.811  1.00  0.00     0.244 C 
HETATM   29  O3  UNL     1       0.982   7.978  13.405  1.00  0.00    -0.271 OA
HETATM   30  N2  UNL     1       0.967   6.741  11.480  1.00  0.00    -0.346 N 
HETATM   31  H16 UNL     1       0.498   5.986  10.988  1.00  0.00     0.163 HD
BRANCH  30  32
HETATM   32  C15 UNL     1       1.535   7.817  10.648  1.00  0.00     0.180 C 
BRANCH  32  33
HETATM   33  C16 UNL     1       3.075   7.666  10.660  1.00  0.00     0.241 C 
HETATM   34  O4  UNL     1       3.718   7.014   9.845  1.00  0.00    -0.271 OA
HETATM   35  N3  UNL     1       3.686   8.438  11.639  1.00  0.00    -0.353 N 
HETATM   36  H18 UNL     1       3.065   8.904  12.292  1.00  0.00     0.163 HD
BRANCH  35  37
HETATM   37  C17 UNL     1       5.104   8.279  11.979  1.00  0.00     0.103 C 
BRANCH  37  38
HETATM   38  C18 UNL     1       5.713   9.618  12.466  1.00  0.00     0.096 C 
BRANCH  38  39
HETATM   39  S1  UNL     1       6.669  10.511  11.191  1.00  0.00    -0.180 SA
HETATM   40  H22 UNL     1       5.736  10.429  10.224  1.00  0.00     0.101 HD
ENDBRANCH  38  39
ENDBRANCH  37  38
BRANCH  37  41
HETATM   41  C19 UNL     1       5.853   7.746  10.751  1.00  0.00     0.136 C 
BRANCH  41  42
HETATM   42  C20 UNL     1       6.711   6.559  11.083  1.00  0.00     0.141 C 
HETATM   43  O5  UNL     1       7.840   6.566  11.541  1.00  0.00    -0.650 OA
BRANCH  42  44
HETATM   44  O6  UNL     1       6.084   5.396  10.818  1.00  0.00    -0.776 OA
HETATM   45  H25 UNL     1       6.725   4.705  11.087  1.00  0.00     0.167 HD
ENDBRANCH  42  44
ENDBRANCH  41  42
ENDBRANCH  37  41
ENDBRANCH  35  37
ENDBRANCH  32  33
BRANCH  32  46
HETATM   46  C21 UNL     1       0.879   7.838   9.247  1.00  0.00     0.009 C 
HETATM   47  C22 UNL     1       1.813   8.345   8.143  1.00  0.00     0.012 C 
HETATM   48  C23 UNL     1      -0.440   8.615   9.238  1.00  0.00     0.012 C 
ENDBRANCH  32  46
ENDBRANCH  30  32
ENDBRANCH  27  28
ENDBRANCH  26  27
ENDBRANCH  13  26
TORSDOF 13
ENDMDL
