MODEL 1
REMARK minimizedAffinity -8.2314558
REMARK CNNscore 0.471736819
REMARK CNNaffinity 7.39620399
REMARK  12 active torsions:
REMARK  status: ('A' for Active; 'I' for Inactive)
REMARK    1  A    between atoms: O1_2  and  C2_3 
REMARK    2  A    between atoms: C2_3  and  C5_6 
REMARK    3  A    between atoms: C6_7  and  C7_8 
REMARK    4  A    between atoms: C7_8  and  C8_9 
REMARK    5  A    between atoms: C8_9  and  C10_11 
REMARK    6  A    between atoms: C28_30  and  O3_31 
REMARK    7  A    between atoms: O3_31  and  C29_32 
REMARK    8  A    between atoms: C30_34  and  C31_35 
REMARK    9  A    between atoms: C31_35  and  O5_36 
REMARK   10  A    between atoms: C32_37  and  O6_38 
REMARK   11  A    between atoms: C33_39  and  O7_40 
REMARK   12  A    between atoms: C34_41  and  O8_42 
ROOT
HETATM    1  C10 UNL     1      -6.784   6.244  14.633  1.00  0.00    -0.002 C 
HETATM    2  C11 UNL     1      -7.149   5.466  13.321  1.00  0.00     0.006 C 
HETATM    3  C12 UNL     1      -5.857   5.302  12.490  1.00  0.00     0.011 C 
HETATM    4  C13 UNL     1      -4.735   5.666  13.475  1.00  0.00    -0.029 C 
HETATM    5  C14 UNL     1      -4.528   4.388  14.349  1.00  0.00     0.016 C 
HETATM    6  C15 UNL     1      -3.396   6.135  12.837  1.00  0.00     0.028 C 
HETATM    7  C16 UNL     1      -2.702   5.177  11.900  1.00  0.00    -0.021 C 
HETATM    8  C17 UNL     1      -1.360   5.123  11.835  1.00  0.00     0.008 C 
HETATM    9  C18 UNL     1      -0.462   5.970  12.740  1.00  0.00     0.092 C 
HETATM   10  O2  UNL     1      -0.474   5.225  13.975  1.00  0.00    -0.374 OA
HETATM   11  C19 UNL     1      -1.616   5.683  14.740  1.00  0.00     0.179 C 
HETATM   12  C20 UNL     1      -2.388   6.739  13.891  1.00  0.00    -0.004 C 
HETATM   13  C21 UNL     1      -3.076   7.775  14.804  1.00  0.00     0.014 C 
HETATM   14  C22 UNL     1      -4.452   7.340  15.357  1.00  0.00     0.011 C 
HETATM   15  C23 UNL     1      -5.413   6.885  14.236  1.00  0.00    -0.032 C 
HETATM   16  C24 UNL     1      -5.700   8.127  13.325  1.00  0.00     0.016 C 
HETATM   17  C25 UNL     1      -1.155   7.290  13.144  1.00  0.00     0.036 C 
HETATM   18  C26 UNL     1      -1.328   8.268  11.977  1.00  0.00     0.011 C 
HETATM   19  C27 UNL     1      -0.246   8.079  10.909  1.00  0.00     0.033 C 
HETATM   20  C28 UNL     1       1.090   7.659  11.530  1.00  0.00     0.136 C 
HETATM   21  C35 UNL     1       1.006   6.253  12.240  1.00  0.00     0.014 C 
HETATM   22  C36 UNL     1       1.994   6.301  13.441  1.00  0.00     0.021 C 
HETATM   23  C37 UNL     1       1.540   5.125  11.325  1.00  0.00     0.021 C 
ENDROOT
BRANCH  20  24
HETATM   24  O3  UNL     1       2.113   7.635  10.530  1.00  0.00    -0.352 OA
BRANCH  24  25
HETATM   25  C29 UNL     1       3.304   8.350  10.881  1.00  0.00     0.292 C 
HETATM   26  O4  UNL     1       4.424   7.467  10.864  1.00  0.00    -0.348 OA
HETATM   27  C30 UNL     1       5.681   8.144  11.042  1.00  0.00     0.179 C 
HETATM   28  C32 UNL     1       5.605   9.267  12.097  1.00  0.00     0.180 C 
HETATM   29  C33 UNL     1       4.444   8.998  13.063  1.00  0.00     0.183 C 
HETATM   30  C34 UNL     1       3.105   8.912  12.308  1.00  0.00     0.204 C 
BRANCH  27  31
HETATM   31  C31 UNL     1       6.700   7.068  11.442  1.00  0.00     0.198 C 
BRANCH  31  32
HETATM   32  O5  UNL     1       6.099   6.015  12.182  1.00  0.00    -0.398 OA
HETATM   33  H48 UNL     1       5.826   6.382  13.043  1.00  0.00     0.209 HD
ENDBRANCH  31  32
ENDBRANCH  27  31
BRANCH  28  34
HETATM   34  O6  UNL     1       5.387  10.519  11.425  1.00  0.00    -0.390 OA
HETATM   35  H50 UNL     1       4.961  11.113  12.074  1.00  0.00     0.210 HD
ENDBRANCH  28  34
BRANCH  29  36
HETATM   36  O7  UNL     1       4.355  10.056  14.037  1.00  0.00    -0.390 OA
HETATM   37  H52 UNL     1       5.081   9.920  14.678  1.00  0.00     0.210 HD
ENDBRANCH  29  36
BRANCH  30  38
HETATM   38  O8  UNL     1       2.490  10.216  12.258  1.00  0.00    -0.388 OA
HETATM   39  H54 UNL     1       2.672  10.604  13.138  1.00  0.00     0.210 HD
ENDBRANCH  30  38
ENDBRANCH  24  25
ENDBRANCH  20  24
BRANCH   1  40
HETATM   40  C8  UNL     1      -7.957   7.135  15.151  1.00  0.00    -0.010 C 
HETATM   41  C9  UNL     1      -7.991   7.244  16.683  1.00  0.00     0.010 C 
BRANCH  40  42
HETATM   42  C7  UNL     1      -9.359   6.609  14.723  1.00  0.00     0.031 C 
BRANCH  42  43
HETATM   43  C6  UNL     1     -10.455   7.628  14.606  1.00  0.00    -0.027 C 
HETATM   44  C5  UNL     1     -11.539   7.474  13.825  1.00  0.00     0.006 C 
BRANCH  44  45
HETATM   45  C2  UNL     1     -12.677   8.456  13.622  1.00  0.00     0.070 C 
HETATM   46  C3  UNL     1     -12.441   9.540  12.557  1.00  0.00     0.050 C 
HETATM   47  C4  UNL     1     -12.930   9.158  14.968  1.00  0.00     0.050 C 
BRANCH  45  48
HETATM   48  O1  UNL     1     -13.879   7.710  13.355  1.00  0.00    -0.382 OA
HETATM   49  C1  UNL     1     -14.856   8.366  12.558  1.00  0.00     0.202 C 
ENDBRANCH  45  48
ENDBRANCH  44  45
ENDBRANCH  42  43
ENDBRANCH  40  42
ENDBRANCH   1  40
TORSDOF 12
ENDMDL
