MODEL 1
REMARK minimizedAffinity -6.69950533
REMARK CNNscore 0.531984091
REMARK CNNaffinity 6.68008757
REMARK  6 active torsions:
REMARK  status: ('A' for Active; 'I' for Inactive)
REMARK    1  A    between atoms: N1_2  and  C2_3 
REMARK    2  A    between atoms: C2_3  and  C3_4 
REMARK    3  A    between atoms: C5_6  and  O1_7 
REMARK    4  A    between atoms: C25_28  and  N2_29 
REMARK    5  A    between atoms: C26_30  and  C27_31 
REMARK    6  A    between atoms: C27_31  and  O3_32 
ROOT
HETATM    1  C3  UNL     1     -15.838   1.392  28.792  1.00  0.00    -0.021 A 
HETATM    2  C4  UNL     1     -16.886   1.901  29.585  1.00  0.00     0.045 A 
HETATM    3  C5  UNL     1     -16.825   3.174  30.121  1.00  0.00     0.066 A 
HETATM    4  C6  UNL     1     -15.731   3.985  29.873  1.00  0.00     0.045 A 
HETATM    5  C7  UNL     1     -14.650   3.515  29.095  1.00  0.00    -0.037 A 
HETATM    6  C8  UNL     1     -14.679   2.188  28.565  1.00  0.00    -0.042 A 
HETATM    7  C9  UNL     1     -13.483   1.605  27.823  1.00  0.00     0.044 C 
HETATM    8  C10 UNL     1     -13.102   2.214  26.464  1.00  0.00    -0.010 C 
HETATM    9  C11 UNL     1     -11.930   1.450  25.830  1.00  0.00     0.005 C 
HETATM   10  C12 UNL     1     -11.563   1.998  24.452  1.00  0.00     0.001 C 
HETATM   11  C13 UNL     1     -12.261   3.321  24.126  1.00  0.00     0.007 C 
HETATM   12  C14 UNL     1     -13.803   3.180  24.191  1.00  0.00     0.022 C 
HETATM   13  C15 UNL     1     -14.245   2.351  25.436  1.00  0.00     0.012 C 
HETATM   14  C16 UNL     1     -14.606   4.523  23.921  1.00  0.00     0.083 C 
HETATM   15  C17 UNL     1     -13.827   5.467  22.944  1.00  0.00     0.050 C 
HETATM   16  C18 UNL     1     -14.728   6.594  22.344  1.00  0.00    -0.029 C 
HETATM   17  C19 UNL     1     -14.950   6.365  20.824  1.00  0.00     0.010 C 
HETATM   18  C20 UNL     1     -15.691   5.084  20.488  1.00  0.00     0.004 C 
HETATM   19  C21 UNL     1     -16.964   4.972  21.309  1.00  0.00     0.038 C 
HETATM   20  C22 UNL     1     -16.707   5.133  22.824  1.00  0.00     0.065 C 
HETATM   21  C23 UNL     1     -18.057   4.883  23.515  1.00  0.00     0.046 C 
HETATM   22  O2  UNL     1     -15.799   4.072  23.197  1.00  0.00    -0.367 OA
HETATM   23  C24 UNL     1     -16.060   6.525  23.133  1.00  0.00     0.069 C 
HETATM   24  C25 UNL     1     -15.716   6.712  24.668  1.00  0.00     0.184 C 
HETATM   25  C26 UNL     1     -14.643   7.861  24.907  1.00  0.00     0.049 C 
HETATM   26  C28 UNL     1     -14.540   8.780  23.693  1.00  0.00     0.010 C 
HETATM   27  C29 UNL     1     -14.068   7.993  22.476  1.00  0.00     0.011 C 
HETATM   28  C30 UNL     1     -15.173   5.316  25.151  1.00  0.00     0.139 C 
HETATM   29  C31 UNL     1     -14.344   5.367  26.369  1.00  0.00    -0.096 C 
HETATM   30  C32 UNL     1     -13.892   5.157  27.463  1.00  0.00    -0.101 C 
HETATM   31  C33 UNL     1     -13.569   4.539  28.763  1.00  0.00     0.133 C 
ENDROOT
BRANCH   1  32
HETATM   32  C2  UNL     1     -16.055   0.003  28.217  1.00  0.00     0.308 C 
BRANCH  32  33
HETATM   33  N1  UNL     1     -16.432   0.004  26.801  1.00  0.00     0.083 N 
HETATM   34  C1  UNL     1     -17.566   0.874  26.523  1.00  0.00     0.307 C 
HETATM   35  H4  UNL     1     -16.673  -0.948  26.530  1.00  0.00     0.315 HD
ENDBRANCH  32  33
ENDBRANCH   1  32
BRANCH   3  36
HETATM   36  O1  UNL     1     -17.877   3.607  30.871  1.00  0.00    -0.361 OA
HETATM   37  H8  UNL     1     -17.661   4.480  31.232  1.00  0.00     0.217 HD
ENDBRANCH   3  36
BRANCH  24  38
HETATM   38  N2  UNL     1     -16.986   7.047  25.346  1.00  0.00     0.090 N 
HETATM   39  H34 UNL     1     -16.912   6.821  26.340  1.00  0.00     0.313 HD
HETATM   40  H35 UNL     1     -17.114   8.065  25.342  1.00  0.00     0.313 HD
ENDBRANCH  24  38
BRANCH  25  41
HETATM   41  C27 UNL     1     -14.823   8.687  26.197  1.00  0.00     0.171 C 
BRANCH  41  42
HETATM   42  O3  UNL     1     -14.441  10.049  26.014  1.00  0.00    -0.400 OA
HETATM   43  H39 UNL     1     -13.470  10.088  26.055  1.00  0.00     0.209 HD
ENDBRANCH  41  42
ENDBRANCH  25  41
TORSDOF 6
ENDMDL
