MODEL 1
REMARK minimizedAffinity -10.4307938
REMARK CNNscore 0.736973464
REMARK CNNaffinity 6.99205351
REMARK  6 active torsions:
REMARK  status: ('A' for Active; 'I' for Inactive)
REMARK    1  A    between atoms: C15_17  and  C16_18 
REMARK    2  A    between atoms: C22_26  and  O5_27 
REMARK    3  A    between atoms: C23_28  and  C24_29 
REMARK    4  A    between atoms: C27_34  and  O8_35 
REMARK    5  A    between atoms: C28_36  and  O9_37 
REMARK    6  A    between atoms: C29_38  and  O10_39 
ROOT
HETATM    1  C1  UNL     1      -7.167  44.955 -29.074  1.00  0.00     0.042 C 
HETATM    2  C2  UNL     1      -8.472  45.371 -28.399  1.00  0.00     0.152 C 
HETATM    3  O1  UNL     1      -8.186  45.519 -26.994  1.00  0.00    -0.348 OA
HETATM    4  C3  UNL     1      -9.085  46.426 -26.363  1.00  0.00     0.325 C 
HETATM    5  O2  UNL     1      -9.017  46.320 -24.931  1.00  0.00    -0.347 OA
HETATM    6  C4  UNL     1      -7.747  46.770 -24.453  1.00  0.00     0.158 C 
HETATM    7  C5  UNL     1      -7.697  46.594 -22.937  1.00  0.00     0.069 C 
HETATM    8  C6  UNL     1      -6.399  47.128 -22.377  1.00  0.00    -0.065 C 
HETATM    9  C7  UNL     1      -5.613  46.345 -21.617  1.00  0.00    -0.022 C 
HETATM   10  C8  UNL     1      -4.323  46.793 -20.992  1.00  0.00     0.035 C 
HETATM   11  C9  UNL     1      -4.183  48.327 -20.968  1.00  0.00     0.030 C 
HETATM   12  C10 UNL     1      -4.545  48.901 -22.360  1.00  0.00     0.012 C 
HETATM   13  C11 UNL     1      -4.158  50.385 -22.510  1.00  0.00     0.007 C 
HETATM   14  C12 UNL     1      -3.792  51.059 -21.188  1.00  0.00     0.013 C 
HETATM   15  C13 UNL     1      -2.646  50.366 -20.411  1.00  0.00    -0.005 C 
HETATM   16  C14 UNL     1      -2.669  50.931 -18.970  1.00  0.00     0.019 C 
HETATM   17  C15 UNL     1      -1.254  50.618 -21.109  1.00  0.00     0.028 C 
HETATM   18  C20 UNL     1      -0.510  49.293 -20.945  1.00  0.00     0.013 C 
HETATM   19  C21 UNL     1      -1.605  48.275 -21.232  1.00  0.00     0.040 C 
HETATM   20  C22 UNL     1      -2.810  48.797 -20.433  1.00  0.00     0.070 C 
HETATM   21  C23 UNL     1      -6.032  48.571 -22.747  1.00  0.00     0.043 C 
HETATM   22  C25 UNL     1      -6.225  48.775 -24.275  1.00  0.00     0.056 C 
HETATM   23  C26 UNL     1      -7.569  48.252 -24.804  1.00  0.00     0.156 C 
HETATM   24  O7  UNL     1      -7.600  48.442 -26.223  1.00  0.00    -0.341 OA
HETATM   25  C27 UNL     1      -8.791  47.893 -26.833  1.00  0.00     0.242 C 
HETATM   26  C28 UNL     1      -8.523  47.908 -28.370  1.00  0.00     0.216 C 
HETATM   27  C29 UNL     1      -9.056  46.650 -29.055  1.00  0.00     0.181 C 
ENDROOT
BRANCH  17  28
HETATM   28  C16 UNL     1      -0.483  51.840 -20.707  1.00  0.00    -0.045 A 
HETATM   29  C17 UNL     1       0.355  52.531 -21.478  1.00  0.00     0.087 A 
HETATM   30  C18 UNL     1       0.839  53.665 -20.693  1.00  0.00     0.283 A 
HETATM   31  O3  UNL     1       1.573  54.534 -21.121  1.00  0.00    -0.260 OA
HETATM   32  O4  UNL     1       0.323  53.587 -19.441  1.00  0.00    -0.314 OA
HETATM   33  C19 UNL     1      -0.551  52.456 -19.361  1.00  0.00     0.213 A 
ENDBRANCH  17  28
BRANCH  20  34
HETATM   34  O5  UNL     1      -2.643  48.256 -19.114  1.00  0.00    -0.389 OA
HETATM   35  H29 UNL     1      -3.452  48.437 -18.602  1.00  0.00     0.210 HD
ENDBRANCH  20  34
BRANCH  21  36
HETATM   36  C24 UNL     1      -6.985  49.524 -21.997  1.00  0.00     0.245 C 
HETATM   37  O6  UNL     1      -7.340  49.398 -20.828  1.00  0.00    -0.306 OA
ENDBRANCH  21  36
BRANCH  25  38
HETATM   38  O8  UNL     1      -9.884  48.777 -26.541  1.00  0.00    -0.359 OA
HETATM   39  H34 UNL     1     -10.334  48.416 -25.759  1.00  0.00     0.213 HD
ENDBRANCH  25  38
BRANCH  26  40
HETATM   40  O9  UNL     1      -9.104  49.071 -28.998  1.00  0.00    -0.387 OA
HETATM   41  H36 UNL     1      -9.589  49.529 -28.272  1.00  0.00     0.210 HD
ENDBRANCH  26  40
BRANCH  27  42
HETATM   42  O10 UNL     1     -10.483  46.619 -28.917  1.00  0.00    -0.390 OA
HETATM   43  H38 UNL     1     -10.845  47.221 -29.603  1.00  0.00     0.210 HD
ENDBRANCH  27  42
TORSDOF 6
ENDMDL
