MODEL 1
REMARK minimizedAffinity -9.42985535
REMARK CNNscore 0.49977386
REMARK CNNaffinity 7.65839624
REMARK  18 active torsions:
REMARK  status: ('A' for Active; 'I' for Inactive)
REMARK    1  A    between atoms: C19_20  and  O2_21 
REMARK    2  A    between atoms: C19_20  and  C20_22 
REMARK    3  A    between atoms: C20_22  and  C21_24 
REMARK    4  A    between atoms: C21_24  and  O4_25 
REMARK    5  A    between atoms: O4_25  and  C22_26 
REMARK    6  A    between atoms: C22_26  and  C23_28 
REMARK    7  A    between atoms: C23_28  and  C24_29 
REMARK    8  A    between atoms: C24_29  and  C25_30 
REMARK       I    between atoms: C25_30  and  N1_32 
REMARK    9  A    between atoms: N1_32  and  C26_33 
REMARK   10  A    between atoms: C26_33  and  C27_34 
REMARK   11  A    between atoms: C27_34  and  C28_35 
REMARK   12  A    between atoms: C28_35  and  C29_36 
REMARK   13  A    between atoms: C29_36  and  C30_37 
REMARK   14  A    between atoms: C30_37  and  C31_38 
REMARK       I    between atoms: C31_38  and  N2_40 
REMARK   15  A    between atoms: N2_40  and  C32_41 
REMARK   16  A    between atoms: C32_41  and  C33_42 
REMARK   17  A    between atoms: C36_45  and  C37_46 
REMARK   18  A    between atoms: C37_46  and  O9_48 
ROOT
HETATM    1  C22 UNL     1      -5.361   7.303  14.102  1.00  0.00     0.259 C 
HETATM    2  O5  UNL     1      -5.317   6.293  13.414  1.00  0.00    -0.265 OA
ENDROOT
BRANCH   1   3
HETATM    3  O4  UNL     1      -4.458   8.319  14.044  1.00  0.00    -0.314 OA
BRANCH   3   4
HETATM    4  C21 UNL     1      -3.348   8.189  14.933  1.00  0.00     0.260 C 
BRANCH   4   5
HETATM    5  C20 UNL     1      -2.023   8.686  14.355  1.00  0.00     0.185 C 
HETATM    6  O3  UNL     1      -1.759   9.888  14.386  1.00  0.00    -0.292 OA
BRANCH   5   7
HETATM    7  C19 UNL     1      -1.062   7.614  13.779  1.00  0.00     0.128 C 
HETATM    8  C14 UNL     1      -0.097   8.073  12.629  1.00  0.00    -0.002 C 
HETATM    9  C13 UNL     1       1.152   8.866  13.086  1.00  0.00     0.013 C 
HETATM   10  C15 UNL     1      -0.852   8.848  11.511  1.00  0.00     0.019 C 
HETATM   11  C16 UNL     1       0.371   6.687  12.136  1.00  0.00     0.002 C 
HETATM   12  C12 UNL     1       2.476   8.417  12.413  1.00  0.00     0.007 C 
HETATM   13  C11 UNL     1       2.272   7.956  10.955  1.00  0.00     0.002 C 
HETATM   14  C2  UNL     1       3.554   7.808  10.051  1.00  0.00    -0.016 C 
HETATM   15  C10 UNL     1       1.325   6.697  10.921  1.00  0.00    -0.004 C 
HETATM   16  C1  UNL     1       3.096   7.964   8.569  1.00  0.00     0.020 C 
HETATM   17  C3  UNL     1       4.606   8.938  10.261  1.00  0.00     0.022 C 
HETATM   18  C7  UNL     1       4.173   6.428  10.231  1.00  0.00    -0.068 C 
HETATM   19  C4  UNL     1       5.661   8.656  11.323  1.00  0.00     0.084 C 
HETATM   20  C5  UNL     1       6.305   7.316  11.085  1.00  0.00     0.149 C 
HETATM   21  O1  UNL     1       7.491   7.101  11.319  1.00  0.00    -0.293 OA
HETATM   22  C6  UNL     1       5.429   6.205  10.652  1.00  0.00     0.053 C 
HETATM   23  C8  UNL     1       3.252   5.273   9.948  1.00  0.00     0.035 C 
HETATM   24  C9  UNL     1       2.075   5.342  10.908  1.00  0.00     0.010 C 
HETATM   25  C17 UNL     1      -0.923   5.881  12.011  1.00  0.00     0.009 C 
HETATM   26  C18 UNL     1      -1.835   6.437  13.125  1.00  0.00     0.047 C 
BRANCH   7  27
HETATM   27  O2  UNL     1      -0.271   7.083  14.857  1.00  0.00    -0.381 OA
HETATM   28  H27 UNL     1      -0.826   6.476  15.381  1.00  0.00     0.211 HD
ENDBRANCH   7  27
ENDBRANCH   5   7
ENDBRANCH   4   5
ENDBRANCH   3   4
ENDBRANCH   1   3
BRANCH   1  29
HETATM   29  C23 UNL     1      -6.373   7.526  15.193  1.00  0.00     0.120 C 
BRANCH  29  30
HETATM   30  C24 UNL     1      -6.939   8.942  15.194  1.00  0.00     0.112 C 
BRANCH  30  31
HETATM   31  C25 UNL     1      -8.453   8.922  15.186  1.00  0.00     0.217 C 
HETATM   32  O6  UNL     1      -9.137   9.911  15.414  1.00  0.00    -0.274 OA
HETATM   33  N1  UNL     1      -8.977   7.685  14.884  1.00  0.00    -0.361 N 
HETATM   34  H34 UNL     1      -8.357   6.905  14.711  1.00  0.00     0.162 HD
BRANCH  33  35
HETATM   35  C26 UNL     1     -10.405   7.439  14.876  1.00  0.00     0.122 C 
BRANCH  35  36
HETATM   36  C27 UNL     1     -10.856   6.560  13.706  1.00  0.00     0.020 C 
BRANCH  36  37
HETATM   37  C28 UNL     1     -10.455   7.078  12.319  1.00  0.00     0.002 C 
BRANCH  37  38
HETATM   38  C29 UNL     1      -9.461   6.183  11.575  1.00  0.00     0.009 C 
BRANCH  38  39
HETATM   39  C30 UNL     1      -8.300   5.733  12.462  1.00  0.00     0.103 C 
BRANCH  39  40
HETATM   40  C31 UNL     1      -8.089   4.228  12.465  1.00  0.00     0.217 C 
HETATM   41  O7  UNL     1      -8.929   3.420  12.846  1.00  0.00    -0.274 OA
HETATM   42  N2  UNL     1      -6.844   3.871  11.990  1.00  0.00    -0.357 N 
HETATM   43  H45 UNL     1      -6.286   4.567  11.515  1.00  0.00     0.162 HD
BRANCH  42  44
HETATM   44  C32 UNL     1      -6.460   2.486  11.839  1.00  0.00     0.161 C 
BRANCH  44  45
HETATM   45  C33 UNL     1      -4.977   2.352  11.602  1.00  0.00    -0.040 A 
HETATM   46  C34 UNL     1      -4.228   3.427  11.100  1.00  0.00     0.010 A 
HETATM   47  C35 UNL     1      -2.856   3.288  10.874  1.00  0.00     0.019 A 
HETATM   48  C36 UNL     1      -2.214   2.071  11.144  1.00  0.00     0.037 A 
HETATM   49  C38 UNL     1      -2.958   0.993  11.636  1.00  0.00     0.019 A 
HETATM   50  C39 UNL     1      -4.331   1.133  11.856  1.00  0.00     0.010 A 
BRANCH  48  51
HETATM   51  C37 UNL     1      -0.757   1.973  10.892  1.00  0.00     0.176 C 
HETATM   52  O8  UNL     1       0.109   2.608  11.466  1.00  0.00    -0.646 OA
BRANCH  51  53
HETATM   53  O9  UNL     1      -0.451   1.075   9.938  1.00  0.00    -0.773 OA
HETATM   54  H50 UNL     1       0.527   1.115   9.884  1.00  0.00     0.167 HD
ENDBRANCH  51  53
ENDBRANCH  48  51
ENDBRANCH  44  45
ENDBRANCH  42  44
ENDBRANCH  39  40
ENDBRANCH  38  39
ENDBRANCH  37  38
ENDBRANCH  36  37
ENDBRANCH  35  36
ENDBRANCH  33  35
ENDBRANCH  30  31
ENDBRANCH  29  30
ENDBRANCH   1  29
TORSDOF 18
ENDMDL
