MODEL 1
REMARK minimizedAffinity -10.2379274
REMARK  8 active torsions:
REMARK  status: ('A' for Active; 'I' for Inactive)
REMARK    1  A    between atoms: C2_2  and  C3_3 
REMARK    2  A    between atoms: C2_2  and  C9_12 
REMARK    3  A    between atoms: C3_3  and  C4_4 
REMARK    4  A    between atoms: C4_4  and  C5_5 
REMARK    5  A    between atoms: C6_6  and  C7_7 
REMARK    6  A    between atoms: C6_6  and  C8_9 
REMARK    7  A    between atoms: C7_7  and  O1_8 
REMARK    8  A    between atoms: C8_9  and  O3_11 
ROOT
HETATM    1  C9  UNL     1      -0.081  51.788 -21.155  1.00  0.00    -0.002 C 
HETATM    2  C10 UNL     1       0.195  53.272 -20.903  1.00  0.00     0.006 C 
HETATM    3  C11 UNL     1       0.872  53.242 -19.539  1.00  0.00     0.006 C 
HETATM    4  C12 UNL     1       0.058  52.225 -18.728  1.00  0.00    -0.001 C 
HETATM    5  C13 UNL     1       0.891  51.425 -17.706  1.00  0.00    -0.000 C 
HETATM    6  C14 UNL     1       1.583  52.310 -16.673  1.00  0.00     0.006 C 
HETATM    7  C15 UNL     1       2.255  51.447 -15.607  1.00  0.00     0.007 C 
HETATM    8  C16 UNL     1       1.209  50.742 -14.718  1.00  0.00     0.010 C 
HETATM    9  C17 UNL     1       1.846  49.898 -13.556  1.00  0.00     0.018 C 
HETATM   10  C18 UNL     1       0.891  49.837 -12.343  1.00  0.00     0.023 C 
HETATM   11  C19 UNL     1       3.160  50.525 -13.028  1.00  0.00     0.023 C 
HETATM   12  C20 UNL     1       2.160  48.459 -13.995  1.00  0.00     0.135 C 
HETATM   13  O4  UNL     1       3.087  47.818 -13.497  1.00  0.00    -0.297 OA
HETATM   14  C21 UNL     1       1.310  47.814 -15.060  1.00  0.00     0.080 C 
HETATM   15  C22 UNL     1      -0.022  48.516 -15.205  1.00  0.00     0.018 C 
HETATM   16  C23 UNL     1       0.197  49.960 -15.598  1.00  0.00    -0.026 A 
HETATM   17  C24 UNL     1      -1.021  50.745 -16.036  1.00  0.00     0.021 A 
HETATM   18  C25 UNL     1      -0.002  50.355 -17.086  1.00  0.00    -0.028 A 
HETATM   19  C26 UNL     1      -0.477  49.331 -18.117  1.00  0.00     0.011 C 
HETATM   20  C27 UNL     1      -0.308  49.809 -19.564  1.00  0.00     0.011 C 
HETATM   21  C28 UNL     1      -0.654  51.301 -19.780  1.00  0.00    -0.036 C 
HETATM   22  C29 UNL     1      -2.180  51.495 -19.650  1.00  0.00     0.016 C 
ENDROOT
BRANCH   1  23
HETATM   23  C2  UNL     1      -0.897  51.416 -22.425  1.00  0.00    -0.014 C 
HETATM   24  C1  UNL     1      -2.379  51.795 -22.375  1.00  0.00     0.010 C 
BRANCH  23  25
HETATM   25  C3  UNL     1      -0.210  51.923 -23.722  1.00  0.00     0.008 C 
BRANCH  25  26
HETATM   26  C4  UNL     1      -0.581  51.235 -25.045  1.00  0.00     0.028 C 
BRANCH  26  27
HETATM   27  C5  UNL     1       0.565  51.159 -26.017  1.00  0.00    -0.011 C 
HETATM   28  C6  UNL     1       0.894  52.020 -27.002  1.00  0.00     0.035 C 
BRANCH  28  29
HETATM   29  C7  UNL     1       2.082  51.795 -27.895  1.00  0.00     0.209 C 
BRANCH  29  30
HETATM   30  O1  UNL     1       3.214  51.407 -27.125  1.00  0.00    -0.396 OA
HETATM   31  H12 UNL     1       2.924  50.638 -26.595  1.00  0.00     0.209 HD
ENDBRANCH  29  30
ENDBRANCH  28  29
BRANCH  28  32
HETATM   32  C8  UNL     1       0.142  53.271 -27.232  1.00  0.00     0.173 C 
HETATM   33  O2  UNL     1       0.137  54.271 -26.540  1.00  0.00    -0.646 OA
BRANCH  32  34
HETATM   34  O3  UNL     1      -0.589  53.198 -28.362  1.00  0.00    -0.773 OA
HETATM   35  H13 UNL     1      -1.047  54.066 -28.388  1.00  0.00     0.167 HD
ENDBRANCH  32  34
ENDBRANCH  28  32
ENDBRANCH  26  27
ENDBRANCH  25  26
ENDBRANCH  23  25
ENDBRANCH   1  23
TORSDOF 8
ENDMDL
