MODEL 1
REMARK minimizedAffinity -6.93288136
REMARK CNNscore 0.79456687
REMARK CNNaffinity 6.56026506
REMARK  4 active torsions:
REMARK  status: ('A' for Active; 'I' for Inactive)
REMARK    1  A    between atoms: C7_11  and  O3_12 
REMARK    2  A    between atoms: C10_16  and  C11_17 
REMARK    3  A    between atoms: C21_28  and  C22_29 
REMARK    4  A    between atoms: C28_37  and  O8_38 
ROOT
HETATM    1  C1  UNL     1     -11.475  19.598   3.606  1.00  0.00     0.040 C 
HETATM    2  C2  UNL     1     -11.758  18.711   2.400  1.00  0.00     0.124 C 
HETATM    3  C3  UNL     1     -12.024  17.238   2.732  1.00  0.00     0.081 C 
HETATM    4  C4  UNL     1     -10.758  16.393   2.883  1.00  0.00     0.162 C 
HETATM    5  N1  UNL     1     -10.116  16.609   4.186  1.00  0.00    -0.336 N 
HETATM    6  C5  UNL     1      -9.527  15.503   4.765  1.00  0.00     0.229 C 
HETATM    7  O1  UNL     1      -8.677  15.599   5.637  1.00  0.00    -0.273 OA
HETATM    8  C6  UNL     1     -10.026  14.193   4.208  1.00  0.00     0.198 C 
HETATM    9  S1  UNL     1     -11.227  14.645   3.004  1.00  0.00    -0.021 S 
HETATM   10  O2  UNL     1     -11.089  13.867   1.799  1.00  0.00    -0.270 OA
HETATM   11  C7  UNL     1      -9.785  16.627   1.676  1.00  0.00     0.251 C 
HETATM   12  O4  UNL     1      -8.567  15.891   1.913  1.00  0.00    -0.340 OA
HETATM   13  C8  UNL     1      -7.401  16.718   1.778  1.00  0.00     0.156 C 
HETATM   14  C9  UNL     1      -6.149  15.908   2.134  1.00  0.00     0.056 C 
HETATM   15  C10 UNL     1      -4.839  16.735   2.006  1.00  0.00     0.043 C 
HETATM   16  C12 UNL     1      -4.996  18.123   2.650  1.00  0.00    -0.065 C 
HETATM   17  C13 UNL     1      -4.007  18.704   3.350  1.00  0.00    -0.022 C 
HETATM   18  C14 UNL     1      -2.658  18.107   3.587  1.00  0.00     0.035 C 
HETATM   19  C15 UNL     1      -2.371  16.821   2.777  1.00  0.00     0.030 C 
HETATM   20  C16 UNL     1      -3.649  15.946   2.690  1.00  0.00     0.012 C 
HETATM   21  C17 UNL     1      -3.367  14.565   2.062  1.00  0.00     0.007 C 
HETATM   22  C18 UNL     1      -2.188  13.854   2.719  1.00  0.00     0.013 C 
HETATM   23  C19 UNL     1      -0.875  14.687   2.685  1.00  0.00    -0.005 C 
HETATM   24  C20 UNL     1      -0.372  14.778   1.230  1.00  0.00     0.019 C 
HETATM   25  C21 UNL     1       0.162  14.018   3.656  1.00  0.00     0.028 C 
HETATM   26  C26 UNL     1      -0.257  14.542   5.049  1.00  0.00     0.013 C 
HETATM   27  C27 UNL     1      -1.135  15.781   4.832  1.00  0.00     0.040 C 
HETATM   28  C28 UNL     1      -1.115  16.083   3.323  1.00  0.00     0.070 C 
HETATM   29  C29 UNL     1      -6.308  18.862   2.469  1.00  0.00     0.069 C 
HETATM   30  C30 UNL     1      -7.506  17.948   2.702  1.00  0.00     0.158 C 
HETATM   31  O9  UNL     1      -8.733  18.688   2.557  1.00  0.00    -0.347 OA
HETATM   32  C31 UNL     1      -9.557  18.172   1.518  1.00  0.00     0.326 C 
HETATM   33  O10 UNL     1     -10.784  18.882   1.378  1.00  0.00    -0.351 OA
HETATM   34  H7  UNL     1      -9.686  17.500   4.426  1.00  0.00     0.164 HD
HETATM   35  H10 UNL     1     -12.474  14.516   3.509  1.00  0.00     0.128 HD
ENDROOT
BRANCH  11  36
HETATM   36  O3  UNL     1     -10.384  16.112   0.482  1.00  0.00    -0.359 OA
HETATM   37  H11 UNL     1     -10.014  16.597  -0.278  1.00  0.00     0.213 HD
ENDBRANCH  11  36
BRANCH  15  38
HETATM   38  C11 UNL     1      -4.586  16.935   0.494  1.00  0.00     0.245 C 
HETATM   39  O5  UNL     1      -4.561  16.023  -0.339  1.00  0.00    -0.306 OA
ENDBRANCH  15  38
BRANCH  28  40
HETATM   40  O8  UNL     1       0.022  16.915   3.064  1.00  0.00    -0.389 OA
HETATM   41  H36 UNL     1      -0.044  17.731   3.590  1.00  0.00     0.210 HD
ENDBRANCH  28  40
BRANCH  25  42
HETATM   42  C22 UNL     1       1.631  14.220   3.369  1.00  0.00    -0.045 A 
HETATM   43  C23 UNL     1       2.387  13.698   2.399  1.00  0.00     0.087 A 
HETATM   44  C24 UNL     1       3.741  14.224   2.567  1.00  0.00     0.283 A 
HETATM   45  O6  UNL     1       4.693  13.932   1.869  1.00  0.00    -0.260 OA
HETATM   46  O7  UNL     1       3.757  15.080   3.625  1.00  0.00    -0.314 OA
HETATM   47  C25 UNL     1       2.449  15.154   4.185  1.00  0.00     0.213 A 
ENDBRANCH  25  42
TORSDOF 4
ENDMDL
