MODEL 1
REMARK minimizedAffinity -9.21370411
REMARK CNNscore 0.857699275
REMARK CNNaffinity 7.51750183
REMARK  10 active torsions:
REMARK  status: ('A' for Active; 'I' for Inactive)
REMARK    1  A    between atoms: O1_2  and  C2_3 
REMARK    2  A    between atoms: C2_3  and  C3_4 
REMARK    3  A    between atoms: C2_3  and  C26_35 
REMARK    4  A    between atoms: C3_4  and  C4_5 
REMARK    5  A    between atoms: C4_5  and  C5_6 
REMARK    6  A    between atoms: C5_6  and  C7_8 
REMARK    7  A    between atoms: C13_17  and  C14_18 
REMARK    8  A    between atoms: C14_18  and  O5_19 
REMARK    9  A    between atoms: C17_24  and  O8_25 
REMARK   10  A    between atoms: C30_39  and  O10_40 
ROOT
HETATM    1  C7  UNL     1       0.891  51.851 -14.334  1.00  0.00     0.135 C 
HETATM    2  O2  UNL     1      -0.434  51.550 -13.888  1.00  0.00    -0.348 OA
HETATM    3  C8  UNL     1      -0.633  51.510 -12.458  1.00  0.00     0.177 C 
HETATM    4  C9  UNL     1       0.332  50.471 -11.854  1.00  0.00     0.102 C 
HETATM    5  C10 UNL     1       1.779  50.639 -12.335  1.00  0.00     0.143 C 
HETATM    6  O3  UNL     1       2.341  51.852 -11.793  1.00  0.00    -0.315 OA
HETATM    7  C11 UNL     1       3.209  51.753 -10.755  1.00  0.00     0.261 C 
HETATM    8  O4  UNL     1       3.575  50.717 -10.217  1.00  0.00    -0.265 OA
HETATM    9  C12 UNL     1       3.655  53.124 -10.324  1.00  0.00     0.145 C 
HETATM   10  C13 UNL     1       2.786  53.661  -9.191  1.00  0.00     0.164 C 
HETATM   11  O6  UNL     1       1.398  53.740  -9.596  1.00  0.00    -0.313 OA
HETATM   12  C15 UNL     1       1.031  54.793 -10.377  1.00  0.00     0.264 C 
HETATM   13  O7  UNL     1       1.788  55.694 -10.726  1.00  0.00    -0.265 OA
HETATM   14  C16 UNL     1      -0.455  54.790 -10.658  1.00  0.00     0.179 C 
HETATM   15  C17 UNL     1      -1.042  53.392 -10.939  1.00  0.00     0.177 C 
HETATM   16  O9  UNL     1      -0.284  52.813 -11.979  1.00  0.00    -0.318 OA
HETATM   17  C18 UNL     1      -2.522  53.543 -11.386  1.00  0.00     0.045 C 
HETATM   18  C19 UNL     1      -3.496  53.715 -10.214  1.00  0.00     0.015 C 
HETATM   19  C20 UNL     1      -2.991  52.424 -12.337  1.00  0.00     0.024 C 
HETATM   20  C21 UNL     1      -2.162  51.128 -12.270  1.00  0.00     0.010 C 
HETATM   21  C22 UNL     1      -2.654  50.202 -13.422  1.00  0.00     0.020 C 
HETATM   22  C23 UNL     1      -2.500  50.340 -10.984  1.00  0.00     0.020 C 
HETATM   23  C24 UNL     1       1.831  50.724 -13.871  1.00  0.00     0.041 C 
HETATM   24  C25 UNL     1       3.268  50.910 -14.358  1.00  0.00     0.015 C 
ENDROOT
BRANCH   1  25
HETATM   25  C5  UNL     1       0.826  52.080 -15.872  1.00  0.00     0.011 C 
HETATM   26  C6  UNL     1       2.222  52.191 -16.503  1.00  0.00     0.012 C 
BRANCH  25  27
HETATM   27  C4  UNL     1       0.015  50.931 -16.528  1.00  0.00     0.009 C 
BRANCH  27  28
HETATM   28  C3  UNL     1      -0.054  50.939 -18.065  1.00  0.00     0.037 C 
BRANCH  28  29
HETATM   29  C2  UNL     1      -0.701  52.208 -18.654  1.00  0.00     0.153 C 
BRANCH  29  30
HETATM   30  O1  UNL     1      -2.118  51.995 -18.729  1.00  0.00    -0.386 OA
HETATM   31  C1  UNL     1      -2.577  51.014 -17.809  1.00  0.00     0.202 C 
ENDBRANCH  29  30
BRANCH  29  32
HETATM   32  C26 UNL     1      -0.199  52.543 -20.049  1.00  0.00    -0.027 A 
HETATM   33  C27 UNL     1      -0.652  51.860 -21.191  1.00  0.00     0.010 A 
HETATM   34  C28 UNL     1      -0.165  52.186 -22.461  1.00  0.00     0.003 A 
HETATM   35  C29 UNL     1       0.769  53.209 -22.610  1.00  0.00     0.036 A 
HETATM   36  C30 UNL     1       1.200  53.908 -21.491  1.00  0.00     0.066 A 
HETATM   37  C31 UNL     1       0.729  53.587 -20.217  1.00  0.00     0.046 A 
BRANCH  36  38
HETATM   38  O10 UNL     1       2.101  54.916 -21.679  1.00  0.00    -0.361 OA
HETATM   39  H45 UNL     1       2.228  55.376 -20.834  1.00  0.00     0.217 HD
ENDBRANCH  36  38
ENDBRANCH  29  32
ENDBRANCH  28  29
ENDBRANCH  27  28
ENDBRANCH  25  27
ENDBRANCH   1  25
BRANCH  15  40
HETATM   40  O8  UNL     1      -0.976  52.608  -9.760  1.00  0.00    -0.364 OA
HETATM   41  H25 UNL     1      -0.114  52.782  -9.330  1.00  0.00     0.213 HD
ENDBRANCH  15  40
BRANCH  10  42
HETATM   42  C14 UNL     1       2.843  52.779  -7.934  1.00  0.00     0.197 C 
BRANCH  42  43
HETATM   43  O5  UNL     1       1.671  51.962  -7.851  1.00  0.00    -0.398 OA
HETATM   44  H22 UNL     1       0.918  52.542  -7.639  1.00  0.00     0.209 HD
ENDBRANCH  42  43
ENDBRANCH  10  42
TORSDOF 10
ENDMDL
