MODEL 1
REMARK minimizedAffinity -9.05630302
REMARK  11 active torsions:
REMARK  status: ('A' for Active; 'I' for Inactive)
REMARK    1  A    between atoms: C2_2  and  C3_3 
REMARK    2  A    between atoms: C2_2  and  C4_5 
REMARK    3  A    between atoms: C3_3  and  O1_4 
REMARK    4  A    between atoms: C13_14  and  C14_15 
REMARK    5  A    between atoms: C14_15  and  C16_17 
REMARK    6  A    between atoms: C16_17  and  C17_18 
REMARK    7  A    between atoms: C17_18  and  C18_20 
REMARK    8  A    between atoms: C27_29  and  C28_30 
REMARK    9  A    between atoms: C28_30  and  C29_31 
REMARK   10  A    between atoms: C29_31  and  C30_32 
REMARK   11  A    between atoms: C30_32  and  O4_34 
ROOT
HETATM    1  C4  UNL     1      -4.013   3.862  12.572  1.00  0.00     0.025 C 
HETATM    2  C5  UNL     1      -4.148   5.308  13.079  1.00  0.00     0.010 C 
HETATM    3  C6  UNL     1      -2.821   5.806  13.642  1.00  0.00     0.007 C 
HETATM    4  C7  UNL     1      -1.804   5.994  12.510  1.00  0.00     0.004 C 
HETATM    5  C8  UNL     1      -1.615   4.696  11.682  1.00  0.00    -0.027 A 
HETATM    6  C9  UNL     1      -0.174   4.204  11.461  1.00  0.00     0.011 C 
HETATM    7  C10 UNL     1       0.952   5.254  11.386  1.00  0.00     0.011 C 
HETATM    8  C11 UNL     1       0.514   6.677  11.742  1.00  0.00    -0.032 C 
HETATM    9  C12 UNL     1      -0.116   7.300  10.464  1.00  0.00     0.016 C 
HETATM   10  C13 UNL     1       1.648   7.602  12.286  1.00  0.00    -0.002 C 
HETATM   11  C22 UNL     1       0.887   8.655  13.129  1.00  0.00     0.006 C 
HETATM   12  C23 UNL     1      -0.525   8.090  13.383  1.00  0.00     0.011 C 
HETATM   13  C24 UNL     1      -0.456   6.606  12.971  1.00  0.00    -0.032 C 
HETATM   14  C25 UNL     1       0.100   5.827  14.203  1.00  0.00     0.016 C 
HETATM   15  C26 UNL     1      -2.550   4.566  10.492  1.00  0.00     0.022 A 
HETATM   16  C27 UNL     1      -2.773   3.643  11.666  1.00  0.00    -0.024 A 
ENDROOT
BRANCH  10  17
HETATM   17  C14 UNL     1       2.705   8.148  11.284  1.00  0.00    -0.007 C 
HETATM   18  C15 UNL     1       2.032   8.407   9.922  1.00  0.00     0.011 C 
BRANCH  17  19
HETATM   19  C16 UNL     1       3.932   7.242  11.049  1.00  0.00     0.087 C 
BRANCH  19  20
HETATM   20  C17 UNL     1       3.828   6.448   9.753  1.00  0.00     0.149 C 
HETATM   21  O2  UNL     1       4.408   5.375   9.605  1.00  0.00    -0.293 OA
BRANCH  20  22
HETATM   22  C18 UNL     1       2.957   7.032   8.684  1.00  0.00     0.052 C 
HETATM   23  C19 UNL     1       2.589   6.420   7.541  1.00  0.00    -0.084 C 
HETATM   24  C20 UNL     1       2.966   5.012   7.167  1.00  0.00     0.043 C 
HETATM   25  C21 UNL     1       1.739   7.138   6.527  1.00  0.00     0.043 C 
ENDBRANCH  20  22
ENDBRANCH  19  20
ENDBRANCH  17  19
ENDBRANCH  10  17
BRANCH  16  26
HETATM   26  C28 UNL     1      -2.459   2.161  11.411  1.00  0.00     0.021 C 
BRANCH  26  27
HETATM   27  C29 UNL     1      -0.977   1.816  11.556  1.00  0.00     0.111 C 
BRANCH  27  28
HETATM   28  C30 UNL     1      -0.554   0.787  10.544  1.00  0.00     0.139 C 
HETATM   29  O3  UNL     1      -0.837   0.746   9.360  1.00  0.00    -0.650 OA
BRANCH  28  30
HETATM   30  O4  UNL     1       0.205  -0.179  11.101  1.00  0.00    -0.776 OA
HETATM   31  H46 UNL     1       0.401  -0.788  10.357  1.00  0.00     0.167 HD
ENDBRANCH  28  30
ENDBRANCH  27  28
ENDBRANCH  26  27
ENDBRANCH  16  26
BRANCH   1  32
HETATM   32  C2  UNL     1      -5.367   3.373  12.039  1.00  0.00    -0.061 C 
HETATM   33  C1  UNL     1      -6.427   3.113  12.828  1.00  0.00     0.017 C 
BRANCH  32  34
HETATM   34  C3  UNL     1      -5.413   3.199  10.533  1.00  0.00     0.198 C 
BRANCH  34  35
HETATM   35  O1  UNL     1      -5.819   1.892  10.155  1.00  0.00    -0.397 OA
HETATM   36  H5  UNL     1      -6.702   1.758  10.540  1.00  0.00     0.209 HD
ENDBRANCH  34  35
ENDBRANCH  32  34
ENDBRANCH   1  32
TORSDOF 11
ENDMDL
