MODEL 1
REMARK minimizedAffinity -9.58317661
REMARK  8 active torsions:
REMARK  status: ('A' for Active; 'I' for Inactive)
REMARK    1  A    between atoms: C2_2  and  C3_3 
REMARK    2  A    between atoms: C2_2  and  C9_11 
REMARK    3  A    between atoms: C3_3  and  C4_4 
REMARK    4  A    between atoms: C4_4  and  C5_5 
REMARK    5  A    between atoms: C5_5  and  O1_6 
REMARK    6  A    between atoms: C5_5  and  C6_7 
REMARK    7  A    between atoms: C6_7  and  O2_10 
REMARK    8  A    between atoms: C30_34  and  O5_35 
ROOT
HETATM    1  C9  UNL     1      -1.453  49.394 -18.144  1.00  0.00    -0.001 C 
HETATM    2  C10 UNL     1      -2.650  48.417 -18.303  1.00  0.00     0.007 C 
HETATM    3  C11 UNL     1      -3.051  48.398 -19.789  1.00  0.00     0.015 C 
HETATM    4  C12 UNL     1      -1.896  49.100 -20.522  1.00  0.00    -0.009 C 
HETATM    5  C13 UNL     1      -0.783  48.032 -20.763  1.00  0.00     0.021 C 
HETATM    6  C14 UNL     1      -2.172  49.765 -21.873  1.00  0.00    -0.032 C 
HETATM    7  C15 UNL     1      -1.376  50.784 -22.305  1.00  0.00     0.002 C 
HETATM    8  C16 UNL     1      -0.188  51.138 -21.446  1.00  0.00     0.157 C 
HETATM    9  O3  UNL     1       0.837  51.597 -21.946  1.00  0.00    -0.293 OA
HETATM   10  C17 UNL     1      -0.219  50.871 -19.942  1.00  0.00     0.094 C 
HETATM   11  C18 UNL     1      -1.523  50.216 -19.475  1.00  0.00    -0.022 C 
HETATM   12  C19 UNL     1      -2.614  51.326 -19.337  1.00  0.00     0.017 C 
HETATM   13  C20 UNL     1      -1.683  51.540 -23.618  1.00  0.00    -0.008 C 
HETATM   14  C21 UNL     1      -2.753  52.594 -23.213  1.00  0.00     0.021 C 
HETATM   15  C22 UNL     1      -0.549  52.349 -24.312  1.00  0.00     0.022 C 
HETATM   16  C23 UNL     1       0.227  51.535 -25.332  1.00  0.00     0.080 C 
HETATM   17  C24 UNL     1      -0.703  51.198 -26.482  1.00  0.00     0.135 C 
HETATM   18  O4  UNL     1      -0.301  51.247 -27.644  1.00  0.00    -0.297 OA
HETATM   19  C25 UNL     1      -2.151  50.788 -26.134  1.00  0.00     0.018 C 
HETATM   20  C26 UNL     1      -3.095  51.920 -26.554  1.00  0.00     0.023 C 
HETATM   21  C27 UNL     1      -2.485  49.544 -26.988  1.00  0.00     0.023 C 
HETATM   22  C28 UNL     1      -2.202  50.430 -24.614  1.00  0.00     0.016 C 
HETATM   23  C29 UNL     1      -3.529  49.850 -24.096  1.00  0.00     0.043 C 
HETATM   24  C30 UNL     1      -3.349  49.250 -22.688  1.00  0.00     0.149 C 
ENDROOT
BRANCH   1  25
HETATM   25  C2  UNL     1      -1.441  50.138 -16.771  1.00  0.00    -0.014 C 
HETATM   26  C1  UNL     1      -2.812  50.759 -16.456  1.00  0.00     0.010 C 
BRANCH  25  27
HETATM   27  C3  UNL     1      -0.396  51.291 -16.705  1.00  0.00     0.007 C 
BRANCH  27  28
HETATM   28  C4  UNL     1       1.046  50.856 -16.394  1.00  0.00     0.035 C 
BRANCH  28  29
HETATM   29  C5  UNL     1       1.781  51.879 -15.506  1.00  0.00     0.151 C 
BRANCH  29  30
HETATM   30  O1  UNL     1       1.439  53.188 -15.987  1.00  0.00    -0.393 OA
HETATM   31  H10 UNL     1       0.602  53.425 -15.538  1.00  0.00     0.210 HD
ENDBRANCH  29  30
BRANCH  29  32
HETATM   32  C6  UNL     1       1.419  51.795 -13.994  1.00  0.00     0.076 C 
HETATM   33  C7  UNL     1       0.738  50.477 -13.613  1.00  0.00     0.048 C 
HETATM   34  C8  UNL     1       2.672  51.984 -13.130  1.00  0.00     0.048 C 
BRANCH  32  35
HETATM   35  O2  UNL     1       0.540  52.889 -13.674  1.00  0.00    -0.388 OA
HETATM   36  H17 UNL     1      -0.355  52.660 -13.980  1.00  0.00     0.210 HD
ENDBRANCH  32  35
ENDBRANCH  29  32
ENDBRANCH  28  29
ENDBRANCH  27  28
ENDBRANCH  25  27
ENDBRANCH   1  25
BRANCH  24  37
HETATM   37  O5  UNL     1      -3.193  47.841 -22.845  1.00  0.00    -0.391 OA
HETATM   38  H48 UNL     1      -2.382  47.689 -23.360  1.00  0.00     0.210 HD
ENDBRANCH  24  37
TORSDOF 8
ENDMDL
